data_PCOD8000118
_publ_section_title
;
Structure prediction by ZEFSAII (Michael W. Deem and Ramdas Pophale) SiO2 
 PCOD8000118
Probable space group: P 1
;
_chemical_formula_sum "Si O2"
_cell_formula_units_Z 6
_cell_length_a 7.259710
_cell_length_b 5.078974
_cell_length_c 8.633686
_cell_angle_alpha 72.891566
_cell_angle_beta 85.051872
_cell_angle_gamma 69.527859
_cell_volume 284.988433
_symmetry_space_group_name_H-M "P 1"
_symmetry_group_IT_number 1
_symmetry_cell_setting 'triclinic'
loop_
_space_group_symop_operation_xyz
x,y,z
loop_
_atom_site_type_symbol
_atom_site_label
_atom_site_fract_x
_atom_site_fract_y
_atom_site_fract_z
Si Si1 0.293150 0.754990 0.042620
Si Si2 0.660303 0.458730 0.267573
Si Si3 0.042857 0.365881 0.071547
Si Si4 0.972883 0.586164 0.700503
Si Si5 0.223182 0.975779 0.671573
Si Si6 0.605742 0.882006 0.475546
O O1 0.505644 0.655130 0.121882
O O2 0.210551 0.488117 0.096182
O O3 0.140988 0.018959 0.103396
O O4 0.320271 0.856442 0.850237
O O5 0.622944 0.608966 0.411497
O O6 0.877248 0.429839 0.202372
O O7 0.643111 0.138825 0.331628
O O8 0.945747 0.522134 0.892888
O O9 0.125002 0.758834 0.639808
O O10 0.760383 0.778044 0.621248
O O11 0.055540 0.290387 0.646836
O O12 0.388796 0.004829 0.540739
#
# Coordination Sequence:
#
# PCOD8000118 Si02
#       6
#     1   1   1   1   1   1
#     4  10  22  41  63  85 114 155 199 240 283 340
#     4  12  25  38  59  90 122 154 188 238 297 348
#     4  10  22  41  63  85 114 155 199 240 283 340
#     4  10  22  41  63  85 114 155 199 240 283 340
#     4  10  22  41  63  85 114 155 199 240 283 340
#     4  12  25  38  59  90 122 154 188 238 297 348
#
# _framework density 21.053484000000001
#
# number of rings (size 3 to 8) (size 9 to 14) (size 15 to 20)
#    0.000    1.333    0.000    5.000    0.000    8.000 
#    0.000   13.333    0.000    0.000    0.000    0.000 
#    0.000    0.000    0.000    0.000    0.000    0.000 
#
# Total GULP energy -74452.272769 kJ/mol
# GULP energy per Si atom -12408.712128 kJ/mol
# Density = 2.100557 g / cm^3
# Si number density = 21.053484 Si / 1000 Ang^3
#
#
#
# Elastic Constant Matrix: (Units=GPa)
#
#
# Indices 1 2 3 4 5 6 
#
# 1 57.2629 11.8574 20.6584 2.2331 -12.4423 -3.7198
# 2 11.8574 79.4474 20.2635 0.4557 1.2509 13.1155
# 3 20.6584 20.2635 45.4642 6.4211 -9.3590 0.6989
# 4 2.2331 0.4557 6.4211 32.8992 -3.9758 -1.0648
# 5 -12.4423 1.2509 -9.3590 -3.9758 46.7735 1.5088
# 6 -3.7198 13.1155 0.6989 -1.0648 1.5088 21.8119
#
#
#
# Elastic Compliance Matrix: (Units=1/GPa)
#
#
# Indices 1 2 3 4 5 6 
#
# 1 0.022147 -0.002039 -0.008496 0.000848 0.004156 0.005029
# 2 -0.002039 0.016217 -0.006644 0.000662 -0.001936 -0.009720
# 3 -0.008496 -0.006644 0.030198 -0.004764 0.003519 0.001102
# 4 0.000848 0.000662 -0.004764 0.031530 0.001893 0.001307
# 5 0.004156 -0.001936 0.003519 0.001893 0.023394 0.000234
# 6 0.005029 -0.009720 0.001102 0.001307 0.000234 0.052561
#
#
# Mechanical properties :
#
#
# Convention : Reuss Voigt Hill
#
# Bulk Modulus (GPa) = 29.23693 31.97035 30.60364
# Shear Modulus (GPa) = 22.54206 28.92327 25.73267
#
# Velocity S-wave (km/s) = 3.27571 3.71050 3.49987
# Velocity P-wave (km/s) = 5.31264 5.79443 5.55876
#
# Compressibility (1/GPa) = 0.03420332
#
# Stress axis : x y z
#
# Youngs Moduli (GPa) = 45.15221 61.66298 33.11514
#
# Poissons Ratio (x) = 0.12573 0.28136
# Poissons Ratio (y) = 0.09206 0.22002
# Poissons Ratio (z) = 0.38363 0.40970
#
# Static dielectric constant tensor:
#      x y z
#    x 3.663720 0.100570 0.112210 
#    y 0.100570 3.972440 -0.015320 
#    z 0.112210 -0.015320 3.757360 
# 
# 
# High freq. dielectric constant tensor:
#      x y z
#    x 1.828950 0.003230 0.004690 
#    y 0.003230 1.839170 -0.000410 
#    z 0.004690 -0.000410 1.827110 
# 
# From -- ./inp_files/49.got.cif
#   From: 2010.03.12/outbox.cif.g09.slc.cpg/sg1_1_cif.got.tgz:49.got - 2010.03.29 11:57:58.
