data_PCOD8000459
_publ_section_title
;
Structure prediction by ZEFSAII (Michael W. Deem and Ramdas Pophale) SiO2 
 PCOD8000459
Probable space group: P -1
;
_chemical_formula_sum "Si O2"
_cell_formula_units_Z 16
_cell_length_a 12.015681
_cell_length_b 11.420388
_cell_length_c 12.877753
_cell_angle_alpha 144.126896
_cell_angle_beta 51.818957
_cell_angle_gamma 108.773588
_cell_volume 749.962756
_symmetry_space_group_name_H-M "P -1"
_symmetry_group_IT_number 2
_symmetry_cell_setting 'triclinic'
loop_
_space_group_symop_operation_xyz
x,y,z
-x,-y,-z
loop_
_atom_site_type_symbol
_atom_site_label
_atom_site_fract_x
_atom_site_fract_y
_atom_site_fract_z
Si Si1 0.816740 0.310297 0.842842
Si Si2 0.665729 0.693121 0.346811
Si Si3 0.319923 0.507411 0.229113
Si Si4 0.535069 0.560563 0.686233
Si Si5 0.797151 0.456265 0.300000
Si Si6 0.400768 0.809317 0.264067
Si Si7 0.200481 0.893721 0.093548
Si Si8 0.999529 0.357464 0.582620
O O1 0.686611 0.238099 0.817797
O O2 0.884382 0.161643 0.798169
O O3 0.949523 0.278531 0.661459
O O4 0.742305 0.560996 0.103439
O O5 0.514706 0.644133 0.424462
O O6 0.778978 0.612198 0.322735
O O7 0.628255 0.941912 0.525146
O O8 0.363756 0.435532 0.269754
O O9 0.347448 0.725974 0.340463
O O10 0.141894 0.543884 0.343943
O O11 0.418261 0.322407 0.957216
O O12 0.634296 0.538053 0.510465
O O13 0.384637 0.785603 0.927943
O O14 0.931062 0.463621 0.302996
O O15 0.842794 0.208976 0.058155
O O16 0.136112 0.152148 0.303758
#
# Coordination Sequence:
#
# PCOD8000459 Si02
#       8
#     2   2   2   2   2   2   2   2
#     4   9  19  37  59  93 122 146 198 257 295 354
#     4  10  20  37  68  93 110 159 204 249 301 344
#     4  10  22  40  60  89 127 155 196 251 294 359
#     4  10  21  44  62  87 122 157 207 252 277 354
#     4  10  23  40  61  89 125 153 207 249 285 353
#     4  10  19  39  62  90 122 154 200 246 302 354
#     4  10  20  39  63  87 117 157 203 251 297 347
#     4  11  23  37  59  90 123 163 189 242 315 353
#
# _framework density 21.334392999999999
#
# number of rings (size 3 to 8) (size 9 to 14) (size 15 to 20)
#    0.000    2.250    2.500    2.625    0.000    6.500 
#    4.500    0.625    0.000    0.000    0.000    0.000 
#    0.000    0.000    0.000    0.000    0.000    0.000 
#
# Total GULP energy -198346.367591 kJ/mol
# GULP energy per Si atom -12396.647974 kJ/mol
# Density = 2.128584 g / cm^3
# Si number density = 21.334393 Si / 1000 Ang^3
#
#
#
# Elastic Constant Matrix: (Units=GPa)
#
#
# Indices 1 2 3 4 5 6 
#
# 1 138.0862 23.8993 62.6098 12.3913 -2.3933 14.6069
# 2 23.8993 25.4163 34.0344 3.1912 0.4787 5.5957
# 3 62.6098 34.0344 116.8997 12.9137 7.2691 8.6609
# 4 12.3913 3.1912 12.9137 27.4955 1.2553 1.2091
# 5 -2.3933 0.4787 7.2691 1.2553 22.6135 -4.8588
# 6 14.6069 5.5957 8.6609 1.2091 -4.8588 20.5269
#
#
#
# Elastic Compliance Matrix: (Units=1/GPa)
#
#
# Indices 1 2 3 4 5 6 
#
# 1 0.010344 -0.002839 -0.004261 -0.002223 0.001735 -0.004247
# 2 -0.002839 0.067500 -0.017866 0.002114 0.002075 -0.008476
# 3 -0.004261 -0.017866 0.016787 -0.003638 -0.005315 -0.000224
# 4 -0.002223 0.002114 -0.003638 0.038896 -0.001281 -0.000054
# 5 0.001735 0.002075 -0.005315 -0.001281 0.048730 0.012052
# 6 -0.004247 -0.008476 -0.000224 -0.000054 0.012052 0.057000
#
#
# Mechanical properties :
#
#
# Convention : Reuss Voigt Hill
#
# Bulk Modulus (GPa) = 22.37222 57.94325 40.15773
# Shear Modulus (GPa) = 16.44252 24.78445 20.61349
#
# Velocity S-wave (km/s) = 2.77917 3.41209 3.11176
# Velocity P-wave (km/s) = 4.56153 6.53771 5.63690
#
# Compressibility (1/GPa) = 0.04469830
#
# Stress axis : x y z
#
# Youngs Moduli (GPa) = 96.67250 14.81483 59.56927
#
# Poissons Ratio (x) = 0.04206 0.25384
# Poissons Ratio (y) = 0.27446 1.06427
# Poissons Ratio (z) = 0.41195 0.26468
#
# Static dielectric constant tensor:
#      x y z
#    x 3.868060 -0.010840 0.124950 
#    y -0.010840 3.516730 -0.123610 
#    z 0.124950 -0.123610 3.817180 
# 
# 
# High freq. dielectric constant tensor:
#      x y z
#    x 1.837330 0.001000 0.009650 
#    y 0.001000 1.807880 -0.011180 
#    z 0.009650 -0.011180 1.833470 
# 
# From -- ./inp_files/522596.got.cif
#   From: 2010.06.25/outbox.cif.g09.slc.cpg/sg2_262_cif.got.tgz:522596.got - 2010.06.27 13:26:56.
