data_PCOD8000368
_publ_section_title
;
Structure prediction by ZEFSAII (Michael W. Deem and Ramdas Pophale) SiO2 
 PCOD8000368
Probable space group: P -1
;
_chemical_formula_sum "Si O2"
_cell_formula_units_Z 14
_cell_length_a 11.880783
_cell_length_b 12.218003
_cell_length_c 8.627076
_cell_angle_alpha 128.515233
_cell_angle_beta 61.200069
_cell_angle_gamma 142.033348
_cell_volume 602.699220
_symmetry_space_group_name_H-M "P -1"
_symmetry_group_IT_number 2
_symmetry_cell_setting 'triclinic'
loop_
_space_group_symop_operation_xyz
x,y,z
-x,-y,-z
loop_
_atom_site_type_symbol
_atom_site_label
_atom_site_fract_x
_atom_site_fract_y
_atom_site_fract_z
Si Si1 0.671127 0.311443 0.139097
Si Si2 0.822594 0.348720 0.382807
Si Si3 0.031616 0.059222 0.271233
Si Si4 0.787082 0.996840 0.126927
Si Si5 0.521486 0.859024 0.412250
Si Si6 0.106400 0.262356 0.710046
Si Si7 0.302900 0.967910 0.242253
O O1 0.823391 0.409515 0.261494
O O2 0.741806 0.499207 0.158396
O O3 0.463266 0.169047 0.213243
O O4 0.669929 0.177891 0.909262
O O5 0.777963 0.150654 0.215217
O O6 0.675055 0.332162 0.556047
O O7 0.000000 0.500000 0.500000
O O8 0.869327 0.837927 0.261896
O O9 0.951417 0.101775 0.233601
O O10 0.133367 0.221820 0.483815
O O11 0.187395 0.084340 0.107554
O O12 0.591965 0.817382 0.185638
O O13 0.678689 0.970785 0.537990
O O14 0.500000 0.000000 0.500000
O O15 0.899107 0.151005 0.783810
#
# Coordination Sequence:
#
# PCOD8000368 Si02
#       7
#     2   2   2   2   2   2   2
#     4  10  22  37  64  98 123 157 203 265 325 365
#     4  10  20  35  64  96 121 153 203 268 318 366
#     4  10  22  36  63  86 123 175 210 242 295 376
#     4  10  19  39  60  85 123 166 205 248 306 371
#     4   9  19  35  60  89 118 159 194 256 323 353
#     4  11  21  40  63  90 122 170 208 251 310 365
#     4  10  20  38  62  93 127 153 203 268 317 372
#
# _framework density 23.228833000000002
#
# number of rings (size 3 to 8) (size 9 to 14) (size 15 to 20)
#    0.000    2.000    1.429    2.143    2.000    1.143 
#    0.000    2.857    6.286    3.429    0.000    0.000 
#    0.000    0.000    0.000    0.000    0.000    0.000 
#
# Total GULP energy -173464.286127 kJ/mol
# GULP energy per Si atom -12390.306152 kJ/mol
# Density = 2.317596 g / cm^3
# Si number density = 23.228833 Si / 1000 Ang^3
#
#
#
# Elastic Constant Matrix: (Units=GPa)
#
#
# Indices 1 2 3 4 5 6 
#
# 1 39.9727 11.8163 2.4527 -1.7823 -3.0576 -0.7538
# 2 11.8163 97.6867 33.6325 7.5218 -7.2300 0.1815
# 3 2.4527 33.6325 95.6272 -27.0197 -19.5352 12.0795
# 4 -1.7823 7.5218 -27.0197 36.3040 4.6552 -3.7989
# 5 -3.0576 -7.2300 -19.5352 4.6552 28.2328 -1.9556
# 6 -0.7538 0.1815 12.0795 -3.7989 -1.9556 36.6156
#
#
#
# Elastic Compliance Matrix: (Units=1/GPa)
#
#
# Indices 1 2 3 4 5 6 
#
# 1 0.026452 -0.004040 0.002270 0.003494 0.002847 0.000330
# 2 -0.004040 0.013893 -0.007446 -0.008401 -0.000549 0.001403
# 3 0.002270 -0.007446 0.019562 0.014581 0.009168 -0.004367
# 4 0.003494 -0.008401 0.014581 0.040046 0.001682 -0.000452
# 5 0.002847 -0.000549 0.009168 0.001682 0.041615 -0.000566
# 6 0.000330 0.001403 -0.004367 -0.000452 -0.000566 0.028674
#
#
# Mechanical properties :
#
#
# Convention : Reuss Voigt Hill
#
# Bulk Modulus (GPa) = 24.11109 36.56550 30.33829
# Shear Modulus (GPa) = 24.69151 32.58949 28.64050
#
# Velocity S-wave (km/s) = 3.26386 3.74970 3.51518
# Velocity P-wave (km/s) = 4.96045 5.87559 5.43731
#
# Compressibility (1/GPa) = 0.04147469
#
# Stress axis : x y z
#
# Youngs Moduli (GPa) = 37.80448 71.98100 51.11913
#
# Poissons Ratio (x) = 0.29081 -0.11603
# Poissons Ratio (y) = 0.15273 0.38061
# Poissons Ratio (z) = -0.08581 0.53594
#
# Static dielectric constant tensor:
#      x y z
#    x 3.800820 -0.509240 0.111420 
#    y -0.509240 3.801160 -0.179180 
#    z 0.111420 -0.179180 4.126560 
# 
# 
# High freq. dielectric constant tensor:
#      x y z
#    x 1.920930 -0.006660 -0.004630 
#    y -0.006660 1.894640 -0.034460 
#    z -0.004630 -0.034460 1.914330 
# 
# From -- ./inp_files/178034.got.cif
#   From: 2010.06.25/outbox.cif.g09.slc.cpg/sg2_90_cif.got.tgz:178034.got - 2010.06.27 13:26:56.
