data_PCOD8000435
_publ_section_title
;
Structure prediction by ZEFSAII (Michael W. Deem and Ramdas Pophale) SiO2 
 PCOD8000435
Probable space group: P -1
;
_chemical_formula_sum "Si O2"
_cell_formula_units_Z 16
_cell_length_a 11.604426
_cell_length_b 11.409089
_cell_length_c 13.940839
_cell_angle_alpha 52.382943
_cell_angle_beta 60.341015
_cell_angle_gamma 102.605036
_cell_volume 831.841007
_symmetry_space_group_name_H-M "P -1"
_symmetry_group_IT_number 2
_symmetry_cell_setting 'triclinic'
loop_
_space_group_symop_operation_xyz
x,y,z
-x,-y,-z
loop_
_atom_site_type_symbol
_atom_site_label
_atom_site_fract_x
_atom_site_fract_y
_atom_site_fract_z
Si Si1 0.572306 0.179291 0.461651
Si Si2 0.511451 0.063061 0.755015
Si Si3 0.373740 0.646487 0.960419
Si Si4 0.097832 0.708000 0.420079
Si Si5 0.046209 0.642160 0.820693
Si Si6 0.283247 0.441248 0.286765
Si Si7 0.585326 0.908650 0.030141
Si Si8 0.654871 0.837624 0.569198
O O1 0.462404 0.076598 0.660703
O O2 0.806999 0.343308 0.308136
O O3 0.519895 0.292121 0.376719
O O4 0.500000 0.000000 0.500000
O O5 0.748841 0.243260 0.593705
O O6 0.412623 0.818068 0.928605
O O7 0.399317 0.083226 0.863761
O O8 0.556620 0.784803 0.740624
O O9 0.361720 0.501366 0.113781
O O10 0.160593 0.487013 0.077492
O O11 0.000000 0.500000 0.500000
O O12 0.932005 0.657432 0.574297
O O13 0.203281 0.918643 0.200717
O O14 0.164820 0.896384 0.663990
O O15 0.000000 0.500000 0.000000
O O16 0.256150 0.251132 0.428671
O O17 0.442183 0.654584 0.184393
O O18 0.500000 0.000000 0.000000
#
# Coordination Sequence:
#
# PCOD8000435 Si02
#       8
#     2   2   2   2   2   2   2   2
#     4  10  19  39  62  85 121 161 202 253 293 364
#     4  11  19  38  66  92 117 156 213 260 294 359
#     4  12  21  38  63  92 128 162 203 251 312 372
#     4  11  20  39  63  91 120 158 216 255 301 361
#     4  11  21  39  64  87 120 166 211 247 299 362
#     4  12  24  38  62  91 128 166 197 256 318 367
#     4  10  20  38  61  87 118 157 206 257 303 354
#     4  11  25  41  56  93 134 160 202 252 315 372
#
# _framework density 19.234444
#
# number of rings (size 3 to 8) (size 9 to 14) (size 15 to 20)
#    0.000    1.000    8.750    1.875    0.000    1.500 
#    0.000    0.625    0.000    0.750    0.000    0.000 
#    0.000    0.000    0.000    0.000    0.000    0.000 
#
# Total GULP energy -198217.964274 kJ/mol
# GULP energy per Si atom -12388.622767 kJ/mol
# Density = 1.919067 g / cm^3
# Si number density = 19.234444 Si / 1000 Ang^3
#
#
#
# Elastic Constant Matrix: (Units=GPa)
#
#
# Indices 1 2 3 4 5 6 
#
# 1 71.9157 38.0800 23.2784 -6.1511 20.8317 0.3573
# 2 38.0800 80.8909 42.8162 1.1888 10.2894 12.7789
# 3 23.2784 42.8162 105.2458 0.8456 13.4340 0.4960
# 4 -6.1511 1.1888 0.8456 39.4224 7.1841 7.6530
# 5 20.8317 10.2894 13.4340 7.1841 34.5949 2.4180
# 6 0.3573 12.7789 0.4960 7.6530 2.4180 27.8954
#
#
#
# Elastic Compliance Matrix: (Units=1/GPa)
#
#
# Indices 1 2 3 4 5 6 
#
# 1 0.023320 -0.010432 0.000631 0.005446 -0.012600 0.004067
# 2 -0.010432 0.022193 -0.007089 -0.000811 0.003299 -0.009970
# 3 0.000631 -0.007089 0.012667 0.000024 -0.003427 0.003305
# 4 0.005446 -0.000811 0.000024 0.029160 -0.008617 -0.006952
# 5 -0.012600 0.003299 -0.003427 -0.008617 0.038792 -0.002287
# 6 0.004067 -0.009970 0.003305 -0.006952 -0.002287 0.042410
#
#
# Mechanical properties :
#
#
# Convention : Reuss Voigt Hill
#
# Bulk Modulus (GPa) = 40.98102 51.82242 46.40172
# Shear Modulus (GPa) = 23.75797 30.64107 27.19952
#
# Velocity S-wave (km/s) = 3.51832 3.99561 3.76454
# Velocity P-wave (km/s) = 6.15281 6.94892 6.56295
#
# Compressibility (1/GPa) = 0.02440154
#
# Stress axis : x y z
#
# Youngs Moduli (GPa) = 42.88117 45.05951 78.94291
#
# Poissons Ratio (x) = 0.47007 -0.04985
# Poissons Ratio (y) = 0.44735 0.55960
# Poissons Ratio (z) = -0.02708 0.31941
#
# Static dielectric constant tensor:
#      x y z
#    x 3.758650 0.295860 0.009340 
#    y 0.295860 3.656970 0.286530 
#    z 0.009340 0.286530 4.043790 
# 
# 
# High freq. dielectric constant tensor:
#      x y z
#    x 1.730140 0.019380 0.001690 
#    y 0.019380 1.730900 0.009680 
#    z 0.001690 0.009680 1.762850 
# 
# From -- ./inp_files/518751.got.cif
#   From: 2010.06.25/outbox.cif.g09.slc.cpg/sg2_260_cif.got.tgz:518751.got - 2010.06.27 13:26:56.
