data_PCOD8000519
_publ_section_title
;
Structure prediction by ZEFSAII (Michael W. Deem and Ramdas Pophale) SiO2 
 PCOD8000519
Probable space group: P -1
;
_chemical_formula_sum "Si O2"
_cell_formula_units_Z 16
_cell_length_a 11.682427
_cell_length_b 9.611573
_cell_length_c 18.038327
_cell_angle_alpha 120.550552
_cell_angle_beta 32.316447
_cell_angle_gamma 130.688116
_cell_volume 816.495272
_symmetry_space_group_name_H-M "P -1"
_symmetry_group_IT_number 2
_symmetry_cell_setting 'triclinic'
loop_
_space_group_symop_operation_xyz
x,y,z
-x,-y,-z
loop_
_atom_site_type_symbol
_atom_site_label
_atom_site_fract_x
_atom_site_fract_y
_atom_site_fract_z
Si Si1 0.672545 0.299160 0.150544
Si Si2 0.806915 0.955559 0.377640
Si Si3 0.106698 0.790415 0.853610
Si Si4 0.871245 0.877530 0.608308
Si Si5 0.288753 0.199609 0.840959
Si Si6 0.246988 0.774048 0.619903
Si Si7 0.091449 0.291817 0.843891
Si Si8 0.775320 0.475435 0.569420
O O1 0.782485 0.280753 0.162918
O O2 0.397439 0.139043 0.242293
O O3 0.689927 0.500967 0.201957
O O4 0.832214 0.291501 0.991041
O O5 0.523931 0.892740 0.530716
O O6 0.862311 0.789252 0.279248
O O7 0.874135 0.110303 0.319218
O O8 0.964732 0.037178 0.386562
O O9 0.093380 0.685300 0.755155
O O10 0.292428 0.010337 0.803675
O O11 0.827730 0.745208 0.010888
O O12 0.819414 0.671052 0.570352
O O13 0.000000 0.000000 0.500000
O O14 0.097534 0.156782 0.867029
O O15 0.550433 0.363906 0.718375
O O16 0.248841 0.630069 0.522101
O O17 0.000000 0.500000 0.500000
#
# Coordination Sequence:
#
# PCOD8000519 Si02
#       8
#     2   2   2   2   2   2   2   2
#     4  10  22  38  61  90 128 161 203 247 316 368
#     4  11  21  37  65  90 124 158 211 254 306 362
#     4  10  21  35  67  96 119 157 212 261 291 358
#     4  12  26  41  59  92 128 164 200 257 315 367
#     4  10  19  39  63  92 122 161 209 251 304 358
#     4  11  20  38  65  96 116 158 215 259 297 359
#     4  10  19  39  65  88 116 171 208 247 302 373
#     4  12  24  41  65  89 126 166 203 250 314 370
#
# _framework density 19.595949000000001
#
# number of rings (size 3 to 8) (size 9 to 14) (size 15 to 20)
#    0.000    1.250    5.000    1.500    1.750    1.500 
#    0.000    3.125    2.750    0.000    0.000    0.000 
#    0.000    0.000    0.000    0.000    0.000    0.000 
#
# Total GULP energy -198269.395466 kJ/mol
# GULP energy per Si atom -12391.837217 kJ/mol
# Density = 1.955135 g / cm^3
# Si number density = 19.595949 Si / 1000 Ang^3
#
#
#
# Elastic Constant Matrix: (Units=GPa)
#
#
# Indices 1 2 3 4 5 6 
#
# 1 101.3040 28.3553 64.0142 -1.4735 0.2018 13.4706
# 2 28.3553 92.6939 52.5007 -1.3470 2.1014 -2.7119
# 3 64.0142 52.5007 131.8156 -7.6972 9.0430 12.1850
# 4 -1.4735 -1.3470 -7.6972 30.8378 3.0455 1.4275
# 5 0.2018 2.1014 9.0430 3.0455 29.4691 -2.1173
# 6 13.4706 -2.7119 12.1850 1.4275 -2.1173 31.7025
#
#
#
# Elastic Compliance Matrix: (Units=1/GPa)
#
#
# Indices 1 2 3 4 5 6 
#
# 1 0.014813 -0.000910 -0.006682 -0.001015 0.001858 -0.003634
# 2 -0.000910 0.014440 -0.005827 -0.001168 0.001172 0.003992
# 3 -0.006682 -0.005827 0.013985 0.003517 -0.004445 -0.003490
# 4 -0.001015 -0.001168 0.003517 0.033801 -0.004688 -0.002856
# 5 0.001858 0.001172 -0.004445 -0.004688 0.035947 0.003631
# 6 -0.003634 0.003992 -0.003490 -0.002856 0.003631 0.035141
#
#
# Mechanical properties :
#
#
# Convention : Reuss Voigt Hill
#
# Bulk Modulus (GPa) = 60.97502 68.39489 64.68496
# Shear Modulus (GPa) = 27.71109 30.46477 29.08793
#
# Velocity S-wave (km/s) = 3.76456 3.94718 3.85695
# Velocity P-wave (km/s) = 7.07669 7.46672 7.27432
#
# Compressibility (1/GPa) = 0.01640016
#
# Stress axis : x y z
#
# Youngs Moduli (GPa) = 67.50737 69.25096 71.50374
#
# Poissons Ratio (x) = 0.06301 0.47780
# Poissons Ratio (y) = 0.06142 0.41667
# Poissons Ratio (z) = 0.45110 0.40354
#
# Static dielectric constant tensor:
#      x y z
#    x 3.509070 -0.139610 0.007220 
#    y -0.139610 3.607170 0.044580 
#    z 0.007220 0.044580 3.864920 
# 
# 
# High freq. dielectric constant tensor:
#      x y z
#    x 1.752650 -0.018940 -0.001840 
#    y -0.018940 1.754740 0.010030 
#    z -0.001840 0.010030 1.775910 
# 
# From -- ./inp_files/402452.got.cif
#   From: 2010.06.25/outbox.cif.g09.slc.cpg/sg2_202_cif.got.tgz:402452.got - 2010.06.27 13:26:56.
