data_PCOD8000637
_publ_section_title
;
Structure prediction by ZEFSAII (Michael W. Deem and Ramdas Pophale) SiO2 
 PCOD8000637
Probable space group: P -1
;
_chemical_formula_sum "Si O2"
_cell_formula_units_Z 16
_cell_length_a 12.437939
_cell_length_b 8.933870
_cell_length_c 16.546353
_cell_angle_alpha 90.393427
_cell_angle_beta 26.073380
_cell_angle_gamma 97.888779
_cell_volume 771.314459
_symmetry_space_group_name_H-M "P -1"
_symmetry_group_IT_number 2
_symmetry_cell_setting 'triclinic'
loop_
_space_group_symop_operation_xyz
x,y,z
-x,-y,-z
loop_
_atom_site_type_symbol
_atom_site_label
_atom_site_fract_x
_atom_site_fract_y
_atom_site_fract_z
Si Si1 0.248212 0.798973 0.027312
Si Si2 0.757244 0.709882 0.275932
Si Si3 0.054029 0.185793 0.459085
Si Si4 0.459787 0.321320 0.047928
Si Si5 0.786262 0.708965 0.075121
Si Si6 0.493495 0.348955 0.275690
Si Si7 0.508096 0.847413 0.136815
Si Si8 0.308043 0.647680 0.687875
O O1 0.960733 0.806455 0.205980
O O2 0.285797 0.694438 0.077974
O O3 0.314689 0.725192 0.900154
O O4 0.443480 0.969524 0.911530
O O5 0.802009 0.778099 0.155581
O O6 0.476855 0.712695 0.494526
O O7 0.796502 0.538899 0.247117
O O8 0.212185 0.254945 0.271996
O O9 0.207587 0.272863 0.434435
O O10 0.788300 0.228524 0.638716
O O11 0.000000 0.000000 0.500000
O O12 0.500000 0.500000 0.000000
O O13 0.414288 0.226530 0.995784
O O14 0.584329 0.536586 0.203990
O O15 0.688801 0.826359 0.086887
O O16 0.068284 0.714659 0.854371
O O17 0.505049 0.303469 0.361038
#
# Coordination Sequence:
#
# PCOD8000637 Si02
#       8
#     2   2   2   2   2   2   2   2
#     4  11  21  42  66  94 131 170 215 268 334 391
#     4  10  21  38  65  95 122 169 221 266 328 387
#     4  11  24  43  67  98 135 175 223 267 330 400
#     4  11  26  44  68  98 132 176 223 275 321 395
#     4  11  22  41  62  94 133 163 221 273 324 386
#     4  10  19  39  66  88 126 173 216 273 317 383
#     4  12  26  42  67  97 137 179 210 273 340 395
#     4  10  20  37  65  92 122 169 217 274 322 386
#
# _framework density 20.743808999999999
#
# number of rings (size 3 to 8) (size 9 to 14) (size 15 to 20)
#    0.000    1.250    5.000    2.625    1.750    3.500 
#    2.250    0.625    0.000    0.000    0.000    0.000 
#    0.000    0.000    0.000    0.000    0.000    0.000 
#
# Total GULP energy -198398.929385 kJ/mol
# GULP energy per Si atom -12399.933087 kJ/mol
# Density = 2.069660 g / cm^3
# Si number density = 20.743809 Si / 1000 Ang^3
#
#
#
# Elastic Constant Matrix: (Units=GPa)
#
#
# Indices 1 2 3 4 5 6 
#
# 1 146.3358 38.2830 70.5178 1.1355 -9.2080 -7.1715
# 2 38.2830 64.3733 22.1698 -16.0906 6.2838 -12.0933
# 3 70.5178 22.1698 117.3686 4.2145 -4.1496 -15.4162
# 4 1.1355 -16.0906 4.2145 23.7001 2.1462 -6.5775
# 5 -9.2080 6.2838 -4.1496 2.1462 34.3807 0.9951
# 6 -7.1715 -12.0933 -15.4162 -6.5775 0.9951 25.0350
#
#
#
# Elastic Compliance Matrix: (Units=1/GPa)
#
#
# Indices 1 2 3 4 5 6 
#
# 1 0.012063 -0.008766 -0.006027 -0.007755 0.004784 -0.006718
# 2 -0.008766 0.033395 0.000409 0.030181 -0.010929 0.022236
# 3 -0.006027 0.000409 0.012896 0.000093 -0.000325 0.006450
# 4 -0.007755 0.030181 0.000093 0.073147 -0.013079 0.032152
# 5 0.004784 -0.010929 -0.000325 -0.013079 0.033399 -0.008873
# 6 -0.006718 0.022236 0.006450 0.032152 -0.008873 0.061533
#
#
# Mechanical properties :
#
#
# Convention : Reuss Voigt Hill
#
# Bulk Modulus (GPa) = 33.79814 65.55767 49.67790
# Shear Modulus (GPa) = 18.86355 29.76361 24.31358
#
# Velocity S-wave (km/s) = 3.01883 3.79201 3.42729
# Velocity P-wave (km/s) = 5.33663 7.13054 6.29778
#
# Compressibility (1/GPa) = 0.02958743
#
# Stress axis : x y z
#
# Youngs Moduli (GPa) = 82.89790 29.94504 77.54220
#
# Poissons Ratio (x) = 0.26249 0.46732
# Poissons Ratio (y) = 0.72666 -0.03174
# Poissons Ratio (z) = 0.49960 -0.01226
#
# Static dielectric constant tensor:
#      x y z
#    x 3.814620 0.008860 -0.030400 
#    y 0.008860 2.687750 -0.273740 
#    z -0.030400 -0.273740 3.731740 
# 
# 
# High freq. dielectric constant tensor:
#      x y z
#    x 1.820660 0.012850 -0.003460 
#    y 0.012850 1.797560 0.005620 
#    z -0.003460 0.005620 1.812470 
# 
# From -- ./inp_files/515611.got.cif
#   From: 2010.06.25/outbox.cif.g09.slc.cpg/sg2_258_cif.got.tgz:515611.got - 2010.06.27 13:26:56.
