data_PCOD8000320
_publ_section_title
;
Structure prediction by ZEFSAII (Michael W. Deem and Ramdas Pophale) SiO2 
 PCOD8000320
Probable space group: P -1
;
_chemical_formula_sum "Si O2"
_cell_formula_units_Z 12
_cell_length_a 8.826284
_cell_length_b 8.999662
_cell_length_c 17.956520
_cell_angle_alpha 49.163041
_cell_angle_beta 80.522943
_cell_angle_gamma 119.031848
_cell_volume 646.247687
_symmetry_space_group_name_H-M "P -1"
_symmetry_group_IT_number 2
_symmetry_cell_setting 'triclinic'
loop_
_space_group_symop_operation_xyz
x,y,z
-x,-y,-z
loop_
_atom_site_type_symbol
_atom_site_label
_atom_site_fract_x
_atom_site_fract_y
_atom_site_fract_z
Si Si1 0.979927 0.673230 0.397470
Si Si2 0.427719 0.718179 0.566964
Si Si3 0.940022 0.641607 0.919461
Si Si4 0.997691 0.943379 0.104648
Si Si5 0.594430 0.803969 0.918537
Si Si6 0.760857 0.841039 0.398613
O O1 0.738945 0.414409 0.448889
O O2 0.951559 0.848034 0.390333
O O3 0.000000 0.500000 0.500000
O O4 0.238997 0.936528 0.245402
O O5 0.690304 0.872946 0.472564
O O6 0.271172 0.432053 0.733461
O O7 0.500000 0.000000 0.500000
O O8 0.963346 0.831723 0.918348
O O9 0.660494 0.328501 0.008260
O O10 0.126585 0.882749 0.757632
O O11 0.000000 0.500000 0.000000
O O12 0.233583 0.035714 0.072911
O O13 0.000000 0.000000 0.000000
O O14 0.500000 0.500000 0.000000
O O15 0.500000 0.500000 0.500000
#
# Coordination Sequence:
#
# PCOD8000320 Si02
#       6
#     2   2   2   2   2   2
#     4  10  20  35  63  85 114 155 192 245 293 343
#     4  10  22  38  59  84 119 156 192 241 296 350
#     4  11  22  36  64  89 111 158 199 244 294 350
#     4  10  21  39  58  84 120 154 191 243 296 346
#     4   9  18  37  55  85 117 145 199 234 286 350
#     4  10  19  39  57  84 122 146 202 246 279 355
#
# _framework density 18.568733999999999
#
# number of rings (size 3 to 8) (size 9 to 14) (size 15 to 20)
#    0.000    2.000    6.667    0.000    7.000    1.333 
#    0.000    1.667    0.000    0.000    0.000    0.000 
#    0.000    0.000    0.000    0.000    0.000    0.000 
#
# Total GULP energy -148683.276407 kJ/mol
# GULP energy per Si atom -12390.273034 kJ/mol
# Density = 1.852647 g / cm^3
# Si number density = 18.568734 Si / 1000 Ang^3
#
#
#
# Elastic Constant Matrix: (Units=GPa)
#
#
# Indices 1 2 3 4 5 6 
#
# 1 116.9201 29.3738 82.4779 8.7472 9.8278 3.0523
# 2 29.3738 71.2362 53.7289 11.5259 -1.2516 -8.9634
# 3 82.4779 53.7289 171.0684 14.3159 6.1940 10.3341
# 4 8.7472 11.5259 14.3159 28.4798 2.5058 6.6362
# 5 9.8278 -1.2516 6.1940 2.5058 39.1255 0.0808
# 6 3.0523 -8.9634 10.3341 6.6362 0.0808 28.1042
#
#
#
# Elastic Compliance Matrix: (Units=1/GPa)
#
#
# Indices 1 2 3 4 5 6 
#
# 1 0.013237 -0.000731 -0.006053 -0.000689 -0.002347 0.000725
# 2 -0.000731 0.022274 -0.006738 -0.008328 0.002472 0.011621
# 3 -0.006053 -0.006738 0.011215 0.000316 -0.000479 -0.005689
# 4 -0.000689 -0.008328 0.000316 0.041702 -0.002788 -0.012537
# 5 -0.002347 0.002472 -0.000479 -0.002788 0.026478 0.001802
# 6 0.000725 0.011621 -0.005689 -0.012537 0.001802 0.044256
#
#
# Mechanical properties :
#
#
# Convention : Reuss Voigt Hill
#
# Bulk Modulus (GPa) = 50.80974 76.70956 63.75965
# Shear Modulus (GPa) = 25.93796 32.05151 28.99473
#
# Velocity S-wave (km/s) = 3.74152 4.15914 3.95585
# Velocity P-wave (km/s) = 6.78879 8.02904 7.43482
#
# Compressibility (1/GPa) = 0.01968127
#
# Stress axis : x y z
#
# Youngs Moduli (GPa) = 75.54817 44.89460 89.16685
#
# Poissons Ratio (x) = 0.03281 0.53976
# Poissons Ratio (y) = 0.05522 0.60081
# Poissons Ratio (z) = 0.45732 0.30250
#
# Static dielectric constant tensor:
#      x y z
#    x 3.239070 -0.261430 -0.785680 
#    y -0.261430 3.261020 -0.018360 
#    z -0.785680 -0.018360 3.950260 
# 
# 
# High freq. dielectric constant tensor:
#      x y z
#    x 1.720380 -0.003680 -0.003720 
#    y -0.003680 1.685290 -0.005530 
#    z -0.003720 -0.005530 1.743990 
# 
# From -- ./inp_files/146413.got.cif
#   From: 2010.06.25/outbox.cif.g09.slc.cpg/sg2_74_cif.got.tgz:146413.got - 2010.06.27 13:26:56.
