data_PCOD8000480
_publ_section_title
;
Structure prediction by ZEFSAII (Michael W. Deem and Ramdas Pophale) SiO2 
 PCOD8000480
Probable space group: P -1
;
_chemical_formula_sum "Si O2"
_cell_formula_units_Z 14
_cell_length_a 9.675610
_cell_length_b 11.004391
_cell_length_c 8.727150
_cell_angle_alpha 126.206324
_cell_angle_beta 111.133639
_cell_angle_gamma 69.543835
_cell_volume 687.749961
_symmetry_space_group_name_H-M "P -1"
_symmetry_group_IT_number 2
_symmetry_cell_setting 'triclinic'
loop_
_space_group_symop_operation_xyz
x,y,z
-x,-y,-z
loop_
_atom_site_type_symbol
_atom_site_label
_atom_site_fract_x
_atom_site_fract_y
_atom_site_fract_z
Si Si1 0.788695 0.657680 0.988215
Si Si2 0.508678 0.832777 0.452777
Si Si3 0.398455 0.120719 0.154143
Si Si4 0.827868 0.738757 0.394817
Si Si5 0.047359 0.597860 0.818914
Si Si6 0.103931 0.110257 0.187907
Si Si7 0.652918 0.407736 0.921034
O O1 0.671603 0.739074 0.876909
O O2 0.720212 0.510472 0.899880
O O3 0.955496 0.613184 0.953038
O O4 0.807621 0.765917 0.223996
O O5 0.497166 0.834274 0.634315
O O6 0.664907 0.725542 0.387742
O O7 0.373336 0.752097 0.280601
O O8 0.500000 0.000000 0.500000
O O9 0.266129 0.050145 0.131959
O O10 0.500000 0.000000 0.000000
O O11 0.938175 0.578609 0.357810
O O12 0.884921 0.879729 0.613298
O O13 0.957271 0.713140 0.747194
O O14 0.214399 0.638404 0.935715
O O15 0.000000 0.000000 0.000000
O O16 0.500000 0.500000 0.000000
#
# Coordination Sequence:
#
# PCOD8000480 Si02
#       7
#     2   2   2   2   2   2   2
#     4  10  21  41  63  89 124 157 203 254 305 353
#     4  11  23  38  63  92 122 161 201 249 306 361
#     4  10  23  42  59  86 129 160 193 258 307 348
#     4  10  19  39  63  82 118 160 201 245 300 355
#     4  10  21  39  62  88 126 153 201 257 301 351
#     4  10  23  39  60  91 118 162 206 246 299 364
#     4  11  21  37  66  92 115 162 208 247 295 367
#
# _framework density 20.356235999999999
#
# number of rings (size 3 to 8) (size 9 to 14) (size 15 to 20)
#    0.000    1.714    2.857    3.000    4.000    0.571 
#    5.143    1.429    0.000    0.000    0.000    0.000 
#    0.000    0.000    0.000    0.000    0.000    0.000 
#
# Total GULP energy -173479.639183 kJ/mol
# GULP energy per Si atom -12391.402799 kJ/mol
# Density = 2.030990 g / cm^3
# Si number density = 20.356236 Si / 1000 Ang^3
#
#
#
# Elastic Constant Matrix: (Units=GPa)
#
#
# Indices 1 2 3 4 5 6 
#
# 1 100.9507 14.9047 56.0038 7.4144 -5.8109 -12.2885
# 2 14.9047 69.6964 28.5762 -3.1973 -6.6973 -0.9012
# 3 56.0038 28.5762 170.6796 -0.3357 4.6529 8.9663
# 4 7.4144 -3.1973 -0.3357 23.6112 2.1446 -3.9689
# 5 -5.8109 -6.6973 4.6529 2.1446 42.6770 6.7836
# 6 -12.2885 -0.9012 8.9663 -3.9689 6.7836 31.1953
#
#
#
# Elastic Compliance Matrix: (Units=1/GPa)
#
#
# Indices 1 2 3 4 5 6 
#
# 1 0.013735 -0.000956 -0.004707 -0.003642 0.001470 0.005952
# 2 -0.000956 0.015898 -0.002438 0.002290 0.002429 0.000547
# 3 -0.004707 -0.002438 0.008052 0.000734 -0.001325 -0.003857
# 4 -0.003642 0.002290 0.000734 0.044926 -0.003244 0.004841
# 5 0.001470 0.002429 -0.001325 -0.003244 0.025090 -0.004838
# 6 0.005952 0.000547 -0.003857 0.004841 -0.004838 0.037193
#
#
# Mechanical properties :
#
#
# Convention : Reuss Voigt Hill
#
# Bulk Modulus (GPa) = 46.55107 60.03289 53.29198
# Shear Modulus (GPa) = 29.71668 35.61949 32.66809
#
# Velocity S-wave (km/s) = 3.82492 4.18761 4.01037
# Velocity P-wave (km/s) = 6.51341 7.27575 6.90511
#
# Compressibility (1/GPa) = 0.02148178
#
# Stress axis : x y z
#
# Youngs Moduli (GPa) = 72.80806 62.90241 124.19788
#
# Poissons Ratio (x) = 0.06016 0.58454
# Poissons Ratio (y) = 0.06963 0.30283
# Poissons Ratio (z) = 0.34267 0.15337
#
# Static dielectric constant tensor:
#      x y z
#    x 3.851700 -0.311210 -0.010780 
#    y -0.311210 3.768930 -0.169720 
#    z -0.010780 -0.169720 3.983720 
# 
# 
# High freq. dielectric constant tensor:
#      x y z
#    x 1.789120 -0.024580 -0.008670 
#    y -0.024580 1.791010 -0.010390 
#    z -0.008670 -0.010390 1.803830 
# 
# From -- ./inp_files/150354.got.cif
#   From: 2010.06.25/outbox.cif.g09.slc.cpg/sg2_76_cif.got.tgz:150354.got - 2010.06.27 13:26:56.
