data_PCOD8000914
_publ_section_title
;
Structure prediction by ZEFSAII (Michael W. Deem and Ramdas Pophale) SiO2 
 PCOD8000914
Probable space group: P -1
;
_chemical_formula_sum "Si O2"
_cell_formula_units_Z 14
_cell_length_a 8.966819
_cell_length_b 11.345098
_cell_length_c 11.015486
_cell_angle_alpha 49.741615
_cell_angle_beta 87.752267
_cell_angle_gamma 116.122879
_cell_volume 676.697175
_symmetry_space_group_name_H-M "P -1"
_symmetry_group_IT_number 2
_symmetry_cell_setting 'triclinic'
loop_
_space_group_symop_operation_xyz
x,y,z
-x,-y,-z
loop_
_atom_site_type_symbol
_atom_site_label
_atom_site_fract_x
_atom_site_fract_y
_atom_site_fract_z
Si Si1 0.171946 0.466848 0.829285
Si Si2 0.251350 0.426877 0.120660
Si Si3 0.531621 0.177664 0.809680
Si Si4 0.907385 0.511399 0.696864
Si Si5 0.203800 0.153467 0.947660
Si Si6 0.690996 0.185478 0.553637
Si Si7 0.648956 0.819944 0.824269
O O1 0.242205 0.359193 0.828890
O O2 0.317804 0.699209 0.635841
O O3 0.961436 0.381589 0.847042
O O4 0.164898 0.438955 0.991491
O O5 0.115717 0.375205 0.271794
O O6 0.273830 0.255877 0.224107
O O7 0.448518 0.635156 0.003952
O O8 0.723381 0.381866 0.708391
O O9 0.358309 0.184348 0.829344
O O10 0.549443 0.152572 0.684031
O O11 0.500000 0.000000 0.000000
O O12 0.088131 0.678583 0.498916
O O13 0.218925 0.078793 0.127968
O O14 0.000000 0.000000 0.000000
O O15 0.632832 0.975506 0.655455
#
# Coordination Sequence:
#
# PCOD8000914 Si02
#       7
#     2   2   2   2   2   2   2
#     4   9  23  37  60  93 125 154 202 254 297 354
#     4  10  19  40  66  85 121 166 208 239 301 366
#     4  12  21  38  66  87 121 166 203 243 308 366
#     4  10  21  38  62  91 122 161 201 247 304 360
#     4  11  22  38  63  92 120 159 207 251 299 364
#     4  10  23  38  59  95 125 157 200 252 308 355
#     4  10  21  38  63  90 119 165 205 248 299 364
#
# _framework density 20.688723
#
# number of rings (size 3 to 8) (size 9 to 14) (size 15 to 20)
#    0.857    0.857    2.857    1.714    0.000    1.714 
#    0.000    0.000    0.000    0.000    0.000    0.000 
#    0.000    0.000    0.000    0.000    0.000    0.000 
#
# Total GULP energy -173522.103680 kJ/mol
# GULP energy per Si atom -12394.435977 kJ/mol
# Density = 2.064163 g / cm^3
# Si number density = 20.688723 Si / 1000 Ang^3
#
#
#
# Elastic Constant Matrix: (Units=GPa)
#
#
# Indices 1 2 3 4 5 6 
#
# 1 112.1989 28.0792 13.8847 -6.9287 -8.3335 -20.3112
# 2 28.0792 63.7934 14.8689 -12.9492 4.0332 -6.3928
# 3 13.8847 14.8689 53.0304 -9.8321 6.1206 -22.3894
# 4 -6.9287 -12.9492 -9.8321 21.0874 -5.9427 -0.0135
# 5 -8.3335 4.0332 6.1206 -5.9427 38.7692 -4.8192
# 6 -20.3112 -6.3928 -22.3894 -0.0135 -4.8192 42.6241
#
#
#
# Elastic Compliance Matrix: (Units=1/GPa)
#
#
# Indices 1 2 3 4 5 6 
#
# 1 0.011358 -0.004332 0.000566 0.002427 0.003858 0.005497
# 2 -0.004332 0.020150 -0.002979 0.009212 -0.001238 -0.000744
# 3 0.000566 -0.002979 0.027718 0.011163 -0.000451 0.014335
# 4 0.002427 0.009212 0.011163 0.061449 0.008385 0.009369
# 5 0.003858 -0.001238 -0.000451 0.008385 0.028688 0.004662
# 6 0.005497 -0.000744 0.014335 0.009369 0.004662 0.034029
#
#
# Mechanical properties :
#
#
# Convention : Reuss Voigt Hill
#
# Bulk Modulus (GPa) = 21.86378 38.07648 29.97013
# Shear Modulus (GPa) = 23.57070 31.97547 27.77309
#
# Velocity S-wave (km/s) = 3.37902 3.93561 3.66789
# Velocity P-wave (km/s) = 5.08081 6.25272 5.69698
#
# Compressibility (1/GPa) = 0.04573775
#
# Stress axis : x y z
#
# Youngs Moduli (GPa) = 88.04103 49.62700 36.07750
#
# Poissons Ratio (x) = 0.21498 -0.02043
# Poissons Ratio (y) = 0.38139 0.10747
# Poissons Ratio (z) = -0.04985 0.14783
#
# Static dielectric constant tensor:
#      x y z
#    x 3.933420 -0.162920 0.016360 
#    y -0.162920 3.656130 -0.043520 
#    z 0.016360 -0.043520 3.437200 
# 
# 
# High freq. dielectric constant tensor:
#      x y z
#    x 1.818410 -0.017220 -0.000890 
#    y -0.017220 1.805070 -0.004060 
#    z -0.000890 -0.004060 1.784020 
# 
# From -- ./inp_files/332038.got.cif
#   From: 2010.06.25/outbox.cif.g09.slc.cpg/sg2_167_cif.got.tgz:332038.got - 2010.06.27 13:26:56.
