data_PCOD8000280
_publ_section_title
;
Structure prediction by ZEFSAII (Michael W. Deem and Ramdas Pophale) SiO2 
 PCOD8000280
Probable space group: P 1
;
_chemical_formula_sum "Si O2"
_cell_formula_units_Z 6
_cell_length_a 5.006492
_cell_length_b 5.056310
_cell_length_c 8.524426
_cell_angle_alpha 99.349076
_cell_angle_beta 89.999859
_cell_angle_gamma 89.999885
_cell_volume 212.924162
_symmetry_space_group_name_H-M "P 1"
_symmetry_group_IT_number 1
_symmetry_cell_setting 'triclinic'
loop_
_space_group_symop_operation_xyz
x,y,z
loop_
_atom_site_type_symbol
_atom_site_label
_atom_site_fract_x
_atom_site_fract_y
_atom_site_fract_z
Si Si1 0.075210 0.112970 0.015720
Si Si2 0.575209 0.437412 0.620819
Si Si3 0.381637 0.805346 0.219156
Si Si4 0.742148 0.579049 0.967836
Si Si5 0.242149 0.971334 0.668704
Si Si6 0.881636 0.745037 0.417386
O O1 0.269084 0.074802 0.162096
O O2 0.237908 0.106619 0.851879
O O3 0.929381 0.398028 0.062532
O O4 0.856591 0.877362 0.985967
O O5 0.737901 0.443763 0.784661
O O6 0.429377 0.152356 0.574007
O O7 0.769085 0.475578 0.474444
O O8 0.356596 0.673023 0.650569
O O9 0.661225 0.869300 0.312850
O O10 0.161225 0.681084 0.323692
O O11 0.451452 0.596272 0.056069
O O12 0.951450 0.954110 0.580474
#
# Coordination Sequence:
#
# PCOD8000280 Si02
#       6
#     1   1   1   1   1   1
#     4  12  27  52  86 124 164 222 286 344 409 496
#     4  12  27  52  86 124 164 222 286 344 409 496
#     4  12  28  56  82 128 172 220 272 348 422 504
#     4  12  27  52  86 124 164 222 286 344 409 496
#     4  12  27  52  86 124 164 222 286 344 409 496
#     4  12  28  56  82 128 172 220 272 348 422 504
#
# _framework density 28.179048000000002
#
# number of rings (size 3 to 8) (size 9 to 14) (size 15 to 20)
#    0.000    0.000    6.667    2.000    0.000    0.000 
#   12.000    0.000    0.000    0.000    0.000    0.000 
#    0.000    0.000    0.000    0.000    0.000    0.000 
#
# Total GULP energy -74425.306928 kJ/mol
# GULP energy per Si atom -12404.217821 kJ/mol
# Density = 2.811491 g / cm^3
# Si number density = 28.179048 Si / 1000 Ang^3
#
#
#
# Elastic Constant Matrix: (Units=GPa)
#
#
# Indices 1 2 3 4 5 6 
#
# 1 146.3455 16.4861 40.1092 -23.0932 2.5845 -1.8614
# 2 16.4861 78.7760 5.1207 -22.1941 -1.0262 -1.9401
# 3 40.1092 5.1207 122.4965 -29.9243 -4.7436 -2.7506
# 4 -23.0932 -22.1941 -29.9243 37.3848 -0.7633 -0.8095
# 5 2.5845 -1.0262 -4.7436 -0.7633 68.5868 0.9161
# 6 -1.8614 -1.9401 -2.7506 -0.8095 0.9161 47.1603
#
#
#
# Elastic Compliance Matrix: (Units=1/GPa)
#
#
# Indices 1 2 3 4 5 6 
#
# 1 0.007897 -0.000688 -0.001835 0.002997 -0.000405 0.000236
# 2 -0.000688 0.015749 0.002232 0.010742 0.000523 0.000925
# 3 -0.001835 0.002232 0.010916 0.008965 0.000947 0.000792
# 4 0.002997 0.010742 0.008965 0.042215 0.001114 0.001786
# 5 -0.000405 0.000523 0.000947 0.001114 0.014684 -0.000205
# 6 0.000236 0.000925 0.000792 0.001786 -0.000205 0.021332
#
#
# Mechanical properties :
#
#
# Convention : Reuss Voigt Hill
#
# Bulk Modulus (GPa) = 29.42977 52.33886 40.88431
# Shear Modulus (GPa) = 40.09567 49.68651 44.89109
#
# Velocity S-wave (km/s) = 3.77621 4.20365 3.99565
# Velocity P-wave (km/s) = 5.42951 6.49422 5.98559
#
# Compressibility (1/GPa) = 0.03397920
#
# Stress axis : x y z
#
# Youngs Moduli (GPa) = 126.63465 63.49525 91.61199
#
# Poissons Ratio (x) = 0.04371 0.16811
# Poissons Ratio (y) = 0.08717 -0.20450
# Poissons Ratio (z) = 0.23238 -0.14173
#
# Static dielectric constant tensor:
#      x y z
#    x 5.282370 -0.028220 0.034120 
#    y -0.028220 4.670310 -0.317030 
#    z 0.034120 -0.317030 5.708440 
# 
# 
# High freq. dielectric constant tensor:
#      x y z
#    x 2.153410 -0.001260 0.000470 
#    y -0.001260 2.121910 -0.013920 
#    z 0.000470 -0.013920 2.159690 
# 
# From -- ./inp_files/748.got.cif
#   From: 2010.03.12/outbox.cif.g09.slc.cpg/sg1_1_cif.got.tgz:748.got - 2010.03.29 11:57:58.
