data_PCOD8000014
_publ_section_title
;
Structure prediction by ZEFSAII (Michael W. Deem and Ramdas Pophale) SiO2 
 PCOD8000014
Probable space group: P 1
;
_chemical_formula_sum "Si O2"
_cell_formula_units_Z 8
_cell_length_a 14.353243
_cell_length_b 11.254726
_cell_length_c 8.516712
_cell_angle_alpha 140.098621
_cell_angle_beta 53.320007
_cell_angle_gamma 150.582264
_cell_volume 422.363362
_symmetry_space_group_name_H-M "P 1"
_symmetry_group_IT_number 1
_symmetry_cell_setting 'triclinic'
loop_
_space_group_symop_operation_xyz
x,y,z
loop_
_atom_site_type_symbol
_atom_site_label
_atom_site_fract_x
_atom_site_fract_y
_atom_site_fract_z
Si Si1 0.539010 0.868280 0.764500
Si Si2 0.819956 0.516216 0.275346
Si Si3 0.794383 0.915953 0.714006
Si Si4 0.220853 0.756436 0.630197
Si Si5 0.899864 0.343034 0.287624
Si Si6 0.013669 0.799968 0.049134
Si Si7 0.112068 0.327561 0.554695
Si Si8 0.646299 0.151799 0.621810
O O1 0.596414 0.754836 0.684562
O O2 0.308280 0.582381 0.716593
O O3 0.607006 0.954867 0.601539
O O4 0.624092 0.160213 0.059100
O O5 0.767751 0.663518 0.513066
O O6 0.904940 0.526896 0.354281
O O7 0.984404 0.712374 0.173523
O O8 0.946044 0.163537 0.677988
O O9 0.862956 0.101407 0.992889
O O10 0.109724 0.471465 0.564627
O O11 0.112155 0.610489 0.424838
O O12 0.448701 0.008905 0.633128
O O13 0.190222 0.913124 0.906981
O O14 0.722713 0.136976 0.380125
O O15 0.076682 0.090621 0.261883
O O16 0.810020 0.509849 0.869124
#
# Coordination Sequence:
#
# PCOD8000014 Si02
#       8
#     1   1   1   1   1   1   1   1
#     4   9  19  36  56  79 102 132 179 220 255 304
#     4   9  19  36  55  77 107 137 173 214 257 310
#     4  10  20  36  56  76 106 141 168 217 264 296
#     4  10  20  36  56  76 106 141 168 217 264 296
#     4  10  20  34  52  78 110 140 172 206 256 318
#     4   9  19  36  56  79 102 132 179 220 255 304
#     4  10  20  34  58  82 100 132 180 218 256 308
#     4   9  19  36  55  77 107 137 173 214 257 310
#
# _framework density 18.941037000000001
#
# number of rings (size 3 to 8) (size 9 to 14) (size 15 to 20)
#    0.000    2.500    0.000    3.000    0.000    8.000 
#    0.000    7.500    0.000    0.000    0.000    0.000 
#    0.000    0.000    0.000    0.000    0.000    0.000 
#
# Total GULP energy -99194.137296 kJ/mol
# GULP energy per Si atom -12399.267162 kJ/mol
# Density = 1.889793 g / cm^3
# Si number density = 18.941037 Si / 1000 Ang^3
#
#
#
# Elastic Constant Matrix: (Units=GPa)
#
#
# Indices 1 2 3 4 5 6 
#
# 1 99.7667 25.2187 53.3410 -9.1300 14.8079 7.8859
# 2 25.2187 33.8265 27.0658 1.9319 -8.5589 -0.3382
# 3 53.3410 27.0658 109.0014 -14.9875 -7.2852 0.0333
# 4 -9.1300 1.9319 -14.9875 25.8618 6.0179 6.0052
# 5 14.8079 -8.5589 -7.2852 6.0179 22.1335 -6.6845
# 6 7.8859 -0.3382 0.0333 6.0052 -6.6845 21.0550
#
#
#
# Elastic Compliance Matrix: (Units=1/GPa)
#
#
# Indices 1 2 3 4 5 6 
#
# 1 0.070390 -0.080079 -0.012975 0.074417 -0.129760 -0.090050
# 2 -0.080079 0.138099 0.001961 -0.104255 0.171080 0.116257
# 3 -0.012975 0.001961 0.015941 -0.002577 0.018889 0.011598
# 4 0.074417 -0.104255 -0.002577 0.137784 -0.165026 -0.121233
# 5 -0.129760 0.171080 0.018889 -0.165026 0.308532 0.196338
# 6 -0.090050 0.116257 0.011598 -0.121233 0.196338 0.179982
#
#
# Mechanical properties :
#
#
# Convention : Reuss Voigt Hill
#
# Bulk Modulus (GPa) = 23.67214 50.42731 37.04973
# Shear Modulus (GPa) = 4.77556 22.94132 13.85844
#
# Velocity S-wave (km/s) = 1.58958 3.48400 2.70786
# Velocity P-wave (km/s) = 3.98672 6.54717 5.42030
#
# Compressibility (1/GPa) = 0.04224375
#
# Stress axis : x y z
#
# Youngs Moduli (GPa) = 14.20648 7.24117 62.72967
#
# Poissons Ratio (x) = 0.57987 0.81392
# Poissons Ratio (y) = 1.13764 -0.12298
# Poissons Ratio (z) = 0.18433 -0.01420
#
# Static dielectric constant tensor:
#      x y z
#    x 3.530510 0.051870 0.027810 
#    y 0.051870 3.443610 -0.110550 
#    z 0.027810 -0.110550 3.531750 
# 
# 
# High freq. dielectric constant tensor:
#      x y z
#    x 1.739110 0.003540 0.002870 
#    y 0.003540 1.726740 -0.005570 
#    z 0.002870 -0.005570 1.737680 
# 
# From -- ./inp_files/4628.got.cif
#   From: 2010.03.12/outbox.cif.g09.slc.cpg/sg1_3_cif.got.tgz:4628.got - 2010.03.29 11:57:58.
