data_PCOD8000588
_publ_section_title
;
Structure prediction by ZEFSAII (Michael W. Deem and Ramdas Pophale) SiO2 
 PCOD8000588
Probable space group: P -1
;
_chemical_formula_sum "Si O2"
_cell_formula_units_Z 14
_cell_length_a 15.974350
_cell_length_b 9.222584
_cell_length_c 21.957721
_cell_angle_alpha 28.533144
_cell_angle_beta 152.162184
_cell_angle_gamma 145.048334
_cell_volume 708.182578
_symmetry_space_group_name_H-M "P -1"
_symmetry_group_IT_number 2
_symmetry_cell_setting 'triclinic'
loop_
_space_group_symop_operation_xyz
x,y,z
-x,-y,-z
loop_
_atom_site_type_symbol
_atom_site_label
_atom_site_fract_x
_atom_site_fract_y
_atom_site_fract_z
Si Si1 0.449716 0.254566 0.504284
Si Si2 0.150989 0.137007 0.958012
Si Si3 0.248932 0.133563 0.159580
Si Si4 0.214209 0.609445 0.609912
Si Si5 0.670817 0.379725 0.184805
Si Si6 0.496814 0.287127 0.849647
Si Si7 0.561725 0.204803 0.784085
O O1 0.500000 0.500000 0.500000
O O2 0.407058 0.442072 0.348330
O O3 0.624483 0.109860 0.654308
O O4 0.274160 0.982722 0.504576
O O5 0.161976 0.467923 0.808425
O O6 0.250011 0.182498 0.069858
O O7 0.943149 0.985076 0.889282
O O8 0.250221 0.916942 0.061298
O O9 0.320817 0.463165 0.113783
O O10 0.274315 0.509600 0.752224
O O11 0.318389 0.435821 0.691878
O O12 0.000000 0.500000 0.500000
O O13 0.611811 0.007205 0.284396
O O14 0.500000 0.500000 0.000000
O O15 0.501473 0.173824 0.826108
O O16 0.500000 0.000000 0.000000
#
# Coordination Sequence:
#
# PCOD8000588 Si02
#       7
#     2   2   2   2   2   2   2
#     4  11  20  42  63  85 124 167 208 248 314 381
#     4  10  20  37  61  88 116 158 217 256 297 369
#     4  10  22  38  60  88 124 160 202 263 313 360
#     4  11  25  42  64  94 132 163 205 272 317 361
#     4  10  19  39  65  86 121 171 212 247 311 379
#     4  11  23  41  60  90 127 163 207 259 320 371
#     4  11  21  36  65  88 115 168 208 249 310 380
#
# _framework density 19.768913999999999
#
# number of rings (size 3 to 8) (size 9 to 14) (size 15 to 20)
#    0.000    1.429    2.857    5.143    0.000    6.286 
#    2.571    1.429    0.000    0.000    0.000    0.000 
#    0.000    0.000    0.000    0.000    0.000    0.000 
#
# Total GULP energy -173547.742573 kJ/mol
# GULP energy per Si atom -12396.267327 kJ/mol
# Density = 1.972392 g / cm^3
# Si number density = 19.768914 Si / 1000 Ang^3
#
#
#
# Elastic Constant Matrix: (Units=GPa)
#
#
# Indices 1 2 3 4 5 6 
#
# 1 132.7979 51.1062 40.7279 5.1459 -2.0199 6.6271
# 2 51.1062 111.4388 53.7525 0.9681 5.6785 4.9328
# 3 40.7279 53.7525 81.5850 -3.2670 -6.7462 13.9966
# 4 5.1459 0.9681 -3.2670 38.2031 3.4716 -6.4458
# 5 -2.0199 5.6785 -6.7462 3.4716 31.2877 -7.6989
# 6 6.6271 4.9328 13.9966 -6.4458 -7.6989 29.7883
#
#
#
# Elastic Compliance Matrix: (Units=1/GPa)
#
#
# Indices 1 2 3 4 5 6 
#
# 1 0.009655 -0.003136 -0.002669 -0.001602 0.000659 -0.000551
# 2 -0.003136 0.014823 -0.008779 -0.000096 -0.004482 0.001189
# 3 -0.002669 -0.008779 0.020870 0.000890 0.004229 -0.006473
# 4 -0.001602 -0.000096 0.000890 0.027544 -0.001596 0.005501
# 5 0.000659 -0.004482 0.004229 -0.001596 0.035753 0.007503
# 6 -0.000551 0.001189 -0.006473 0.005501 0.007503 0.039667
#
#
# Mechanical properties :
#
#
# Convention : Reuss Voigt Hill
#
# Bulk Modulus (GPa) = 61.80596 68.55500 65.18048
# Shear Modulus (GPa) = 27.34150 31.87149 29.60650
#
# Velocity S-wave (km/s) = 3.72298 4.01958 3.87412
# Velocity P-wave (km/s) = 7.05782 7.50308 7.28385
#
# Compressibility (1/GPa) = 0.01617967
#
# Stress axis : x y z
#
# Youngs Moduli (GPa) = 103.57107 67.46349 47.91671
#
# Poissons Ratio (x) = 0.21155 0.12789
# Poissons Ratio (y) = 0.32477 0.42067
# Poissons Ratio (z) = 0.27644 0.59227
#
# Static dielectric constant tensor:
#      x y z
#    x 3.671870 0.014830 -0.132140 
#    y 0.014830 3.553830 -0.118110 
#    z -0.132140 -0.118110 3.539320 
# 
# 
# High freq. dielectric constant tensor:
#      x y z
#    x 1.781680 0.009510 -0.014420 
#    y 0.009510 1.780250 -0.013160 
#    z -0.014420 -0.013160 1.755250 
# 
# From -- ./inp_files/199326.got.cif
#   From: 2010.06.25/outbox.cif.g09.slc.cpg/sg2_100_cif.got.tgz:199326.got - 2010.06.27 13:26:56.
