data_PCOD8000574
_publ_section_title
;
Structure prediction by ZEFSAII (Michael W. Deem and Ramdas Pophale) SiO2 
 PCOD8000574
Probable space group: P -1
;
_chemical_formula_sum "Si O2"
_cell_formula_units_Z 16
_cell_length_a 16.110418
_cell_length_b 12.481507
_cell_length_c 8.770723
_cell_angle_alpha 105.632791
_cell_angle_beta 98.574773
_cell_angle_gamma 26.045725
_cell_volume 727.484124
_symmetry_space_group_name_H-M "P -1"
_symmetry_group_IT_number 2
_symmetry_cell_setting 'triclinic'
loop_
_space_group_symop_operation_xyz
x,y,z
-x,-y,-z
loop_
_atom_site_type_symbol
_atom_site_label
_atom_site_fract_x
_atom_site_fract_y
_atom_site_fract_z
Si Si1 0.755921 0.490713 0.247388
Si Si2 0.382340 0.741135 0.489311
Si Si3 0.475648 0.648718 0.126043
Si Si4 0.994960 0.246558 0.728784
Si Si5 0.807720 0.688801 0.925363
Si Si6 0.357583 0.380060 0.403193
Si Si7 0.888748 0.840747 0.954620
Si Si8 0.552645 0.921004 0.207889
O O1 0.677156 0.478525 0.122655
O O2 0.765026 0.450098 0.412079
O O3 0.604988 0.772370 0.297833
O O4 0.965977 0.283622 0.178131
O O5 0.500000 0.500000 0.500000
O O6 0.400891 0.725617 0.307318
O O7 0.465934 0.745850 0.607267
O O8 0.153657 0.013444 0.563794
O O9 0.500000 0.500000 0.000000
O O10 0.323947 0.895639 0.073150
O O11 0.075628 0.124867 0.873496
O O12 0.941579 0.441640 0.773404
O O13 0.792615 0.424237 0.703871
O O14 0.603253 0.955719 0.891846
O O15 0.920315 0.673351 0.954749
O O16 0.749243 0.710617 0.085058
O O17 0.457657 0.141383 0.341616
#
# Coordination Sequence:
#
# PCOD8000574 Si02
#       8
#     2   2   2   2   2   2   2   2
#     4  11  23  41  64  95 132 171 211 266 322 382
#     4  11  25  46  69  92 123 171 218 268 323 381
#     4  11  26  47  66  93 128 167 221 271 322 378
#     4  11  23  40  64  97 128 169 214 260 317 379
#     4  10  21  37  63 100 135 170 213 261 314 386
#     4  10  24  41  63  95 134 167 211 264 321 383
#     4  12  23  39  68  97 132 172 214 262 320 381
#     4  10  19  39  64  95 136 172 210 259 322 379
#
# _framework density 21.993607999999998
#
# number of rings (size 3 to 8) (size 9 to 14) (size 15 to 20)
#    0.000    1.250    2.500    3.000    1.750    3.000 
#    0.000    1.875    0.000    0.000    0.000    0.000 
#    0.000    0.000    0.000    0.000    0.000    0.000 
#
# Total GULP energy -198328.001639 kJ/mol
# GULP energy per Si atom -12395.500102 kJ/mol
# Density = 2.194355 g / cm^3
# Si number density = 21.993608 Si / 1000 Ang^3
#
#
#
# Elastic Constant Matrix: (Units=GPa)
#
#
# Indices 1 2 3 4 5 6 
#
# 1 72.9133 15.5826 13.7232 7.7965 18.9550 -5.8603
# 2 15.5826 82.1148 23.4890 -2.3375 8.5446 -6.3573
# 3 13.7232 23.4890 75.9687 -1.6086 14.3729 -3.0324
# 4 7.7965 -2.3375 -1.6086 43.2191 -3.4036 -2.1719
# 5 18.9550 8.5446 14.3729 -3.4036 34.8975 -4.9511
# 6 -5.8603 -6.3573 -3.0324 -2.1719 -4.9511 33.4866
#
#
#
# Elastic Compliance Matrix: (Units=1/GPa)
#
#
# Indices 1 2 3 4 5 6 
#
# 1 0.017065 -0.002136 -0.000830 -0.003856 -0.008642 0.000978
# 2 -0.002136 0.013867 -0.003742 0.001069 -0.000314 0.001943
# 3 -0.000830 -0.003742 0.015410 0.000118 -0.004995 -0.000191
# 4 -0.003856 0.001069 0.000118 0.024332 0.004408 0.001769
# 5 -0.008642 -0.000314 -0.004995 0.004408 0.036431 0.003648
# 6 0.000978 0.001943 -0.000191 0.001769 0.003648 0.031039
#
#
# Mechanical properties :
#
#
# Convention : Reuss Voigt Hill
#
# Bulk Modulus (GPa) = 30.37048 37.39850 33.88449
# Shear Modulus (GPa) = 30.76228 34.20077 32.48153
#
# Velocity S-wave (km/s) = 3.74397 3.94767 3.84717
# Velocity P-wave (km/s) = 5.70337 6.14979 5.93078
#
# Compressibility (1/GPa) = 0.03292671
#
# Stress axis : x y z
#
# Youngs Moduli (GPa) = 58.59929 72.11165 64.89161
#
# Poissons Ratio (x) = 0.15401 0.05386
# Poissons Ratio (y) = 0.12516 0.24284
# Poissons Ratio (z) = 0.04863 0.26986
#
# Static dielectric constant tensor:
#      x y z
#    x 4.037480 -0.258740 0.148100 
#    y -0.258740 4.132170 -0.197660 
#    z 0.148100 -0.197660 3.814190 
# 
# 
# High freq. dielectric constant tensor:
#      x y z
#    x 1.858930 -0.017520 0.009000 
#    y -0.017520 1.880890 -0.011330 
#    z 0.009000 -0.011330 1.857970 
# 
# From -- ./inp_files/308084.got.cif
#   From: 2010.06.25/outbox.cif.g09.slc.cpg/sg2_155_cif.got.tgz:308084.got - 2010.06.27 13:26:56.
