data_PCOD8000392
_publ_section_title
;
Structure prediction by ZEFSAII (Michael W. Deem and Ramdas Pophale) SiO2 
 PCOD8000392
Probable space group: P -1
;
_chemical_formula_sum "Si O2"
_cell_formula_units_Z 14
_cell_length_a 13.920617
_cell_length_b 25.007432
_cell_length_c 9.906209
_cell_angle_alpha 26.525676
_cell_angle_beta 147.360364
_cell_angle_gamma 152.974816
_cell_volume 682.341975
_symmetry_space_group_name_H-M "P -1"
_symmetry_group_IT_number 2
_symmetry_cell_setting 'triclinic'
loop_
_space_group_symop_operation_xyz
x,y,z
-x,-y,-z
loop_
_atom_site_type_symbol
_atom_site_label
_atom_site_fract_x
_atom_site_fract_y
_atom_site_fract_z
Si Si1 0.824663 0.303302 0.585494
Si Si2 0.802707 0.337414 0.174055
Si Si3 0.968075 0.856557 0.842538
Si Si4 0.346305 0.340702 0.300882
Si Si5 0.725678 0.436230 0.372794
Si Si6 0.022683 0.854708 0.222984
Si Si7 0.691631 0.812273 0.138626
O O1 0.756858 0.315947 0.327600
O O2 0.667152 0.292164 0.543408
O O3 0.035208 0.461823 0.514623
O O4 0.842383 0.165506 0.925830
O O5 0.873081 0.235353 0.431470
O O6 0.569884 0.288275 0.949949
O O7 0.000000 0.500000 0.000000
O O8 0.754888 0.724287 0.819498
O O9 0.000000 0.000000 0.500000
O O10 0.943768 0.849461 0.989968
O O11 0.590200 0.388644 0.459170
O O12 0.236808 0.229996 0.545351
O O13 0.328882 0.476294 0.993877
O O14 0.804948 0.784945 0.211757
O O15 0.212270 0.017583 0.125625
#
# Coordination Sequence:
#
# PCOD8000392 Si02
#       7
#     2   2   2   2   2   2   2
#     4   9  20  37  57  85 120 153 196 255 303 361
#     4  11  24  40  62  93 127 164 207 259 309 372
#     4  10  19  39  61  84 115 156 205 255 294 360
#     4  10  20  35  63  86 116 159 201 252 309 361
#     4   9  19  37  58  87 120 151 203 255 307 366
#     4  10  24  43  63  90 128 166 211 250 311 374
#     4  11  23  42  64  90 126 172 203 253 314 374
#
# _framework density 20.517569999999999
#
# number of rings (size 3 to 8) (size 9 to 14) (size 15 to 20)
#    0.000    2.000    1.429    1.286    4.000    1.714 
#    2.571    2.143    0.000    0.000    0.000    0.000 
#    0.000    0.000    0.000    0.000    0.000    0.000 
#
# Total GULP energy -173460.672989 kJ/mol
# GULP energy per Si atom -12390.048071 kJ/mol
# Density = 2.047087 g / cm^3
# Si number density = 20.517570 Si / 1000 Ang^3
#
#
#
# Elastic Constant Matrix: (Units=GPa)
#
#
# Indices 1 2 3 4 5 6 
#
# 1 125.7346 34.1712 49.6306 3.2642 12.6819 -7.8662
# 2 34.1712 74.3222 21.0983 5.7045 1.3998 5.5862
# 3 49.6306 21.0983 87.5511 -4.9059 3.5312 2.0496
# 4 3.2642 5.7045 -4.9059 29.7230 -4.1604 -0.8656
# 5 12.6819 1.3998 3.5312 -4.1604 28.2084 -1.3738
# 6 -7.8662 5.5862 2.0496 -0.8656 -1.3738 28.1296
#
#
#
# Elastic Compliance Matrix: (Units=1/GPa)
#
#
# Indices 1 2 3 4 5 6 
#
# 1 0.012191 -0.003987 -0.005982 -0.002082 -0.004630 0.004346
# 2 -0.003987 0.016336 -0.001768 -0.003038 0.000546 -0.004297
# 3 -0.005982 -0.001768 0.015446 0.003658 0.001272 -0.002272
# 4 -0.002082 -0.003038 0.003658 0.035931 0.005985 0.001152
# 5 -0.004630 0.000546 0.001272 0.005985 0.038255 0.000557
# 6 0.004346 -0.004297 -0.002272 0.001152 0.000557 0.037847
#
#
# Mechanical properties :
#
#
# Convention : Reuss Voigt Hill
#
# Bulk Modulus (GPa) = 48.78295 55.26758 52.02526
# Shear Modulus (GPa) = 26.83685 29.39271 28.11478
#
# Velocity S-wave (km/s) = 3.62054 3.78903 3.70574
# Velocity P-wave (km/s) = 6.42694 6.79246 6.61223
#
# Compressibility (1/GPa) = 0.02049897
#
# Stress axis : x y z
#
# Youngs Moduli (GPa) = 82.02952 61.21565 64.74273
#
# Poissons Ratio (x) = 0.24404 0.38727
# Poissons Ratio (y) = 0.32701 0.11449
# Poissons Ratio (z) = 0.49067 0.10825
#
# Static dielectric constant tensor:
#      x y z
#    x 4.372360 -0.270280 0.332010 
#    y -0.270280 3.635570 -0.008040 
#    z 0.332010 -0.008040 3.763060 
# 
# 
# High freq. dielectric constant tensor:
#      x y z
#    x 1.816010 -0.010050 0.010510 
#    y -0.010050 1.788480 0.005660 
#    z 0.010510 0.005660 1.802000 
# 
# From -- ./inp_files/207287.got.cif
#   From: 2010.06.25/outbox.cif.g09.slc.cpg/sg2_104_cif.got.tgz:207287.got - 2010.06.27 13:26:56.
