data_PCOD8000954
_publ_section_title
;
Structure prediction by ZEFSAII (Michael W. Deem and Ramdas Pophale) SiO2 
 PCOD8000954
Probable space group: P -1
;
_chemical_formula_sum "Si O2"
_cell_formula_units_Z 14
_cell_length_a 8.759688
_cell_length_b 13.376871
_cell_length_c 13.199984
_cell_angle_alpha 147.582553
_cell_angle_beta 86.886252
_cell_angle_gamma 73.251403
_cell_volume 646.980641
_symmetry_space_group_name_H-M "P -1"
_symmetry_group_IT_number 2
_symmetry_cell_setting 'triclinic'
loop_
_space_group_symop_operation_xyz
x,y,z
-x,-y,-z
loop_
_atom_site_type_symbol
_atom_site_label
_atom_site_fract_x
_atom_site_fract_y
_atom_site_fract_z
Si Si1 0.203956 0.378281 0.832232
Si Si2 0.642611 0.085950 0.299118
Si Si3 0.742921 0.647268 0.564153
Si Si4 0.544617 0.058606 0.680956
Si Si5 0.920931 0.292662 0.066384
Si Si6 0.596335 0.516311 0.609364
Si Si7 0.723571 0.062856 0.881727
O O1 0.375947 0.308052 0.844336
O O2 0.177873 0.560876 0.907554
O O3 0.277210 0.132282 0.563752
O O4 0.000000 0.500000 0.000000
O O5 0.491638 0.149759 0.269665
O O6 0.669084 0.290907 0.485546
O O7 0.560003 0.055893 0.378801
O O8 0.849844 0.836724 0.050770
O O9 0.825385 0.464007 0.312351
O O10 0.770398 0.519038 0.561324
O O11 0.829659 0.790849 0.683839
O O12 0.632779 0.108999 0.812789
O O13 0.888131 0.096062 0.905279
O O14 0.500000 0.500000 0.500000
O O15 0.448993 0.755416 0.880819
#
# Coordination Sequence:
#
# PCOD8000954 Si02
#       7
#     2   2   2   2   2   2   2
#     4  11  21  41  69  90 123 167 209 259 320 370
#     4  10  20  39  63  92 127 168 202 254 323 361
#     4  10  22  43  62  91 130 167 211 258 313 368
#     4  10  22  40  66  93 125 166 208 259 316 371
#     4  12  22  40  65  93 131 162 208 269 310 369
#     4  10  19  40  67  90 127 176 204 252 316 374
#     4  11  21  41  66  93 130 164 211 260 310 373
#
# _framework density 21.638978999999999
#
# number of rings (size 3 to 8) (size 9 to 14) (size 15 to 20)
#    0.000    1.429    7.143    0.429    0.000    1.143 
#    7.714    1.429    0.000    0.000    0.000    0.000 
#    0.000    0.000    0.000    0.000    0.000    0.000 
#
# Total GULP energy -173502.687928 kJ/mol
# GULP energy per Si atom -12393.049138 kJ/mol
# Density = 2.158973 g / cm^3
# Si number density = 21.638979 Si / 1000 Ang^3
#
#
#
# Elastic Constant Matrix: (Units=GPa)
#
#
# Indices 1 2 3 4 5 6 
#
# 1 68.0825 24.3596 56.5600 4.5220 -5.0745 12.0668
# 2 24.3596 53.6796 27.4210 -7.2314 -6.9352 20.6205
# 3 56.5600 27.4210 105.9123 -15.4260 -6.1974 2.4968
# 4 4.5220 -7.2314 -15.4260 39.0718 3.1989 4.7232
# 5 -5.0745 -6.9352 -6.1974 3.1989 39.4830 2.6933
# 6 12.0668 20.6205 2.4968 4.7232 2.6933 31.4208
#
#
#
# Elastic Compliance Matrix: (Units=1/GPa)
#
#
# Indices 1 2 3 4 5 6 
#
# 1 0.033368 -0.004538 -0.017984 -0.011134 0.002042 -0.006909
# 2 -0.004538 0.032365 -0.004148 0.006942 0.005298 -0.020666
# 3 -0.017984 -0.004148 0.021215 0.008956 -0.000891 0.006673
# 4 -0.011134 0.006942 0.008956 0.032488 -0.001043 -0.005786
# 5 0.002042 0.005298 -0.000891 -0.001043 0.026898 -0.006339
# 6 -0.006909 -0.020666 0.006673 -0.005786 -0.006339 0.048925
#
#
# Mechanical properties :
#
#
# Convention : Reuss Voigt Hill
#
# Bulk Modulus (GPa) = 29.75398 49.37284 39.56341
# Shear Modulus (GPa) = 19.24553 29.95068 24.59810
#
# Velocity S-wave (km/s) = 2.98550 3.72440 3.37523
# Velocity P-wave (km/s) = 5.06600 6.43125 5.78901
#
# Compressibility (1/GPa) = 0.03360894
#
# Stress axis : x y z
#
# Youngs Moduli (GPa) = 29.96867 30.89715 47.13749
#
# Poissons Ratio (x) = 0.14020 0.84772
# Poissons Ratio (y) = 0.13599 0.19552
# Poissons Ratio (z) = 0.53896 0.12816
#
# Static dielectric constant tensor:
#      x y z
#    x 4.025690 0.416660 0.041580 
#    y 0.416660 4.492160 0.179480 
#    z 0.041580 0.179480 3.920540 
# 
# 
# High freq. dielectric constant tensor:
#      x y z
#    x 1.828470 0.019730 -0.011790 
#    y 0.019730 1.858140 0.002930 
#    z -0.011790 0.002930 1.852490 
# 
# From -- ./inp_files/315071.got.cif
#   From: 2010.06.25/outbox.cif.g09.slc.cpg/sg2_158_cif.got.tgz:315071.got - 2010.06.27 13:26:56.
