data_PCOD8000992
_publ_section_title
;
Structure prediction by ZEFSAII (Michael W. Deem and Ramdas Pophale) SiO2 
 PCOD8000992
Probable space group: P -1
;
_chemical_formula_sum "Si O2"
_cell_formula_units_Z 16
_cell_length_a 11.554928
_cell_length_b 18.111460
_cell_length_c 7.763249
_cell_angle_alpha 34.332496
_cell_angle_beta 70.168935
_cell_angle_gamma 54.243125
_cell_volume 706.200163
_symmetry_space_group_name_H-M "P -1"
_symmetry_group_IT_number 2
_symmetry_cell_setting 'triclinic'
loop_
_space_group_symop_operation_xyz
x,y,z
-x,-y,-z
loop_
_atom_site_type_symbol
_atom_site_label
_atom_site_fract_x
_atom_site_fract_y
_atom_site_fract_z
Si Si1 0.861389 0.090851 0.100482
Si Si2 0.028080 0.254315 0.377290
Si Si3 0.364670 0.383825 0.521657
Si Si4 0.127273 0.335996 0.836058
Si Si5 0.689448 0.488406 0.046709
Si Si6 0.415885 0.623922 0.151677
Si Si7 0.692044 0.198820 0.640686
Si Si8 0.117477 0.132024 0.939975
O O1 0.943599 0.900986 0.436218
O O2 0.703719 0.191528 0.089770
O O3 0.827425 0.139722 0.822130
O O4 0.965802 0.141695 0.023538
O O5 0.112035 0.210564 0.605063
O O6 0.853183 0.392661 0.236522
O O7 0.091694 0.320938 0.080473
O O8 0.277264 0.332157 0.780327
O O9 0.322997 0.560948 0.235490
O O10 0.541057 0.247509 0.722406
O O11 0.315737 0.400312 0.314939
O O12 0.147145 0.202779 0.953499
O O13 0.000000 0.500000 0.500000
O O14 0.550076 0.611341 0.002716
O O15 0.660619 0.354164 0.256730
O O16 0.500000 0.500000 0.500000
O O17 0.741739 0.053836 0.766784
#
# Coordination Sequence:
#
# PCOD8000992 Si02
#       8
#     2   2   2   2   2   2   2   2
#     4  11  20  39  70 101 129 159 218 284 321 377
#     4  11  23  44  68  99 127 169 225 267 323 384
#     4  11  24  41  59  93 140 165 214 264 317 399
#     4  12  27  44  62  93 134 181 216 261 317 397
#     4  11  20  39  65  93 133 163 205 278 332 364
#     4  11  20  37  67 100 123 163 209 269 332 369
#     4  10  19  40  68  95 127 164 208 278 334 372
#     4  11  23  43  69  94 131 171 215 269 332 382
#
# _framework density 22.656465000000001
#
# number of rings (size 3 to 8) (size 9 to 14) (size 15 to 20)
#    0.000    1.000    6.250    3.000    0.000    3.500 
#    2.250    2.500    0.000    0.000    0.000    0.000 
#    0.000    0.000    0.000    0.000    0.000    0.000 
#
# Total GULP energy -198287.717812 kJ/mol
# GULP energy per Si atom -12392.982363 kJ/mol
# Density = 2.260490 g / cm^3
# Si number density = 22.656465 Si / 1000 Ang^3
#
#
#
# Elastic Constant Matrix: (Units=GPa)
#
#
# Indices 1 2 3 4 5 6 
#
# 1 59.0738 6.6181 1.0941 6.6352 -8.6936 -18.2682
# 2 6.6181 100.6411 15.6157 -3.4967 -8.4862 -18.7279
# 3 1.0941 15.6157 65.2083 20.4012 -2.0318 -16.3072
# 4 6.6352 -3.4967 20.4012 45.3314 -5.5569 -1.0590
# 5 -8.6936 -8.4862 -2.0318 -5.5569 23.8587 5.0033
# 6 -18.2682 -18.7279 -16.3072 -1.0590 5.0033 36.3149
#
#
#
# Elastic Compliance Matrix: (Units=1/GPa)
#
#
# Indices 1 2 3 4 5 6 
#
# 1 0.021749 0.000495 0.003985 -0.004048 0.004942 0.012187
# 2 0.000495 0.011522 -0.002201 0.002365 0.003642 0.004770
# 3 0.003985 -0.002201 0.021669 -0.010522 -0.002157 0.010590
# 4 -0.004048 0.002365 -0.010522 0.028201 0.006207 -0.005575
# 5 0.004942 0.003642 -0.002157 0.006207 0.046876 -0.002882
# 6 0.012187 0.004770 0.010590 -0.005575 -0.002882 0.041118
#
#
# Mechanical properties :
#
#
# Convention : Reuss Voigt Hill
#
# Bulk Modulus (GPa) = 16.80723 30.17545 23.49134
# Shear Modulus (GPa) = 26.82272 34.54069 30.68170
#
# Velocity S-wave (km/s) = 3.44450 3.90877 3.68396
# Velocity P-wave (km/s) = 4.82222 5.80680 5.33726
#
# Compressibility (1/GPa) = 0.05949821
#
# Stress axis : x y z
#
# Youngs Moduli (GPa) = 45.97834 86.78953 46.14931
#
# Poissons Ratio (x) = -0.04300 -0.18388
# Poissons Ratio (y) = -0.02278 0.10158
# Poissons Ratio (z) = -0.18320 0.19102
#
# Static dielectric constant tensor:
#      x y z
#    x 5.755920 0.989370 -0.266570 
#    y 0.989370 5.262930 -0.230140 
#    z -0.266570 -0.230140 4.079020 
# 
# 
# High freq. dielectric constant tensor:
#      x y z
#    x 1.869500 -0.015200 0.015410 
#    y -0.015200 1.904630 -0.000540 
#    z 0.015410 -0.000540 1.882190 
# 
# From -- ./inp_files/281393.got.cif
#   From: 2010.06.25/outbox.cif.g09.slc.cpg/sg2_141_cif.got.tgz:281393.got - 2010.06.27 13:26:56.
