data_PCOD8000558
_publ_section_title
;
Structure prediction by ZEFSAII (Michael W. Deem and Ramdas Pophale) SiO2 
 PCOD8000558
Probable space group: P -1
;
_chemical_formula_sum "Si O2"
_cell_formula_units_Z 16
_cell_length_a 12.968448
_cell_length_b 12.185554
_cell_length_c 5.326604
_cell_angle_alpha 118.168681
_cell_angle_beta 102.468251
_cell_angle_gamma 70.138875
_cell_volume 696.350860
_symmetry_space_group_name_H-M "P -1"
_symmetry_group_IT_number 2
_symmetry_cell_setting 'triclinic'
loop_
_space_group_symop_operation_xyz
x,y,z
-x,-y,-z
loop_
_atom_site_type_symbol
_atom_site_label
_atom_site_fract_x
_atom_site_fract_y
_atom_site_fract_z
Si Si1 0.896446 0.555364 0.236465
Si Si2 0.015771 0.293253 0.171831
Si Si3 0.315393 0.494086 0.812374
Si Si4 0.802714 0.216130 0.992313
Si Si5 0.223579 0.236240 0.951269
Si Si6 0.300972 0.973918 0.472986
Si Si7 0.631401 0.150349 0.120146
Si Si8 0.592808 0.641610 0.768097
O O1 0.975291 0.631494 0.486593
O O2 0.791840 0.555889 0.359194
O O3 0.844942 0.622592 0.026979
O O4 0.965194 0.405743 0.056206
O O5 0.137721 0.201331 0.066792
O O6 0.931011 0.208121 0.083020
O O7 0.392050 0.457808 0.566273
O O8 0.273301 0.647387 0.004264
O O9 0.378353 0.430399 0.027921
O O10 0.792936 0.103075 0.671650
O O11 0.746783 0.189751 0.197919
O O12 0.247188 0.128226 0.627831
O O13 0.337135 0.254489 0.137434
O O14 0.371225 0.931328 0.718422
O O15 0.377798 0.938645 0.226196
O O16 0.533614 0.280408 0.206188
#
# Coordination Sequence:
#
# PCOD8000558 Si02
#       8
#     2   2   2   2   2   2   2   2
#     4   9  20  37  60  97 123 154 200 254 321 352
#     4  10  19  39  64  91 123 159 198 259 306 368
#     4  10  21  38  65  95 125 155 201 259 312 366
#     4   9  24  41  60  91 129 166 203 246 308 367
#     4  11  23  38  65  91 126 156 211 252 306 366
#     4  10  25  43  62  89 125 169 207 246 302 367
#     4  10  24  45  59  92 123 166 210 247 308 358
#     4  11  23  39  67  95 119 158 207 262 311 355
#
# _framework density 22.976921999999998
#
# number of rings (size 3 to 8) (size 9 to 14) (size 15 to 20)
#    0.750    1.250    1.250    1.125    3.500    3.500 
#    0.000    1.250    0.000    0.000    0.000    0.000 
#    0.000    0.000    0.000    0.000    0.000    0.000 
#
# Total GULP energy -198228.914913 kJ/mol
# GULP energy per Si atom -12389.307182 kJ/mol
# Density = 2.292463 g / cm^3
# Si number density = 22.976922 Si / 1000 Ang^3
#
#
#
# Elastic Constant Matrix: (Units=GPa)
#
#
# Indices 1 2 3 4 5 6 
#
# 1 50.4134 -2.5905 1.3694 -0.7489 -5.5660 3.6343
# 2 -2.5905 32.3856 5.5152 -12.0342 2.9864 6.3896
# 3 1.3694 5.5152 80.6202 -9.5822 -11.4017 10.5693
# 4 -0.7489 -12.0342 -9.5822 37.4016 0.5471 3.7446
# 5 -5.5660 2.9864 -11.4017 0.5471 33.1492 2.7092
# 6 3.6343 6.3896 10.5693 3.7446 2.7092 13.5093
#
#
#
# Elastic Compliance Matrix: (Units=1/GPa)
#
#
# Indices 1 2 3 4 5 6 
#
# 1 0.021387 0.004423 0.001866 0.003380 0.004692 -0.011183
# 2 0.004423 0.042864 0.002777 0.017441 -0.000127 -0.028445
# 3 0.001866 0.002777 0.016330 0.006802 0.007029 -0.017886
# 4 0.003380 0.017441 0.006802 0.036641 0.002790 -0.025197
# 5 0.004692 -0.000127 0.007029 0.002790 0.034514 -0.014397
# 6 -0.011183 -0.028445 -0.017886 -0.025197 -0.014397 0.114350
#
#
# Mechanical properties :
#
#
# Convention : Reuss Voigt Hill
#
# Bulk Modulus (GPa) = 10.13059 19.11193 14.62126
# Shear Modulus (GPa) = 17.80252 27.42036 22.61144
#
# Velocity S-wave (km/s) = 2.78654 3.45829 3.14043
# Velocity P-wave (km/s) = 3.84340 4.92771 4.41894
#
# Compressibility (1/GPa) = 0.09871090
#
# Stress axis : x y z
#
# Youngs Moduli (GPa) = 46.75726 23.32973 61.23816
#
# Poissons Ratio (x) = -0.10318 -0.11425
# Poissons Ratio (y) = -0.20680 -0.17004
# Poissons Ratio (z) = -0.08723 -0.06478
#
# Static dielectric constant tensor:
#      x y z
#    x 4.275990 0.037810 -0.070080 
#    y 0.037810 3.910140 0.089360 
#    z -0.070080 0.089360 3.779280 
# 
# 
# High freq. dielectric constant tensor:
#      x y z
#    x 1.909130 -0.000320 -0.008200 
#    y -0.000320 1.889220 0.004810 
#    z -0.008200 0.004810 1.894400 
# 
# From -- ./inp_files/95538.got.cif
#   From: 2010.06.25/outbox.cif.g09.slc.cpg/sg2_48_cif.got.tgz:95538.got - 2010.06.27 13:26:56.
