data_PCOD8000221
_publ_section_title
;
Structure prediction by ZEFSAII (Michael W. Deem and Ramdas Pophale) SiO2 
 PCOD8000221
Probable space group: P 1
;
_chemical_formula_sum "Si O2"
_cell_formula_units_Z 8
_cell_length_a 12.622316
_cell_length_b 5.026564
_cell_length_c 9.359652
_cell_angle_alpha 73.090622
_cell_angle_beta 33.123297
_cell_angle_gamma 83.804312
_cell_volume 299.835039
_symmetry_space_group_name_H-M "P 1"
_symmetry_group_IT_number 1
_symmetry_cell_setting 'triclinic'
loop_
_space_group_symop_operation_xyz
x,y,z
loop_
_atom_site_type_symbol
_atom_site_label
_atom_site_fract_x
_atom_site_fract_y
_atom_site_fract_z
Si Si1 0.337420 0.709240 0.319230
Si Si2 0.785411 0.822299 0.882016
Si Si3 0.346087 0.465231 0.821156
Si Si4 0.824156 0.687633 0.549381
Si Si5 0.984331 0.611624 0.939644
Si Si6 0.189153 0.241795 0.328634
Si Si7 0.716825 0.236148 0.516795
Si Si8 0.175513 0.965131 0.914941
O O1 0.175654 0.573227 0.643659
O O2 0.325166 0.463928 0.252457
O O3 0.285692 0.973748 0.256715
O O4 0.554362 0.826767 0.130741
O O5 0.838044 0.658340 0.708042
O O6 0.808873 0.642542 0.025157
O O7 0.951473 0.133902 0.655699
O O8 0.550771 0.376032 0.619139
O O9 0.358090 0.802078 0.729134
O O10 0.257163 0.303572 0.799197
O O11 0.202113 0.368908 0.135543
O O12 0.754072 0.369635 0.612729
O O13 0.672956 0.890889 0.642236
O O14 0.042995 0.841534 0.221912
O O15 0.050190 0.900891 0.918833
O O16 0.906190 0.341387 0.178467
#
# Coordination Sequence:
#
# PCOD8000221 Si02
#       8
#     1   1   1   1   1   1   1   1
#     4  11  26  47  70 106 147 186 237 294 360 431
#     4  11  25  47  76 103 145 194 234 295 369 415
#     4  12  23  43  74 104 138 188 238 294 361 415
#     4  11  23  45  72 102 136 185 238 297 352 420
#     4  10  27  47  68 106 147 185 237 292 351 434
#     4  11  25  45  73 109 140 181 245 301 347 431
#     4  11  25  45  72 105 142 184 240 295 358 426
#     4  11  24  43  71  99 147 181 235 294 352 422
#
# _framework density 26.681336000000002
#
# number of rings (size 3 to 8) (size 9 to 14) (size 15 to 20)
#    0.000    1.000    1.250    4.500    3.500    8.000 
#    2.250    0.000    0.000    0.000    0.000    0.000 
#    0.000    0.000    0.000    0.000    0.000    0.000 
#
# Total GULP energy -99155.978010 kJ/mol
# GULP energy per Si atom -12394.497251 kJ/mol
# Density = 2.662061 g / cm^3
# Si number density = 26.681336 Si / 1000 Ang^3
#
#
#
# Elastic Constant Matrix: (Units=GPa)
#
#
# Indices 1 2 3 4 5 6 
#
# 1 154.3259 14.7254 36.2523 6.8293 2.9810 0.9941
# 2 14.7254 71.4999 31.6257 11.4731 9.2860 -3.5214
# 3 36.2523 31.6257 58.9877 8.4444 -6.1037 3.8572
# 4 6.8293 11.4731 8.4444 32.7961 0.2294 -1.8036
# 5 2.9810 9.2860 -6.1037 0.2294 62.8919 9.6744
# 6 0.9941 -3.5214 3.8572 -1.8036 9.6744 41.9175
#
#
#
# Elastic Compliance Matrix: (Units=1/GPa)
#
#
# Indices 1 2 3 4 5 6 
#
# 1 0.007682 0.001061 -0.005372 -0.000544 -0.001139 0.000641
# 2 0.001061 0.020422 -0.011747 -0.004104 -0.004759 0.003693
# 3 -0.005372 -0.011747 0.027742 -0.002214 0.005422 -0.004759
# 4 -0.000544 -0.004104 -0.002214 0.032679 0.000105 0.001254
# 5 -0.001139 -0.004759 0.005422 0.000105 0.017953 -0.005011
# 6 0.000641 0.003693 -0.004759 0.001254 -0.005011 0.025800
#
#
# Mechanical properties :
#
#
# Convention : Reuss Voigt Hill
#
# Bulk Modulus (GPa) = 42.14268 50.00227 46.07247
# Shear Modulus (GPa) = 29.01829 41.00178 35.01003
#
# Velocity S-wave (km/s) = 3.30144 3.92436 3.62630
# Velocity P-wave (km/s) = 5.51015 6.27019 5.90242
#
# Compressibility (1/GPa) = 0.02372891
#
# Stress axis : x y z
#
# Youngs Moduli (GPa) = 130.16693 48.96638 36.04706
#
# Poissons Ratio (x) = -0.05194 0.19364
# Poissons Ratio (y) = -0.13806 0.42346
# Poissons Ratio (z) = 0.69924 0.57523
#
# Static dielectric constant tensor:
#      x y z
#    x 5.117110 0.343610 -0.082870 
#    y 0.343610 5.005460 0.170000 
#    z -0.082870 0.170000 4.931630 
# 
# 
# High freq. dielectric constant tensor:
#      x y z
#    x 2.088880 -0.002460 -0.000420 
#    y -0.002460 2.067870 0.016410 
#    z -0.000420 0.016410 2.061020 
# 
# From -- ./inp_files/2217.got.cif
#   From: 2010.03.12/outbox.cif.g09.slc.cpg/sg1_2_cif.got.tgz:2217.got - 2010.03.29 11:57:58.
