data_PCOD8000004
_publ_section_title
;
Structure prediction by ZEFSAII (Michael W. Deem and Ramdas Pophale) SiO2 
 PCOD8000004
Probable space group: P 1
;
_chemical_formula_sum "Si O2"
_cell_formula_units_Z 8
_cell_length_a 7.999367
_cell_length_b 12.235973
_cell_length_c 9.085867
_cell_angle_alpha 29.996703
_cell_angle_beta 68.315748
_cell_angle_gamma 67.569352
_cell_volume 409.510475
_symmetry_space_group_name_H-M "P 1"
_symmetry_group_IT_number 1
_symmetry_cell_setting 'triclinic'
loop_
_space_group_symop_operation_xyz
x,y,z
loop_
_atom_site_type_symbol
_atom_site_label
_atom_site_fract_x
_atom_site_fract_y
_atom_site_fract_z
Si Si1 0.824410 0.050000 0.756450
Si Si2 0.700699 0.152141 0.235479
Si Si3 0.824477 0.440479 0.109513
Si Si4 0.312370 0.651731 0.346312
Si Si5 0.655728 0.343130 0.718420
Si Si6 0.987931 0.778358 0.486149
Si Si7 0.579528 0.837028 0.855787
Si Si8 0.955941 0.637279 0.356252
O O1 0.915032 0.243739 0.417437
O O2 0.702089 0.142442 0.826123
O O3 0.697344 0.952781 0.795965
O O4 0.969834 0.850160 0.999229
O O5 0.727541 0.347987 0.108663
O O6 0.566090 0.987479 0.537335
O O7 0.610875 0.252926 0.997830
O O8 0.900131 0.014676 0.300848
O O9 0.669120 0.588221 0.081103
O O10 0.976334 0.589108 0.834158
O O11 0.476978 0.492276 0.546807
O O12 0.198519 0.783469 0.364204
O O13 0.165825 0.526548 0.447394
O O14 0.385368 0.824262 0.008796
O O15 0.831127 0.473899 0.514725
O O16 0.873709 0.720257 0.445878
#
# Coordination Sequence:
#
# PCOD8000004 Si02
#       8
#     1   1   1   1   1   1   1   1
#     4  11  20  37  66  88 116 168 201 239 305 360
#     4  10  20  36  66  86 119 166 198 240 309 356
#     4  10  19  38  63  87 120 165 197 244 301 362
#     4  10  21  40  60  90 127 154 197 257 294 352
#     4  12  20  40  64  90 118 163 205 243 297 362
#     4   9  20  38  58  87 123 153 197 248 298 346
#     4  10  21  39  62  90 125 157 196 253 303 352
#     4  10  21  38  59  88 122 158 193 252 295 348
#
# _framework density 19.535520000000002
#
# number of rings (size 3 to 8) (size 9 to 14) (size 15 to 20)
#    0.750    1.000    5.000    0.000    0.000    0.000 
#    9.000    0.000    8.250    0.000    0.000    0.000 
#    0.000    0.000    0.000    0.000    0.000    0.000 
#
# Total GULP energy -99113.787175 kJ/mol
# GULP energy per Si atom -12389.223397 kJ/mol
# Density = 1.949106 g / cm^3
# Si number density = 19.535520 Si / 1000 Ang^3
#
#
#
# Elastic Constant Matrix: (Units=GPa)
#
#
# Indices 1 2 3 4 5 6 
#
# 1 105.8065 27.9177 51.2944 5.3014 5.0997 -9.5330
# 2 27.9177 98.1954 35.1845 4.9111 -8.1516 3.1755
# 3 51.2944 35.1845 137.5624 22.8607 5.4915 -5.6527
# 4 5.3014 4.9111 22.8607 35.7453 2.3588 -6.8920
# 5 5.0997 -8.1516 5.4915 2.3588 23.9348 13.0474
# 6 -9.5330 3.1755 -5.6527 -6.8920 13.0474 26.8525
#
#
#
# Elastic Compliance Matrix: (Units=1/GPa)
#
#
# Indices 1 2 3 4 5 6 
#
# 1 0.013392 -0.003604 -0.003903 0.003397 -0.008668 0.009443
# 2 -0.003604 0.013497 -0.002578 -0.002257 0.011369 -0.009522
# 3 -0.003903 -0.002578 0.010413 -0.005398 -0.002386 0.000885
# 4 0.003397 -0.002257 -0.005398 0.034932 -0.011927 0.015097
# 5 -0.008668 0.011369 -0.002386 -0.011927 0.072878 -0.043396
# 6 0.009443 -0.009522 0.000885 0.015097 -0.043396 0.066866
#
#
# Mechanical properties :
#
#
# Convention : Reuss Voigt Hill
#
# Bulk Modulus (GPa) = 58.36901 63.37304 60.87103
# Shear Modulus (GPa) = 21.02091 32.45104 26.73598
#
# Velocity S-wave (km/s) = 3.28386 4.08012 3.70345
# Velocity P-wave (km/s) = 6.65744 7.39641 7.03663
#
# Compressibility (1/GPa) = 0.01713238
#
# Stress axis : x y z
#
# Youngs Moduli (GPa) = 74.66914 74.09136 96.03583
#
# Poissons Ratio (x) = 0.26703 0.37478
# Poissons Ratio (y) = 0.26911 0.24760
# Poissons Ratio (z) = 0.29140 0.19103
#
# Static dielectric constant tensor:
#      x y z
#    x 3.116390 0.074590 0.030710 
#    y 0.074590 3.682670 0.265170 
#    z 0.030710 0.265170 4.039390 
# 
# 
# High freq. dielectric constant tensor:
#      x y z
#    x 1.711530 0.010550 0.005950 
#    y 0.010550 1.766540 0.014340 
#    z 0.005950 0.014340 1.780070 
# 
# From -- ./inp_files/1062.got.cif
#   From: 2010.03.12/outbox.cif.g09.slc.cpg/sg1_1_cif.got.tgz:1062.got - 2010.03.29 11:57:58.
