data_PCOD8000263
_publ_section_title
;
Structure prediction by ZEFSAII (Michael W. Deem and Ramdas Pophale) SiO2 
 PCOD8000263
Probable space group: P 1
;
_chemical_formula_sum "Si O2"
_cell_formula_units_Z 8
_cell_length_a 13.975463
_cell_length_b 11.235745
_cell_length_c 9.002548
_cell_angle_alpha 36.986411
_cell_angle_beta 150.601002
_cell_angle_gamma 151.449925
_cell_volume 328.250429
_symmetry_space_group_name_H-M "P 1"
_symmetry_group_IT_number 1
_symmetry_cell_setting 'triclinic'
loop_
_space_group_symop_operation_xyz
x,y,z
loop_
_atom_site_type_symbol
_atom_site_label
_atom_site_fract_x
_atom_site_fract_y
_atom_site_fract_z
Si Si1 0.081330 0.634440 0.873880
Si Si2 0.353048 0.646425 0.665040
Si Si3 0.718331 0.502323 0.031636
Si Si4 0.260099 0.439225 0.064731
Si Si5 0.896847 0.305862 0.223922
Si Si6 0.733525 0.778552 0.524773
Si Si7 0.910166 0.841651 0.210077
Si Si8 0.291191 0.975008 0.068661
O O1 0.961057 0.751281 0.517912
O O2 0.163105 0.524100 0.976150
O O3 0.884296 0.409338 0.945258
O O4 0.315481 0.858727 0.066017
O O5 0.180630 0.422134 0.534641
O O6 0.337792 0.871519 0.381382
O O7 0.234811 0.529585 0.782509
O O8 0.635006 0.756771 0.926473
O O9 0.819179 0.401792 0.156196
O O10 0.927993 0.703765 0.231273
O O11 0.486552 0.274074 0.038704
O O12 0.631862 0.640441 0.684139
O O13 0.550323 0.577103 0.351608
O O14 0.108697 0.140438 0.160973
O O15 0.719388 0.006794 0.271790
O O16 0.011726 0.879091 0.779248
#
# Coordination Sequence:
#
# PCOD8000263 Si02
#       8
#     1   1   1   1   1   1   1   1
#     4  11  26  49  73 110 153 192 252 302 368 446
#     4  11  26  49  73 110 153 192 252 302 368 446
#     4  12  26  47  80 106 153 194 249 305 371 439
#     4  12  29  48  76 109 155 199 245 306 377 438
#     4  11  26  49  78 110 149 197 252 306 368 443
#     4  12  26  47  80 106 153 194 249 305 371 439
#     4  12  29  48  76 109 155 199 245 306 377 438
#     4  11  26  49  78 110 149 197 252 306 368 443
#
# _framework density 24.371635000000001
#
# number of rings (size 3 to 8) (size 9 to 14) (size 15 to 20)
#    0.000    0.500    2.500    4.500   14.000    0.000 
#    0.000    1.250    0.000    0.000    0.000    0.000 
#    0.000    0.000    0.000    0.000    0.000    0.000 
#
# Total GULP energy -99173.981667 kJ/mol
# GULP energy per Si atom -12396.747708 kJ/mol
# Density = 2.431616 g / cm^3
# Si number density = 24.371635 Si / 1000 Ang^3
#
#
#
# Elastic Constant Matrix: (Units=GPa)
#
#
# Indices 1 2 3 4 5 6 
#
# 1 117.3662 60.7345 60.0541 -12.9977 -13.4970 1.1830
# 2 60.7345 223.9617 81.5183 -17.7281 -18.0248 5.1154
# 3 60.0541 81.5183 161.2114 -17.7919 -28.3692 15.1497
# 4 -12.9977 -17.7281 -17.7919 41.7774 10.7341 -5.6469
# 5 -13.4970 -18.0248 -28.3692 10.7341 48.9359 -2.8133
# 6 1.1830 5.1154 15.1497 -5.6469 -2.8133 34.3640
#
#
#
# Elastic Compliance Matrix: (Units=1/GPa)
#
#
# Indices 1 2 3 4 5 6 
#
# 1 0.011279 -0.001773 -0.003225 0.001506 0.000348 0.001574
# 2 -0.001773 0.005823 -0.002171 0.000988 0.000200 0.000330
# 3 -0.003225 -0.002171 0.009512 0.000785 0.003461 -0.003347
# 4 0.001506 0.000988 0.000785 0.026770 -0.004437 0.003491
# 5 0.000348 0.000200 0.003461 -0.004437 0.023563 -0.000367
# 6 0.001574 0.000330 -0.003347 0.003491 -0.000367 0.031016
#
#
# Mechanical properties :
#
#
# Convention : Reuss Voigt Hill
#
# Bulk Modulus (GPa) = 81.46226 100.79479 91.12852
# Shear Modulus (GPa) = 39.55868 45.03095 42.29482
#
# Velocity S-wave (km/s) = 4.03320 4.30313 4.17035
# Velocity P-wave (km/s) = 7.42876 8.13243 7.78855
#
# Compressibility (1/GPa) = 0.01227562
#
# Stress axis : x y z
#
# Youngs Moduli (GPa) = 88.65688 171.73981 105.12720
#
# Poissons Ratio (x) = 0.30458 0.33908
# Poissons Ratio (y) = 0.15723 0.22818
# Poissons Ratio (z) = 0.28595 0.37277
#
# Static dielectric constant tensor:
#      x y z
#    x 4.312050 -0.023450 -0.286580 
#    y -0.023450 4.877790 -0.025620 
#    z -0.286580 -0.025620 4.597070 
# 
# 
# High freq. dielectric constant tensor:
#      x y z
#    x 1.968830 0.004560 -0.009410 
#    y 0.004560 1.978840 -0.008680 
#    z -0.009410 -0.008680 1.979140 
# 
# From -- ./inp_files/5768.got.cif
#   From: 2010.03.12/outbox.cif.g09.slc.cpg/sg1_3_cif.got.tgz:5768.got - 2010.03.29 11:57:58.
