data_PCOD8000497
_publ_section_title
;
Structure prediction by ZEFSAII (Michael W. Deem and Ramdas Pophale) SiO2 
 PCOD8000497
Probable space group: P -1
;
_chemical_formula_sum "Si O2"
_cell_formula_units_Z 16
_cell_length_a 12.240105
_cell_length_b 8.576927
_cell_length_c 12.283804
_cell_angle_alpha 58.688522
_cell_angle_beta 135.108241
_cell_angle_gamma 104.618585
_cell_volume 763.119587
_symmetry_space_group_name_H-M "P -1"
_symmetry_group_IT_number 2
_symmetry_cell_setting 'triclinic'
loop_
_space_group_symop_operation_xyz
x,y,z
-x,-y,-z
loop_
_atom_site_type_symbol
_atom_site_label
_atom_site_fract_x
_atom_site_fract_y
_atom_site_fract_z
Si Si1 0.463241 0.234637 0.325857
Si Si2 0.878369 0.870502 0.494712
Si Si3 0.033956 0.472471 0.811802
Si Si4 0.082268 0.826232 0.031672
Si Si5 0.725464 0.379625 0.939886
Si Si6 0.758133 0.948216 0.624243
Si Si7 0.252147 0.138711 0.025869
Si Si8 0.675535 0.010353 0.107934
O O1 0.432108 0.459445 0.223662
O O2 0.360130 0.186639 0.373354
O O3 0.652041 0.155382 0.498398
O O4 0.404384 0.142109 0.207761
O O5 0.794800 0.932230 0.527661
O O6 0.947932 0.651483 0.622683
O O7 0.757538 0.880614 0.307909
O O8 0.000000 0.000000 0.500000
O O9 0.165251 0.352133 0.870649
O O10 0.120994 0.535074 0.955869
O O11 0.926549 0.329003 0.827602
O O12 0.924832 0.894850 0.823063
O O13 0.137744 0.012521 0.052539
O O14 0.235432 0.722386 0.110061
O O15 0.703683 0.220498 0.069094
O O16 0.276075 0.061094 0.951443
O O17 0.500000 0.000000 0.000000
#
# Coordination Sequence:
#
# PCOD8000497 Si02
#       8
#     2   2   2   2   2   2   2   2
#     4  10  22  39  64  96 123 154 206 253 324 361
#     4  12  23  41  62  90 122 165 215 249 291 369
#     4  11  20  36  65  93 114 156 207 255 297 360
#     4  11  19  37  68  93 123 153 205 254 319 350
#     4  10  19  39  63  88 117 164 209 246 290 381
#     4  11  21  37  64  94 124 156 199 263 303 363
#     4  10  22  40  62  91 125 157 197 262 308 365
#     4  11  24  43  59  82 126 171 198 247 312 362
#
# _framework density 20.966569
#
# number of rings (size 3 to 8) (size 9 to 14) (size 15 to 20)
#    0.000    1.250    5.000    3.000    0.000    0.500 
#    4.500    1.875    0.000    6.000    0.000    0.000 
#    0.000    0.000    0.000    0.000    0.000    0.000 
#
# Total GULP energy -198217.681767 kJ/mol
# GULP energy per Si atom -12388.605110 kJ/mol
# Density = 2.091885 g / cm^3
# Si number density = 20.966569 Si / 1000 Ang^3
#
#
#
# Elastic Constant Matrix: (Units=GPa)
#
#
# Indices 1 2 3 4 5 6 
#
# 1 81.7264 33.9885 41.5459 -6.0147 -9.2128 -7.1271
# 2 33.9885 102.2794 48.0380 -29.2167 -0.0691 -4.6480
# 3 41.5459 48.0380 128.8288 -31.5817 0.0587 -7.3985
# 4 -6.0147 -29.2167 -31.5817 41.8917 -3.2651 0.8154
# 5 -9.2128 -0.0691 0.0587 -3.2651 36.9837 -0.2772
# 6 -7.1271 -4.6480 -7.3985 0.8154 -0.2772 20.4657
#
#
#
# Elastic Compliance Matrix: (Units=1/GPa)
#
#
# Indices 1 2 3 4 5 6 
#
# 1 0.016821 -0.004399 -0.004529 -0.003832 0.003877 0.003427
# 2 -0.004399 0.014469 -0.001996 0.007913 -0.000362 0.000712
# 3 -0.004529 -0.001996 0.011725 0.006717 -0.000543 0.001933
# 4 -0.003832 0.007913 0.006717 0.034034 0.002066 0.001563
# 5 0.003877 -0.000362 -0.000543 0.002066 0.028198 0.001371
# 6 0.003427 0.000712 0.001933 0.001563 0.001371 0.050873
#
#
# Mechanical properties :
#
#
# Convention : Reuss Voigt Hill
#
# Bulk Modulus (GPa) = 47.24039 62.21992 54.73016
# Shear Modulus (GPa) = 27.02378 32.48571 29.75475
#
# Velocity S-wave (km/s) = 3.59402 3.94052 3.77125
# Velocity P-wave (km/s) = 6.30895 7.10238 6.71739
#
# Compressibility (1/GPa) = 0.02116832
#
# Stress axis : x y z
#
# Youngs Moduli (GPa) = 59.44783 69.11436 85.28963
#
# Poissons Ratio (x) = 0.30404 0.38624
# Poissons Ratio (y) = 0.26152 0.17020
# Poissons Ratio (z) = 0.26922 0.13793
#
# Static dielectric constant tensor:
#      x y z
#    x 3.794020 0.037920 0.075410 
#    y 0.037920 4.025720 -0.325150 
#    z 0.075410 -0.325150 3.869070 
# 
# 
# High freq. dielectric constant tensor:
#      x y z
#    x 1.821420 -0.008720 0.002560 
#    y -0.008720 1.823950 -0.019560 
#    z 0.002560 -0.019560 1.815820 
# 
# From -- ./inp_files/419215.got.cif
#   From: 2010.06.25/outbox.cif.g09.slc.cpg/sg2_210_cif.got.tgz:419215.got - 2010.06.27 13:26:56.
