data_PCOD8000385
_publ_section_title
;
Structure prediction by ZEFSAII (Michael W. Deem and Ramdas Pophale) SiO2 
 PCOD8000385
Probable space group: P -1
;
_chemical_formula_sum "Si O2"
_cell_formula_units_Z 16
_cell_length_a 11.133253
_cell_length_b 11.382787
_cell_length_c 8.499788
_cell_angle_alpha 55.051526
_cell_angle_beta 53.610442
_cell_angle_gamma 62.039633
_cell_volume 697.026771
_symmetry_space_group_name_H-M "P -1"
_symmetry_group_IT_number 2
_symmetry_cell_setting 'triclinic'
loop_
_space_group_symop_operation_xyz
x,y,z
-x,-y,-z
loop_
_atom_site_type_symbol
_atom_site_label
_atom_site_fract_x
_atom_site_fract_y
_atom_site_fract_z
Si Si1 0.699115 0.711131 0.690596
Si Si2 0.001461 0.560554 0.690872
Si Si3 0.281114 0.684655 0.263772
Si Si4 0.127955 0.006339 0.108797
Si Si5 0.133710 0.313194 0.980622
Si Si6 0.201594 0.998049 0.697305
Si Si7 0.398356 0.409513 0.839730
Si Si8 0.606132 0.313129 0.177653
O O1 0.578451 0.668678 0.691807
O O2 0.861301 0.595814 0.648236
O O3 0.718604 0.875484 0.524637
O O4 0.624044 0.710539 0.920613
O O5 0.145993 0.601139 0.463833
O O6 0.034674 0.389725 0.849480
O O7 0.959131 0.655392 0.809212
O O8 0.422698 0.624593 0.318794
O O9 0.229316 0.856452 0.206323
O O10 0.334942 0.652168 0.067058
O O11 0.950930 0.005524 0.280040
O O12 0.176106 0.139773 0.061549
O O13 0.156356 0.031266 0.885911
O O14 0.286309 0.384706 0.804742
O O15 0.318951 0.846956 0.698620
O O16 0.346891 0.572181 0.825091
#
# Coordination Sequence:
#
# PCOD8000385 Si02
#       8
#     2   2   2   2   2   2   2   2
#     4  10  19  39  60  92 119 154 201 245 299 355
#     4  10  22  40  61  90 121 160 207 247 293 363
#     4  10  20  41  63  91 122 155 205 250 302 350
#     4  10  22  39  61  92 125 157 195 256 299 355
#     4  10  24  42  59  86 125 165 203 240 303 358
#     4  10  21  38  63  94 122 152 203 249 307 351
#     4  10  23  42  61  90 125 162 199 244 301 364
#     4  10  22  39  65  91 126 156 193 254 307 352
#
# _framework density 22.954643000000001
#
# number of rings (size 3 to 8) (size 9 to 14) (size 15 to 20)
#    0.000    2.000    1.250    1.875    5.250    3.500 
#    2.250    6.250    0.000    0.000    0.000    0.000 
#    0.000    0.000    0.000    0.000    0.000    0.000 
#
# Total GULP energy -198393.764091 kJ/mol
# GULP energy per Si atom -12399.610256 kJ/mol
# Density = 2.290240 g / cm^3
# Si number density = 22.954643 Si / 1000 Ang^3
#
#
#
# Elastic Constant Matrix: (Units=GPa)
#
#
# Indices 1 2 3 4 5 6 
#
# 1 98.5037 34.6010 19.9190 7.8644 -27.3170 -12.6881
# 2 34.6010 92.9268 26.8545 -14.3007 -10.5579 -2.2570
# 3 19.9190 26.8545 81.6915 -12.1768 -28.3893 -2.7162
# 4 7.8644 -14.3007 -12.1768 23.9837 -7.6787 -10.5147
# 5 -27.3170 -10.5579 -28.3893 -7.6787 33.4413 0.4535
# 6 -12.6881 -2.2570 -2.7162 -10.5147 0.4535 41.3965
#
#
#
# Elastic Compliance Matrix: (Units=1/GPa)
#
#
# Indices 1 2 3 4 5 6 
#
# 1 0.015675 -0.005093 0.002324 -0.000994 0.012883 0.004286
# 2 -0.005093 0.015118 -0.001034 0.011901 0.002438 0.002191
# 3 0.002324 -0.001034 0.026329 0.025167 0.029587 0.008452
# 4 -0.000994 0.011901 0.025167 0.086172 0.043780 0.023404
# 5 0.012883 0.002438 0.029587 0.043780 0.076145 0.016309
# 6 0.004286 0.002191 0.008452 0.023404 0.016309 0.031910
#
#
# Mechanical properties :
#
#
# Convention : Reuss Voigt Hill
#
# Bulk Modulus (GPa) = 20.19592 48.43011 34.31302
# Shear Modulus (GPa) = 18.15130 32.54746 25.34938
#
# Velocity S-wave (km/s) = 2.81507 3.76959 3.32674
# Velocity P-wave (km/s) = 4.40267 6.33170 5.45316
#
# Compressibility (1/GPa) = 0.04951495
#
# Stress axis : x y z
#
# Youngs Moduli (GPa) = 63.79549 66.14612 37.98072
#
# Poissons Ratio (x) = 0.33690 -0.08825
# Poissons Ratio (y) = 0.32493 0.03927
# Poissons Ratio (z) = -0.14823 0.06839
#
# Static dielectric constant tensor:
#      x y z
#    x 4.438280 -0.391800 -0.202010 
#    y -0.391800 3.981110 -0.100140 
#    z -0.202010 -0.100140 4.045260 
# 
# 
# High freq. dielectric constant tensor:
#      x y z
#    x 1.907200 -0.019210 -0.018230 
#    y -0.019210 1.899510 -0.015370 
#    z -0.018230 -0.015370 1.901260 
# 
# From -- ./inp_files/261403.got.cif
#   From: 2010.06.25/outbox.cif.g09.slc.cpg/sg2_131_cif.got.tgz:261403.got - 2010.06.27 13:26:56.
