data_PCOD8000549
_publ_section_title
;
Structure prediction by ZEFSAII (Michael W. Deem and Ramdas Pophale) SiO2 
 PCOD8000549
Probable space group: P -1
;
_chemical_formula_sum "Si O2"
_cell_formula_units_Z 12
_cell_length_a 6.567837
_cell_length_b 9.677615
_cell_length_c 17.692209
_cell_angle_alpha 54.106024
_cell_angle_beta 139.508021
_cell_angle_gamma 124.555045
_cell_volume 575.593589
_symmetry_space_group_name_H-M "P -1"
_symmetry_group_IT_number 2
_symmetry_cell_setting 'triclinic'
loop_
_space_group_symop_operation_xyz
x,y,z
-x,-y,-z
loop_
_atom_site_type_symbol
_atom_site_label
_atom_site_fract_x
_atom_site_fract_y
_atom_site_fract_z
Si Si1 0.637812 0.727382 0.257410
Si Si2 0.694032 0.263333 0.609885
Si Si3 0.567660 0.823824 0.046462
Si Si4 0.381146 0.673920 0.893612
Si Si5 0.243910 0.446767 0.342901
Si Si6 0.699882 0.038774 0.817512
O O1 0.540154 0.694224 0.152105
O O2 0.499207 0.555623 0.321597
O O3 0.511680 0.893053 0.199924
O O4 0.026173 0.763500 0.359647
O O5 0.389355 0.289922 0.467422
O O6 0.827670 0.430995 0.648626
O O7 0.583982 0.089154 0.686035
O O8 0.925131 0.864690 0.096757
O O9 0.311171 0.739941 0.936601
O O10 0.500000 0.000000 0.000000
O O11 0.074469 0.637690 0.765407
O O12 0.645015 0.828487 0.877047
O O13 0.500000 0.500000 0.000000
#
# Coordination Sequence:
#
# PCOD8000549 Si02
#       6
#     2   2   2   2   2   2
#     4  10  19  39  64  88 118 168 201 243 308 367
#     4   9  20  42  66  86 119 169 204 240 315 364
#     4  11  23  40  64  86 121 171 200 234 311 375
#     4  12  24  39  60  95 128 155 202 260 300 349
#     4  10  22  39  62  95 125 153 205 262 295 356
#     4  10  22  40  64  86 122 164 204 248 299 372
#
# _framework density 20.848043000000001
#
# number of rings (size 3 to 8) (size 9 to 14) (size 15 to 20)
#    0.000    1.667    1.667    4.000    2.333    1.333 
#    3.000    0.833    0.000    0.000    0.000    0.000 
#    0.000    0.000    0.000    0.000    0.000    0.000 
#
# Total GULP energy -148745.873456 kJ/mol
# GULP energy per Si atom -12395.489455 kJ/mol
# Density = 2.080059 g / cm^3
# Si number density = 20.848043 Si / 1000 Ang^3
#
#
#
# Elastic Constant Matrix: (Units=GPa)
#
#
# Indices 1 2 3 4 5 6 
#
# 1 117.5827 35.2483 43.4223 -1.3696 5.1496 -0.6982
# 2 35.2483 88.3013 56.0069 -9.9200 -13.5878 0.8564
# 3 43.4223 56.0069 158.0708 4.7844 -9.6444 -6.8560
# 4 -1.3696 -9.9200 4.7844 34.5226 -0.4689 -7.6491
# 5 5.1496 -13.5878 -9.6444 -0.4689 32.8464 -10.5735
# 6 -0.6982 0.8564 -6.8560 -7.6491 -10.5735 30.9482
#
#
#
# Elastic Compliance Matrix: (Units=1/GPa)
#
#
# Indices 1 2 3 4 5 6 
#
# 1 0.010486 -0.003744 -0.001868 -0.000849 -0.004320 -0.001759
# 2 -0.003744 0.017732 -0.004891 0.006256 0.007347 0.002398
# 3 -0.001868 -0.004891 0.008816 -0.002240 0.001468 0.001994
# 4 -0.000849 0.006256 -0.002240 0.033204 0.005570 0.009421
# 5 -0.004320 0.007347 0.001468 0.005570 0.039463 0.014884
# 6 -0.001759 0.002398 0.001994 0.009421 0.014884 0.040061
#
#
# Mechanical properties :
#
#
# Convention : Reuss Voigt Hill
#
# Bulk Modulus (GPa) = 62.39328 70.36773 66.38051
# Shear Modulus (GPa) = 28.39113 34.94859 31.66986
#
# Velocity S-wave (km/s) = 3.69428 4.09877 3.90177
# Velocity P-wave (km/s) = 6.94187 7.49839 7.22549
#
# Compressibility (1/GPa) = 0.01602737
#
# Stress axis : x y z
#
# Youngs Moduli (GPa) = 95.36809 56.39560 113.42537
#
# Poissons Ratio (x) = 0.21114 0.21189
# Poissons Ratio (y) = 0.35705 0.55480
# Poissons Ratio (z) = 0.17815 0.27585
#
# Static dielectric constant tensor:
#      x y z
#    x 3.842640 0.118080 0.045880 
#    y 0.118080 3.485160 -0.558270 
#    z 0.045880 -0.558270 3.287100 
# 
# 
# High freq. dielectric constant tensor:
#      x y z
#    x 1.821820 0.000960 -0.015020 
#    y 0.000960 1.784960 -0.026850 
#    z -0.015020 -0.026850 1.832240 
# 
# From -- ./inp_files/22288.got.cif
#   From: 2010.06.25/outbox.cif.g09.slc.cpg/sg2_12_cif.got.tgz:22288.got - 2010.06.27 13:26:56.
