data_PCOD8000352
_publ_section_title
;
Structure prediction by ZEFSAII (Michael W. Deem and Ramdas Pophale) SiO2 
 PCOD8000352
Probable space group: P -1
;
_chemical_formula_sum "Si O2"
_cell_formula_units_Z 14
_cell_length_a 13.888711
_cell_length_b 13.826495
_cell_length_c 11.519814
_cell_angle_alpha 146.769865
_cell_angle_beta 119.454454
_cell_angle_gamma 41.742933
_cell_volume 752.107929
_symmetry_space_group_name_H-M "P -1"
_symmetry_group_IT_number 2
_symmetry_cell_setting 'triclinic'
loop_
_space_group_symop_operation_xyz
x,y,z
-x,-y,-z
loop_
_atom_site_type_symbol
_atom_site_label
_atom_site_fract_x
_atom_site_fract_y
_atom_site_fract_z
Si Si1 0.929513 0.408505 0.305166
Si Si2 0.198732 0.934523 0.871651
Si Si3 0.075279 0.056528 0.682958
Si Si4 0.679439 0.978079 0.307007
Si Si5 0.757286 0.737248 0.877922
Si Si6 0.904262 0.560138 0.193857
Si Si7 0.336823 0.434996 0.531705
O O1 0.852104 0.543570 0.270998
O O2 0.798813 0.465791 0.362339
O O3 0.000000 0.500000 0.500000
O O4 0.069361 0.113161 0.072983
O O5 0.116967 0.932836 0.710242
O O6 0.325357 0.655645 0.714821
O O7 0.270958 0.042495 0.983494
O O8 0.233675 0.942885 0.602692
O O9 0.000000 0.000000 0.500000
O O10 0.955121 0.352172 0.924099
O O11 0.759249 0.823730 0.318081
O O12 0.501962 0.221278 0.476246
O O13 0.687605 0.824344 0.053898
O O14 0.671316 0.675759 0.699691
O O15 0.942540 0.489820 0.745172
#
# Coordination Sequence:
#
# PCOD8000352 Si02
#       7
#     2   2   2   2   2   2   2
#     4  10  19  39  60  81 106 153 198 227 272 332
#     4   9  21  35  58  87 107 146 200 226 266 346
#     4   9  19  35  57  83 113 147 185 230 278 331
#     4  10  22  35  53  91 115 141 189 227 290 340
#     4   9  19  38  57  84 112 149 190 224 281 338
#     4   9  19  37  58  79 112 147 197 225 263 349
#     4  12  21  35  61  83 117 151 177 241 288 315
#
# _framework density 18.614350000000002
#
# number of rings (size 3 to 8) (size 9 to 14) (size 15 to 20)
#    0.000    2.857    2.857    2.571    4.000    2.857 
#    2.571    0.000    0.000    4.286    0.000    0.000 
#    0.000    0.000    0.000    0.000    0.000    0.000 
#
# Total GULP energy -173521.397117 kJ/mol
# GULP energy per Si atom -12394.385508 kJ/mol
# Density = 1.857198 g / cm^3
# Si number density = 18.614350 Si / 1000 Ang^3
#
#
#
# Elastic Constant Matrix: (Units=GPa)
#
#
# Indices 1 2 3 4 5 6 
#
# 1 47.0855 24.7519 26.8861 4.5808 4.5540 1.4682
# 2 24.7519 105.2543 48.1897 25.5793 11.3443 -2.1197
# 3 26.8861 48.1897 65.6543 2.5829 8.7107 -4.8017
# 4 4.5808 25.5793 2.5829 37.7167 0.9919 4.2613
# 5 4.5540 11.3443 8.7107 0.9919 17.4129 -4.3135
# 6 1.4682 -2.1197 -4.8017 4.2613 -4.3135 24.1971
#
#
#
# Elastic Compliance Matrix: (Units=1/GPa)
#
#
# Indices 1 2 3 4 5 6 
#
# 1 0.028488 -0.001374 -0.010618 -0.001277 -0.002192 -0.004122
# 2 -0.001374 0.018690 -0.011995 -0.011609 -0.005034 0.000487
# 3 -0.010618 -0.011995 0.028801 0.007151 -0.003369 0.003449
# 4 -0.001277 -0.011609 0.007151 0.034641 0.000999 -0.005443
# 5 -0.002192 -0.005034 -0.003369 0.000999 0.065518 0.010527
# 6 -0.004122 0.000487 0.003449 -0.005443 0.010527 0.045140
#
#
# Mechanical properties :
#
#
# Convention : Reuss Voigt Hill
#
# Bulk Modulus (GPa) = 35.70786 46.40549 41.05667
# Shear Modulus (GPa) = 17.94774 23.74310 20.84542
#
# Velocity S-wave (km/s) = 3.10851 3.57533 3.35006
# Velocity P-wave (km/s) = 5.66642 6.48290 6.08837
#
# Compressibility (1/GPa) = 0.02800504
#
# Stress axis : x y z
#
# Youngs Moduli (GPa) = 35.10247 53.50595 34.72055
#
# Poissons Ratio (x) = 0.07354 0.36865
# Poissons Ratio (y) = 0.04825 0.41647
# Poissons Ratio (z) = 0.37271 0.64179
#
# Static dielectric constant tensor:
#      x y z
#    x 3.416570 0.127770 -0.061680 
#    y 0.127770 3.358190 -0.082670 
#    z -0.061680 -0.082670 3.385400 
# 
# 
# High freq. dielectric constant tensor:
#      x y z
#    x 1.706210 0.008530 -0.005350 
#    y 0.008530 1.714810 -0.005550 
#    z -0.005350 -0.005550 1.714390 
# 
# From -- ./inp_files/432108.got.cif
#   From: 2010.06.25/outbox.cif.g09.slc.cpg/sg2_217_cif.got.tgz:432108.got - 2010.06.27 13:26:56.
