data_PCOD8000255
_publ_section_title
;
Structure prediction by ZEFSAII (Michael W. Deem and Ramdas Pophale) SiO2 
 PCOD8000255
Probable space group: P 1
;
_chemical_formula_sum "Si O2"
_cell_formula_units_Z 8
_cell_length_a 14.312610
_cell_length_b 9.429144
_cell_length_c 11.376612
_cell_angle_alpha 39.864524
_cell_angle_beta 151.267445
_cell_angle_gamma 150.282983
_cell_volume 365.757410
_symmetry_space_group_name_H-M "P 1"
_symmetry_group_IT_number 1
_symmetry_cell_setting 'triclinic'
loop_
_space_group_symop_operation_xyz
x,y,z
loop_
_atom_site_type_symbol
_atom_site_label
_atom_site_fract_x
_atom_site_fract_y
_atom_site_fract_z
Si Si1 0.745000 0.550880 0.978780
Si Si2 0.065625 0.920907 0.895835
Si Si3 0.860176 0.058118 0.933590
Si Si4 0.780483 0.127629 0.404328
Si Si5 0.741483 0.791085 0.218464
Si Si6 0.195655 0.005597 0.726792
Si Si7 0.367373 0.670023 0.070903
Si Si8 0.591740 0.198924 0.387550
O O1 0.444008 0.335807 0.799012
O O2 0.821169 0.640529 0.868911
O O3 0.853310 0.825796 0.001894
O O4 0.858513 0.396801 0.242351
O O5 0.113759 0.855895 0.860827
O O6 0.026075 0.157096 0.683746
O O7 0.295974 0.039776 0.162213
O O8 0.669845 0.104330 0.643532
O O9 0.148767 0.342219 0.071188
O O10 0.772186 0.965733 0.028357
O O11 0.658957 0.116934 0.397280
O O12 0.576768 0.826938 0.304298
O O13 0.488162 0.679253 0.075901
O O14 0.741072 0.535543 0.342967
O O15 0.978469 0.997929 0.435287
O O16 0.253262 0.832008 0.822058
#
# Coordination Sequence:
#
# PCOD8000255 Si02
#       8
#     1   1   1   1   1   1   1   1
#     4  11  25  45  73 111 137 192 235 288 362 424
#     4  12  24  46  76 103 142 190 236 292 358 412
#     4  12  26  46  73 106 147 188 233 292 359 422
#     4  11  24  48  73 104 143 185 241 294 344 424
#     4  12  26  46  72 106 147 190 228 296 364 410
#     4  11  25  48  71 105 148 179 243 298 342 427
#     4  11  25  49  71 105 143 184 240 294 346 423
#     4  12  25  48  71 106 151 182 236 300 347 424
#
# _framework density 21.872423000000001
#
# number of rings (size 3 to 8) (size 9 to 14) (size 15 to 20)
#    0.000    0.500    7.500    0.750    1.750    4.000 
#    4.500    0.000    0.000    0.000    0.000    0.000 
#    0.000    0.000    0.000    0.000    0.000    0.000 
#
# Total GULP energy -99224.350683 kJ/mol
# GULP energy per Si atom -12403.043835 kJ/mol
# Density = 2.182264 g / cm^3
# Si number density = 21.872423 Si / 1000 Ang^3
#
#
#
# Elastic Constant Matrix: (Units=GPa)
#
#
# Indices 1 2 3 4 5 6 
#
# 1 146.3770 52.2506 58.5306 2.5106 -12.5648 19.3691
# 2 52.2506 127.0709 46.6393 -3.2490 -5.7209 -0.2418
# 3 58.5306 46.6393 156.4268 -11.4556 -7.5770 12.1940
# 4 2.5106 -3.2490 -11.4556 27.3927 0.7296 -5.1215
# 5 -12.5648 -5.7209 -7.5770 0.7296 42.4348 -9.1259
# 6 19.3691 -0.2418 12.1940 -5.1215 -9.1259 30.0410
#
#
#
# Elastic Compliance Matrix: (Units=1/GPa)
#
#
# Indices 1 2 3 4 5 6 
#
# 1 0.009857 -0.003194 -0.002501 -0.003414 0.000879 -0.005681
# 2 -0.003194 0.009955 -0.001904 0.001285 0.000757 0.003362
# 3 -0.002501 -0.001904 0.008230 0.003227 0.000171 -0.001141
# 4 -0.003414 0.001285 0.003227 0.039780 0.000757 0.007913
# 5 0.000879 0.000757 0.000171 0.000757 0.025504 0.007247
# 6 -0.005681 0.003362 -0.001141 0.007913 0.007247 0.040992
#
#
# Mechanical properties :
#
#
# Convention : Reuss Voigt Hill
#
# Bulk Modulus (GPa) = 77.85380 82.74617 80.29999
# Shear Modulus (GPa) = 32.51017 38.13731 35.32374
#
# Velocity S-wave (km/s) = 3.85951 4.18020 4.02305
# Velocity P-wave (km/s) = 7.45204 7.82382 7.64019
#
# Compressibility (1/GPa) = 0.01284459
#
# Stress axis : x y z
#
# Youngs Moduli (GPa) = 101.44585 100.44901 121.50932
#
# Poissons Ratio (x) = 0.32084 0.30385
# Poissons Ratio (y) = 0.32402 0.23139
# Poissons Ratio (z) = 0.25368 0.19129
#
# Static dielectric constant tensor:
#      x y z
#    x 3.959440 -0.003610 0.013540 
#    y -0.003610 3.929990 0.031000 
#    z 0.013540 0.031000 4.222560 
# 
# 
# High freq. dielectric constant tensor:
#      x y z
#    x 1.868250 -0.003310 0.003930 
#    y -0.003310 1.853340 0.001680 
#    z 0.003930 0.001680 1.868080 
# 
# From -- ./inp_files/6617.got.cif
#   From: 2010.03.12/outbox.cif.g09.slc.cpg/sg1_4_cif.got.tgz:6617.got - 2010.03.29 11:57:58.
