data_PCOD8000234
_publ_section_title
;
Structure prediction by ZEFSAII (Michael W. Deem and Ramdas Pophale) SiO2 
 PCOD8000234
Probable space group: P 1
;
_chemical_formula_sum "Si O2"
_cell_formula_units_Z 8
_cell_length_a 6.674743
_cell_length_b 7.816756
_cell_length_c 11.171411
_cell_angle_alpha 42.457132
_cell_angle_beta 83.890100
_cell_angle_gamma 75.555091
_cell_volume 378.324923
_symmetry_space_group_name_H-M "P 1"
_symmetry_group_IT_number 1
_symmetry_cell_setting 'triclinic'
loop_
_space_group_symop_operation_xyz
x,y,z
loop_
_atom_site_type_symbol
_atom_site_label
_atom_site_fract_x
_atom_site_fract_y
_atom_site_fract_z
Si Si1 0.831060 0.882140 0.414260
Si Si2 0.070395 0.009929 0.551997
Si Si3 0.605901 0.428614 0.052027
Si Si4 0.430289 0.222415 0.736983
Si Si5 0.130292 0.496882 0.415455
Si Si6 0.856970 0.831803 0.873076
Si Si7 0.239779 0.763396 0.048288
Si Si8 0.502573 0.644578 0.688382
O O1 0.696911 0.729748 0.577966
O O2 0.981282 0.994309 0.433415
O O3 0.961840 0.680735 0.415487
O O4 0.682827 0.119727 0.228405
O O5 0.320098 0.901774 0.595283
O O6 0.972528 0.836805 0.737697
O O7 0.017588 0.312750 0.440486
O O8 0.385999 0.534974 0.077692
O O9 0.774244 0.572186 0.018660
O O10 0.577992 0.476427 0.888378
O O11 0.314252 0.309261 0.575480
O O12 0.407110 0.472736 0.692261
O O13 0.669888 0.092007 0.759805
O O14 0.324798 0.020600 0.914992
O O15 0.232853 0.671562 0.232236
O O16 0.008187 0.833767 0.973367
#
# Coordination Sequence:
#
# PCOD8000234 Si02
#       8
#     1   1   1   1   1   1   1   1
#     4  12  28  45  70 105 138 181 228 283 340 403
#     4  12  23  47  74  97 138 184 227 282 342 402
#     4  11  25  44  70 102 135 180 230 280 342 404
#     4  11  26  44  69 104 137 183 229 278 343 405
#     4  12  26  47  70 102 142 180 227 282 340 407
#     4  11  22  45  74  96 135 185 224 281 346 399
#     4  11  25  46  69 100 138 179 229 283 339 406
#     4  12  25  46  70 100 141 180 230 285 336 406
#
# _framework density 21.145841999999998
#
# number of rings (size 3 to 8) (size 9 to 14) (size 15 to 20)
#    0.000    0.500    5.000    3.000    3.500    2.000 
#    4.500    0.000    0.000    0.000    0.000    0.000 
#    0.000    0.000    0.000    0.000    0.000    0.000 
#
# Total GULP energy -99268.674916 kJ/mol
# GULP energy per Si atom -12408.584365 kJ/mol
# Density = 2.109771 g / cm^3
# Si number density = 21.145842 Si / 1000 Ang^3
#
#
#
# Elastic Constant Matrix: (Units=GPa)
#
#
# Indices 1 2 3 4 5 6 
#
# 1 107.2575 48.9835 45.8594 0.3873 -0.0163 -11.7115
# 2 48.9835 135.8069 45.5680 -2.0884 1.6941 -2.0721
# 3 45.8594 45.5680 139.1160 10.1579 0.5929 -14.4452
# 4 0.3873 -2.0884 10.1579 31.2340 -11.6472 -3.0792
# 5 -0.0163 1.6941 0.5929 -11.6472 24.9686 3.4611
# 6 -11.7115 -2.0721 -14.4452 -3.0792 3.4611 40.9542
#
#
#
# Elastic Compliance Matrix: (Units=1/GPa)
#
#
# Indices 1 2 3 4 5 6 
#
# 1 0.012351 -0.003488 -0.002744 0.000890 0.000389 0.002422
# 2 -0.003488 0.009335 -0.002129 0.001314 0.000193 -0.001194
# 3 -0.002744 -0.002129 0.009307 -0.003701 -0.002122 0.002292
# 4 0.000890 0.001314 -0.003701 0.040334 0.018750 0.000464
# 5 0.000389 0.000193 -0.002122 0.018750 0.049303 -0.003384
# 6 0.002422 -0.001194 0.002292 0.000464 -0.003384 0.026179
#
#
# Mechanical properties :
#
#
# Convention : Reuss Voigt Hill
#
# Bulk Modulus (GPa) = 70.06921 73.66692 71.86806
# Shear Modulus (GPa) = 29.71075 35.54932 32.63004
#
# Velocity S-wave (km/s) = 3.75245 4.10463 3.93249
# Velocity P-wave (km/s) = 7.20990 7.57477 7.39459
#
# Compressibility (1/GPa) = 0.01427160
#
# Stress axis : x y z
#
# Youngs Moduli (GPa) = 80.96550 107.11930 107.44281
#
# Poissons Ratio (x) = 0.37366 0.29483
# Poissons Ratio (y) = 0.28243 0.22871
# Poissons Ratio (z) = 0.22217 0.22802
#
# Static dielectric constant tensor:
#      x y z
#    x 3.913950 -0.046440 0.011480 
#    y -0.046440 3.835670 0.005750 
#    z 0.011480 0.005750 3.862470 
# 
# 
# High freq. dielectric constant tensor:
#      x y z
#    x 1.839200 -0.001920 0.000270 
#    y -0.001920 1.834540 0.000910 
#    z 0.000270 0.000910 1.837850 
# 
# From -- ./inp_files/1632.got.cif
#   From: 2010.03.12/outbox.cif.g09.slc.cpg/sg1_1_cif.got.tgz:1632.got - 2010.03.29 11:57:58.
