data_PCOD8000645
_publ_section_title
;
Structure prediction by ZEFSAII (Michael W. Deem and Ramdas Pophale) SiO2 
 PCOD8000645
Probable space group: P -1
;
_chemical_formula_sum "Si O2"
_cell_formula_units_Z 14
_cell_length_a 10.949830
_cell_length_b 17.194103
_cell_length_c 8.576374
_cell_angle_alpha 39.662997
_cell_angle_beta 77.037302
_cell_angle_gamma 48.654640
_cell_volume 622.925001
_symmetry_space_group_name_H-M "P -1"
_symmetry_group_IT_number 2
_symmetry_cell_setting 'triclinic'
loop_
_space_group_symop_operation_xyz
x,y,z
-x,-y,-z
loop_
_atom_site_type_symbol
_atom_site_label
_atom_site_fract_x
_atom_site_fract_y
_atom_site_fract_z
Si Si1 0.645987 0.536325 0.193523
Si Si2 0.977336 0.256785 0.779803
Si Si3 0.020295 0.594435 0.149216
Si Si4 0.302600 0.149398 0.719445
Si Si5 0.141072 0.735196 0.726572
Si Si6 0.768127 0.698760 0.810601
Si Si7 0.199923 0.832091 0.861897
O O1 0.782276 0.441919 0.452186
O O2 0.728426 0.369329 0.308568
O O3 0.641824 0.670868 0.903902
O O4 0.424791 0.670589 0.113870
O O5 0.017503 0.327148 0.790185
O O6 0.179793 0.115108 0.834077
O O7 0.943946 0.149507 0.027759
O O8 0.157558 0.370684 0.468663
O O9 0.145457 0.597548 0.008919
O O10 0.799449 0.739635 0.907004
O O11 0.345797 0.130213 0.550024
O O12 0.500000 0.000000 0.000000
O O13 0.229194 0.767041 0.774089
O O14 0.909919 0.953599 0.423152
O O15 0.000000 0.500000 0.000000
#
# Coordination Sequence:
#
# PCOD8000645 Si02
#       7
#     2   2   2   2   2   2   2
#     4  12  21  42  69  91 132 179 215 267 328 386
#     4  11  23  42  62  93 142 162 213 283 314 388
#     4  10  20  43  65  90 132 175 202 274 334 366
#     4  11  22  39  65  99 127 165 220 265 331 388
#     4  10  21  44  67  88 134 169 225 273 308 392
#     4  10  19  39  66  90 125 173 218 258 332 385
#     4  10  25  41  63 101 124 175 227 259 326 388
#
# _framework density 22.474616000000001
#
# number of rings (size 3 to 8) (size 9 to 14) (size 15 to 20)
#    0.000    1.429    5.714    1.286    0.000    4.000 
#   10.286    1.429    0.000    0.000    0.000    0.000 
#    0.000    0.000    0.000    0.000    0.000    0.000 
#
# Total GULP energy -173516.244988 kJ/mol
# GULP energy per Si atom -12394.017499 kJ/mol
# Density = 2.242346 g / cm^3
# Si number density = 22.474616 Si / 1000 Ang^3
#
#
#
# Elastic Constant Matrix: (Units=GPa)
#
#
# Indices 1 2 3 4 5 6 
#
# 1 107.7570 34.7151 51.3696 4.5684 15.2067 -12.5843
# 2 34.7151 58.3940 42.1453 17.3181 1.7584 2.3638
# 3 51.3696 42.1453 121.5419 25.2754 28.5501 -3.8375
# 4 4.5684 17.3181 25.2754 31.5197 2.9807 9.5546
# 5 15.2067 1.7584 28.5501 2.9807 42.9320 4.1068
# 6 -12.5843 2.3638 -3.8375 9.5546 4.1068 26.4652
#
#
#
# Elastic Compliance Matrix: (Units=1/GPa)
#
#
# Indices 1 2 3 4 5 6 
#
# 1 0.014190 -0.007211 -0.003017 0.002678 -0.003536 0.006536
# 2 -0.007211 0.029017 -0.007145 -0.008277 0.007188 -0.005184
# 3 -0.003017 -0.007145 0.016522 -0.010012 -0.009572 0.006699
# 4 0.002678 -0.008277 -0.010012 0.048887 0.004353 -0.017764
# 5 -0.003536 0.007188 -0.009572 0.004353 0.031283 -0.010137
# 6 0.006536 -0.005184 0.006699 -0.017764 -0.010137 0.050314
#
#
# Mechanical properties :
#
#
# Convention : Reuss Voigt Hill
#
# Bulk Modulus (GPa) = 40.02618 60.46145 50.24381
# Shear Modulus (GPa) = 21.43286 30.81424 26.12355
#
# Velocity S-wave (km/s) = 3.09147 3.70681 3.41304
# Velocity P-wave (km/s) = 5.53092 6.72912 6.15923
#
# Compressibility (1/GPa) = 0.02498365
#
# Stress axis : x y z
#
# Youngs Moduli (GPa) = 70.47136 34.46303 60.52462
#
# Poissons Ratio (x) = 0.24850 0.18260
# Poissons Ratio (y) = 0.50815 0.43244
# Poissons Ratio (z) = 0.21261 0.24624
#
# Static dielectric constant tensor:
#      x y z
#    x 4.151860 0.228090 0.104920 
#    y 0.228090 4.250890 0.471920 
#    z 0.104920 0.471920 4.087750 
# 
# 
# High freq. dielectric constant tensor:
#      x y z
#    x 1.887840 0.004630 0.001400 
#    y 0.004630 1.873320 0.027860 
#    z 0.001400 0.027860 1.879700 
# 
# From -- ./inp_files/208823.got.cif
#   From: 2010.06.25/outbox.cif.g09.slc.cpg/sg2_105_cif.got.tgz:208823.got - 2010.06.27 13:26:56.
