data_PCOD8000013
_publ_section_title
;
Structure prediction by ZEFSAII (Michael W. Deem and Ramdas Pophale) SiO2 
 PCOD8000013
Probable space group: P 1
;
_chemical_formula_sum "Si O2"
_cell_formula_units_Z 8
_cell_length_a 9.109214
_cell_length_b 9.109225
_cell_length_c 14.542231
_cell_angle_alpha 49.852633
_cell_angle_beta 32.169296
_cell_angle_gamma 47.315195
_cell_volume 464.465117
_symmetry_space_group_name_H-M "P 1"
_symmetry_group_IT_number 1
_symmetry_cell_setting 'triclinic'
loop_
_space_group_symop_operation_xyz
x,y,z
loop_
_atom_site_type_symbol
_atom_site_label
_atom_site_fract_x
_atom_site_fract_y
_atom_site_fract_z
Si Si1 0.294780 0.881780 0.239270
Si Si2 0.198641 0.307022 0.589045
Si Si3 0.690013 0.486545 0.239274
Si Si4 0.200857 0.018839 0.865479
Si Si5 0.765476 0.740189 0.589043
Si Si6 0.565767 0.948958 0.430688
Si Si7 0.673074 0.842925 0.217352
Si Si8 0.091045 0.124038 0.080496
O O1 0.489950 0.649805 0.207363
O O2 0.425429 0.964382 0.225506
O O3 0.969859 0.881643 0.434991
O O4 0.316502 0.007998 0.086649
O O5 0.494149 0.357349 0.434995
O O6 0.120211 0.208905 0.762245
O O7 0.929752 0.503754 0.621500
O O8 0.275488 0.134007 0.538506
O O9 0.786375 0.603433 0.225511
O O10 0.968858 0.355644 0.086653
O O11 0.494162 0.834961 0.762241
O O12 0.244752 0.105132 0.907875
O O13 0.937444 0.929456 0.039517
O O14 0.642998 0.766498 0.538505
O O15 0.519811 0.862735 0.390418
O O16 0.833275 0.031624 0.245844
#
# Coordination Sequence:
#
# PCOD8000013 Si02
#       8
#     1   1   1   1   1   1   1   1
#     4   8  17  33  55  70  97 132 170 198 237 295
#     4   9  17  34  54  72  97 135 168 196 239 306
#     4   8  17  33  55  70  97 132 170 198 237 295
#     4  10  20  32  52  76 105 125 161 210 253 279
#     4   9  17  34  54  72  97 135 168 196 239 306
#     4   8  16  32  54  74  96 129 171 200 240 293
#     4   9  18  36  52  74 103 126 159 219 247 272
#     4   9  16  32  52  74  96 136 167 195 238 306
#
# _framework density 17.224114
#
# number of rings (size 3 to 8) (size 9 to 14) (size 15 to 20)
#    0.750    2.500    0.000    0.750    0.000    1.000 
#    4.500    7.500    0.000    0.000    0.000    0.000 
#    0.000    0.000    0.000    0.000    0.000    0.000 
#
# Total GULP energy -99104.717117 kJ/mol
# GULP energy per Si atom -12388.089640 kJ/mol
# Density = 1.718491 g / cm^3
# Si number density = 17.224114 Si / 1000 Ang^3
#
#
#
# Elastic Constant Matrix: (Units=GPa)
#
#
# Indices 1 2 3 4 5 6 
#
# 1 127.9522 67.8265 51.2274 11.9515 28.4822 10.3950
# 2 67.8265 119.1189 46.9538 12.4861 22.6064 -6.0966
# 3 51.2274 46.9538 74.2187 9.5342 20.3962 2.2399
# 4 11.9515 12.4861 9.5342 18.7875 6.9181 2.0539
# 5 28.4822 22.6064 20.3962 6.9181 30.3137 2.1677
# 6 10.3950 -6.0966 2.2399 2.0539 2.1677 30.6971
#
#
#
# Elastic Compliance Matrix: (Units=1/GPa)
#
#
# Indices 1 2 3 4 5 6 
#
# 1 0.014298 -0.005435 -0.004625 -0.000438 -0.005802 -0.005145
# 2 -0.005435 0.014283 -0.004393 -0.003603 -0.002153 0.005391
# 3 -0.004625 -0.004393 0.021511 -0.002741 -0.006208 -0.000254
# 4 -0.000438 -0.003603 -0.002741 0.060907 -0.008684 -0.003829
# 5 -0.005802 -0.002153 -0.006208 -0.008684 0.046254 -0.000695
# 6 -0.005145 0.005391 -0.000254 -0.003829 -0.000695 0.035713
#
#
# Mechanical properties :
#
#
# Convention : Reuss Voigt Hill
#
# Bulk Modulus (GPa) = 47.19906 72.58947 59.89426
# Shear Modulus (GPa) = 21.84030 26.31179 24.07604
#
# Velocity S-wave (km/s) = 3.56477 3.91271 3.74279
# Velocity P-wave (km/s) = 6.66377 7.91505 7.31621
#
# Compressibility (1/GPa) = 0.02118686
#
# Stress axis : x y z
#
# Youngs Moduli (GPa) = 69.93813 70.01131 46.48773
#
# Poissons Ratio (x) = 0.38050 0.21499
# Poissons Ratio (y) = 0.38010 0.20424
# Poissons Ratio (z) = 0.32345 0.30758
#
# Static dielectric constant tensor:
#      x y z
#    x 3.242660 0.012880 0.183660 
#    y 0.012880 3.215510 0.087570 
#    z 0.183660 0.087570 3.035250 
# 
# 
# High freq. dielectric constant tensor:
#      x y z
#    x 1.654400 -0.004610 0.011260 
#    y -0.004610 1.661810 0.005440 
#    z 0.011260 0.005440 1.646720 
# 
# From -- ./inp_files/3514.got.cif
#   From: 2010.03.12/outbox.cif.g09.slc.cpg/sg1_2_cif.got.tgz:3514.got - 2010.03.29 11:57:58.
