data_PCOD8000654
_publ_section_title
;
Structure prediction by ZEFSAII (Michael W. Deem and Ramdas Pophale) SiO2 
 PCOD8000654
Probable space group: P -1
;
_chemical_formula_sum "Si O2"
_cell_formula_units_Z 16
_cell_length_a 21.025677
_cell_length_b 9.229344
_cell_length_c 7.392927
_cell_angle_alpha 71.234156
_cell_angle_beta 58.671723
_cell_angle_gamma 34.998104
_cell_volume 686.773131
_symmetry_space_group_name_H-M "P -1"
_symmetry_group_IT_number 2
_symmetry_cell_setting 'triclinic'
loop_
_space_group_symop_operation_xyz
x,y,z
-x,-y,-z
loop_
_atom_site_type_symbol
_atom_site_label
_atom_site_fract_x
_atom_site_fract_y
_atom_site_fract_z
Si Si1 0.269572 0.535655 0.947557
Si Si2 0.220974 0.799410 0.562321
Si Si3 0.511721 0.284441 0.741200
Si Si4 0.791173 0.822324 0.604823
Si Si5 0.504455 0.640559 0.687490
Si Si6 0.274192 0.195214 0.935634
Si Si7 0.005200 0.020818 0.197240
Si Si8 0.918713 0.499985 0.203391
O O1 0.236215 0.726558 0.778825
O O2 0.394896 0.370408 0.942684
O O3 0.297719 0.333503 0.882133
O O4 0.142604 0.734327 0.180042
O O5 0.356233 0.546601 0.369561
O O6 0.110339 0.888509 0.586417
O O7 0.189539 0.030479 0.513306
O O8 0.483959 0.493386 0.789359
O O9 0.512941 0.280592 0.524483
O O10 0.648126 0.998657 0.714971
O O11 0.888263 0.576008 0.428670
O O12 0.819562 0.725158 0.808393
O O13 0.406697 0.886679 0.864181
O O14 0.212899 0.283165 0.794800
O O15 0.991393 0.220483 0.187384
O O16 0.000000 0.000000 0.000000
O O17 0.000000 0.500000 0.000000
#
# Coordination Sequence:
#
# PCOD8000654 Si02
#       8
#     2   2   2   2   2   2   2   2
#     4  10  21  38  66  94 130 175 212 262 322 384
#     4   9  19  39  65  92 129 175 214 258 317 393
#     4   9  19  38  65  94 129 172 217 256 320 393
#     4  11  25  43  67 101 129 165 220 266 318 386
#     4   9  19  36  65  94 125 173 215 261 322 377
#     4  12  25  41  66 101 129 166 218 269 324 376
#     4  10  19  39  66  93 123 174 217 254 324 386
#     4  12  25  43  70  93 132 174 211 269 324 380
#
# _framework density 23.297360000000001
#
# number of rings (size 3 to 8) (size 9 to 14) (size 15 to 20)
#    0.000    1.750    3.750    2.250    1.750    6.000 
#    0.000    1.875    0.000    0.000    0.000    0.000 
#    0.000    0.000    0.000    0.000    0.000    0.000 
#
# Total GULP energy -198346.747169 kJ/mol
# GULP energy per Si atom -12396.671698 kJ/mol
# Density = 2.324433 g / cm^3
# Si number density = 23.297360 Si / 1000 Ang^3
#
#
#
# Elastic Constant Matrix: (Units=GPa)
#
#
# Indices 1 2 3 4 5 6 
#
# 1 92.7455 27.1827 40.8808 23.2703 -40.6090 19.1847
# 2 27.1827 61.0504 29.5564 31.3145 -1.9141 23.6924
# 3 40.8808 29.5564 94.2361 27.9319 -2.8447 14.1783
# 4 23.2703 31.3145 27.9319 46.0558 -3.8453 -2.2172
# 5 -40.6090 -1.9141 -2.8447 -3.8453 41.6829 8.1774
# 6 19.1847 23.6924 14.1783 -2.2172 8.1774 33.7044
#
#
#
# Elastic Compliance Matrix: (Units=1/GPa)
#
#
# Indices 1 2 3 4 5 6 
#
# 1 0.071223 0.033309 -0.012249 -0.048324 0.081671 -0.081796
# 2 0.033309 0.065307 -0.004556 -0.058455 0.044992 -0.077712
# 3 -0.012249 -0.004556 0.016486 -0.001448 -0.012356 0.006142
# 4 -0.048324 -0.058455 -0.001448 0.086088 -0.059437 0.089290
# 5 0.081671 0.044992 -0.012356 -0.059437 0.120084 -0.105961
# 6 -0.081796 -0.077712 0.006142 0.089290 -0.105961 0.159854
#
#
# Mechanical properties :
#
#
# Convention : Reuss Voigt Hill
#
# Bulk Modulus (GPa) = 5.37565 49.25242 27.31404
# Shear Modulus (GPa) = 9.12333 34.31611 21.71972
#
# Velocity S-wave (km/s) = 1.98104 3.84208 3.05664
# Velocity P-wave (km/s) = 2.74684 6.39287 4.92006
#
# Compressibility (1/GPa) = 0.18602394
#
# Stress axis : x y z
#
# Youngs Moduli (GPa) = 14.04032 15.31222 60.65587
#
# Poissons Ratio (x) = -0.51003 0.74298
# Poissons Ratio (y) = -0.46767 0.27636
# Poissons Ratio (z) = 0.17198 0.06977
#
# Static dielectric constant tensor:
#      x y z
#    x 4.477410 -0.275870 -0.537610 
#    y -0.275870 4.171900 0.339270 
#    z -0.537610 0.339270 4.366730 
# 
# 
# High freq. dielectric constant tensor:
#      x y z
#    x 1.918370 0.001710 -0.021560 
#    y 0.001710 1.916730 0.017520 
#    z -0.021560 0.017520 1.912130 
# 
# From -- ./inp_files/343533.got.cif
#   From: 2010.06.25/outbox.cif.g09.slc.cpg/sg2_172_cif.got.tgz:343533.got - 2010.06.27 13:26:56.
