data_PCOD8000249
_publ_section_title
;
Structure prediction by ZEFSAII (Michael W. Deem and Ramdas Pophale) SiO2 
 PCOD8000249
Probable space group: P 1
;
_chemical_formula_sum "Si O2"
_cell_formula_units_Z 8
_cell_length_a 7.446701
_cell_length_b 10.676264
_cell_length_c 6.892122
_cell_angle_alpha 82.462493
_cell_angle_beta 93.682808
_cell_angle_gamma 44.947344
_cell_volume 373.977871
_symmetry_space_group_name_H-M "P 1"
_symmetry_group_IT_number 1
_symmetry_cell_setting 'triclinic'
loop_
_space_group_symop_operation_xyz
x,y,z
loop_
_atom_site_type_symbol
_atom_site_label
_atom_site_fract_x
_atom_site_fract_y
_atom_site_fract_z
Si Si1 0.783190 0.496980 0.295420
Si Si2 0.070384 0.535787 0.563201
Si Si3 0.293762 0.585665 0.225256
Si Si4 0.300500 0.145547 0.249613
Si Si5 0.966376 0.959911 0.934631
Si Si6 0.455804 0.871226 0.004794
Si Si7 0.449065 0.311344 0.980438
Si Si8 0.679181 0.921104 0.666849
O O1 0.542093 0.533433 0.340232
O O2 0.911958 0.492001 0.496986
O O3 0.991569 0.304369 0.236509
O O4 0.687295 0.655718 0.110312
O O5 0.194564 0.535252 0.381982
O O6 0.300198 0.378016 0.752946
O O7 0.874783 0.728445 0.615025
O O8 0.375286 0.476821 0.052754
O O9 0.062271 0.801172 0.119739
O O10 0.449368 0.078875 0.477105
O O11 0.374783 0.228446 0.115025
O O12 0.374279 0.980070 0.177297
O O13 0.837608 0.964890 0.733065
O O14 0.207473 0.923457 0.889819
O O15 0.757997 0.152521 0.993542
O O16 0.555002 0.921639 0.848069
#
# Coordination Sequence:
#
# PCOD8000249 Si02
#       8
#     1   1   1   1   1   1   1   1
#     4  11  24  45  68  97 132 170 215 270 322 383
#     4  12  24  44  68  96 132 174 215 264 326 384
#     4  11  25  46  66  97 134 168 216 270 322 383
#     4  12  24  44  70  95 131 174 216 267 324 382
#     4  11  24  45  68  97 132 170 215 270 322 383
#     4  11  25  46  66  97 134 168 216 270 322 383
#     4  12  24  44  70  95 131 174 216 267 324 382
#     4  12  24  44  68  96 132 174 215 264 326 384
#
# _framework density 21.391639000000001
#
# number of rings (size 3 to 8) (size 9 to 14) (size 15 to 20)
#    0.000    0.500    5.000    3.750    0.000    2.000 
#    4.500    0.000    0.000    0.000    0.000    0.000 
#    0.000    0.000    0.000    0.000    0.000    0.000 
#
# Total GULP energy -99260.515431 kJ/mol
# GULP energy per Si atom -12407.564429 kJ/mol
# Density = 2.134295 g / cm^3
# Si number density = 21.391639 Si / 1000 Ang^3
#
#
#
# Elastic Constant Matrix: (Units=GPa)
#
#
# Indices 1 2 3 4 5 6 
#
# 1 98.8069 25.5111 46.2173 2.1472 31.6641 -3.1184
# 2 25.5111 120.4435 38.5951 2.0384 16.3038 -25.2966
# 3 46.2173 38.5951 109.3490 1.0920 24.5586 -12.2503
# 4 2.1472 2.0384 1.0920 39.0705 -1.0024 6.3686
# 5 31.6641 16.3038 24.5586 -1.0024 27.4250 2.2121
# 6 -3.1184 -25.2966 -12.2503 6.3686 2.2121 29.7881
#
#
#
# Elastic Compliance Matrix: (Units=1/GPa)
#
#
# Indices 1 2 3 4 5 6 
#
# 1 0.017255 0.000260 -0.003172 -0.001711 -0.017492 0.002387
# 2 0.000260 0.011955 -0.001554 -0.002500 -0.006960 0.010591
# 3 -0.003172 -0.001554 0.013300 -0.001068 -0.007735 0.004620
# 4 -0.001711 -0.002500 -0.001068 0.027486 0.006154 -0.009074
# 5 -0.017492 -0.006960 -0.007735 0.006154 0.069350 -0.017389
# 6 0.002387 0.010591 0.004620 -0.009074 -0.017389 0.047946
#
#
# Mechanical properties :
#
#
# Convention : Reuss Voigt Hill
#
# Bulk Modulus (GPa) = 29.78273 61.02739 45.40506
# Shear Modulus (GPa) = 24.10593 33.80845 28.95719
#
# Velocity S-wave (km/s) = 3.36055 3.97980 3.68321
# Velocity P-wave (km/s) = 5.38615 7.05046 6.27374
#
# Compressibility (1/GPa) = 0.03357651
#
# Stress axis : x y z
#
# Youngs Moduli (GPa) = 57.95329 83.64873 75.18923
#
# Poissons Ratio (x) = -0.02172 0.23848
# Poissons Ratio (y) = -0.01505 0.11688
# Poissons Ratio (z) = 0.18381 0.13003
#
# Static dielectric constant tensor:
#      x y z
#    x 3.870240 -0.088600 0.232910 
#    y -0.088600 4.239510 0.021240 
#    z 0.232910 0.021240 3.930750 
# 
# 
# High freq. dielectric constant tensor:
#      x y z
#    x 1.841600 -0.005210 0.015440 
#    y -0.005210 1.864470 -0.002020 
#    z 0.015440 -0.002020 1.835310 
# 
# From -- ./inp_files/1630.got.cif
#   From: 2010.03.12/outbox.cif.g09.slc.cpg/sg1_1_cif.got.tgz:1630.got - 2010.03.29 11:57:58.
