data_PCOD8000951
_publ_section_title
;
Structure prediction by ZEFSAII (Michael W. Deem and Ramdas Pophale) SiO2 
 PCOD8000951
Probable space group: P -1
;
_chemical_formula_sum "Si O2"
_cell_formula_units_Z 16
_cell_length_a 24.804007
_cell_length_b 30.491097
_cell_length_c 12.096060
_cell_angle_alpha 153.329117
_cell_angle_beta 25.600991
_cell_angle_gamma 170.100712
_cell_volume 677.915696
_symmetry_space_group_name_H-M "P -1"
_symmetry_group_IT_number 2
_symmetry_cell_setting 'triclinic'
loop_
_space_group_symop_operation_xyz
x,y,z
-x,-y,-z
loop_
_atom_site_type_symbol
_atom_site_label
_atom_site_fract_x
_atom_site_fract_y
_atom_site_fract_z
Si Si1 0.019061 0.216426 0.127979
Si Si2 0.235051 0.818436 0.744573
Si Si3 0.657393 0.999622 0.519707
Si Si4 0.358363 0.759932 0.199684
Si Si5 0.207700 0.148366 0.562978
Si Si6 0.090736 0.372053 0.748845
Si Si7 0.814056 0.741781 0.536365
Si Si8 0.583363 0.391659 0.905724
O O1 0.257368 0.461244 0.173348
O O2 0.182106 0.228742 0.862002
O O3 0.945201 0.209321 0.367933
O O4 0.675222 0.947104 0.096850
O O5 0.340926 0.831370 0.683461
O O6 0.185670 0.716174 0.495523
O O7 0.870094 0.600077 0.940951
O O8 0.516636 0.102126 0.836619
O O9 0.565903 0.822707 0.316787
O O10 0.782282 0.142225 0.720315
O O11 0.096860 0.484722 0.043802
O O12 0.581734 0.404898 0.422796
O O13 0.000000 0.000000 0.500000
O O14 0.101061 0.984260 0.471142
O O15 0.058271 0.265548 0.662037
O O16 0.500000 0.500000 0.500000
O O17 0.709887 0.746963 0.832508
#
# Coordination Sequence:
#
# PCOD8000951 Si02
#       8
#     2   2   2   2   2   2   2   2
#     4  10  19  40  67  89 131 173 221 262 316 388
#     4   9  21  42  72  94 122 179 228 270 323 380
#     4  11  25  42  62 102 136 176 218 270 333 390
#     4   9  19  41  69  95 125 170 228 273 314 390
#     4  12  21  41  65  98 128 171 218 264 324 390
#     4  12  26  41  67 101 141 169 211 278 340 384
#     4  12  24  40  69 102 131 169 223 269 327 393
#     4  11  22  42  71  95 133 175 226 269 317 398
#
# _framework density 23.601756999999999
#
# number of rings (size 3 to 8) (size 9 to 14) (size 15 to 20)
#    0.000    1.250    5.000    1.125    3.500    2.500 
#    0.000    0.625    0.000    0.000    0.000    0.000 
#    0.000    0.000    0.000    0.000    0.000    0.000 
#
# Total GULP energy -198423.497039 kJ/mol
# GULP energy per Si atom -12401.468565 kJ/mol
# Density = 2.354804 g / cm^3
# Si number density = 23.601757 Si / 1000 Ang^3
#
#
#
# Elastic Constant Matrix: (Units=GPa)
#
#
# Indices 1 2 3 4 5 6 
#
# 1 102.1381 31.0113 30.8248 31.2805 -1.9469 -27.5946
# 2 31.0113 53.4533 4.2745 22.6489 1.7410 -21.8299
# 3 30.8248 4.2745 59.9312 21.8110 -18.3561 -4.1365
# 4 31.2805 22.6489 21.8110 38.2584 -6.6719 0.5114
# 5 -1.9469 1.7410 -18.3561 -6.6719 31.0772 8.3126
# 6 -27.5946 -21.8299 -4.1365 0.5114 8.3126 41.4207
#
#
#
# Elastic Compliance Matrix: (Units=1/GPa)
#
#
# Indices 1 2 3 4 5 6 
#
# 1 0.020449 0.003135 -0.006838 -0.016841 -0.011104 0.017029
# 2 0.003135 0.042801 0.005314 -0.033734 -0.013896 0.028382
# 3 -0.006838 0.005314 0.027987 -0.011073 0.013856 -0.001604
# 4 -0.016841 -0.033734 -0.011073 0.069895 0.018581 -0.034696
# 5 -0.011104 -0.013896 0.013856 0.018581 0.050790 -0.023760
# 6 0.017029 0.028382 -0.001604 -0.034696 -0.023760 0.055482
#
#
# Mechanical properties :
#
#
# Convention : Reuss Voigt Hill
#
# Bulk Modulus (GPa) = 10.58644 38.63821 24.61232
# Shear Modulus (GPa) = 16.91090 32.11208 24.51149
#
# Velocity S-wave (km/s) = 2.67967 3.69261 3.22614
# Velocity P-wave (km/s) = 3.75092 5.88106 4.93236
#
# Compressibility (1/GPa) = 0.09446049
#
# Stress axis : x y z
#
# Youngs Moduli (GPa) = 48.90140 23.36379 35.73114
#
# Poissons Ratio (x) = -0.07325 0.24433
# Poissons Ratio (y) = -0.15331 -0.18989
# Poissons Ratio (z) = 0.33439 -0.12416
#
# Static dielectric constant tensor:
#      x y z
#    x 4.142690 -0.148810 -0.120410 
#    y -0.148810 3.980380 -0.142330 
#    z -0.120410 -0.142330 4.515070 
# 
# 
# High freq. dielectric constant tensor:
#      x y z
#    x 1.924830 -0.028840 -0.013970 
#    y -0.028840 1.920400 -0.009030 
#    z -0.013970 -0.009030 1.940490 
# 
# From -- ./inp_files/272312.got.cif
#   From: 2010.06.25/outbox.cif.g09.slc.cpg/sg2_137_cif.got.tgz:272312.got - 2010.06.27 13:26:56.
