data_PCOD8000198
_publ_section_title
;
Structure prediction by ZEFSAII (Michael W. Deem and Ramdas Pophale) SiO2 
 PCOD8000198
Probable space group: P 1
;
_chemical_formula_sum "Si O2"
_cell_formula_units_Z 8
_cell_length_a 8.717522
_cell_length_b 5.631117
_cell_length_c 10.553271
_cell_angle_alpha 117.184780
_cell_angle_beta 115.482478
_cell_angle_gamma 107.140688
_cell_volume 329.058762
_symmetry_space_group_name_H-M "P 1"
_symmetry_group_IT_number 1
_symmetry_cell_setting 'triclinic'
loop_
_space_group_symop_operation_xyz
x,y,z
loop_
_atom_site_type_symbol
_atom_site_label
_atom_site_fract_x
_atom_site_fract_y
_atom_site_fract_z
Si Si1 0.147750 0.321480 0.284170
Si Si2 0.900005 0.346872 0.998717
Si Si3 0.545272 0.058242 0.611076
Si Si4 0.289107 0.204273 0.681800
Si Si5 0.181443 0.725357 0.750641
Si Si6 0.278834 0.929143 0.112759
Si Si7 0.904622 0.836145 0.294200
Si Si8 0.702979 0.116342 0.399984
O O1 0.952763 0.174321 0.079191
O O2 0.305863 0.718088 0.454759
O O3 0.293154 0.221317 0.261792
O O4 0.045636 0.186684 0.352050
O O5 0.821663 0.535301 0.093123
O O6 0.117058 0.591111 0.054213
O O7 0.709372 0.075688 0.771553
O O8 0.497709 0.322143 0.698211
O O9 0.632662 0.100369 0.513745
O O10 0.284074 0.524965 0.761947
O O11 0.309742 0.056516 0.785884
O O12 0.065848 0.874181 0.465010
O O13 0.936000 0.473093 0.553902
O O14 0.188252 0.872976 0.925920
O O15 0.523720 0.059917 0.228186
O O16 0.713774 0.811467 0.292260
#
# Coordination Sequence:
#
# PCOD8000198 Si02
#       8
#     1   1   1   1   1   1   1   1
#     4  11  24  47  71 100 149 194 241 302 365 437
#     4  11  24  45  70 104 144 190 243 296 365 439
#     4  12  23  45  74 106 141 195 240 300 371 430
#     4  11  25  48  75 103 155 190 245 299 374 432
#     4  11  27  48  73 112 148 193 242 311 359 443
#     4  11  25  45  70 105 147 190 243 302 363 437
#     4  10  24  47  71 101 147 188 240 303 361 438
#     4  11  24  43  74 105 143 188 244 301 368 424
#
# _framework density 24.311767
#
# number of rings (size 3 to 8) (size 9 to 14) (size 15 to 20)
#    0.000    1.000    3.750    2.250    3.500    4.000 
#    6.750    0.000    0.000    0.000    0.000    0.000 
#    0.000    0.000    0.000    0.000    0.000    0.000 
#
# Total GULP energy -99139.806103 kJ/mol
# GULP energy per Si atom -12392.475763 kJ/mol
# Density = 2.425643 g / cm^3
# Si number density = 24.311767 Si / 1000 Ang^3
#
#
#
# Elastic Constant Matrix: (Units=GPa)
#
#
# Indices 1 2 3 4 5 6 
#
# 1 154.3913 36.8552 18.7026 -11.2688 -3.5348 -2.6873
# 2 36.8552 98.1228 2.0334 -16.3122 -12.4335 -5.8021
# 3 18.7026 2.0334 85.8570 -27.5988 1.5788 -3.6187
# 4 -11.2688 -16.3122 -27.5988 23.3044 -0.9548 1.9286
# 5 -3.5348 -12.4335 1.5788 -0.9548 33.6474 -21.2560
# 6 -2.6873 -5.8021 -3.6187 1.9286 -21.2560 20.8127
#
#
#
# Elastic Compliance Matrix: (Units=1/GPa)
#
#
# Indices 1 2 3 4 5 6 
#
# 1 0.007320 -0.003011 -0.001738 -0.000569 -0.001040 -0.001206
# 2 -0.003011 0.020201 0.007489 0.019896 0.029117 0.034439
# 3 -0.001738 0.007489 0.021695 0.029333 0.011956 0.015128
# 4 -0.000569 0.019896 0.029333 0.089901 0.027855 0.030691
# 5 -0.001040 0.029117 0.011956 0.027855 0.127744 0.137946
# 6 -0.001206 0.034439 0.015128 0.030691 0.137946 0.198164
#
#
# Mechanical properties :
#
#
# Convention : Reuss Voigt Hill
#
# Bulk Modulus (GPa) = 18.28283 50.39486 34.33884
# Shear Modulus (GPa) = 10.46515 34.27156 22.36836
#
# Velocity S-wave (km/s) = 2.07699 3.75863 3.03654
# Velocity P-wave (km/s) = 3.64532 6.29365 5.14288
#
# Compressibility (1/GPa) = 0.05469614
#
# Stress axis : x y z
#
# Youngs Moduli (GPa) = 136.61161 49.50354 46.09296
#
# Poissons Ratio (x) = 0.14906 0.08010
# Poissons Ratio (y) = 0.41135 -0.34519
# Poissons Ratio (z) = 0.23741 -0.37074
#
# Static dielectric constant tensor:
#      x y z
#    x 4.646320 -0.076030 -0.079420 
#    y -0.076030 4.160720 -0.206190 
#    z -0.079420 -0.206190 4.338800 
# 
# 
# High freq. dielectric constant tensor:
#      x y z
#    x 1.984840 -0.005680 -0.011640 
#    y -0.005680 1.943220 -0.021580 
#    z -0.011640 -0.021580 1.970210 
# 
# From -- ./inp_files/1317.got.cif
#   From: 2010.03.12/outbox.cif.g09.slc.cpg/sg1_1_cif.got.tgz:1317.got - 2010.03.29 11:57:58.
