data_PCOD8000335
_publ_section_title
;
Structure prediction by ZEFSAII (Michael W. Deem and Ramdas Pophale) SiO2 
 PCOD8000335
Probable space group: P -1
;
_chemical_formula_sum "Si O2"
_cell_formula_units_Z 16
_cell_length_a 12.624122
_cell_length_b 10.862771
_cell_length_c 7.737519
_cell_angle_alpha 93.948114
_cell_angle_beta 121.914383
_cell_angle_gamma 70.064417
_cell_volume 838.413880
_symmetry_space_group_name_H-M "P -1"
_symmetry_group_IT_number 2
_symmetry_cell_setting 'triclinic'
loop_
_space_group_symop_operation_xyz
x,y,z
-x,-y,-z
loop_
_atom_site_type_symbol
_atom_site_label
_atom_site_fract_x
_atom_site_fract_y
_atom_site_fract_z
Si Si1 0.089013 0.809507 0.953197
Si Si2 0.654927 0.641395 0.548489
Si Si3 0.410863 0.827050 0.519938
Si Si4 0.235886 0.665662 0.401866
Si Si5 0.798896 0.651872 0.330555
Si Si6 0.919173 0.343622 0.399322
Si Si7 0.806633 0.965804 0.857617
Si Si8 0.675348 0.789412 0.895818
O O1 0.125239 0.731452 0.798148
O O2 0.930002 0.862855 0.850350
O O3 0.160232 0.713205 0.161574
O O4 0.144159 0.928485 0.994053
O O5 0.496650 0.730387 0.430327
O O6 0.673776 0.488190 0.547570
O O7 0.714725 0.684356 0.435902
O O8 0.728586 0.674299 0.783732
O O9 0.329324 0.748193 0.538726
O O10 0.513339 0.858396 0.743245
O O11 0.311391 0.965199 0.373619
O O12 0.126328 0.693509 0.459805
O O13 0.851687 0.497905 0.315479
O O14 0.921339 0.702266 0.460858
O O15 0.702874 0.729247 0.102837
O O16 0.749280 0.893473 0.944664
#
# Coordination Sequence:
#
# PCOD8000335 Si02
#       8
#     2   2   2   2   2   2   2   2
#     4  10  21  37  62  80 112 150 186 235 281 322
#     4   9  20  35  60  84 117 142 180 232 281 334
#     4   9  21  37  59  79 118 150 185 228 274 328
#     4  10  19  39  58  90 111 142 185 232 286 336
#     4  10  20  37  57  90 113 140 187 230 286 339
#     4  10  21  36  60  86 116 140 182 242 281 331
#     4  10  20  39  57  82 112 151 195 228 267 331
#     4  10  20  36  58  79 114 152 183 225 277 328
#
# _framework density 19.083653999999999
#
# number of rings (size 3 to 8) (size 9 to 14) (size 15 to 20)
#    0.750    1.500    0.000    3.000    0.000    0.000 
#    4.500   19.375    0.000    0.000    0.000    0.000 
#    0.000    0.000    0.000    0.000    0.000    0.000 
#
# Total GULP energy -198381.322084 kJ/mol
# GULP energy per Si atom -12398.832630 kJ/mol
# Density = 1.904022 g / cm^3
# Si number density = 19.083654 Si / 1000 Ang^3
#
#
#
# Elastic Constant Matrix: (Units=GPa)
#
#
# Indices 1 2 3 4 5 6 
#
# 1 86.4140 21.8937 23.9021 -11.3224 5.0155 7.2956
# 2 21.8937 35.2008 14.7517 -3.6648 -1.6817 5.6513
# 3 23.9021 14.7517 89.7970 -2.5371 -1.2697 -0.2094
# 4 -11.3224 -3.6648 -2.5371 27.5090 -1.9390 6.3917
# 5 5.0155 -1.6817 -1.2697 -1.9390 30.4208 -6.0912
# 6 7.2956 5.6513 -0.2094 6.3917 -6.0912 28.2159
#
#
#
# Elastic Compliance Matrix: (Units=1/GPa)
#
#
# Indices 1 2 3 4 5 6 
#
# 1 0.015615 -0.007301 -0.002849 0.006038 -0.003664 -0.004755
# 2 -0.007301 0.035843 -0.003848 0.002843 0.002103 -0.005510
# 3 -0.002849 -0.003848 0.012521 -0.000928 0.001132 0.002055
# 4 0.006038 0.002843 -0.000928 0.041816 -0.000561 -0.011731
# 5 -0.003664 0.002103 0.001132 -0.000561 0.035261 0.008274
# 6 -0.004755 -0.005510 0.002055 -0.011731 0.008274 0.042233
#
#
# Mechanical properties :
#
#
# Convention : Reuss Voigt Hill
#
# Bulk Modulus (GPa) = 27.79053 36.94520 32.36787
# Shear Modulus (GPa) = 22.39334 27.28678 24.84006
#
# Velocity S-wave (km/s) = 3.42925 3.78544 3.61174
# Velocity P-wave (km/s) = 5.50216 6.20546 5.86436
#
# Compressibility (1/GPa) = 0.03598349
#
# Stress axis : x y z
#
# Youngs Moduli (GPa) = 64.03902 27.89951 79.86382
#
# Poissons Ratio (x) = 0.20370 0.22756
# Poissons Ratio (y) = 0.46756 0.30728
# Poissons Ratio (z) = 0.18247 0.10734
#
# Static dielectric constant tensor:
#      x y z
#    x 3.554530 0.059440 0.077410 
#    y 0.059440 3.440150 -0.060210 
#    z 0.077410 -0.060210 3.237710 
# 
# 
# High freq. dielectric constant tensor:
#      x y z
#    x 1.751810 0.008130 0.004610 
#    y 0.008130 1.740730 -0.007600 
#    z 0.004610 -0.007600 1.727960 
# 
# From -- ./inp_files/70779.got.cif
#   From: 2010.06.25/outbox.cif.g09.slc.cpg/sg2_36_cif.got.tgz:70779.got - 2010.06.27 13:26:56.
