data_PCOD8000475
_publ_section_title
;
Structure prediction by ZEFSAII (Michael W. Deem and Ramdas Pophale) SiO2 
 PCOD8000475
Probable space group: P -1
;
_chemical_formula_sum "Si O2"
_cell_formula_units_Z 16
_cell_length_a 10.821941
_cell_length_b 13.587884
_cell_length_c 11.240653
_cell_angle_alpha 44.843569
_cell_angle_beta 89.825119
_cell_angle_gamma 57.656665
_cell_volume 763.493237
_symmetry_space_group_name_H-M "P -1"
_symmetry_group_IT_number 2
_symmetry_cell_setting 'triclinic'
loop_
_space_group_symop_operation_xyz
x,y,z
-x,-y,-z
loop_
_atom_site_type_symbol
_atom_site_label
_atom_site_fract_x
_atom_site_fract_y
_atom_site_fract_z
Si Si1 0.661037 0.584130 0.777398
Si Si2 0.407452 0.314171 0.041033
Si Si3 0.297441 0.792372 0.246732
Si Si4 0.666626 0.656768 0.381068
Si Si5 0.870293 0.573515 0.220691
Si Si6 0.702019 0.829417 0.434359
Si Si7 0.029018 0.730043 0.120305
Si Si8 0.484955 0.499798 0.706487
O O1 0.638433 0.764967 0.584111
O O2 0.504894 0.624537 0.675054
O O3 0.868281 0.349038 0.941004
O O4 0.638023 0.585744 0.915788
O O5 0.236656 0.359785 0.960989
O O6 0.426213 0.427405 0.855898
O O7 0.599210 0.061741 0.262144
O O8 0.457880 0.773015 0.278034
O O9 0.325805 0.654668 0.470806
O O10 0.320540 0.703592 0.191395
O O11 0.088002 0.032621 0.051219
O O12 0.743568 0.608877 0.290270
O O13 0.656070 0.814654 0.313816
O O14 0.808181 0.433358 0.642509
O O15 0.884325 0.724412 0.121831
O O16 0.075933 0.328297 0.421296
#
# Coordination Sequence:
#
# PCOD8000475 Si02
#       8
#     2   2   2   2   2   2   2   2
#     4  10  23  47  60  90 127 166 208 252 297 370
#     4  12  24  41  66  88 128 168 204 252 304 361
#     4  11  22  41  64  91 122 165 203 251 317 365
#     4  10  19  39  62  96 131 146 207 262 307 369
#     4  10  22  36  62 101 123 153 209 258 303 373
#     4  10  22  40  66  93 121 163 203 257 310 361
#     4  10  22  39  67  90 123 164 199 256 317 359
#     4  11  24  42  62  93 125 160 211 254 302 372
#
# _framework density 20.956309999999998
#
# number of rings (size 3 to 8) (size 9 to 14) (size 15 to 20)
#    0.000    1.750    3.750    3.000    3.500    3.500 
#    4.500    0.625    0.000    0.000    0.000    0.000 
#    0.000    0.000    0.000    0.000    0.000    0.000 
#
# Total GULP energy -198392.680118 kJ/mol
# GULP energy per Si atom -12399.542507 kJ/mol
# Density = 2.090861 g / cm^3
# Si number density = 20.956310 Si / 1000 Ang^3
#
#
#
# Elastic Constant Matrix: (Units=GPa)
#
#
# Indices 1 2 3 4 5 6 
#
# 1 51.7995 16.9010 15.6188 11.7145 -7.7157 -4.7883
# 2 16.9010 137.0522 56.0467 13.8206 -2.9281 -0.7677
# 3 15.6188 56.0467 58.1356 -2.9709 -10.5800 -5.3123
# 4 11.7145 13.8206 -2.9709 42.1946 -1.7400 2.5343
# 5 -7.7157 -2.9281 -10.5800 -1.7400 26.9518 7.6621
# 6 -4.7883 -0.7677 -5.3123 2.5343 7.6621 20.6443
#
#
#
# Elastic Compliance Matrix: (Units=1/GPa)
#
#
# Indices 1 2 3 4 5 6 
#
# 1 0.023429 0.000494 -0.006297 -0.007217 0.002774 0.003688
# 2 0.000494 0.013592 -0.014360 -0.005721 -0.004152 -0.000832
# 3 -0.006297 -0.014360 0.035310 0.009248 0.010511 0.002055
# 4 -0.007217 -0.005721 0.009248 0.028670 0.004085 -0.004543
# 5 0.002774 -0.004152 0.010511 0.004085 0.045916 -0.014349
# 6 0.003688 -0.000832 0.002055 -0.004543 -0.014349 0.055676
#
#
# Mechanical properties :
#
#
# Convention : Reuss Voigt Hill
#
# Bulk Modulus (GPa) = 31.24610 47.12448 39.18529
# Shear Modulus (GPa) = 19.71706 28.51951 24.11828
#
# Velocity S-wave (km/s) = 3.07068 3.69304 3.39615
# Velocity P-wave (km/s) = 5.24543 6.38127 5.84103
#
# Compressibility (1/GPa) = 0.03200399
#
# Stress axis : x y z
#
# Youngs Moduli (GPa) = 42.68174 73.57522 28.32050
#
# Poissons Ratio (x) = -0.03633 0.17834
# Poissons Ratio (y) = -0.02107 0.40668
# Poissons Ratio (z) = 0.26878 1.05652
#
# Static dielectric constant tensor:
#      x y z
#    x 3.808640 0.073350 -0.005920 
#    y 0.073350 3.822980 0.049740 
#    z -0.005920 0.049740 3.636310 
# 
# 
# High freq. dielectric constant tensor:
#      x y z
#    x 1.830530 0.006630 -0.001610 
#    y 0.006630 1.817330 0.002050 
#    z -0.001610 0.002050 1.804110 
# 
# From -- ./inp_files/433727.got.cif
#   From: 2010.06.25/outbox.cif.g09.slc.cpg/sg2_217_cif.got.tgz:433727.got - 2010.06.27 13:26:56.
