data_PCOD8000341
_publ_section_title
;
Structure prediction by ZEFSAII (Michael W. Deem and Ramdas Pophale) SiO2 
 PCOD8000341
Probable space group: P -1
;
_chemical_formula_sum "Si O2"
_cell_formula_units_Z 10
_cell_length_a 14.908183
_cell_length_b 10.599375
_cell_length_c 7.647685
_cell_angle_alpha 46.236968
_cell_angle_beta 141.463922
_cell_angle_gamma 129.926162
_cell_volume 529.928757
_symmetry_space_group_name_H-M "P -1"
_symmetry_group_IT_number 2
_symmetry_cell_setting 'triclinic'
loop_
_space_group_symop_operation_xyz
x,y,z
-x,-y,-z
loop_
_atom_site_type_symbol
_atom_site_label
_atom_site_fract_x
_atom_site_fract_y
_atom_site_fract_z
Si Si1 0.803211 0.121672 0.321809
Si Si2 0.995951 0.698288 0.247390
Si Si3 0.891537 0.320297 0.942656
Si Si4 0.309092 0.271354 0.369044
Si Si5 0.629793 0.371805 0.672601
O O1 0.911896 0.157456 0.618836
O O2 0.716991 0.916447 0.389505
O O3 0.897557 0.164438 0.244035
O O4 0.686731 0.252201 0.025603
O O5 0.065491 0.742175 0.119391
O O6 0.000000 0.500000 0.500000
O O7 0.827548 0.717587 0.974281
O O8 0.723425 0.354749 0.654807
O O9 0.000000 0.500000 0.000000
O O10 0.455366 0.298147 0.445102
O O11 0.334303 0.422045 0.412152
#
# Coordination Sequence:
#
# PCOD8000341 Si02
#       5
#     2   2   2   2   2
#     4  10  22  38  64  81 118 151 191 236 281 343
#     4  12  20  38  61  84 118 152 190 234 284 337
#     4  10  19  39  59  83 118 150 187 237 286 328
#     4  11  20  37  64  87 109 158 191 228 296 332
#     4   9  21  39  61  83 118 149 189 239 284 337
#
# _framework density 18.870463000000001
#
# number of rings (size 3 to 8) (size 9 to 14) (size 15 to 20)
#    1.200    0.400    6.000    1.200    0.000    0.800 
#    0.000    2.000    4.400    0.000    0.000    0.000 
#    0.000    0.000    0.000    0.000    0.000    0.000 
#
# Total GULP energy -123925.045274 kJ/mol
# GULP energy per Si atom -12392.504527 kJ/mol
# Density = 1.882751 g / cm^3
# Si number density = 18.870463 Si / 1000 Ang^3
#
#
#
# Elastic Constant Matrix: (Units=GPa)
#
#
# Indices 1 2 3 4 5 6 
#
# 1 114.6898 38.3584 62.0427 20.5578 1.8867 16.8603
# 2 38.3584 127.3025 49.4013 -12.2494 -2.3940 18.7048
# 3 62.0427 49.4013 88.0579 13.7785 16.2450 8.4202
# 4 20.5578 -12.2494 13.7785 33.2454 7.3608 0.3841
# 5 1.8867 -2.3940 16.2450 7.3608 36.5267 8.9364
# 6 16.8603 18.7048 8.4202 0.3841 8.9364 21.1141
#
#
#
# Elastic Compliance Matrix: (Units=1/GPa)
#
#
# Indices 1 2 3 4 5 6 
#
# 1 0.018932 0.000994 -0.013095 -0.007994 0.010177 -0.014938
# 2 0.000994 0.013950 -0.009725 0.007206 0.006734 -0.012255
# 3 -0.013095 -0.009725 0.028078 -0.003929 -0.015172 0.014367
# 4 -0.007994 0.007206 -0.003929 0.040690 -0.006436 0.003550
# 5 0.010177 0.006734 -0.015172 -0.006436 0.041582 -0.025524
# 6 -0.014938 -0.012255 0.014367 0.003550 -0.025524 0.075156
#
#
# Mechanical properties :
#
#
# Convention : Reuss Voigt Hill
#
# Bulk Modulus (GPa) = 57.77164 69.96167 63.86665
# Shear Modulus (GPa) = 18.67003 30.19376 24.43190
#
# Velocity S-wave (km/s) = 3.14885 4.00441 3.60212
# Velocity P-wave (km/s) = 6.62583 7.65085 7.15672
#
# Compressibility (1/GPa) = 0.01730953
#
# Stress axis : x y z
#
# Youngs Moduli (GPa) = 52.82064 71.68317 35.61534
#
# Poissons Ratio (x) = -0.07126 0.46637
# Poissons Ratio (y) = -0.05251 0.34635
# Poissons Ratio (z) = 0.69167 0.69709
#
# Static dielectric constant tensor:
#      x y z
#    x 3.548580 0.214520 0.187050 
#    y 0.214520 3.428700 -0.020490 
#    z 0.187050 -0.020490 3.463470 
# 
# 
# High freq. dielectric constant tensor:
#      x y z
#    x 1.716070 0.016470 0.019970 
#    y 0.016470 1.739560 -0.009720 
#    z 0.019970 -0.009720 1.722770 
# 
# From -- ./inp_files/147210.got.cif
#   From: 2010.06.25/outbox.cif.g09.slc.cpg/sg2_74_cif.got.tgz:147210.got - 2010.06.27 13:26:56.
