data_PCOD8000197
_publ_section_title
;
Structure prediction by ZEFSAII (Michael W. Deem and Ramdas Pophale) SiO2 
 PCOD8000197
Probable space group: P 1
;
_chemical_formula_sum "Si O2"
_cell_formula_units_Z 6
_cell_length_a 10.202079
_cell_length_b 6.195595
_cell_length_c 5.010386
_cell_angle_alpha 89.999762
_cell_angle_beta 86.929839
_cell_angle_gamma 52.604804
_cell_volume 251.031901
_symmetry_space_group_name_H-M "P 1"
_symmetry_group_IT_number 1
_symmetry_cell_setting 'triclinic'
loop_
_space_group_symop_operation_xyz
x,y,z
loop_
_atom_site_type_symbol
_atom_site_label
_atom_site_fract_x
_atom_site_fract_y
_atom_site_fract_z
Si Si1 0.244290 0.192430 0.902850
Si Si2 0.049781 0.768596 0.098954
Si Si3 0.226723 0.944334 0.412680
Si Si4 0.872895 0.298196 0.785164
Si Si5 0.855279 0.581464 0.295015
Si Si6 0.549799 0.735667 0.598928
O O1 0.156249 0.098881 0.714556
O O2 0.438458 0.001034 0.804389
O O3 0.172039 0.505919 0.896492
O O4 0.205649 0.162173 0.208872
O O5 0.154033 0.797383 0.305030
O O6 0.927493 0.750497 0.301398
O O7 0.945592 0.005901 0.892885
O O8 0.425307 0.711742 0.436942
O O9 0.943351 0.311817 0.483289
O O10 0.674314 0.462738 0.760882
O O11 0.893901 0.473978 0.988971
O O12 0.661116 0.778384 0.393471
#
# Coordination Sequence:
#
# PCOD8000197 Si02
#       6
#     1   1   1   1   1   1
#     4  10  24  46  78 105 153 192 250 309 373 440
#     4  12  26  46  82 116 140 204 254 306 384 444
#     4  10  24  46  78 105 153 192 250 309 373 440
#     4  10  24  46  78 105 153 192 250 309 373 440
#     4  10  24  46  78 105 153 192 250 309 373 440
#     4   8  22  52  74 100 160 198 234 326 362 440
#
# _framework density 23.901347000000001
#
# number of rings (size 3 to 8) (size 9 to 14) (size 15 to 20)
#    2.000    0.000    0.000    2.000    0.000   10.667 
#    0.000   10.000   14.667    0.000    0.000    0.000 
#    0.000    0.000    0.000    0.000    0.000    0.000 
#
# Total GULP energy -74335.939001 kJ/mol
# GULP energy per Si atom -12389.323167 kJ/mol
# Density = 2.384695 g / cm^3
# Si number density = 23.901347 Si / 1000 Ang^3
#
#
#
# Elastic Constant Matrix: (Units=GPa)
#
#
# Indices 1 2 3 4 5 6 
#
# 1 169.3199 87.7513 69.4025 -3.4967 7.0776 -0.2350
# 2 87.7513 165.2156 65.9410 -4.9460 5.3912 -4.9486
# 3 69.4025 65.9410 148.5003 1.3266 -1.9480 -4.3501
# 4 -3.4967 -4.9460 1.3266 50.2959 -10.5666 0.8127
# 5 7.0776 5.3912 -1.9480 -10.5666 58.6492 -0.4608
# 6 -0.2350 -4.9486 -4.3501 0.8127 -0.4608 34.6985
#
#
#
# Elastic Compliance Matrix: (Units=1/GPa)
#
#
# Indices 1 2 3 4 5 6 
#
# 1 0.008909 -0.003706 -0.002554 0.000168 -0.000795 -0.000803
# 2 -0.003706 0.008969 -0.002233 0.000597 -0.000336 0.000956
# 3 -0.002554 -0.002233 0.008957 -0.000493 0.000728 0.000808
# 4 0.000168 0.000597 -0.000493 0.020737 0.003641 -0.000413
# 5 -0.000795 -0.000336 0.000728 0.003641 0.017859 0.000190
# 6 -0.000803 0.000956 0.000808 -0.000413 0.000190 0.029064
#
#
# Mechanical properties :
#
#
# Convention : Reuss Voigt Hill
#
# Bulk Modulus (GPa) = 101.51382 103.24724 102.38053
# Shear Modulus (GPa) = 43.56810 46.05811 44.81310
#
# Velocity S-wave (km/s) = 4.27409 4.39453 4.33473
# Velocity P-wave (km/s) = 8.18055 8.30905 8.24505
#
# Compressibility (1/GPa) = 0.00985088
#
# Stress axis : x y z
#
# Youngs Moduli (GPa) = 112.24989 111.48911 111.65070
#
# Poissons Ratio (x) = 0.41313 0.28510
# Poissons Ratio (y) = 0.41595 0.24929
# Poissons Ratio (z) = 0.28663 0.24893
#
# Static dielectric constant tensor:
#      x y z
#    x 4.491700 -0.532640 0.075470 
#    y -0.532640 4.071920 -0.052190 
#    z 0.075470 -0.052190 4.347380 
# 
# 
# High freq. dielectric constant tensor:
#      x y z
#    x 1.962850 -0.039840 0.000730 
#    y -0.039840 1.931460 -0.000600 
#    z 0.000730 -0.000600 1.966180 
# 
# From -- ./inp_files/251.got.cif
#   From: 2010.03.12/outbox.cif.g09.slc.cpg/sg1_1_cif.got.tgz:251.got - 2010.03.29 11:57:58.
