data_PCOD8000466
_publ_section_title
;
Structure prediction by ZEFSAII (Michael W. Deem and Ramdas Pophale) SiO2 
 PCOD8000466
Probable space group: P -1
;
_chemical_formula_sum "Si O2"
_cell_formula_units_Z 16
_cell_length_a 13.000121
_cell_length_b 10.060824
_cell_length_c 10.362570
_cell_angle_alpha 94.070632
_cell_angle_beta 35.525485
_cell_angle_gamma 86.285160
_cell_volume 767.789826
_symmetry_space_group_name_H-M "P -1"
_symmetry_group_IT_number 2
_symmetry_cell_setting 'triclinic'
loop_
_space_group_symop_operation_xyz
x,y,z
-x,-y,-z
loop_
_atom_site_type_symbol
_atom_site_label
_atom_site_fract_x
_atom_site_fract_y
_atom_site_fract_z
Si Si1 0.601366 0.112361 0.556303
Si Si2 0.876148 0.416068 0.776579
Si Si3 0.722409 0.821111 0.298892
Si Si4 0.090096 0.734192 0.780488
Si Si5 0.072638 0.292370 0.325556
Si Si6 0.545181 0.858429 0.014647
Si Si7 0.498660 0.397611 0.111353
Si Si8 0.808100 0.570162 0.369472
O O1 0.410959 0.168897 0.685182
O O2 0.744619 0.193109 0.356918
O O3 0.578340 0.140069 0.733067
O O4 0.668650 0.951043 0.455220
O O5 0.852184 0.571590 0.766186
O O6 0.947044 0.311560 0.581219
O O7 0.011145 0.386036 0.758198
O O8 0.677577 0.393030 0.016363
O O9 0.707239 0.685549 0.383771
O O10 0.923682 0.812376 0.040698
O O11 0.139494 0.576063 0.765191
O O12 0.042508 0.743808 0.678540
O O13 0.243837 0.170288 0.164826
O O14 0.500324 0.751211 0.951800
O O15 0.500000 0.000000 0.000000
O O16 0.319980 0.449836 0.381729
O O17 0.500000 0.500000 0.000000
#
# Coordination Sequence:
#
# PCOD8000466 Si02
#       8
#     2   2   2   2   2   2   2   2
#     4  11  25  44  66  87 124 175 209 249 315 375
#     4  10  20  37  63  93 127 160 200 250 311 373
#     4  11  25  46  63  87 128 166 212 265 305 356
#     4  11  23  42  68  92 120 164 215 254 313 367
#     4  10  19  39  62  91 128 160 198 256 313 366
#     4  12  23  40  64  95 132 163 202 259 313 372
#     4  12  21  39  67  94 129 168 201 247 319 381
#     4  11  24  39  65  99 126 158 208 265 305 364
#
# _framework density 20.839037999999999
#
# number of rings (size 3 to 8) (size 9 to 14) (size 15 to 20)
#    0.000    1.000    3.750    4.500    0.000    1.500 
#    2.250    1.250    0.000    0.000    0.000    0.000 
#    0.000    0.000    0.000    0.000    0.000    0.000 
#
# Total GULP energy -198500.982947 kJ/mol
# GULP energy per Si atom -12406.311434 kJ/mol
# Density = 2.079161 g / cm^3
# Si number density = 20.839038 Si / 1000 Ang^3
#
#
#
# Elastic Constant Matrix: (Units=GPa)
#
#
# Indices 1 2 3 4 5 6 
#
# 1 46.7824 23.6479 25.0456 3.5952 -13.4382 -1.3907
# 2 23.6479 91.8819 15.6451 14.9977 -18.3823 -17.8922
# 3 25.0456 15.6451 96.1248 6.7897 -17.8887 -2.7867
# 4 3.5952 14.9977 6.7897 31.9725 3.0844 -6.7030
# 5 -13.4382 -18.3823 -17.8887 3.0844 30.2733 -5.5595
# 6 -1.3907 -17.8922 -2.7867 -6.7030 -5.5595 32.0088
#
#
#
# Elastic Compliance Matrix: (Units=1/GPa)
#
#
# Indices 1 2 3 4 5 6 
#
# 1 0.028804 -0.005474 -0.005511 -0.000357 0.006000 -0.001321
# 2 -0.005474 0.017491 0.001539 -0.006893 0.011687 0.010260
# 3 -0.005511 0.001539 0.013181 -0.003088 0.007021 0.002341
# 4 -0.000357 -0.006893 -0.003088 0.036515 -0.009549 0.001851
# 5 0.006000 0.011687 0.007021 -0.009549 0.050518 0.014179
# 6 -0.001321 0.010260 0.002341 0.001851 0.014179 0.039973
#
#
# Mechanical properties :
#
#
# Convention : Reuss Voigt Hill
#
# Bulk Modulus (GPa) = 24.63950 40.38515 32.51232
# Shear Modulus (GPa) = 22.84112 30.21427 26.52770
#
# Velocity S-wave (km/s) = 3.31429 3.81187 3.57176
# Velocity P-wave (km/s) = 5.14737 6.22860 5.71362
#
# Compressibility (1/GPa) = 0.04058524
#
# Stress axis : x y z
#
# Youngs Moduli (GPa) = 34.71702 57.17090 75.86560
#
# Poissons Ratio (x) = 0.31293 0.41807
# Poissons Ratio (y) = 0.19003 -0.11672
# Poissons Ratio (z) = 0.19131 -0.08796
#
# Static dielectric constant tensor:
#      x y z
#    x 17.493000 14.634400 0.274330 
#    y 14.634400 19.065480 0.587240 
#    z 0.274330 0.587240 3.937130 
# 
# 
# High freq. dielectric constant tensor:
#      x y z
#    x 1.814180 0.004230 -0.006980 
#    y 0.004230 1.803430 0.013940 
#    z -0.006980 0.013940 1.830220 
# 
# From -- ./inp_files/307508.got.cif
#   From: 2010.06.25/outbox.cif.g09.slc.cpg/sg2_154_cif.got.tgz:307508.got - 2010.06.27 13:26:56.
