data_PCOD8000887
_publ_section_title
;
Structure prediction by ZEFSAII (Michael W. Deem and Ramdas Pophale) SiO2 
 PCOD8000887
Probable space group: P -1
;
_chemical_formula_sum "Si O2"
_cell_formula_units_Z 16
_cell_length_a 11.656718
_cell_length_b 11.712578
_cell_length_c 14.200103
_cell_angle_alpha 52.527937
_cell_angle_beta 30.239288
_cell_angle_gamma 62.984116
_cell_volume 762.451691
_symmetry_space_group_name_H-M "P -1"
_symmetry_group_IT_number 2
_symmetry_cell_setting 'triclinic'
loop_
_space_group_symop_operation_xyz
x,y,z
-x,-y,-z
loop_
_atom_site_type_symbol
_atom_site_label
_atom_site_fract_x
_atom_site_fract_y
_atom_site_fract_z
Si Si1 0.128203 0.099500 0.580698
Si Si2 0.621355 0.216034 0.209797
Si Si3 0.423629 0.673559 0.617693
Si Si4 0.140764 0.728647 0.445884
Si Si5 0.385768 0.374332 0.881767
Si Si6 0.717795 0.494429 0.911454
Si Si7 0.193487 0.064528 0.760444
Si Si8 0.895929 0.197779 0.350383
O O1 0.357417 0.223867 0.364365
O O2 0.066888 0.050760 0.755902
O O3 0.925521 0.166251 0.641337
O O4 0.182872 0.966701 0.545497
O O5 0.698434 0.276877 0.227801
O O6 0.625118 0.044443 0.297991
O O7 0.767865 0.327674 0.975053
O O8 0.420901 0.499982 0.713133
O O9 0.683187 0.771175 0.381897
O O10 0.277933 0.699551 0.616119
O O11 0.393727 0.704381 0.247608
O O12 0.128700 0.803932 0.518342
O O13 0.953930 0.578935 0.656375
O O14 0.362384 0.444557 0.964391
O O15 0.151661 0.255130 0.096908
O O16 0.500000 0.500000 0.000000
O O17 0.000000 0.000000 0.000000
#
# Coordination Sequence:
#
# PCOD8000887 Si02
#       8
#     2   2   2   2   2   2   2   2
#     4  11  21  43  64  87 130 166 204 258 313 372
#     4  10  19  40  65  88 123 159 207 261 316 362
#     4  10  20  42  64  86 124 166 204 260 314 362
#     4  11  25  41  62  97 128 167 208 250 310 377
#     4  10  25  40  60  95 127 164 213 254 304 369
#     4  10  21  40  65  91 122 166 201 251 323 372
#     4  11  23  37  64 103 117 157 214 265 319 361
#     4  11  22  43  65  87 126 175 211 248 309 368
#
# _framework density 20.984936000000001
#
# number of rings (size 3 to 8) (size 9 to 14) (size 15 to 20)
#    0.000    1.500    3.750    1.500    1.750    3.500 
#    0.000    0.000    0.000    0.000    0.000    0.000 
#    0.000    0.000    0.000    0.000    0.000    0.000 
#
# Total GULP energy -198242.352526 kJ/mol
# GULP energy per Si atom -12390.147033 kJ/mol
# Density = 2.093717 g / cm^3
# Si number density = 20.984936 Si / 1000 Ang^3
#
#
#
# Elastic Constant Matrix: (Units=GPa)
#
#
# Indices 1 2 3 4 5 6 
#
# 1 127.9617 33.0979 39.0417 -0.3989 -0.4670 -21.6986
# 2 33.0979 66.5935 27.6107 -0.6718 5.2951 -20.2649
# 3 39.0417 27.6107 95.4435 2.9353 8.1086 -4.9838
# 4 -0.3989 -0.6718 2.9353 29.0644 -7.6213 -2.8587
# 5 -0.4670 5.2951 8.1086 -7.6213 24.3834 -6.0054
# 6 -21.6986 -20.2649 -4.9838 -2.8587 -6.0054 31.9481
#
#
#
# Elastic Compliance Matrix: (Units=1/GPa)
#
#
# Indices 1 2 3 4 5 6 
#
# 1 0.010606 -0.002088 -0.003828 0.002189 0.004155 0.006259
# 2 -0.002088 0.021686 -0.004913 0.002273 0.000519 0.011872
# 3 -0.003828 -0.004913 0.013822 -0.003619 -0.005967 -0.005006
# 4 0.002189 0.002273 -0.003619 0.039744 0.015343 0.008804
# 5 0.004155 0.000519 -0.005967 0.015343 0.051004 0.013181
# 6 0.006259 0.011872 -0.005006 0.008804 0.013181 0.045567
#
#
# Mechanical properties :
#
#
# Convention : Reuss Voigt Hill
#
# Bulk Modulus (GPa) = 40.89209 54.38882 47.64045
# Shear Modulus (GPa) = 23.55843 29.76240 26.66041
#
# Velocity S-wave (km/s) = 3.35421 3.77008 3.56821
# Velocity P-wave (km/s) = 5.87619 6.70266 6.30299
#
# Compressibility (1/GPa) = 0.02445461
#
# Stress axis : x y z
#
# Youngs Moduli (GPa) = 94.28465 46.11334 72.35101
#
# Poissons Ratio (x) = 0.09628 0.27696
# Poissons Ratio (y) = 0.19686 0.35549
# Poissons Ratio (z) = 0.36093 0.22657
#
# Static dielectric constant tensor:
#      x y z
#    x 3.948480 -0.027370 0.086400 
#    y -0.027370 3.539990 -0.319410 
#    z 0.086400 -0.319410 3.796790 
# 
# 
# High freq. dielectric constant tensor:
#      x y z
#    x 1.834330 -0.010950 0.002150 
#    y -0.010950 1.808190 -0.022430 
#    z 0.002150 -0.022430 1.820780 
# 
# From -- ./inp_files/427835.got.cif
#   From: 2010.06.25/outbox.cif.g09.slc.cpg/sg2_214_cif.got.tgz:427835.got - 2010.06.27 13:26:56.
