data_PCOD8000848
_publ_section_title
;
Structure prediction by ZEFSAII (Michael W. Deem and Ramdas Pophale) SiO2 
 PCOD8000848
Probable space group: P -1
;
_chemical_formula_sum "Si O2"
_cell_formula_units_Z 16
_cell_length_a 15.797197
_cell_length_b 10.431079
_cell_length_c 9.182054
_cell_angle_alpha 108.630694
_cell_angle_beta 46.189705
_cell_angle_gamma 74.329887
_cell_volume 719.729728
_symmetry_space_group_name_H-M "P -1"
_symmetry_group_IT_number 2
_symmetry_cell_setting 'triclinic'
loop_
_space_group_symop_operation_xyz
x,y,z
-x,-y,-z
loop_
_atom_site_type_symbol
_atom_site_label
_atom_site_fract_x
_atom_site_fract_y
_atom_site_fract_z
Si Si1 0.368118 0.795192 0.158437
Si Si2 0.240169 0.184364 0.366088
Si Si3 0.717048 0.585930 0.776690
Si Si4 0.451656 0.492928 0.393331
Si Si5 0.868058 0.517166 0.869269
Si Si6 0.185238 0.900084 0.704235
Si Si7 0.767704 0.582605 0.324537
Si Si8 0.028008 0.287074 0.120353
O O1 0.221247 0.876410 0.478221
O O2 0.342541 0.960442 0.168074
O O3 0.540214 0.656931 0.996570
O O4 0.385331 0.665245 0.964378
O O5 0.294757 0.246671 0.198426
O O6 0.275126 0.233554 0.494534
O O7 0.047923 0.298609 0.605871
O O8 0.767669 0.532086 0.864441
O O9 0.857529 0.383122 0.444684
O O10 0.500000 0.500000 0.500000
O O11 0.328037 0.706493 0.552691
O O12 0.362779 0.420657 0.464406
O O13 0.895908 0.653120 0.854779
O O14 0.750416 0.596636 0.177994
O O15 0.000000 0.000000 0.000000
O O16 0.177724 0.057299 0.836756
O O17 0.959883 0.390834 0.079821
#
# Coordination Sequence:
#
# PCOD8000848 Si02
#       8
#     2   2   2   2   2   2   2   2
#     4  12  24  46  68  97 127 175 214 271 333 382
#     4  10  20  39  71  97 130 169 211 262 335 385
#     4  10  21  38  67 102 134 160 205 273 334 381
#     4  12  28  45  64  94 134 173 219 272 319 380
#     4  10  20  35  67 104 127 166 211 268 325 382
#     4  12  25  46  69  90 126 180 229 260 315 388
#     4  10  19  40  63  94 135 164 215 260 322 383
#     4  10  19  42  66  93 127 175 215 263 317 387
#
# _framework density 22.230567000000001
#
# number of rings (size 3 to 8) (size 9 to 14) (size 15 to 20)
#    0.000    1.500    3.750    5.250    1.750    2.000 
#    0.000    1.875    0.000    0.000    0.000    0.000 
#    0.000    0.000    0.000    0.000    0.000    0.000 
#
# Total GULP energy -198293.854998 kJ/mol
# GULP energy per Si atom -12393.365937 kJ/mol
# Density = 2.217997 g / cm^3
# Si number density = 22.230567 Si / 1000 Ang^3
#
#
#
# Elastic Constant Matrix: (Units=GPa)
#
#
# Indices 1 2 3 4 5 6 
#
# 1 97.8360 31.0218 43.2562 3.2639 26.6103 -24.1379
# 2 31.0218 80.3201 53.8867 13.9351 23.8268 -12.4399
# 3 43.2562 53.8867 121.3781 9.2266 28.0903 -2.3256
# 4 3.2639 13.9351 9.2266 43.0276 7.4881 10.6490
# 5 26.6103 23.8268 28.0903 7.4881 31.2158 -10.1618
# 6 -24.1379 -12.4399 -2.3256 10.6490 -10.1618 31.4811
#
#
#
# Elastic Compliance Matrix: (Units=1/GPa)
#
#
# Indices 1 2 3 4 5 6 
#
# 1 0.016536 0.000480 -0.004223 -0.002138 -0.006511 0.011178
# 2 0.000480 0.021660 -0.007865 -0.006613 -0.005400 0.008840
# 3 -0.004223 -0.007865 0.014437 0.003094 -0.006916 -0.008558
# 4 -0.002138 -0.006613 0.003094 0.030710 -0.008909 -0.017287
# 5 -0.006511 -0.005400 -0.006916 -0.008909 0.054265 0.012892
# 6 0.011178 0.008840 -0.008558 -0.017287 0.012892 0.053206
#
#
# Mechanical properties :
#
#
# Convention : Reuss Voigt Hill
#
# Bulk Modulus (GPa) = 33.99390 61.76262 47.87826
# Shear Modulus (GPa) = 22.33780 32.56952 27.45366
#
# Velocity S-wave (km/s) = 3.17333 3.83179 3.51800
# Velocity P-wave (km/s) = 5.36204 6.88621 6.17136
#
# Compressibility (1/GPa) = 0.02941704
#
# Stress axis : x y z
#
# Youngs Moduli (GPa) = 60.47398 46.16801 69.26700
#
# Poissons Ratio (x) = -0.02216 0.29248
# Poissons Ratio (y) = -0.02902 0.54481
# Poissons Ratio (z) = 0.25535 0.36313
#
# Static dielectric constant tensor:
#      x y z
#    x 3.853620 0.066790 0.115950 
#    y 0.066790 3.977270 0.048200 
#    z 0.115950 0.048200 4.371600 
# 
# 
# High freq. dielectric constant tensor:
#      x y z
#    x 1.857840 0.002990 0.010100 
#    y 0.002990 1.869910 -0.007800 
#    z 0.010100 -0.007800 1.876650 
# 
# From -- ./inp_files/332115.got.cif
#   From: 2010.06.25/outbox.cif.g09.slc.cpg/sg2_167_cif.got.tgz:332115.got - 2010.06.27 13:26:56.
