data_PCOD8000668
_publ_section_title
;
Structure prediction by ZEFSAII (Michael W. Deem and Ramdas Pophale) SiO2 
 PCOD8000668
Probable space group: P -1
;
_chemical_formula_sum "Si O2"
_cell_formula_units_Z 14
_cell_length_a 8.467120
_cell_length_b 12.789492
_cell_length_c 7.885156
_cell_angle_alpha 75.592643
_cell_angle_beta 118.424681
_cell_angle_gamma 129.644976
_cell_volume 576.333402
_symmetry_space_group_name_H-M "P -1"
_symmetry_group_IT_number 2
_symmetry_cell_setting 'triclinic'
loop_
_space_group_symop_operation_xyz
x,y,z
-x,-y,-z
loop_
_atom_site_type_symbol
_atom_site_label
_atom_site_fract_x
_atom_site_fract_y
_atom_site_fract_z
Si Si1 0.097907 0.439219 0.968358
Si Si2 0.173585 0.147820 0.956618
Si Si3 0.569321 0.132546 0.187775
Si Si4 0.798692 0.848628 0.406669
Si Si5 0.758335 0.391664 0.344202
Si Si6 0.313662 0.326504 0.266928
Si Si7 0.638842 0.162541 0.834271
O O1 0.257841 0.546892 0.862669
O O2 0.880426 0.294037 0.836255
O O3 0.270993 0.438887 0.184265
O O4 0.000000 0.500000 0.000000
O O5 0.130285 0.174197 0.731953
O O6 0.409114 0.174175 0.053664
O O7 0.180412 0.243960 0.060092
O O8 0.000000 0.000000 0.000000
O O9 0.733093 0.250690 0.362727
O O10 0.439610 0.976583 0.248594
O O11 0.689102 0.149518 0.062683
O O12 0.798669 0.753234 0.583068
O O13 0.559296 0.822929 0.297034
O O14 0.000000 0.000000 0.500000
O O15 0.568969 0.374676 0.377040
O O16 0.000000 0.500000 0.500000
#
# Coordination Sequence:
#
# PCOD8000668 Si02
#       7
#     2   2   2   2   2   2   2
#     4  12  25  47  75  99 142 198 241 298 363 429
#     4  10  19  39  67 101 142 185 231 295 360 429
#     4   9  20  38  71  97 138 185 231 292 356 423
#     4  11  23  40  69 104 146 182 237 302 365 428
#     4  11  24  48  71 107 150 184 239 300 362 435
#     4  11  25  46  69 103 143 192 245 293 361 438
#     4  10  21  41  68 103 137 182 243 291 355 426
#
# _framework density 24.291495999999999
#
# number of rings (size 3 to 8) (size 9 to 14) (size 15 to 20)
#    0.000    1.429    2.857    2.143    4.000    0.000 
#    5.143    5.000    0.000    0.000    0.000    0.000 
#    0.000    0.000    0.000    0.000    0.000    0.000 
#
# Total GULP energy -173466.128226 kJ/mol
# GULP energy per Si atom -12390.437730 kJ/mol
# Density = 2.423621 g / cm^3
# Si number density = 24.291496 Si / 1000 Ang^3
#
#
#
# Elastic Constant Matrix: (Units=GPa)
#
#
# Indices 1 2 3 4 5 6 
#
# 1 75.3394 31.2964 35.7995 -6.0298 -9.8908 -2.6531
# 2 31.2964 144.4850 36.7762 3.3961 -3.6608 -0.9797
# 3 35.7995 36.7762 113.5075 -8.7442 -18.8051 -5.9036
# 4 -6.0298 3.3961 -8.7442 49.3624 9.0515 0.6218
# 5 -9.8908 -3.6608 -18.8051 9.0515 40.2467 -4.7158
# 6 -2.6531 -0.9797 -5.9036 0.6218 -4.7158 41.5331
#
#
#
# Elastic Compliance Matrix: (Units=1/GPa)
#
#
# Indices 1 2 3 4 5 6 
#
# 1 0.016576 -0.002555 -0.003982 0.001159 0.001793 0.000619
# 2 -0.002555 0.007988 -0.001985 -0.001096 -0.000619 -0.000311
# 3 -0.003982 -0.001985 0.011579 0.000897 0.004262 0.001815
# 4 0.001159 -0.001096 0.000897 0.021429 -0.004289 -0.000632
# 5 0.001793 -0.000619 0.004262 -0.004289 0.028659 0.004024
# 6 0.000619 -0.000311 0.001815 -0.000632 0.004024 0.024834
#
#
# Mechanical properties :
#
#
# Convention : Reuss Voigt Hill
#
# Bulk Modulus (GPa) = 52.35891 60.11956 56.23924
# Shear Modulus (GPa) = 37.18181 41.52576 39.35379
#
# Velocity S-wave (km/s) = 3.91660 4.13907 4.02937
# Velocity P-wave (km/s) = 6.48492 6.90257 6.69700
#
# Compressibility (1/GPa) = 0.01909895
#
# Stress axis : x y z
#
# Youngs Moduli (GPa) = 60.32639 125.19054 86.36523
#
# Poissons Ratio (x) = 0.31982 0.34390
# Poissons Ratio (y) = 0.15411 0.17147
# Poissons Ratio (z) = 0.24022 0.24856
#
# Static dielectric constant tensor:
#      x y z
#    x 4.664030 0.039010 -0.459270 
#    y 0.039010 4.828930 0.140980 
#    z -0.459270 0.140980 4.288300 
# 
# 
# High freq. dielectric constant tensor:
#      x y z
#    x 1.962300 0.009160 -0.000140 
#    y 0.009160 1.973170 0.001070 
#    z -0.000140 0.001070 1.951320 
# 
# From -- ./inp_files/186192.got.cif
#   From: 2010.06.25/outbox.cif.g09.slc.cpg/sg2_94_cif.got.tgz:186192.got - 2010.06.27 13:26:56.
