data_PCOD8000481
_publ_section_title
;
Structure prediction by ZEFSAII (Michael W. Deem and Ramdas Pophale) SiO2 
 PCOD8000481
Probable space group: P -1
;
_chemical_formula_sum "Si O2"
_cell_formula_units_Z 16
_cell_length_a 9.203729
_cell_length_b 12.116418
_cell_length_c 18.110602
_cell_angle_alpha 30.388403
_cell_angle_beta 63.022422
_cell_angle_gamma 55.126476
_cell_volume 834.355959
_symmetry_space_group_name_H-M "P -1"
_symmetry_group_IT_number 2
_symmetry_cell_setting 'triclinic'
loop_
_space_group_symop_operation_xyz
x,y,z
-x,-y,-z
loop_
_atom_site_type_symbol
_atom_site_label
_atom_site_fract_x
_atom_site_fract_y
_atom_site_fract_z
Si Si1 0.062195 0.208316 0.883087
Si Si2 0.449199 0.601895 0.730933
Si Si3 0.608373 0.861348 0.773776
Si Si4 0.724551 0.057090 0.292020
Si Si5 0.191107 0.329499 0.393797
Si Si6 0.415698 0.857660 0.957788
Si Si7 0.806942 0.319959 0.999195
Si Si8 0.200475 0.969136 0.475280
O O1 0.979265 0.424177 0.719479
O O2 0.275739 0.101165 0.886944
O O3 0.991595 0.298529 0.930305
O O4 0.000000 0.000000 0.000000
O O5 0.353413 0.742781 0.744040
O O6 0.633847 0.623260 0.660554
O O7 0.321106 0.705878 0.629846
O O8 0.481851 0.325805 0.894633
O O9 0.434395 0.968624 0.701322
O O10 0.552239 0.920228 0.838616
O O11 0.736515 0.991260 0.644086
O O12 0.704987 0.578276 0.907503
O O13 0.849017 0.127791 0.166460
O O14 0.842059 0.805725 0.449116
O O15 0.224028 0.167770 0.406811
O O16 0.319083 0.723787 0.007785
O O17 0.000000 0.000000 0.500000
#
# Coordination Sequence:
#
# PCOD8000481 Si02
#       8
#     2   2   2   2   2   2   2   2
#     4  10  18  30  47  81 110 136 162 213 260 306
#     4  11  16  32  53  78 104 132 170 213 264 306
#     4  11  16  31  50  76 102 135 171 212 256 301
#     4  10  16  26  49  78  97 132 168 210 257 301
#     4  11  18  32  53  76 108 136 169 211 262 304
#     4  10  18  28  51  77 108 133 168 208 261 308
#     4  10  16  27  48  78 107 129 169 212 256 300
#     4  11  22  33  52  79 106 134 173 218 257 301
#
# _framework density 19.176468
#
# number of rings (size 3 to 8) (size 9 to 14) (size 15 to 20)
#    0.000    1.500    8.750    1.500    0.000    0.000 
#    0.000    7.500    0.000    1.500    0.000    0.000 
#    0.000    0.000    0.000    0.000    0.000    0.000 
#
# Total GULP energy -198335.266806 kJ/mol
# GULP energy per Si atom -12395.954175 kJ/mol
# Density = 1.913282 g / cm^3
# Si number density = 19.176468 Si / 1000 Ang^3
#
#
#
# Elastic Constant Matrix: (Units=GPa)
#
#
# Indices 1 2 3 4 5 6 
#
# 1 52.5624 19.9672 41.6669 10.5869 5.0274 -24.6937
# 2 19.9672 75.6097 56.6008 11.1376 5.0158 -31.9051
# 3 41.6669 56.6008 187.0792 16.9113 30.5756 -29.5653
# 4 10.5869 11.1376 16.9113 34.9693 -10.9452 -2.7856
# 5 5.0274 5.0158 30.5756 -10.9452 19.2481 -0.9476
# 6 -24.6937 -31.9051 -29.5653 -2.7856 -0.9476 22.8170
#
#
#
# Elastic Compliance Matrix: (Units=1/GPa)
#
#
# Indices 1 2 3 4 5 6 
#
# 1 0.123747 0.084880 0.012550 -0.084796 -0.110093 0.253951
# 2 0.084880 0.095012 0.008809 -0.070573 -0.090035 0.223775
# 3 0.012550 0.008809 0.015230 -0.023582 -0.041154 0.041045
# 4 -0.084796 -0.070573 -0.023582 0.113616 0.132678 -0.201628
# 5 -0.110093 -0.090035 -0.041154 0.132678 0.231572 -0.272555
# 6 0.253951 0.223775 0.041045 -0.201628 -0.272555 0.648821
#
#
# Mechanical properties :
#
#
# Convention : Reuss Voigt Hill
#
# Bulk Modulus (GPa) = 2.23981 61.30232 31.77107
# Shear Modulus (GPa) = 4.29427 28.54130 16.41779
#
# Velocity S-wave (km/s) = 1.49807 3.86210 2.92917
# Velocity P-wave (km/s) = 2.04030 7.20587 5.29563
#
# Compressibility (1/GPa) = 0.44646578
#
# Stress axis : x y z
#
# Youngs Moduli (GPa) = 8.08099 10.52502 65.66200
#
# Poissons Ratio (x) = -0.89336 -0.82407
# Poissons Ratio (y) = -0.68591 -0.57840
# Poissons Ratio (z) = -0.10142 -0.09271
#
# Static dielectric constant tensor:
#      x y z
#    x 3.040170 -0.381080 0.189220 
#    y -0.381080 3.823500 0.204990 
#    z 0.189220 0.204990 3.955540 
# 
# 
# High freq. dielectric constant tensor:
#      x y z
#    x 1.682020 -0.028940 0.013970 
#    y -0.028940 1.724730 0.015820 
#    z 0.013970 0.015820 1.769150 
# 
# From -- ./inp_files/253004.got.cif
#   From: 2010.06.25/outbox.cif.g09.slc.cpg/sg2_127_cif.got.tgz:253004.got - 2010.06.27 13:26:56.
