data_PCOD8000208
_publ_section_title
;
Structure prediction by ZEFSAII (Michael W. Deem and Ramdas Pophale) SiO2 
 PCOD8000208
Probable space group: P 1
;
_chemical_formula_sum "Si O2"
_cell_formula_units_Z 6
_cell_length_a 4.939681
_cell_length_b 9.812299
_cell_length_c 7.549073
_cell_angle_alpha 40.020331
_cell_angle_beta 84.726234
_cell_angle_gamma 78.772862
_cell_volume 229.842478
_symmetry_space_group_name_H-M "P 1"
_symmetry_group_IT_number 1
_symmetry_cell_setting 'triclinic'
loop_
_space_group_symop_operation_xyz
x,y,z
loop_
_atom_site_type_symbol
_atom_site_label
_atom_site_fract_x
_atom_site_fract_y
_atom_site_fract_z
Si Si1 0.053860 0.162080 0.888840
Si Si2 0.690571 0.580774 0.612340
Si Si3 0.009564 0.048144 0.387736
Si Si4 0.507361 0.739380 0.820393
Si Si5 0.434844 0.319132 0.146258
Si Si6 0.616989 0.939148 0.970640
O O1 0.350857 0.130821 0.809834
O O2 0.960853 0.416854 0.686223
O O3 0.871151 0.058198 0.863500
O O4 0.065666 0.012259 0.211520
O O5 0.720606 0.719833 0.654464
O O6 0.484227 0.418663 0.847901
O O7 0.581573 0.750220 0.297614
O O8 0.190976 0.853333 0.678926
O O9 0.132677 0.261563 0.223093
O O10 0.674630 0.103806 0.387406
O O11 0.463280 0.497903 0.114834
O O12 0.648808 0.839139 0.873045
#
# Coordination Sequence:
#
# PCOD8000208 Si02
#       6
#     1   1   1   1   1   1
#     4  11  24  45  68  96 137 172 218 271 332 384
#     4   9  23  44  68  94 134 174 216 267 328 389
#     4  11  21  42  68  94 127 175 214 264 324 388
#     4  10  25  43  71  98 132 175 219 273 326 390
#     4   9  23  39  66  97 126 172 218 261 326 381
#     4  12  26  45  65 105 130 172 221 274 326 390
#
# _framework density 26.104835000000001
#
# number of rings (size 3 to 8) (size 9 to 14) (size 15 to 20)
#    1.000    0.667    1.667    2.000    0.000   13.333 
#    0.000    0.000    0.000    0.000    0.000    0.000 
#    0.000    0.000    0.000    0.000    0.000    0.000 
#
# Total GULP energy -74333.831132 kJ/mol
# GULP energy per Si atom -12388.971855 kJ/mol
# Density = 2.604542 g / cm^3
# Si number density = 26.104835 Si / 1000 Ang^3
#
#
#
# Elastic Constant Matrix: (Units=GPa)
#
#
# Indices 1 2 3 4 5 6 
#
# 1 77.0014 14.0791 12.8467 7.5602 19.9333 3.2105
# 2 14.0791 185.6652 56.3244 6.5909 23.6400 2.1673
# 3 12.8467 56.3244 99.8090 -7.3306 14.5907 -9.4432
# 4 7.5602 6.5909 -7.3306 35.2632 -1.4310 14.2388
# 5 19.9333 23.6400 14.5907 -1.4310 29.0460 7.3254
# 6 3.2105 2.1673 -9.4432 14.2388 7.3254 25.3530
#
#
#
# Elastic Compliance Matrix: (Units=1/GPa)
#
#
# Indices 1 2 3 4 5 6 
#
# 1 0.016876 0.000811 -0.000646 -0.006523 -0.013531 0.005126
# 2 0.000811 0.007110 -0.003500 -0.002846 -0.004983 0.001024
# 3 -0.000646 -0.003500 0.013483 0.000800 -0.005060 0.006416
# 4 -0.006523 -0.002846 0.000800 0.041747 0.015118 -0.026447
# 5 -0.013531 -0.004983 -0.005060 0.015118 0.057309 -0.024794
# 6 0.005126 0.001024 0.006416 -0.026447 -0.024794 0.063113
#
#
# Mechanical properties :
#
#
# Convention : Reuss Voigt Hill
#
# Bulk Modulus (GPa) = 32.46962 58.77507 45.62235
# Shear Modulus (GPa) = 23.08674 36.54748 29.81711
#
# Velocity S-wave (km/s) = 2.97709 3.74575 3.38332
# Velocity P-wave (km/s) = 4.92773 6.42429 5.72512
#
# Compressibility (1/GPa) = 0.03079802
#
# Stress axis : x y z
#
# Youngs Moduli (GPa) = 59.25694 140.64660 74.16763
#
# Poissons Ratio (x) = -0.11402 0.04789
# Poissons Ratio (y) = -0.04804 0.25961
# Poissons Ratio (z) = 0.03826 0.49231
#
# Static dielectric constant tensor:
#      x y z
#    x 4.301210 0.031240 0.170810 
#    y 0.031240 4.847300 -0.258140 
#    z 0.170810 -0.258140 4.657860 
# 
# 
# High freq. dielectric constant tensor:
#      x y z
#    x 2.030180 0.007040 0.003770 
#    y 0.007040 2.050900 -0.021510 
#    z 0.003770 -0.021510 2.043190 
# 
# From -- ./inp_files/108.got.cif
#   From: 2010.03.12/outbox.cif.g09.slc.cpg/sg1_1_cif.got.tgz:108.got - 2010.03.29 11:57:58.
