data_PCOD8000330
_publ_section_title
;
Structure prediction by ZEFSAII (Michael W. Deem and Ramdas Pophale) SiO2 
 PCOD8000330
Probable space group: P -1
;
_chemical_formula_sum "Si O2"
_cell_formula_units_Z 16
_cell_length_a 8.986510
_cell_length_b 10.739320
_cell_length_c 19.822959
_cell_angle_alpha 52.734079
_cell_angle_beta 42.543916
_cell_angle_gamma 83.537526
_cell_volume 807.798487
_symmetry_space_group_name_H-M "P -1"
_symmetry_group_IT_number 2
_symmetry_cell_setting 'triclinic'
loop_
_space_group_symop_operation_xyz
x,y,z
-x,-y,-z
loop_
_atom_site_type_symbol
_atom_site_label
_atom_site_fract_x
_atom_site_fract_y
_atom_site_fract_z
Si Si1 0.279171 0.750073 0.286956
Si Si2 0.631976 0.742658 0.422711
Si Si3 0.579419 0.186092 0.023247
Si Si4 0.201020 0.551929 0.010883
Si Si5 0.105510 0.180687 0.125159
Si Si6 0.287199 0.412082 0.421217
Si Si7 0.690809 0.498614 0.148749
Si Si8 0.945743 0.599004 0.312118
O O1 0.392094 0.639359 0.318755
O O2 0.051909 0.736173 0.415948
O O3 0.124183 0.634663 0.306788
O O4 0.537534 0.982080 0.114919
O O5 0.590958 0.636050 0.542613
O O6 0.825324 0.722225 0.315726
O O7 0.323604 0.634861 0.529220
O O8 0.786324 0.977578 0.301463
O O9 0.862665 0.337613 0.838069
O O10 0.592573 0.287308 0.055273
O O11 0.310094 0.128169 0.091802
O O12 0.346843 0.631335 0.861618
O O13 0.135986 0.338835 0.116127
O O14 0.912442 0.521739 0.118892
O O15 0.187985 0.280116 0.990281
O O16 0.397008 0.389547 0.321300
#
# Coordination Sequence:
#
# PCOD8000330 Si02
#       8
#     2   2   2   2   2   2   2   2
#     4  10  22  36  58  88 122 151 188 240 293 350
#     4  10  21  39  58  89 120 150 190 245 287 349
#     4  12  20  37  61  89 115 157 195 237 288 348
#     4   9  22  39  58  87 114 153 203 243 270 351
#     4  10  20  39  64  81 117 153 194 241 288 332
#     4  10  19  39  58  84 119 154 183 244 294 341
#     4   9  20  40  61  79 118 155 194 240 289 336
#     4  10  21  36  58  86 123 146 196 236 292 346
#
# _framework density 19.806919000000001
#
# number of rings (size 3 to 8) (size 9 to 14) (size 15 to 20)
#    0.750    1.250    2.500    2.250    1.750    0.000 
#    9.000    4.375    0.000    0.000    0.000    0.000 
#    0.000    0.000    0.000    0.000    0.000    0.000 
#
# Total GULP energy -198310.329097 kJ/mol
# GULP energy per Si atom -12394.395569 kJ/mol
# Density = 1.976184 g / cm^3
# Si number density = 19.806919 Si / 1000 Ang^3
#
#
#
# Elastic Constant Matrix: (Units=GPa)
#
#
# Indices 1 2 3 4 5 6 
#
# 1 44.0264 22.9768 34.9038 -3.2296 5.5751 4.3191
# 2 22.9768 69.4343 42.8793 8.7799 -2.6399 15.2561
# 3 34.9038 42.8793 94.3015 2.9539 -2.6483 15.0604
# 4 -3.2296 8.7799 2.9539 41.4436 0.5725 -1.3861
# 5 5.5751 -2.6399 -2.6483 0.5725 25.1943 -5.0553
# 6 4.3191 15.2561 15.0604 -1.3861 -5.0553 23.1207
#
#
#
# Elastic Compliance Matrix: (Units=1/GPa)
#
#
# Indices 1 2 3 4 5 6 
#
# 1 0.036582 -0.006840 -0.011399 0.005355 -0.009458 0.003358
# 2 -0.006840 0.023556 -0.006349 -0.005430 0.001401 -0.010149
# 3 -0.011399 -0.006349 0.018669 -0.001090 0.002781 -0.005299
# 4 0.005355 -0.005430 -0.001090 0.025947 -0.001554 0.004508
# 5 -0.009458 0.001401 0.002781 -0.001554 0.043975 0.008552
# 6 0.003358 -0.010149 -0.005299 0.004508 0.008552 0.054913
#
#
# Mechanical properties :
#
#
# Convention : Reuss Voigt Hill
#
# Bulk Modulus (GPa) = 33.74999 45.47577 39.61288
# Shear Modulus (GPa) = 19.03341 25.08521 22.05931
#
# Velocity S-wave (km/s) = 3.10328 3.56263 3.34086
# Velocity P-wave (km/s) = 5.46964 6.31922 5.90972
#
# Compressibility (1/GPa) = 0.02962963
#
# Stress axis : x y z
#
# Youngs Moduli (GPa) = 27.33590 42.45127 53.56483
#
# Poissons Ratio (x) = 0.29038 0.61061
# Poissons Ratio (y) = 0.18699 0.34009
# Poissons Ratio (z) = 0.31161 0.26953
#
# Static dielectric constant tensor:
#      x y z
#    x 3.487920 -0.037820 0.075530 
#    y -0.037820 3.418200 0.062060 
#    z 0.075530 0.062060 3.486870 
# 
# 
# High freq. dielectric constant tensor:
#      x y z
#    x 1.762440 -0.005650 0.006090 
#    y -0.005650 1.755880 0.009480 
#    z 0.006090 0.009480 1.761120 
# 
# From -- ./inp_files/588643.got.cif
#   From: 2010.06.25/outbox.cif.g09.slc.cpg/sg2_295_cif.got.tgz:588643.got - 2010.06.27 13:26:56.
