data_PCOD8000508
_publ_section_title
;
Structure prediction by ZEFSAII (Michael W. Deem and Ramdas Pophale) SiO2 
 PCOD8000508
Probable space group: P -1
;
_chemical_formula_sum "Si O2"
_cell_formula_units_Z 14
_cell_length_a 11.210765
_cell_length_b 13.636682
_cell_length_c 9.276385
_cell_angle_alpha 54.622641
_cell_angle_beta 118.363096
_cell_angle_gamma 145.148378
_cell_volume 660.771013
_symmetry_space_group_name_H-M "P -1"
_symmetry_group_IT_number 2
_symmetry_cell_setting 'triclinic'
loop_
_space_group_symop_operation_xyz
x,y,z
-x,-y,-z
loop_
_atom_site_type_symbol
_atom_site_label
_atom_site_fract_x
_atom_site_fract_y
_atom_site_fract_z
Si Si1 0.045815 0.977025 0.201235
Si Si2 0.983024 0.875676 0.696139
Si Si3 0.608745 0.969720 0.272033
Si Si4 0.759247 0.334348 0.140234
Si Si5 0.735205 0.620480 0.519874
Si Si6 0.229428 0.615217 0.209435
Si Si7 0.444361 0.103613 0.384039
O O1 0.845594 0.779054 0.329320
O O2 0.110105 0.139488 0.192799
O O3 0.223171 0.993506 0.281573
O O4 0.000000 0.000000 0.000000
O O5 0.835795 0.687116 0.681927
O O6 0.212302 0.972991 0.769031
O O7 0.000000 0.000000 0.500000
O O8 0.394231 0.828113 0.177152
O O9 0.560051 0.859014 0.483441
O O10 0.695046 0.155716 0.213457
O O11 0.619267 0.289380 0.230109
O O12 0.996369 0.508891 0.182154
O O13 0.725188 0.387080 0.930232
O O14 0.500000 0.500000 0.500000
O O15 0.745225 0.487401 0.591989
O O16 0.500000 0.000000 0.500000
#
# Coordination Sequence:
#
# PCOD8000508 Si02
#       7
#     2   2   2   2   2   2   2
#     4  11  24  42  66  96 129 172 218 268 332 387
#     4  10  19  39  63  89 125 169 212 259 322 396
#     4  11  20  40  66  92 125 173 212 261 331 390
#     4  10  23  40  61  96 132 160 219 270 316 391
#     4  11  22  39  65  93 127 166 218 268 319 391
#     4  11  22  39  65  94 125 169 215 268 323 382
#     4  10  21  40  64  89 130 167 211 267 321 383
#
# _framework density 21.187370000000001
#
# number of rings (size 3 to 8) (size 9 to 14) (size 15 to 20)
#    0.000    1.429    4.286    3.000    4.000    0.571 
#    0.000    2.143    0.000    0.000    0.000    0.000 
#    0.000    0.000    0.000    0.000    0.000    0.000 
#
# Total GULP energy -173459.142607 kJ/mol
# GULP energy per Si atom -12389.938758 kJ/mol
# Density = 2.113915 g / cm^3
# Si number density = 21.187370 Si / 1000 Ang^3
#
#
#
# Elastic Constant Matrix: (Units=GPa)
#
#
# Indices 1 2 3 4 5 6 
#
# 1 90.7903 36.0819 36.8543 6.4926 -2.3391 21.3069
# 2 36.0819 133.2198 33.1505 16.5332 4.7111 25.8863
# 3 36.8543 33.1505 108.8711 6.6985 -8.8731 18.3444
# 4 6.4926 16.5332 6.6985 36.2684 5.1053 2.8076
# 5 -2.3391 4.7111 -8.8731 5.1053 30.0833 -2.6739
# 6 21.3069 25.8863 18.3444 2.8076 -2.6739 40.5325
#
#
#
# Elastic Compliance Matrix: (Units=1/GPa)
#
#
# Indices 1 2 3 4 5 6 
#
# 1 0.014352 -0.002064 -0.003397 -0.000661 0.000138 -0.004634
# 2 -0.002064 0.009754 -0.001499 -0.003183 -0.001979 -0.004376
# 3 -0.003397 -0.001499 0.011500 -0.001139 0.003364 -0.002161
# 4 -0.000661 -0.003183 -0.001139 0.030009 -0.004938 0.000491
# 5 0.000138 -0.001979 0.003364 -0.004938 0.035602 0.002360
# 6 -0.004634 -0.004376 -0.002161 0.000491 0.002360 0.031001
#
#
# Mechanical properties :
#
#
# Convention : Reuss Voigt Hill
#
# Bulk Modulus (GPa) = 46.11624 60.56165 53.33894
# Shear Modulus (GPa) = 32.60151 36.49648 34.54899
#
# Velocity S-wave (km/s) = 3.92691 4.15487 4.04250
# Velocity P-wave (km/s) = 6.50953 7.18771 6.85701
#
# Compressibility (1/GPa) = 0.02168434
#
# Stress axis : x y z
#
# Youngs Moduli (GPa) = 69.67645 102.52423 86.95690
#
# Poissons Ratio (x) = 0.21163 0.29540
# Poissons Ratio (y) = 0.14383 0.13038
# Poissons Ratio (z) = 0.23670 0.15372
#
# Static dielectric constant tensor:
#      x y z
#    x 5.455910 -1.251050 -0.987760 
#    y -1.251050 4.844310 0.426260 
#    z -0.987760 0.426260 4.459290 
# 
# 
# High freq. dielectric constant tensor:
#      x y z
#    x 1.821720 0.013730 0.003230 
#    y 0.013730 1.822530 0.000700 
#    z 0.003230 0.000700 1.833110 
# 
# From -- ./inp_files/269854.got.cif
#   From: 2010.06.25/outbox.cif.g09.slc.cpg/sg2_135_cif.got.tgz:269854.got - 2010.06.27 13:26:56.
