data_PCOD8000651
_publ_section_title
;
Structure prediction by ZEFSAII (Michael W. Deem and Ramdas Pophale) SiO2 
 PCOD8000651
Probable space group: P -1
;
_chemical_formula_sum "Si O2"
_cell_formula_units_Z 16
_cell_length_a 9.277922
_cell_length_b 14.265084
_cell_length_c 8.435052
_cell_angle_alpha 139.216780
_cell_angle_beta 84.616889
_cell_angle_gamma 85.797713
_cell_volume 707.901697
_symmetry_space_group_name_H-M "P -1"
_symmetry_group_IT_number 2
_symmetry_cell_setting 'triclinic'
loop_
_space_group_symop_operation_xyz
x,y,z
-x,-y,-z
loop_
_atom_site_type_symbol
_atom_site_label
_atom_site_fract_x
_atom_site_fract_y
_atom_site_fract_z
Si Si1 0.074028 0.067953 0.857350
Si Si2 0.098047 0.542408 0.332189
Si Si3 0.098069 0.165016 0.335188
Si Si4 0.387922 0.355099 0.972996
Si Si5 0.876271 0.359305 0.216702
Si Si6 0.428488 0.471644 0.636413
Si Si7 0.393238 0.061869 0.735938
Si Si8 0.413942 0.183924 0.428607
O O1 0.224206 0.041392 0.702528
O O2 0.118319 0.122923 0.094601
O O3 0.014372 0.920132 0.679338
O O4 0.934261 0.186421 0.950237
O O5 0.173395 0.617753 0.564065
O O6 0.977517 0.664300 0.409414
O O7 0.022526 0.420269 0.256489
O O8 0.226658 0.461061 0.098384
O O9 0.257555 0.137055 0.366690
O O10 0.387320 0.237524 0.967329
O O11 0.430618 0.270082 0.697915
O O12 0.498789 0.459557 0.137169
O O13 0.742492 0.440421 0.224577
O O14 0.500000 0.500000 0.500000
O O15 0.441540 0.295169 0.429300
O O16 0.500000 0.000000 0.500000
O O17 0.462103 0.971286 0.772176
#
# Coordination Sequence:
#
# PCOD8000651 Si02
#       8
#     2   2   2   2   2   2   2   2
#     4  10  22  41  68  97 130 172 220 277 325 386
#     4  10  19  39  66  91 129 167 215 273 328 384
#     4  10  23  40  66  99 130 168 224 272 331 388
#     4  11  24  44  66  93 137 179 210 272 339 386
#     4  10  20  38  65  96 127 163 224 272 320 387
#     4  12  25  41  69 102 129 174 223 274 331 392
#     4  10  24  45  66  92 136 181 215 267 335 395
#     4  11  26  45  62  97 137 173 222 271 329 401
#
# _framework density 22.60201
#
# number of rings (size 3 to 8) (size 9 to 14) (size 15 to 20)
#    0.000    1.500    3.750    0.375    5.250    2.000 
#    0.000    2.500    0.000    0.000    0.000    0.000 
#    0.000    0.000    0.000    0.000    0.000    0.000 
#
# Total GULP energy -198339.400405 kJ/mol
# GULP energy per Si atom -12396.212525 kJ/mol
# Density = 2.255057 g / cm^3
# Si number density = 22.602010 Si / 1000 Ang^3
#
#
#
# Elastic Constant Matrix: (Units=GPa)
#
#
# Indices 1 2 3 4 5 6 
#
# 1 103.4243 27.2161 19.1976 6.1354 -3.5005 -0.2678
# 2 27.2161 96.0072 11.8108 24.8491 -8.8285 -0.3301
# 3 19.1976 11.8108 41.9852 11.3164 -5.6730 0.0222
# 4 6.1354 24.8491 11.3164 31.5959 -5.9410 -2.3464
# 5 -3.5005 -8.8285 -5.6730 -5.9410 36.6374 4.9313
# 6 -0.2678 -0.3301 0.0222 -2.3464 4.9313 39.9166
#
#
#
# Elastic Compliance Matrix: (Units=1/GPa)
#
#
# Indices 1 2 3 4 5 6 
#
# 1 0.011265 -0.003126 -0.004825 0.001989 -0.000126 0.000185
# 2 -0.003126 0.014075 0.000484 -0.010392 0.001578 -0.000711
# 3 -0.004825 0.000484 0.028764 -0.009303 0.002726 -0.000928
# 4 0.001989 -0.010392 -0.009303 0.043492 0.003013 0.002117
# 5 -0.000126 0.001578 0.002726 0.003013 0.029031 -0.003399
# 6 0.000185 -0.000711 -0.000928 0.002117 -0.003399 0.025592
#
#
# Mechanical properties :
#
#
# Convention : Reuss Voigt Hill
#
# Bulk Modulus (GPa) = 25.52862 39.76285 32.64573
# Shear Modulus (GPa) = 27.74561 33.84279 30.79420
#
# Velocity S-wave (km/s) = 3.50747 3.87374 3.69515
# Velocity P-wave (km/s) = 5.26522 6.13503 5.71669
#
# Compressibility (1/GPa) = 0.03917172
#
# Stress axis : x y z
#
# Youngs Moduli (GPa) = 88.76858 71.04948 34.76569
#
# Poissons Ratio (x) = 0.22207 0.16774
# Poissons Ratio (y) = 0.27746 -0.01684
# Poissons Ratio (z) = 0.42830 -0.03442
#
# Static dielectric constant tensor:
#      x y z
#    x 4.000220 -0.083830 -0.111710 
#    y -0.083830 4.451090 0.491380 
#    z -0.111710 0.491380 3.935750 
# 
# 
# High freq. dielectric constant tensor:
#      x y z
#    x 1.894890 -0.000940 -0.007940 
#    y -0.000940 1.892370 0.028810 
#    z -0.007940 0.028810 1.871460 
# 
# From -- ./inp_files/209356.got.cif
#   From: 2010.06.25/outbox.cif.g09.slc.cpg/sg2_105_cif.got.tgz:209356.got - 2010.06.27 13:26:56.
