data_PCOD8000209
_publ_section_title
;
Structure prediction by ZEFSAII (Michael W. Deem and Ramdas Pophale) SiO2 
 PCOD8000209
Probable space group: P 1
;
_chemical_formula_sum "Si O2"
_cell_formula_units_Z 8
_cell_length_a 8.813361
_cell_length_b 14.576194
_cell_length_c 4.855716
_cell_angle_alpha 102.581384
_cell_angle_beta 97.762392
_cell_angle_gamma 30.369270
_cell_volume 306.025712
_symmetry_space_group_name_H-M "P 1"
_symmetry_group_IT_number 1
_symmetry_cell_setting 'triclinic'
loop_
_space_group_symop_operation_xyz
x,y,z
loop_
_atom_site_type_symbol
_atom_site_label
_atom_site_fract_x
_atom_site_fract_y
_atom_site_fract_z
Si Si1 0.548800 0.605150 0.885470
Si Si2 0.117468 0.570311 0.476452
Si Si3 0.184382 0.183987 0.349565
Si Si4 0.258393 0.849420 0.477590
Si Si5 0.582538 0.422579 0.163882
Si Si6 0.615741 0.218817 0.758648
Si Si7 0.150642 0.366566 0.071197
Si Si8 0.474791 0.939712 0.757433
O O1 0.422500 0.683204 0.596810
O O2 0.514966 0.516737 0.929791
O O3 0.903574 0.445650 0.868874
O O4 0.352828 0.778900 0.142411
O O5 0.366618 0.394562 0.617548
O O6 0.834889 0.758776 0.701179
O O7 0.266015 0.577527 0.347629
O O8 0.012697 0.541719 0.227927
O O9 0.218234 0.272390 0.305260
O O10 0.829587 0.343512 0.366222
O O11 0.380259 0.010276 0.092594
O O12 0.310744 0.105902 0.638195
O O13 0.366597 0.894566 0.617481
O O14 0.898310 0.030347 0.533927
O O15 0.720499 0.247415 0.007182
O O16 0.467163 0.211618 0.887451
#
# Coordination Sequence:
#
# PCOD8000209 Si02
#       8
#     1   1   1   1   1   1   1   1
#     4  11  26  45  71  99 131 176 225 274 325 393
#     4  11  25  43  69  95 139 176 218 271 339 392
#     4  11  26  45  71  99 131 176 225 274 325 393
#     4  12  25  44  70  99 135 173 225 272 330 393
#     4  10  25  44  67  99 134 175 220 273 333 393
#     4  11  25  43  69  95 139 176 218 271 339 392
#     4  10  25  44  67  99 134 175 220 273 333 393
#     4  12  25  44  70  99 135 173 225 272 330 393
#
# _framework density 26.141596
#
# number of rings (size 3 to 8) (size 9 to 14) (size 15 to 20)
#    0.000    1.000    2.500    2.250   10.500    4.000 
#    0.000    0.000    0.000    0.000    0.000    0.000 
#    0.000    0.000    0.000    0.000    0.000    0.000 
#
# Total GULP energy -99266.983090 kJ/mol
# GULP energy per Si atom -12408.372886 kJ/mol
# Density = 2.608210 g / cm^3
# Si number density = 26.141596 Si / 1000 Ang^3
#
#
#
# Elastic Constant Matrix: (Units=GPa)
#
#
# Indices 1 2 3 4 5 6 
#
# 1 143.2848 33.9059 -4.0207 0.6206 -32.6994 -5.3498
# 2 33.9059 139.3469 -0.5159 4.9975 -22.2366 -21.5695
# 3 -4.0207 -0.5159 32.8512 -6.6136 -14.4748 -7.2628
# 4 0.6206 4.9975 -6.6136 60.1136 -0.4571 -12.3298
# 5 -32.6994 -22.2366 -14.4748 -0.4571 36.5008 3.3190
# 6 -5.3498 -21.5695 -7.2628 -12.3298 3.3190 35.5398
#
#
#
# Elastic Compliance Matrix: (Units=1/GPa)
#
#
# Indices 1 2 3 4 5 6 
#
# 1 0.009869 -0.000316 0.006821 0.001181 0.011181 0.002053
# 2 -0.000316 0.009263 0.004639 0.001082 0.006642 0.006277
# 3 0.006821 0.004639 0.047753 0.007836 0.026715 0.013825
# 4 0.001181 0.001082 0.007836 0.019213 0.004274 0.008702
# 5 0.011181 0.006642 0.026715 0.004274 0.051393 0.007857
# 6 0.002053 0.006277 0.013825 0.008702 0.007857 0.037367
#
#
# Mechanical properties :
#
#
# Convention : Reuss Voigt Hill
#
# Bulk Modulus (GPa) = 11.21415 41.58016 26.39715
# Shear Modulus (GPa) = 27.42823 45.50509 36.46666
#
# Velocity S-wave (km/s) = 3.24268 4.17672 3.73898
# Velocity P-wave (km/s) = 4.28007 6.26101 5.36280
#
# Compressibility (1/GPa) = 0.08917309
#
# Stress axis : x y z
#
# Youngs Moduli (GPa) = 101.33136 107.95276 20.94102
#
# Poissons Ratio (x) = 0.03414 -0.14284
# Poissons Ratio (y) = 0.03205 -0.09715
# Poissons Ratio (z) = -0.69120 -0.50080
#
# Static dielectric constant tensor:
#      x y z
#    x 5.000920 0.071610 -0.123560 
#    y 0.071610 4.688700 0.278160 
#    z -0.123560 0.278160 4.801420 
# 
# 
# High freq. dielectric constant tensor:
#      x y z
#    x 2.060320 0.003390 -0.009080 
#    y 0.003390 2.043360 0.017650 
#    z -0.009080 0.017650 2.052420 
# 
# From -- ./inp_files/1159.got.cif
#   From: 2010.03.12/outbox.cif.g09.slc.cpg/sg1_1_cif.got.tgz:1159.got - 2010.03.29 11:57:58.
