data_PCOD8000850
_publ_section_title
;
Structure prediction by ZEFSAII (Michael W. Deem and Ramdas Pophale) SiO2 
 PCOD8000850
Probable space group: P -1
;
_chemical_formula_sum "Si O2"
_cell_formula_units_Z 16
_cell_length_a 11.104127
_cell_length_b 10.318885
_cell_length_c 13.791959
_cell_angle_alpha 104.570590
_cell_angle_beta 31.680046
_cell_angle_gamma 114.650937
_cell_volume 736.404911
_symmetry_space_group_name_H-M "P -1"
_symmetry_group_IT_number 2
_symmetry_cell_setting 'triclinic'
loop_
_space_group_symop_operation_xyz
x,y,z
-x,-y,-z
loop_
_atom_site_type_symbol
_atom_site_label
_atom_site_fract_x
_atom_site_fract_y
_atom_site_fract_z
Si Si1 0.996478 0.163723 0.809551
Si Si2 0.360434 0.159035 0.008856
Si Si3 0.207987 0.316137 0.306675
Si Si4 0.334422 0.392936 0.931365
Si Si5 0.103249 0.771450 0.325836
Si Si6 0.922044 0.338542 0.058914
Si Si7 0.546954 0.357266 0.472237
Si Si8 0.982140 0.444916 0.334180
O O1 0.985440 0.215758 0.718000
O O2 0.287694 0.223664 0.648278
O O3 0.882800 0.989847 0.863550
O O4 0.850584 0.229311 0.995373
O O5 0.349892 0.239505 0.130923
O O6 0.381760 0.259735 0.920743
O O7 0.606020 0.121863 0.839592
O O8 0.403311 0.471573 0.244726
O O9 0.074019 0.203476 0.465472
O O10 0.995760 0.340340 0.391731
O O11 0.167147 0.330475 0.939031
O O12 0.181490 0.453591 0.117884
O O13 0.071409 0.607902 0.342542
O O14 0.685007 0.301342 0.284694
O O15 0.000000 0.500000 0.000000
O O16 0.500000 0.500000 0.500000
O O17 0.704256 0.387970 0.469669
#
# Coordination Sequence:
#
# PCOD8000850 Si02
#       8
#     2   2   2   2   2   2   2   2
#     4  12  27  42  63  94 137 173 204 262 319 386
#     4  11  25  45  62  94 135 169 210 260 325 379
#     4  11  23  39  71  95 123 168 216 272 311 370
#     4  10  21  42  69  94 127 167 214 265 316 373
#     4  12  23  39  65  96 127 167 218 264 313 375
#     4  11  24  41  67  97 126 164 212 269 313 370
#     4  11  22  40  66  96 126 164 216 260 315 380
#     4  10  19  40  64 100 125 152 218 277 307 365
#
# _framework density 21.727177000000001
#
# number of rings (size 3 to 8) (size 9 to 14) (size 15 to 20)
#    0.000    1.000    5.000    2.250    3.500    2.000 
#    0.000    5.625    0.000    0.000    0.000    0.000 
#    0.000    0.000    0.000    0.000    0.000    0.000 
#
# Total GULP energy -198427.303642 kJ/mol
# GULP energy per Si atom -12401.706478 kJ/mol
# Density = 2.167772 g / cm^3
# Si number density = 21.727177 Si / 1000 Ang^3
#
#
#
# Elastic Constant Matrix: (Units=GPa)
#
#
# Indices 1 2 3 4 5 6 
#
# 1 117.7796 18.6598 51.7135 -0.3648 -1.9193 0.2717
# 2 18.6598 73.9439 30.4233 -17.5944 -0.2962 11.3745
# 3 51.7135 30.4233 103.5759 -18.6634 -11.3069 1.5698
# 4 -0.3648 -17.5944 -18.6634 24.6307 5.8866 -10.6758
# 5 -1.9193 -0.2962 -11.3069 5.8866 42.0582 -1.0079
# 6 0.2717 11.3745 1.5698 -10.6758 -1.0079 18.2332
#
#
#
# Elastic Compliance Matrix: (Units=1/GPa)
#
#
# Indices 1 2 3 4 5 6 
#
# 1 0.011611 -0.001437 -0.006638 -0.007032 -0.000349 -0.002842
# 2 -0.001437 0.018154 -0.003266 0.008242 -0.002121 -0.006314
# 3 -0.006638 -0.003266 0.016435 0.013141 0.002458 0.008551
# 4 -0.007032 0.008242 0.013141 0.073696 -0.006167 0.036641
# 5 -0.000349 -0.002121 0.002458 -0.006167 0.025243 -0.001099
# 6 -0.002842 -0.006314 0.008551 0.036641 -0.001099 0.079483
#
#
# Mechanical properties :
#
#
# Convention : Reuss Voigt Hill
#
# Bulk Modulus (GPa) = 42.51670 55.21026 48.86348
# Shear Modulus (GPa) = 19.59697 29.95126 24.77412
#
# Velocity S-wave (km/s) = 3.00652 3.71687 3.38040
# Velocity P-wave (km/s) = 5.62700 6.62465 6.14610
#
# Compressibility (1/GPa) = 0.02352017
#
# Stress axis : x y z
#
# Youngs Moduli (GPa) = 86.12166 55.08481 60.84749
#
# Poissons Ratio (x) = 0.07914 0.40388
# Poissons Ratio (y) = 0.12373 0.19870
# Poissons Ratio (z) = 0.57163 0.17988
#
# Static dielectric constant tensor:
#      x y z
#    x 4.796380 0.206070 -0.219020 
#    y 0.206070 3.748310 0.231750 
#    z -0.219020 0.231750 4.630220 
# 
# 
# High freq. dielectric constant tensor:
#      x y z
#    x 1.863990 0.002970 0.001410 
#    y 0.002970 1.819540 0.006530 
#    z 0.001410 0.006530 1.868910 
# 
# From -- ./inp_files/438594.got.cif
#   From: 2010.06.25/outbox.cif.g09.slc.cpg/sg2_220_cif.got.tgz:438594.got - 2010.06.27 13:26:56.
