data_PCOD8000899
_publ_section_title
;
Structure prediction by ZEFSAII (Michael W. Deem and Ramdas Pophale) SiO2 
 PCOD8000899
Probable space group: P -1
;
_chemical_formula_sum "Si O2"
_cell_formula_units_Z 12
_cell_length_a 9.648119
_cell_length_b 11.880630
_cell_length_c 8.821366
_cell_angle_alpha 102.061847
_cell_angle_beta 66.958071
_cell_angle_gamma 143.484092
_cell_volume 543.286920
_symmetry_space_group_name_H-M "P -1"
_symmetry_group_IT_number 2
_symmetry_cell_setting 'triclinic'
loop_
_space_group_symop_operation_xyz
x,y,z
-x,-y,-z
loop_
_atom_site_type_symbol
_atom_site_label
_atom_site_fract_x
_atom_site_fract_y
_atom_site_fract_z
Si Si1 0.241546 0.877779 0.156463
Si Si2 0.332274 0.025173 0.729285
Si Si3 0.400912 0.586262 0.213867
Si Si4 0.863005 0.707849 0.010222
Si Si5 0.496629 0.865971 0.641169
Si Si6 0.909445 0.536919 0.427355
O O1 0.011865 0.753396 0.105910
O O2 0.144380 0.732068 0.290017
O O3 0.323662 0.043557 0.262757
O O4 0.500000 0.000000 0.000000
O O5 0.382020 0.924345 0.729012
O O6 0.533485 0.237811 0.773683
O O7 0.329565 0.034187 0.552735
O O8 0.057691 0.894280 0.870675
O O9 0.650234 0.663040 0.146697
O O10 0.236816 0.460061 0.401796
O O11 0.255223 0.469003 0.087188
O O12 0.276011 0.636572 0.664578
O O13 0.000000 0.500000 0.500000
#
# Coordination Sequence:
#
# PCOD8000899 Si02
#       6
#     2   2   2   2   2   2
#     4  12  25  40  62 100 133 164 210 274 324 369
#     4  10  19  40  65  91 125 169 216 258 313 387
#     4  10  23  42  66  92 125 179 216 252 324 388
#     4  11  23  40  63  95 134 167 212 270 314 382
#     4  10  21  39  63  91 126 168 214 259 318 380
#     4  11  24  43  68  92 128 174 218 258 318 391
#
# _framework density 22.087776999999999
#
# number of rings (size 3 to 8) (size 9 to 14) (size 15 to 20)
#    0.000    1.333    1.667    5.500    0.000    2.667 
#    0.000    3.333    0.000    0.000    0.000    0.000 
#    0.000    0.000    0.000    0.000    0.000    0.000 
#
# Total GULP energy -148675.613623 kJ/mol
# GULP energy per Si atom -12389.634469 kJ/mol
# Density = 2.203750 g / cm^3
# Si number density = 22.087777 Si / 1000 Ang^3
#
#
#
# Elastic Constant Matrix: (Units=GPa)
#
#
# Indices 1 2 3 4 5 6 
#
# 1 65.4263 37.8195 48.9337 5.3586 -3.6070 24.3637
# 2 37.8195 119.2455 71.4773 15.7168 4.0698 24.6287
# 3 48.9337 71.4773 159.1845 -9.5795 -7.0049 13.0971
# 4 5.3586 15.7168 -9.5795 62.7646 10.9018 5.7174
# 5 -3.6070 4.0698 -7.0049 10.9018 27.3608 8.4655
# 6 24.3637 24.6287 13.0971 5.7174 8.4655 33.4729
#
#
#
# Elastic Compliance Matrix: (Units=1/GPa)
#
#
# Indices 1 2 3 4 5 6 
#
# 1 0.028863 -0.001140 -0.006518 -0.003057 0.009562 -0.019515
# 2 -0.001140 0.013942 -0.005595 -0.003617 -0.000180 -0.006576
# 3 -0.006518 -0.005595 0.010659 0.003182 0.000164 0.004105
# 4 -0.003057 -0.003617 0.003182 0.018624 -0.007175 0.002275
# 5 0.009562 -0.000180 0.000164 -0.007175 0.046097 -0.017324
# 6 -0.019515 -0.006576 0.004105 0.002275 -0.017324 0.051304
#
#
# Mechanical properties :
#
#
# Convention : Reuss Voigt Hill
#
# Bulk Modulus (GPa) = 37.09359 73.36860 55.23110
# Shear Modulus (GPa) = 24.39255 37.09473 30.74364
#
# Velocity S-wave (km/s) = 3.32678 4.10252 3.73484
# Velocity P-wave (km/s) = 5.62021 7.46524 6.60744
#
# Compressibility (1/GPa) = 0.02695884
#
# Stress axis : x y z
#
# Youngs Moduli (GPa) = 34.64620 71.72497 93.81968
#
# Poissons Ratio (x) = 0.08175 0.61155
# Poissons Ratio (y) = 0.03949 0.52488
# Poissons Ratio (z) = 0.22584 0.40127
#
# Static dielectric constant tensor:
#      x y z
#    x 3.506780 0.253920 -0.129200 
#    y 0.253920 4.508020 0.068780 
#    z -0.129200 0.068780 4.622120 
# 
# 
# High freq. dielectric constant tensor:
#      x y z
#    x 1.810050 0.022630 -0.008430 
#    y 0.022630 1.895840 0.004460 
#    z -0.008430 0.004460 1.897540 
# 
# From -- ./inp_files/268279.got.cif
#   From: 2010.06.25/outbox.cif.g09.slc.cpg/sg2_135_cif.got.tgz:268279.got - 2010.06.27 13:26:56.
