data_PCOD8000829
_publ_section_title
;
Structure prediction by ZEFSAII (Michael W. Deem and Ramdas Pophale) SiO2 
 PCOD8000829
Probable space group: P -1
;
_chemical_formula_sum "Si O2"
_cell_formula_units_Z 16
_cell_length_a 14.537939
_cell_length_b 10.252932
_cell_length_c 9.967109
_cell_angle_alpha 83.752748
_cell_angle_beta 38.661047
_cell_angle_gamma 64.686283
_cell_volume 769.491839
_symmetry_space_group_name_H-M "P -1"
_symmetry_group_IT_number 2
_symmetry_cell_setting 'triclinic'
loop_
_space_group_symop_operation_xyz
x,y,z
-x,-y,-z
loop_
_atom_site_type_symbol
_atom_site_label
_atom_site_fract_x
_atom_site_fract_y
_atom_site_fract_z
Si Si1 0.056515 0.828985 0.119162
Si Si2 0.979420 0.168088 0.142731
Si Si3 0.538375 0.821375 0.188242
Si Si4 0.321974 0.162501 0.714053
Si Si5 0.270450 0.186150 0.476404
Si Si6 0.792316 0.604581 0.712632
Si Si7 0.331819 0.676641 0.335503
Si Si8 0.327045 0.626150 0.056074
O O1 0.226452 0.730911 0.030518
O O2 0.902941 0.814418 0.356779
O O3 0.993655 0.008044 0.173820
O O4 0.099025 0.767530 0.924173
O O5 0.843793 0.290008 0.394606
O O6 0.170081 0.140779 0.946348
O O7 0.630828 0.752250 0.236746
O O8 0.402627 0.770581 0.321101
O O9 0.440840 0.010128 0.276838
O O10 0.699972 0.747201 0.908344
O O11 0.260945 0.250702 0.630804
O O12 0.500000 0.000000 0.500000
O O13 0.271921 0.312687 0.367594
O O14 0.727424 0.491549 0.823966
O O15 0.000000 0.500000 0.500000
O O16 0.297730 0.730779 0.210509
O O17 0.468311 0.487396 0.206709
#
# Coordination Sequence:
#
# PCOD8000829 Si02
#       8
#     2   2   2   2   2   2   2   2
#     4  10  20  38  63  90 119 157 201 249 301 353
#     4  10  21  38  66  91 117 157 203 252 297 359
#     4  10  21  41  62  89 121 157 202 256 295 352
#     4   9  21  39  62  93 122 149 198 257 302 350
#     4  10  19  40  62  91 121 155 201 251 298 355
#     4  11  22  37  61  85 123 165 196 241 304 356
#     4  10  22  42  61  87 126 159 202 247 295 362
#     4  10  23  42  58  86 128 163 199 245 297 362
#
# _framework density 20.792943000000001
#
# number of rings (size 3 to 8) (size 9 to 14) (size 15 to 20)
#    0.000    2.000    2.500    0.375    3.500    1.000 
#   15.750    3.125    0.000    0.000    0.000    0.000 
#    0.000    0.000    0.000    0.000    0.000    0.000 
#
# Total GULP energy -198317.593452 kJ/mol
# GULP energy per Si atom -12394.849591 kJ/mol
# Density = 2.074562 g / cm^3
# Si number density = 20.792943 Si / 1000 Ang^3
#
#
#
# Elastic Constant Matrix: (Units=GPa)
#
#
# Indices 1 2 3 4 5 6 
#
# 1 131.4318 32.7447 41.4618 -0.4535 14.7969 -18.0841
# 2 32.7447 49.5877 30.6868 -6.7000 13.7298 -17.4577
# 3 41.4618 30.6868 151.5134 11.5670 -1.6340 -13.1363
# 4 -0.4535 -6.7000 11.5670 23.6357 -7.0491 -2.0934
# 5 14.7969 13.7298 -1.6340 -7.0491 29.7651 -0.5501
# 6 -18.0841 -17.4577 -13.1363 -2.0934 -0.5501 33.0233
#
#
#
# Elastic Compliance Matrix: (Units=1/GPa)
#
#
# Indices 1 2 3 4 5 6 
#
# 1 0.009798 -0.003654 -0.001686 -0.000807 -0.003420 0.002655
# 2 -0.003654 0.036759 -0.006072 0.010938 -0.012596 0.015500
# 3 -0.001686 -0.006072 0.008635 -0.005213 0.002860 -0.000981
# 4 -0.000807 0.010938 -0.005213 0.050675 0.007193 0.006598
# 5 -0.003420 -0.012596 0.002860 0.007193 0.042852 -0.006224
# 6 0.002655 0.015500 -0.000981 0.006598 -0.006224 0.039854
#
#
# Mechanical properties :
#
#
# Convention : Reuss Voigt Hill
#
# Bulk Modulus (GPa) = 30.89505 60.25772 45.57639
# Shear Modulus (GPa) = 22.50348 32.46080 27.48214
#
# Velocity S-wave (km/s) = 3.29335 3.95542 3.63947
# Velocity P-wave (km/s) = 5.41777 7.06422 6.29506
#
# Compressibility (1/GPa) = 0.03236764
#
# Stress axis : x y z
#
# Youngs Moduli (GPa) = 102.05696 27.20413 115.80616
#
# Poissons Ratio (x) = 0.09941 0.19529
# Poissons Ratio (y) = 0.37293 0.70319
# Poissons Ratio (z) = 0.17210 0.16519
#
# Static dielectric constant tensor:
#      x y z
#    x 3.794870 -0.144750 0.524820 
#    y -0.144750 3.412580 0.081510 
#    z 0.524820 0.081510 3.888160 
# 
# 
# High freq. dielectric constant tensor:
#      x y z
#    x 1.826870 -0.009370 0.002550 
#    y -0.009370 1.782410 0.003760 
#    z 0.002550 0.003760 1.827590 
# 
# From -- ./inp_files/175020.got.cif
#   From: 2010.06.25/outbox.cif.g09.slc.cpg/sg2_88_cif.got.tgz:175020.got - 2010.06.27 13:26:56.
