data_PCOD8000544
_publ_section_title
;
Structure prediction by ZEFSAII (Michael W. Deem and Ramdas Pophale) SiO2 
 PCOD8000544
Probable space group: P -1
;
_chemical_formula_sum "Si O2"
_cell_formula_units_Z 16
_cell_length_a 20.693259
_cell_length_b 7.993422
_cell_length_c 7.730670
_cell_angle_alpha 126.722516
_cell_angle_beta 104.879886
_cell_angle_gamma 47.910356
_cell_volume 737.989516
_symmetry_space_group_name_H-M "P -1"
_symmetry_group_IT_number 2
_symmetry_cell_setting 'triclinic'
loop_
_space_group_symop_operation_xyz
x,y,z
-x,-y,-z
loop_
_atom_site_type_symbol
_atom_site_label
_atom_site_fract_x
_atom_site_fract_y
_atom_site_fract_z
Si Si1 0.262979 0.244246 0.912085
Si Si2 0.957834 0.250718 0.262626
Si Si3 0.595824 0.297340 0.531034
Si Si4 0.034585 0.341182 0.662063
Si Si5 0.216977 0.598806 0.761347
Si Si6 0.400214 0.266205 0.050558
Si Si7 0.594157 0.880996 0.423211
Si Si8 0.859205 0.823995 0.036989
O O1 0.219542 0.485299 0.884329
O O2 0.192165 0.280964 0.010468
O O3 0.324008 0.931374 0.682531
O O4 0.329212 0.252855 0.079476
O O5 0.927682 0.527051 0.318853
O O6 0.869821 0.331087 0.341356
O O7 0.029173 0.161715 0.408927
O O8 0.000000 0.000000 0.000000
O O9 0.500000 0.500000 0.500000
O O10 0.623774 0.454497 0.732699
O O11 0.586696 0.145175 0.580594
O O12 0.100174 0.147966 0.746175
O O13 0.935037 0.593354 0.815943
O O14 0.310297 0.370804 0.574015
O O15 0.201267 0.881798 0.925899
O O16 0.389615 0.264391 0.838051
O O17 0.500000 0.000000 0.000000
O O18 0.500000 0.000000 0.500000
#
# Coordination Sequence:
#
# PCOD8000544 Si02
#       8
#     2   2   2   2   2   2   2   2
#     4  10  23  41  62  94 135 164 219 272 316 392
#     4  11  21  46  69  92 138 172 211 273 333 393
#     4  10  19  39  64  86 124 172 210 261 324 375
#     4  10  24  42  70  96 129 176 209 273 336 390
#     4  10  22  42  64  95 134 172 214 270 328 392
#     4  10  19  39  64  89 119 174 217 257 329 380
#     4  10  24  41  61  93 136 164 217 275 319 380
#     4  11  22  45  67  99 131 165 229 266 328 400
#
# _framework density 21.680527000000001
#
# number of rings (size 3 to 8) (size 9 to 14) (size 15 to 20)
#    0.000    2.000    5.000    0.000    1.750    1.000 
#   18.000    0.000    0.000    0.000    0.000    0.000 
#    0.000    0.000    0.000    0.000    0.000    0.000 
#
# Total GULP energy -198210.431968 kJ/mol
# GULP energy per Si atom -12388.151998 kJ/mol
# Density = 2.163118 g / cm^3
# Si number density = 21.680527 Si / 1000 Ang^3
#
#
#
# Elastic Constant Matrix: (Units=GPa)
#
#
# Indices 1 2 3 4 5 6 
#
# 1 170.6028 35.1475 41.0267 17.8873 11.1310 -6.0513
# 2 35.1475 94.8175 26.6196 18.0034 8.7328 0.6047
# 3 41.0267 26.6196 116.9999 9.6212 33.5476 1.5713
# 4 17.8873 18.0034 9.6212 27.9339 1.3598 2.0499
# 5 11.1310 8.7328 33.5476 1.3598 39.5285 3.2779
# 6 -6.0513 0.6047 1.5713 2.0499 3.2779 34.8377
#
#
#
# Elastic Compliance Matrix: (Units=1/GPa)
#
#
# Indices 1 2 3 4 5 6 
#
# 1 0.006990 -0.001507 -0.001862 -0.002970 -0.000078 0.001506
# 2 -0.001507 0.012921 -0.001618 -0.006770 -0.000830 0.000063
# 3 -0.001862 -0.001618 0.012466 -0.001600 -0.009655 0.000145
# 4 -0.002970 -0.006770 -0.001600 0.042720 0.002475 -0.003073
# 5 -0.000078 -0.000830 -0.009655 0.002475 0.033853 -0.002895
# 6 0.001506 0.000063 0.000145 -0.003073 -0.002895 0.029412
#
#
# Mechanical properties :
#
#
# Convention : Reuss Voigt Hill
#
# Bulk Modulus (GPa) = 44.63487 65.33419 54.98453
# Shear Modulus (GPa) = 32.09235 39.10178 35.59707
#
# Velocity S-wave (km/s) = 3.85156 4.25142 4.05642
# Velocity P-wave (km/s) = 6.35701 7.36884 6.88155
#
# Compressibility (1/GPa) = 0.02240401
#
# Stress axis : x y z
#
# Youngs Moduli (GPa) = 143.06891 77.39566 80.21891
#
# Poissons Ratio (x) = 0.11662 0.14935
# Poissons Ratio (y) = 0.21557 0.12976
# Poissons Ratio (z) = 0.26636 0.12519
#
# Static dielectric constant tensor:
#      x y z
#    x 4.401290 -0.241910 -0.140840 
#    y -0.241910 3.794890 0.208860 
#    z -0.140840 0.208860 3.531430 
# 
# 
# High freq. dielectric constant tensor:
#      x y z
#    x 1.872920 -0.012630 0.013740 
#    y -0.012630 1.849600 0.012110 
#    z 0.013740 0.012110 1.825240 
# 
# From -- ./inp_files/342255.got.cif
#   From: 2010.06.25/outbox.cif.g09.slc.cpg/sg2_172_cif.got.tgz:342255.got - 2010.06.27 13:26:56.
