data_PCOD8000344
_publ_section_title
;
Structure prediction by ZEFSAII (Michael W. Deem and Ramdas Pophale) SiO2 
 PCOD8000344
Probable space group: P -1
;
_chemical_formula_sum "Si O2"
_cell_formula_units_Z 14
_cell_length_a 12.203536
_cell_length_b 11.834701
_cell_length_c 14.530992
_cell_angle_alpha 28.383317
_cell_angle_beta 133.546002
_cell_angle_gamma 123.967474
_cell_volume 716.227858
_symmetry_space_group_name_H-M "P -1"
_symmetry_group_IT_number 2
_symmetry_cell_setting 'triclinic'
loop_
_space_group_symop_operation_xyz
x,y,z
-x,-y,-z
loop_
_atom_site_type_symbol
_atom_site_label
_atom_site_fract_x
_atom_site_fract_y
_atom_site_fract_z
Si Si1 0.363105 0.218873 0.985709
Si Si2 0.336605 0.612278 0.556379
Si Si3 0.935022 0.305215 0.976356
Si Si4 0.771354 0.858329 0.846755
Si Si5 0.377489 0.510577 0.089228
Si Si6 0.639505 0.306820 0.690677
Si Si7 0.950288 0.222408 0.246692
O O1 0.274999 0.389328 0.732984
O O2 0.246158 0.216237 0.003975
O O3 0.517335 0.329780 0.024660
O O4 0.415511 0.952280 0.168305
O O5 0.291742 0.609717 0.425443
O O6 0.268445 0.857261 0.392278
O O7 0.522536 0.582601 0.695932
O O8 0.767408 0.282640 0.860006
O O9 0.940445 0.582387 0.804819
O O10 0.970832 0.151273 0.201582
O O11 0.054734 0.212814 0.032549
O O12 0.657647 0.722567 0.818446
O O13 0.225502 0.676448 0.912070
O O14 0.500000 0.500000 0.500000
O O15 0.000000 0.000000 0.500000
#
# Coordination Sequence:
#
# PCOD8000344 Si02
#       7
#     2   2   2   2   2   2   2
#     4   9  22  36  57  92 115 151 200 234 278 358
#     4   9  21  36  59  90 113 156 194 235 290 341
#     4  10  24  39  59  87 117 153 196 238 289 353
#     4  10  19  39  59  86 121 156 187 244 297 329
#     4   9  19  38  60  89 120 145 201 241 281 350
#     4  11  23  40  60  83 120 159 192 241 290 338
#     4  10  22  41  60  86 116 152 194 245 292 338
#
# _framework density 19.546852999999999
#
# number of rings (size 3 to 8) (size 9 to 14) (size 15 to 20)
#    0.857    1.429    0.000    1.714    2.000    6.286 
#    5.143    1.429    0.000    0.000    0.000    0.000 
#    0.000    0.000    0.000    0.000    0.000    0.000 
#
# Total GULP energy -173522.240489 kJ/mol
# GULP energy per Si atom -12394.445749 kJ/mol
# Density = 1.950236 g / cm^3
# Si number density = 19.546853 Si / 1000 Ang^3
#
#
#
# Elastic Constant Matrix: (Units=GPa)
#
#
# Indices 1 2 3 4 5 6 
#
# 1 98.0504 37.3180 41.8081 -10.9681 -2.9801 -12.0121
# 2 37.3180 74.1072 41.6289 2.8373 6.0457 -11.3695
# 3 41.8081 41.6289 109.2364 -9.1993 -16.1188 -11.9945
# 4 -10.9681 2.8373 -9.1993 28.6877 0.1140 4.3305
# 5 -2.9801 6.0457 -16.1188 0.1140 38.3443 2.3517
# 6 -12.0121 -11.3695 -11.9945 4.3305 2.3517 25.0941
#
#
#
# Elastic Compliance Matrix: (Units=1/GPa)
#
#
# Indices 1 2 3 4 5 6 
#
# 1 0.014276 -0.005693 -0.002532 0.004885 0.000798 0.002127
# 2 -0.005693 0.022325 -0.007423 -0.007619 -0.007419 0.005852
# 3 -0.002532 -0.007423 0.014441 0.004227 0.006974 0.000944
# 4 0.004885 -0.007619 0.004227 0.039771 0.003626 -0.006296
# 5 0.000798 -0.007419 0.006974 0.003626 0.030424 -0.003123
# 6 0.002127 0.005852 0.000944 -0.006296 -0.003123 0.045350
#
#
# Mechanical properties :
#
#
# Convention : Reuss Voigt Hill
#
# Bulk Modulus (GPa) = 50.63961 58.10044 54.37002
# Shear Modulus (GPa) = 24.45419 29.13450 26.79435
#
# Velocity S-wave (km/s) = 3.54086 3.86488 3.70642
# Velocity P-wave (km/s) = 6.53299 7.05015 6.79649
#
# Compressibility (1/GPa) = 0.01974739
#
# Stress axis : x y z
#
# Youngs Moduli (GPa) = 70.04618 44.79270 69.24748
#
# Poissons Ratio (x) = 0.25499 0.17533
# Poissons Ratio (y) = 0.39875 0.51402
# Poissons Ratio (z) = 0.17735 0.33249
#
# Static dielectric constant tensor:
#      x y z
#    x 3.481720 -0.095750 -0.089350 
#    y -0.095750 3.528170 -0.097210 
#    z -0.089350 -0.097210 3.546290 
# 
# 
# High freq. dielectric constant tensor:
#      x y z
#    x 1.756560 -0.007730 -0.003640 
#    y -0.007730 1.757400 -0.006440 
#    z -0.003640 -0.006440 1.760480 
# 
# From -- ./inp_files/517530.got.cif
#   From: 2010.06.25/outbox.cif.g09.slc.cpg/sg2_259_cif.got.tgz:517530.got - 2010.06.27 13:26:56.
