data_PCOD8000625
_publ_section_title
;
Structure prediction by ZEFSAII (Michael W. Deem and Ramdas Pophale) SiO2 
 PCOD8000625
Probable space group: P -1
;
_chemical_formula_sum "Si O2"
_cell_formula_units_Z 16
_cell_length_a 17.583649
_cell_length_b 12.641179
_cell_length_c 11.748666
_cell_angle_alpha 143.660415
_cell_angle_beta 139.464273
_cell_angle_gamma 28.015891
_cell_volume 715.582549
_symmetry_space_group_name_H-M "P -1"
_symmetry_group_IT_number 2
_symmetry_cell_setting 'triclinic'
loop_
_space_group_symop_operation_xyz
x,y,z
-x,-y,-z
loop_
_atom_site_type_symbol
_atom_site_label
_atom_site_fract_x
_atom_site_fract_y
_atom_site_fract_z
Si Si1 0.997439 0.109682 0.320341
Si Si2 0.306798 0.202740 0.955687
Si Si3 0.818883 0.912236 0.095300
Si Si4 0.400955 0.962202 0.428047
Si Si5 0.838454 0.712232 0.371536
Si Si6 0.312037 0.578074 0.618571
Si Si7 0.158512 0.695015 0.308522
Si Si8 0.100321 0.156231 0.119294
O O1 0.133249 0.904422 0.390804
O O2 0.069204 0.201980 0.414551
O O3 0.832001 0.350105 0.404977
O O4 0.956243 0.989844 0.083799
O O5 0.250088 0.171908 0.981417
O O6 0.241922 0.173717 0.744826
O O7 0.232792 0.479765 0.113422
O O8 0.500000 0.000000 0.000000
O O9 0.978032 0.829362 0.266184
O O10 0.682350 0.212724 0.178369
O O11 0.879363 0.773727 0.921669
O O12 0.518116 0.692520 0.387238
O O13 0.277344 0.977932 0.225367
O O14 0.500000 0.000000 0.500000
O O15 0.302243 0.175948 0.598704
O O16 0.033063 0.588472 0.739659
O O17 0.284540 0.573805 0.449945
#
# Coordination Sequence:
#
# PCOD8000625 Si02
#       8
#     2   2   2   2   2   2   2   2
#     4  10  22  42  74 101 133 176 226 283 329 411
#     4  12  24  36  65 107 141 175 211 279 349 405
#     4  10  22  40  69  99 134 178 216 273 334 413
#     4  12  28  44  69  98 136 186 226 284 337 397
#     4  12  24  46  70 100 136 179 231 279 338 400
#     4  10  21  41  65 102 136 173 222 274 339 395
#     4  10  19  39  66 100 136 173 219 267 337 411
#     4  10  24  47  69 100 133 183 238 267 333 397
#
# _framework density 22.359404000000001
#
# number of rings (size 3 to 8) (size 9 to 14) (size 15 to 20)
#    0.000    1.500    2.500    5.250    5.250    3.500 
#    0.000    3.750    0.000    0.000    0.000    0.000 
#    0.000    0.000    0.000    0.000    0.000    0.000 
#
# Total GULP energy -198410.208894 kJ/mol
# GULP energy per Si atom -12400.638056 kJ/mol
# Density = 2.230851 g / cm^3
# Si number density = 22.359404 Si / 1000 Ang^3
#
#
#
# Elastic Constant Matrix: (Units=GPa)
#
#
# Indices 1 2 3 4 5 6 
#
# 1 80.1363 30.9719 40.9998 7.5916 -15.3504 -16.3768
# 2 30.9719 138.8853 59.5649 -8.5956 -8.3203 1.4164
# 3 40.9998 59.5649 112.2045 4.0996 -0.1684 -0.5483
# 4 7.5916 -8.5956 4.0996 36.7716 -0.0020 -10.6691
# 5 -15.3504 -8.3203 -0.1684 -0.0020 24.0820 -1.0406
# 6 -16.3768 1.4164 -0.5483 -10.6691 -1.0406 24.7654
#
#
#
# Elastic Compliance Matrix: (Units=1/GPa)
#
#
# Indices 1 2 3 4 5 6 
#
# 1 0.022866 -0.001025 -0.007730 0.000500 0.014852 0.015848
# 2 -0.001025 0.009933 -0.005008 0.003122 0.002748 0.000104
# 3 -0.007730 -0.005008 0.014463 -0.002946 -0.006818 -0.006061
# 4 0.000500 0.003122 -0.002946 0.032228 0.001987 0.014055
# 5 0.014852 0.002748 -0.006818 0.001987 0.052437 0.012572
# 6 0.015848 0.000104 -0.006061 0.014055 0.012572 0.057302
#
#
# Mechanical properties :
#
#
# Convention : Reuss Voigt Hill
#
# Bulk Modulus (GPa) = 50.66687 66.03325 58.35006
# Shear Modulus (GPa) = 22.38806 30.43645 26.41225
#
# Velocity S-wave (km/s) = 3.16774 3.69350 3.44067
# Velocity P-wave (km/s) = 6.00740 6.91274 6.47591
#
# Compressibility (1/GPa) = 0.01973676
#
# Stress axis : x y z
#
# Youngs Moduli (GPa) = 43.73360 100.66950 69.14110
#
# Poissons Ratio (x) = 0.10318 0.53443
# Poissons Ratio (y) = 0.04483 0.34627
# Poissons Ratio (z) = 0.33804 0.50417
#
# Static dielectric constant tensor:
#      x y z
#    x 3.845130 0.002820 -0.160590 
#    y 0.002820 4.139840 0.031650 
#    z -0.160590 0.031650 4.002020 
# 
# 
# High freq. dielectric constant tensor:
#      x y z
#    x 1.866670 0.005360 -0.015220 
#    y 0.005360 1.888130 0.005350 
#    z -0.015220 0.005350 1.882250 
# 
# From -- ./inp_files/465647.got.cif
#   From: 2010.06.25/outbox.cif.g09.slc.cpg/sg2_233_cif.got.tgz:465647.got - 2010.06.27 13:26:56.
