data_PCOD8000657
_publ_section_title
;
Structure prediction by ZEFSAII (Michael W. Deem and Ramdas Pophale) SiO2 
 PCOD8000657
Probable space group: P -1
;
_chemical_formula_sum "Si O2"
_cell_formula_units_Z 16
_cell_length_a 17.600544
_cell_length_b 9.474869
_cell_length_c 23.455492
_cell_angle_alpha 40.769945
_cell_angle_beta 17.749424
_cell_angle_gamma 38.469619
_cell_volume 740.411470
_symmetry_space_group_name_H-M "P -1"
_symmetry_group_IT_number 2
_symmetry_cell_setting 'triclinic'
loop_
_space_group_symop_operation_xyz
x,y,z
-x,-y,-z
loop_
_atom_site_type_symbol
_atom_site_label
_atom_site_fract_x
_atom_site_fract_y
_atom_site_fract_z
Si Si1 0.376513 0.616553 0.609936
Si Si2 0.604499 0.246908 0.222095
Si Si3 0.991994 0.085836 0.891759
Si Si4 0.881953 0.497793 0.358332
Si Si5 0.336082 0.218035 0.815629
Si Si6 0.781525 0.971372 0.781895
Si Si7 0.378917 0.700371 0.304277
Si Si8 0.771038 0.984937 0.482612
O O1 0.500000 0.500000 0.500000
O O2 0.604787 0.615488 0.490832
O O3 0.199590 0.477928 0.810229
O O4 0.212383 0.870154 0.630690
O O5 0.564052 0.501683 0.193747
O O6 0.329786 0.222130 0.402902
O O7 0.818147 0.201054 0.034209
O O8 0.721007 0.064598 0.245208
O O9 0.999432 0.293901 0.781885
O O10 0.868593 0.921866 0.994497
O O11 0.837716 0.396247 0.481958
O O12 0.066222 0.297042 0.249168
O O13 0.449601 0.214769 0.798509
O O14 0.575558 0.119791 0.630567
O O15 0.766181 0.084264 0.696399
O O16 0.938200 0.094491 0.674021
O O17 0.500000 0.000000 0.000000
#
# Coordination Sequence:
#
# PCOD8000657 Si02
#       8
#     2   2   2   2   2   2   2   2
#     4   9  15  32  63  95 114 161 208 251 318 370
#     4  10  22  38  66  96 133 160 211 269 314 384
#     4  10  21  39  66 100 126 164 211 264 324 369
#     4  11  21  40  68  93 126 166 212 267 319 375
#     4   9  20  37  64  93 130 167 202 262 318 376
#     4  12  25  41  67  92 126 173 223 258 302 385
#     4  11  24  43  61  94 130 176 208 255 324 374
#     4  10  19  39  66  94 124 169 215 257 316 383
#
# _framework density 21.609604999999998
#
# number of rings (size 3 to 8) (size 9 to 14) (size 15 to 20)
#    0.000    1.750    5.000    1.125    1.750    2.500 
#    2.250    0.625    0.000    0.000    0.000    0.000 
#    0.000    0.000    0.000    0.000    0.000    0.000 
#
# Total GULP energy -198330.837151 kJ/mol
# GULP energy per Si atom -12395.677322 kJ/mol
# Density = 2.156042 g / cm^3
# Si number density = 21.609605 Si / 1000 Ang^3
#
#
#
# Elastic Constant Matrix: (Units=GPa)
#
#
# Indices 1 2 3 4 5 6 
#
# 1 126.6178 43.6215 55.7694 -22.2418 -14.5106 -11.5149
# 2 43.6215 73.2306 26.2593 -26.3256 -10.2570 5.9917
# 3 55.7694 26.2593 97.6625 -31.4235 -21.6546 -3.2747
# 4 -22.2418 -26.3256 -31.4235 36.9422 -1.9606 3.0628
# 5 -14.5106 -10.2570 -21.6546 -1.9606 29.6794 -9.9176
# 6 -11.5149 5.9917 -3.2747 3.0628 -9.9176 32.9738
#
#
#
# Elastic Compliance Matrix: (Units=1/GPa)
#
#
# Indices 1 2 3 4 5 6 
#
# 1 0.013153 -0.006837 -0.005872 -0.002356 0.001619 0.005958
# 2 -0.006837 0.024000 0.004722 0.017878 0.007698 -0.005625
# 3 -0.005872 0.004722 0.022689 0.019830 0.017555 0.002783
# 4 -0.002356 0.017878 0.019830 0.056518 0.023093 -0.000406
# 5 0.001619 0.007698 0.017555 0.023093 0.056773 0.015841
# 6 0.005958 -0.005625 0.002783 -0.000406 0.015841 0.038508
#
#
# Mechanical properties :
#
#
# Convention : Reuss Voigt Hill
#
# Bulk Modulus (GPa) = 22.79557 60.97902 41.88729
# Shear Modulus (GPa) = 20.64075 31.37647 26.00861
#
# Velocity S-wave (km/s) = 3.09393 3.81460 3.47301
# Velocity P-wave (km/s) = 4.83062 6.90517 5.95887
#
# Compressibility (1/GPa) = 0.04386817
#
# Stress axis : x y z
#
# Youngs Moduli (GPa) = 76.02785 41.66600 44.07382
#
# Poissons Ratio (x) = 0.28487 0.25880
# Poissons Ratio (y) = 0.51980 -0.20810
# Poissons Ratio (z) = 0.44643 -0.19673
#
# Static dielectric constant tensor:
#      x y z
#    x 3.916960 -0.081020 0.028110 
#    y -0.081020 3.886710 -0.270800 
#    z 0.028110 -0.270800 3.823660 
# 
# 
# High freq. dielectric constant tensor:
#      x y z
#    x 1.843890 0.002700 0.003140 
#    y 0.002700 1.834900 -0.019760 
#    z 0.003140 -0.019760 1.840250 
# 
# From -- ./inp_files/218831.got.cif
#   From: 2010.06.25/outbox.cif.g09.slc.cpg/sg2_110_cif.got.tgz:218831.got - 2010.06.27 13:26:56.
