data_PCOD8000451
_publ_section_title
;
Structure prediction by ZEFSAII (Michael W. Deem and Ramdas Pophale) SiO2 
 PCOD8000451
Probable space group: P -1
;
_chemical_formula_sum "Si O2"
_cell_formula_units_Z 16
_cell_length_a 16.534150
_cell_length_b 17.056286
_cell_length_c 14.975700
_cell_angle_alpha 39.351205
_cell_angle_beta 37.532047
_cell_angle_gamma 16.973358
_cell_volume 748.481899
_symmetry_space_group_name_H-M "P -1"
_symmetry_group_IT_number 2
_symmetry_cell_setting 'triclinic'
loop_
_space_group_symop_operation_xyz
x,y,z
-x,-y,-z
loop_
_atom_site_type_symbol
_atom_site_label
_atom_site_fract_x
_atom_site_fract_y
_atom_site_fract_z
Si Si1 0.026938 0.878950 0.504781
Si Si2 0.786161 0.857274 0.828807
Si Si3 0.511279 0.606156 0.593214
Si Si4 0.533832 0.936343 0.627515
Si Si5 0.627769 0.213872 0.085631
Si Si6 0.864371 0.555626 0.370014
Si Si7 0.759577 0.252909 0.107435
Si Si8 0.162261 0.337484 0.892166
O O1 0.758388 0.112856 0.468541
O O2 0.018142 0.757230 0.672367
O O3 0.000000 0.000000 0.500000
O O4 0.324365 0.633264 0.402070
O O5 0.876977 0.644424 0.906159
O O6 0.464032 0.157178 0.813451
O O7 0.815476 0.819865 0.944875
O O8 0.747339 0.516324 0.484252
O O9 0.383507 0.654850 0.752890
O O10 0.437832 0.876250 0.783287
O O11 0.840464 0.707784 0.604303
O O12 0.500000 0.000000 0.500000
O O13 0.337212 0.204779 0.600568
O O14 0.686439 0.202562 0.147162
O O15 0.352356 0.521049 0.025785
O O16 0.892151 0.025937 0.952122
O O17 0.883887 0.628627 0.202642
#
# Coordination Sequence:
#
# PCOD8000451 Si02
#       8
#     2   2   2   2   2   2   2   2
#     4  12  24  42  64  94 134 170 217 279 327 385
#     4  10  19  39  62  89 124 160 212 260 324 384
#     4  12  24  43  68  96 129 170 232 262 322 400
#     4  12  26  42  65 100 136 167 209 273 337 379
#     4  10  22  44  65  95 133 166 217 258 324 391
#     4  12  23  41  67  96 131 170 218 272 323 388
#     4  10  22  42  71  91 125 181 212 261 313 386
#     4  10  20  37  65  89 119 168 210 259 314 385
#
# _framework density 21.376602999999999
#
# number of rings (size 3 to 8) (size 9 to 14) (size 15 to 20)
#    0.000    1.000    2.500    4.500    0.000    3.000 
#    6.750    0.000    0.000    0.000    0.000    0.000 
#    0.000    0.000    0.000    0.000    0.000    0.000 
#
# Total GULP energy -198260.549792 kJ/mol
# GULP energy per Si atom -12391.284362 kJ/mol
# Density = 2.132795 g / cm^3
# Si number density = 21.376603 Si / 1000 Ang^3
#
#
#
# Elastic Constant Matrix: (Units=GPa)
#
#
# Indices 1 2 3 4 5 6 
#
# 1 89.4466 36.4503 46.1353 -0.2157 22.7852 2.4769
# 2 36.4503 134.5722 24.0270 2.1106 12.8195 4.8268
# 3 46.1353 24.0270 99.0838 11.5210 24.9151 0.5205
# 4 -0.2157 2.1106 11.5210 32.9631 4.7890 11.3641
# 5 22.7852 12.8195 24.9151 4.7890 42.2713 -2.0167
# 6 2.4769 4.8268 0.5205 11.3641 -2.0167 44.2307
#
#
#
# Elastic Compliance Matrix: (Units=1/GPa)
#
#
# Indices 1 2 3 4 5 6 
#
# 1 0.017031 -0.002991 -0.006380 0.003877 -0.005037 -0.001778
# 2 -0.002991 0.008419 -0.000465 -0.000029 -0.000700 -0.000770
# 3 -0.006380 -0.000465 0.014901 -0.005008 -0.004573 0.001311
# 4 0.003877 -0.000029 -0.005008 0.035940 -0.003657 -0.009556
# 5 -0.005037 -0.000700 -0.004573 -0.003657 0.029823 0.002712
# 6 -0.001778 -0.000770 0.001311 -0.009556 0.002712 0.025356
#
#
# Mechanical properties :
#
#
# Convention : Reuss Voigt Hill
#
# Bulk Modulus (GPa) = 48.35870 59.59197 53.97533
# Shear Modulus (GPa) = 31.63851 38.32568 34.98210
#
# Velocity S-wave (km/s) = 3.85132 4.23883 4.04972
# Velocity P-wave (km/s) = 6.51523 7.20380 6.86815
#
# Compressibility (1/GPa) = 0.02067880
#
# Stress axis : x y z
#
# Youngs Moduli (GPa) = 58.71668 118.77882 67.10941
#
# Poissons Ratio (x) = 0.35529 0.42813
# Poissons Ratio (y) = 0.17563 0.03123
# Poissons Ratio (z) = 0.37459 0.05527
#
# Static dielectric constant tensor:
#      x y z
#    x 3.832460 0.302740 -0.321360 
#    y 0.302740 13.487090 -20.798460 
#    z -0.321360 -20.798460 49.748000 
# 
# 
# High freq. dielectric constant tensor:
#      x y z
#    x 1.823940 0.003250 0.025250 
#    y 0.003250 1.864520 -0.001160 
#    z 0.025250 -0.001160 1.842700 
# 
# From -- ./inp_files/534251.got.cif
#   From: 2010.06.25/outbox.cif.g09.slc.cpg/sg2_268_cif.got.tgz:534251.got - 2010.06.27 13:26:56.
