data_PCOD8000778
_publ_section_title
;
Structure prediction by ZEFSAII (Michael W. Deem and Ramdas Pophale) SiO2 
 PCOD8000778
Probable space group: P -1
;
_chemical_formula_sum "Si O2"
_cell_formula_units_Z 10
_cell_length_a 12.079841
_cell_length_b 9.268619
_cell_length_c 7.574716
_cell_angle_alpha 124.678582
_cell_angle_beta 128.985655
_cell_angle_gamma 49.073830
_cell_volume 479.990044
_symmetry_space_group_name_H-M "P -1"
_symmetry_group_IT_number 2
_symmetry_cell_setting 'triclinic'
loop_
_space_group_symop_operation_xyz
x,y,z
-x,-y,-z
loop_
_atom_site_type_symbol
_atom_site_label
_atom_site_fract_x
_atom_site_fract_y
_atom_site_fract_z
Si Si1 0.878887 0.225234 0.995926
Si Si2 0.917657 0.581029 0.790237
Si Si3 0.641191 0.279531 0.485463
Si Si4 0.731344 0.394519 0.318715
Si Si5 0.434636 0.184991 0.436598
O O1 0.748214 0.309440 0.080428
O O2 0.975815 0.351666 0.174981
O O3 0.788096 0.247903 0.737304
O O4 0.000000 0.000000 0.000000
O O5 0.894273 0.408340 0.545887
O O6 0.741091 0.768683 0.780879
O O7 0.000000 0.500000 0.000000
O O8 0.500000 0.500000 0.500000
O O9 0.707360 0.244025 0.325766
O O10 0.562886 0.139529 0.372898
O O11 0.582587 0.619280 0.337003
O O12 0.500000 0.000000 0.500000
#
# Coordination Sequence:
#
# PCOD8000778 Si02
#       5
#     2   2   2   2   2
#     4  12  23  38  63  88 117 157 201 241 284 348
#     4  10  19  40  60  84 121 155 189 243 293 345
#     4  10  20  40  60  85 122 152 193 242 292 348
#     4   9  22  38  64  83 121 156 195 234 303 339
#     4   9  19  36  61  88 118 148 194 242 289 349
#
# _framework density 20.833763999999999
#
# number of rings (size 3 to 8) (size 9 to 14) (size 15 to 20)
#    1.200    0.800    2.000    1.800    0.000    4.000 
#    0.000    0.000    0.000    6.000    0.000    0.000 
#    0.000    0.000    0.000    0.000    0.000    0.000 
#
# Total GULP energy -123894.127526 kJ/mol
# GULP energy per Si atom -12389.412753 kJ/mol
# Density = 2.078635 g / cm^3
# Si number density = 20.833764 Si / 1000 Ang^3
#
#
#
# Elastic Constant Matrix: (Units=GPa)
#
#
# Indices 1 2 3 4 5 6 
#
# 1 155.9486 37.6419 34.1980 -18.0985 -18.8411 31.3003
# 2 37.6419 95.8048 31.8566 -34.0985 -15.0521 10.7054
# 3 34.1980 31.8566 56.9694 -26.1587 -8.8416 -0.8299
# 4 -18.0985 -34.0985 -26.1587 31.5107 -6.8123 -5.8252
# 5 -18.8411 -15.0521 -8.8416 -6.8123 41.6909 -12.5979
# 6 31.3003 10.7054 -0.8299 -5.8252 -12.5979 33.7166
#
#
#
# Elastic Compliance Matrix: (Units=1/GPa)
#
#
# Indices 1 2 3 4 5 6 
#
# 1 0.009848 -0.002632 -0.007673 -0.005958 -0.002230 -0.010359
# 2 -0.002632 0.023070 0.007054 0.034224 0.016449 0.007351
# 3 -0.007673 0.007054 0.045634 0.050760 0.024255 0.023839
# 4 -0.005958 0.034224 0.050760 0.125625 0.052170 0.037111
# 5 -0.002230 0.016449 0.024255 0.052170 0.050205 0.025217
# 6 -0.010359 0.007351 0.023839 0.037111 0.025217 0.053362
#
#
# Mechanical properties :
#
#
# Convention : Reuss Voigt Hill
#
# Bulk Modulus (GPa) = 13.87907 57.34619 35.61263
# Shear Modulus (GPa) = 14.78138 35.05207 24.91672
#
# Velocity S-wave (km/s) = 2.66652 4.10624 3.46204
# Velocity P-wave (km/s) = 4.01954 7.07580 5.75429
#
# Compressibility (1/GPa) = 0.07205095
#
# Stress axis : x y z
#
# Youngs Moduli (GPa) = 101.53997 43.34571 21.91353
#
# Poissons Ratio (x) = 0.11406 0.16815
# Poissons Ratio (y) = 0.26720 -0.15458
# Poissons Ratio (z) = 0.77914 -0.30576
#
# Static dielectric constant tensor:
#      x y z
#    x 3.911960 0.439800 -0.075030 
#    y 0.439800 3.579720 -0.257260 
#    z -0.075030 -0.257260 3.476900 
# 
# 
# High freq. dielectric constant tensor:
#      x y z
#    x 1.837500 0.019310 0.004430 
#    y 0.019310 1.789790 -0.034370 
#    z 0.004430 -0.034370 1.794310 
# 
# From -- ./inp_files/41052.got.cif
#   From: 2010.06.25/outbox.cif.g09.slc.cpg/sg2_21_cif.got.tgz:41052.got - 2010.06.27 13:26:56.
