data_PCOD8000880
_publ_section_title
;
Structure prediction by ZEFSAII (Michael W. Deem and Ramdas Pophale) SiO2 
 PCOD8000880
Probable space group: P -1
;
_chemical_formula_sum "Si O2"
_cell_formula_units_Z 14
_cell_length_a 8.521835
_cell_length_b 11.786053
_cell_length_c 9.989547
_cell_angle_alpha 43.543679
_cell_angle_beta 110.539123
_cell_angle_gamma 106.966760
_cell_volume 646.174119
_symmetry_space_group_name_H-M "P -1"
_symmetry_group_IT_number 2
_symmetry_cell_setting 'triclinic'
loop_
_space_group_symop_operation_xyz
x,y,z
-x,-y,-z
loop_
_atom_site_type_symbol
_atom_site_label
_atom_site_fract_x
_atom_site_fract_y
_atom_site_fract_z
Si Si1 0.438344 0.367506 0.702628
Si Si2 0.198018 0.785160 0.438342
Si Si3 0.162585 0.236769 0.350956
Si Si4 0.953599 0.038219 0.265235
Si Si5 0.255143 0.792816 0.153748
Si Si6 0.491360 0.592034 0.779558
Si Si7 0.110504 0.425527 0.430795
O O1 0.500000 0.500000 0.500000
O O2 0.560984 0.216566 0.852700
O O3 0.452819 0.447925 0.783593
O O4 0.246202 0.320129 0.643734
O O5 0.273513 0.852882 0.261473
O O6 0.346564 0.721624 0.628392
O O7 0.067630 0.625988 0.509752
O O8 0.108733 0.929716 0.363614
O O9 0.340352 0.298153 0.292662
O O10 0.099179 0.373302 0.316147
O O11 0.030329 0.205359 0.216223
O O12 0.170175 0.063240 0.582108
O O13 0.848887 0.079046 0.068347
O O14 0.151468 0.618390 0.277217
O O15 0.500000 0.500000 0.000000
#
# Coordination Sequence:
#
# PCOD8000880 Si02
#       7
#     2   2   2   2   2   2   2
#     4  10  19  40  64  96 123 164 211 274 313 364
#     4  11  23  41  61 100 133 165 208 272 316 382
#     4  10  22  46  59  91 134 168 216 260 315 384
#     4  10  25  40  64  92 135 176 204 254 330 387
#     4  11  20  39  70  92 125 166 220 258 318 382
#     4  12  25  40  68  98 127 165 219 272 323 366
#     4  10  20  38  71  90 127 164 217 272 311 361
#
# _framework density 21.665987999999999
#
# number of rings (size 3 to 8) (size 9 to 14) (size 15 to 20)
#    0.000    1.429    5.714    0.857    2.000    4.571 
#    0.000    7.857    0.000    0.000    0.000    0.000 
#    0.000    0.000    0.000    0.000    0.000    0.000 
#
# Total GULP energy -173559.201960 kJ/mol
# GULP energy per Si atom -12397.085854 kJ/mol
# Density = 2.161668 g / cm^3
# Si number density = 21.665988 Si / 1000 Ang^3
#
#
#
# Elastic Constant Matrix: (Units=GPa)
#
#
# Indices 1 2 3 4 5 6 
#
# 1 107.6108 8.8967 54.5049 -1.4243 -1.1370 -7.1476
# 2 8.8967 63.4544 28.0385 12.6395 -8.2098 -12.1784
# 3 54.5049 28.0385 143.6608 23.0463 13.0924 -15.8282
# 4 -1.4243 12.6395 23.0463 28.5396 -3.9698 -2.5368
# 5 -1.1370 -8.2098 13.0924 -3.9698 26.4650 -3.9058
# 6 -7.1476 -12.1784 -15.8282 -2.5368 -3.9058 32.7671
#
#
#
# Elastic Compliance Matrix: (Units=1/GPa)
#
#
# Indices 1 2 3 4 5 6 
#
# 1 0.012589 0.000577 -0.006207 0.006152 0.004863 0.001018
# 2 0.000577 0.020507 -0.003546 -0.004416 0.008467 0.006702
# 3 -0.006207 -0.003546 0.012594 -0.010002 -0.008864 0.001581
# 4 0.006152 -0.004416 -0.010002 0.046868 0.010842 -0.000210
# 5 0.004863 0.008467 -0.008864 0.010842 0.047583 0.006437
# 6 0.001018 0.006702 0.001581 -0.000210 0.006437 0.034746
#
#
# Mechanical properties :
#
#
# Convention : Reuss Voigt Hill
#
# Bulk Modulus (GPa) = 36.57873 55.28957 45.93415
# Shear Modulus (GPa) = 24.70938 32.44006 28.57472
#
# Velocity S-wave (km/s) = 3.38075 3.87367 3.63557
# Velocity P-wave (km/s) = 5.67088 6.75141 6.23460
#
# Compressibility (1/GPa) = 0.02733829
#
# Stress axis : x y z
#
# Youngs Moduli (GPa) = 79.43241 48.76441 79.40063
#
# Poissons Ratio (x) = -0.02813 0.49283
# Poissons Ratio (y) = -0.04581 0.28155
# Poissons Ratio (z) = 0.49303 0.17291
#
# Static dielectric constant tensor:
#      x y z
#    x 4.520490 0.045290 0.249960 
#    y 0.045290 3.860680 0.221500 
#    z 0.249960 0.221500 3.911190 
# 
# 
# High freq. dielectric constant tensor:
#      x y z
#    x 1.856610 -0.003880 -0.001200 
#    y -0.003880 1.849400 0.016950 
#    z -0.001200 0.016950 1.837390 
# 
# From -- ./inp_files/174530.got.cif
#   From: 2010.06.25/outbox.cif.g09.slc.cpg/sg2_88_cif.got.tgz:174530.got - 2010.06.27 13:26:56.
