data_PCOD8000432
_publ_section_title
;
Structure prediction by ZEFSAII (Michael W. Deem and Ramdas Pophale) SiO2 
 PCOD8000432
Probable space group: P -1
;
_chemical_formula_sum "Si O2"
_cell_formula_units_Z 16
_cell_length_a 9.402707
_cell_length_b 33.517589
_cell_length_c 16.689303
_cell_angle_alpha 17.116709
_cell_angle_beta 136.517680
_cell_angle_gamma 144.138015
_cell_volume 869.585477
_symmetry_space_group_name_H-M "P -1"
_symmetry_group_IT_number 2
_symmetry_cell_setting 'triclinic'
loop_
_space_group_symop_operation_xyz
x,y,z
-x,-y,-z
loop_
_atom_site_type_symbol
_atom_site_label
_atom_site_fract_x
_atom_site_fract_y
_atom_site_fract_z
Si Si1 0.296029 0.039231 0.342050
Si Si2 0.611069 0.959658 0.049565
Si Si3 0.516396 0.390775 0.328283
Si Si4 0.191879 0.115596 0.988687
Si Si5 0.743427 0.129072 0.617981
Si Si6 0.914714 0.685831 0.822672
Si Si7 0.384641 0.728670 0.843725
Si Si8 0.706121 0.601651 0.618236
O O1 0.356234 0.152746 0.226845
O O2 0.500000 0.000000 0.500000
O O3 0.328632 0.141909 0.078482
O O4 0.020745 0.862704 0.569311
O O5 0.462618 0.762446 0.359403
O O6 0.500000 0.000000 0.000000
O O7 0.575366 0.030354 0.816767
O O8 0.904668 0.047662 0.017233
O O9 0.279581 0.340729 0.272998
O O10 0.484189 0.449688 0.287472
O O11 0.780261 0.541590 0.110168
O O12 0.337878 0.291690 0.666045
O O13 0.192193 0.982239 0.190380
O O14 0.588800 0.177192 0.408665
O O15 0.005618 0.297274 0.428215
O O16 0.138209 0.685555 0.873716
O O17 0.363480 0.562481 0.138999
#
# Coordination Sequence:
#
# PCOD8000432 Si02
#       8
#     2   2   2   2   2   2   2   2
#     4  10  19  39  62  82 112 157 204 228 277 346
#     4  11  22  34  58  90 118 151 185 243 297 341
#     4  11  20  35  56  85 122 145 182 244 307 330
#     4  11  19  39  62  83 117 156 193 234 287 349
#     4  11  19  37  61  86 117 150 197 233 290 345
#     4  10  21  34  58  84 116 149 189 241 289 343
#     4  11  22  36  61  88 111 155 201 235 272 348
#     4  11  21  34  57  88 118 145 188 250 289 332
#
# _framework density 18.399571999999999
#
# number of rings (size 3 to 8) (size 9 to 14) (size 15 to 20)
#    0.000    1.250    7.500    1.125    3.500    1.500 
#    0.000    0.625    0.000    3.750    0.000    0.000 
#    0.000    0.000    0.000    0.000    0.000    0.000 
#
# Total GULP energy -198410.270770 kJ/mol
# GULP energy per Si atom -12400.641923 kJ/mol
# Density = 1.835769 g / cm^3
# Si number density = 18.399572 Si / 1000 Ang^3
#
#
#
# Elastic Constant Matrix: (Units=GPa)
#
#
# Indices 1 2 3 4 5 6 
#
# 1 69.2853 23.9526 42.3467 -11.5594 -9.4799 -17.8311
# 2 23.9526 103.4741 56.4944 5.1968 -4.3506 -26.0673
# 3 42.3467 56.4944 137.8437 -4.9050 -8.3798 -21.3360
# 4 -11.5594 5.1968 -4.9050 28.5013 -14.7440 2.1014
# 5 -9.4799 -4.3506 -8.3798 -14.7440 38.0504 -1.7046
# 6 -17.8311 -26.0673 -21.3360 2.1014 -1.7046 24.3100
#
#
#
# Elastic Compliance Matrix: (Units=1/GPa)
#
#
# Indices 1 2 3 4 5 6 
#
# 1 0.024399 -0.000190 -0.004128 0.013999 0.011184 0.013644
# 2 -0.000190 0.015736 -0.004578 -0.005018 -0.000614 0.013107
# 3 -0.004128 -0.004578 0.010785 0.001710 0.001553 0.001490
# 4 0.013999 -0.005018 0.001710 0.054410 0.024526 0.003405
# 5 0.011184 -0.000614 0.001553 0.024526 0.039270 0.009541
# 6 0.013644 0.013107 0.001490 0.003405 0.009541 0.066880
#
#
# Mechanical properties :
#
#
# Convention : Reuss Voigt Hill
#
# Bulk Modulus (GPa) = 30.18604 61.79892 45.99248
# Shear Modulus (GPa) = 20.80625 30.69297 25.74961
#
# Velocity S-wave (km/s) = 3.36639 4.08871 3.74500
# Velocity P-wave (km/s) = 5.61707 7.47998 6.61444
#
# Compressibility (1/GPa) = 0.03312790
#
# Stress axis : x y z
#
# Youngs Moduli (GPa) = 40.98569 63.54944 92.72328
#
# Poissons Ratio (x) = 0.01207 0.38274
# Poissons Ratio (y) = 0.00779 0.42449
# Poissons Ratio (z) = 0.16918 0.29093
#
# Static dielectric constant tensor:
#      x y z
#    x 3.267950 -0.281370 -0.116640 
#    y -0.281370 3.839870 -0.129460 
#    z -0.116640 -0.129460 3.880430 
# 
# 
# High freq. dielectric constant tensor:
#      x y z
#    x 1.696400 -0.020250 -0.002250 
#    y -0.020250 1.699270 0.008320 
#    z -0.002250 0.008320 1.730570 
# 
# From -- ./inp_files/218943.got.cif
#   From: 2010.06.25/outbox.cif.g09.slc.cpg/sg2_110_cif.got.tgz:218943.got - 2010.06.27 13:26:56.
