data_PCOD8000445
_publ_section_title
;
Structure prediction by ZEFSAII (Michael W. Deem and Ramdas Pophale) SiO2 
 PCOD8000445
Probable space group: P -1
;
_chemical_formula_sum "Si O2"
_cell_formula_units_Z 16
_cell_length_a 25.935644
_cell_length_b 15.823801
_cell_length_c 9.925208
_cell_angle_alpha 137.858513
_cell_angle_beta 151.646188
_cell_angle_gamma 24.178893
_cell_volume 751.913341
_symmetry_space_group_name_H-M "P -1"
_symmetry_group_IT_number 2
_symmetry_cell_setting 'triclinic'
loop_
_space_group_symop_operation_xyz
x,y,z
-x,-y,-z
loop_
_atom_site_type_symbol
_atom_site_label
_atom_site_fract_x
_atom_site_fract_y
_atom_site_fract_z
Si Si1 0.804978 0.249893 0.381406
Si Si2 0.355290 0.961514 0.907558
Si Si3 0.545298 0.407000 0.206791
Si Si4 0.836403 0.460923 0.861291
Si Si5 0.291392 0.311246 0.744405
Si Si6 0.548544 0.661128 0.639054
Si Si7 0.201537 0.135494 0.473711
Si Si8 0.931718 0.619465 0.124425
O O1 0.705452 0.273805 0.305275
O O2 0.861831 0.338454 0.654152
O O3 0.663062 0.387698 0.092127
O O4 0.000000 0.000000 0.500000
O O5 0.421217 0.756823 0.837770
O O6 0.211384 0.113336 0.631113
O O7 0.241719 0.116701 0.963560
O O8 0.538626 0.872129 0.187759
O O9 0.561748 0.497004 0.468298
O O10 0.633530 0.634770 0.665196
O O11 0.846477 0.589500 0.980344
O O12 0.992657 0.296717 0.142115
O O13 0.263652 0.216583 0.664928
O O14 0.107807 0.516597 0.480303
O O15 0.342527 0.386347 0.037727
O O16 0.334268 0.907688 0.438968
O O17 0.000000 0.500000 0.000000
#
# Coordination Sequence:
#
# PCOD8000445 Si02
#       8
#     2   2   2   2   2   2   2   2
#     4  10  22  42  63  83 124 167 208 244 296 366
#     4  11  23  40  62  90 132 154 203 262 300 357
#     4  10  24  39  60  95 120 163 207 249 302 362
#     4  10  21  38  63  87 116 164 206 247 304 360
#     4  10  22  39  64  92 123 160 203 250 311 365
#     4  10  19  39  62  88 119 155 204 249 306 360
#     4  10  20  38  64  94 120 159 202 251 310 361
#     4  11  25  40  58  92 124 162 206 250 307 367
#
# _framework density 21.279049000000001
#
# number of rings (size 3 to 8) (size 9 to 14) (size 15 to 20)
#    0.000    1.750    0.000    4.500    3.500    4.500 
#    4.500    5.625    0.000    0.000    0.000    0.000 
#    0.000    0.000    0.000    0.000    0.000    0.000 
#
# Total GULP energy -198360.887190 kJ/mol
# GULP energy per Si atom -12397.555449 kJ/mol
# Density = 2.123062 g / cm^3
# Si number density = 21.279049 Si / 1000 Ang^3
#
#
#
# Elastic Constant Matrix: (Units=GPa)
#
#
# Indices 1 2 3 4 5 6 
#
# 1 66.7525 44.2994 26.9494 -2.7575 -5.4396 -9.5049
# 2 44.2994 130.5886 45.7903 2.2487 -2.7540 -21.4624
# 3 26.9494 45.7903 84.7938 8.3364 2.8023 6.1204
# 4 -2.7575 2.2487 8.3364 27.5310 -4.8456 0.3495
# 5 -5.4396 -2.7540 2.8023 -4.8456 18.0865 -4.0100
# 6 -9.5049 -21.4624 6.1204 0.3495 -4.0100 37.1208
#
#
#
# Elastic Compliance Matrix: (Units=1/GPa)
#
#
# Indices 1 2 3 4 5 6 
#
# 1 0.022072 -0.004527 -0.005831 0.005964 0.009552 0.004971
# 2 -0.004527 0.012633 -0.006124 0.000874 0.003411 0.007515
# 3 -0.005831 -0.006124 0.018641 -0.007292 -0.009539 -0.009069
# 4 0.005964 0.000874 -0.007292 0.041678 0.015217 0.004486
# 5 0.009552 0.003411 -0.009539 0.015217 0.067142 0.013101
# 6 0.004971 0.007515 -0.009069 0.004486 0.013101 0.035425
#
#
# Mechanical properties :
#
#
# Convention : Reuss Voigt Hill
#
# Bulk Modulus (GPa) = 49.06688 57.35703 53.21195
# Shear Modulus (GPa) = 21.06611 27.55404 24.31007
#
# Velocity S-wave (km/s) = 3.14983 3.60236 3.38367
# Velocity P-wave (km/s) = 6.02805 6.65702 6.35033
#
# Compressibility (1/GPa) = 0.02038035
#
# Stress axis : x y z
#
# Youngs Moduli (GPa) = 45.30671 79.15969 53.64639
#
# Poissons Ratio (x) = 0.35835 0.31282
# Poissons Ratio (y) = 0.20510 0.32854
# Poissons Ratio (z) = 0.26419 0.48479
#
# Static dielectric constant tensor:
#      x y z
#    x 3.643530 -0.137400 0.269020 
#    y -0.137400 3.867000 -0.054160 
#    z 0.269020 -0.054160 3.825510 
# 
# 
# High freq. dielectric constant tensor:
#      x y z
#    x 1.827970 -0.017830 0.010560 
#    y -0.017830 1.840710 0.001060 
#    z 0.010560 0.001060 1.837540 
# 
# From -- ./inp_files/354602.got.cif
#   From: 2010.06.25/outbox.cif.g09.slc.cpg/sg2_178_cif.got.tgz:354602.got - 2010.06.27 13:26:56.
