data_PCOD8000948
_publ_section_title
;
Structure prediction by ZEFSAII (Michael W. Deem and Ramdas Pophale) SiO2 
 PCOD8000948
Probable space group: P -1
;
_chemical_formula_sum "Si O2"
_cell_formula_units_Z 14
_cell_length_a 22.386575
_cell_length_b 10.146247
_cell_length_c 9.316024
_cell_angle_alpha 29.605960
_cell_angle_beta 46.516353
_cell_angle_gamma 43.208761
_cell_volume 706.404585
_symmetry_space_group_name_H-M "P -1"
_symmetry_group_IT_number 2
_symmetry_cell_setting 'triclinic'
loop_
_space_group_symop_operation_xyz
x,y,z
-x,-y,-z
loop_
_atom_site_type_symbol
_atom_site_label
_atom_site_fract_x
_atom_site_fract_y
_atom_site_fract_z
Si Si1 0.211398 0.466834 0.391459
Si Si2 0.925630 0.992767 0.521188
Si Si3 0.324450 0.858989 0.797877
Si Si4 0.181943 0.383954 0.848732
Si Si5 0.625690 0.942043 0.171271
Si Si6 0.513717 0.545874 0.766811
Si Si7 0.024282 0.738181 0.313218
O O1 0.179793 0.454367 0.617288
O O2 0.128240 0.626117 0.278810
O O3 0.261207 0.144957 0.549583
O O4 0.276235 0.640968 0.116828
O O5 0.968103 0.822554 0.470494
O O6 0.864694 0.318014 0.272470
O O7 0.868799 0.832819 0.843614
O O8 0.000000 0.000000 0.500000
O O9 0.415970 0.689826 0.720685
O O10 0.349774 0.977485 0.789928
O O11 0.281037 0.237175 0.889136
O O12 0.566881 0.751360 0.461717
O O13 0.569676 0.233922 0.901279
O O14 0.500000 0.500000 0.000000
O O15 0.000000 0.500000 0.500000
O O16 0.000000 0.000000 0.000000
#
# Coordination Sequence:
#
# PCOD8000948 Si02
#       7
#     2   2   2   2   2   2   2
#     4  11  21  35  56  80 114 149 198 238 284 341
#     4  12  24  39  63  84 115 150 203 241 284 355
#     4  10  18  29  49  76 110 156 192 225 276 353
#     4  11  21  35  57  86 114 149 199 236 286 339
#     4  10  18  27  46  74 116 148 182 229 282 339
#     4  10  16  27  42  71 114 155 182 215 285 347
#     4  12  27  43  60  84 119 154 194 248 299 337
#
# _framework density 19.818670000000001
#
# number of rings (size 3 to 8) (size 9 to 14) (size 15 to 20)
#    0.000    1.143    1.429   10.714    2.000    0.000 
#    0.000    0.000    0.000    0.000    0.000    0.000 
#    0.000   80.000    0.000    0.000    0.000    0.000 
#
# Total GULP energy -173567.027461 kJ/mol
# GULP energy per Si atom -12397.644819 kJ/mol
# Density = 1.977356 g / cm^3
# Si number density = 19.818670 Si / 1000 Ang^3
#
#
#
# Elastic Constant Matrix: (Units=GPa)
#
#
# Indices 1 2 3 4 5 6 
#
# 1 78.6875 58.1908 49.2543 4.9032 -7.2915 -27.3722
# 2 58.1908 116.2762 42.7999 -22.0299 -3.3178 -31.5455
# 3 49.2543 42.7999 152.8011 -12.5628 -31.5778 -18.1772
# 4 4.9032 -22.0299 -12.5628 37.0228 -12.4920 3.6918
# 5 -7.2915 -3.3178 -31.5778 -12.4920 38.1971 -3.3552
# 6 -27.3722 -31.5455 -18.1772 3.6918 -3.3552 41.8455
#
#
#
# Elastic Compliance Matrix: (Units=1/GPa)
#
#
# Indices 1 2 3 4 5 6 
#
# 1 0.031929 -0.014801 -0.008531 -0.019316 -0.007938 0.007089
# 2 -0.014801 0.019853 0.002669 0.016481 0.006983 0.005549
# 3 -0.008531 0.002669 0.012219 0.010877 0.012417 0.001775
# 4 -0.019316 0.016481 0.010877 0.050812 0.023522 0.001917
# 5 -0.007938 0.006983 0.012417 0.023522 0.043836 0.006905
# 6 0.007089 0.005549 0.001775 0.001917 0.006905 0.033873
#
#
# Mechanical properties :
#
#
# Convention : Reuss Voigt Hill
#
# Bulk Modulus (GPa) = 44.10860 72.02832 58.06846
# Shear Modulus (GPa) = 20.71203 36.58107 28.64655
#
# Velocity S-wave (km/s) = 3.23627 4.30092 3.80601
# Velocity P-wave (km/s) = 6.02238 7.81579 6.97694
#
# Compressibility (1/GPa) = 0.02267132
#
# Stress axis : x y z
#
# Youngs Moduli (GPa) = 31.31996 50.37107 81.84301
#
# Poissons Ratio (x) = 0.74556 0.69823
# Poissons Ratio (y) = 0.46358 -0.21840
# Poissons Ratio (z) = 0.26720 -0.13442
#
# Static dielectric constant tensor:
#      x y z
#    x 3.842240 -1.447370 0.311040 
#    y -1.447370 4.772050 -0.860140 
#    z 0.311040 -0.860140 3.774410 
# 
# 
# High freq. dielectric constant tensor:
#      x y z
#    x 1.745330 -0.054000 -0.021500 
#    y -0.054000 1.769460 -0.028330 
#    z -0.021500 -0.028330 1.789680 
# 
# From -- ./inp_files/343171.got.cif
#   From: 2010.06.25/outbox.cif.g09.slc.cpg/sg2_172_cif.got.tgz:343171.got - 2010.06.27 13:26:56.
