data_PCOD8000082
_publ_section_title
;
Structure prediction by ZEFSAII (Michael W. Deem and Ramdas Pophale) SiO2 
 PCOD8000082
Probable space group: P 1
;
_chemical_formula_sum "Si O2"
_cell_formula_units_Z 8
_cell_length_a 5.648414
_cell_length_b 11.452433
_cell_length_c 13.921636
_cell_angle_alpha 150.475149
_cell_angle_beta 60.427759
_cell_angle_gamma 126.330224
_cell_volume 356.982768
_symmetry_space_group_name_H-M "P 1"
_symmetry_group_IT_number 1
_symmetry_cell_setting 'triclinic'
loop_
_space_group_symop_operation_xyz
x,y,z
loop_
_atom_site_type_symbol
_atom_site_label
_atom_site_fract_x
_atom_site_fract_y
_atom_site_fract_z
Si Si1 0.447980 0.442160 0.009020
Si Si2 0.379405 0.706831 0.391070
Si Si3 0.401240 0.631507 0.546974
Si Si4 0.894071 0.247522 0.696668
Si Si5 0.656209 0.871981 0.138234
Si Si6 0.305762 0.086916 0.220711
Si Si7 0.080960 0.679526 0.827115
Si Si8 0.020946 0.012702 0.672797
O O1 0.426166 0.493835 0.162798
O O2 0.426087 0.674638 0.116696
O O3 0.757611 0.424850 0.908705
O O4 0.190890 0.169130 0.842983
O O5 0.289017 0.584505 0.426701
O O6 0.663684 0.969132 0.514649
O O7 0.104898 0.771514 0.456757
O O8 0.482283 0.389832 0.387385
O O9 0.162186 0.670111 0.693153
O O10 0.677856 0.901091 0.686682
O O11 0.057723 0.408944 0.686814
O O12 0.113466 0.201682 0.697068
O O13 0.464819 0.019858 0.233900
O O14 0.952135 0.042294 0.263634
O O15 0.770279 0.720111 0.925668
O O16 0.333902 0.912042 0.000425
#
# Coordination Sequence:
#
# PCOD8000082 Si02
#       8
#     1   1   1   1   1   1   1   1
#     4  10  21  41  68  90 129 169 218 279 326 389
#     4  10  24  40  61  93 128 175 216 270 326 394
#     4  11  25  42  61  96 135 179 217 267 330 405
#     4   9  20  41  64  93 120 159 226 271 331 380
#     4   9  22  44  69 101 128 170 224 277 334 381
#     4  10  23  42  65 101 135 171 216 275 332 396
#     4   9  22  40  68  94 131 172 218 278 327 392
#     4  10  23  40  62  92 130 169 221 267 328 397
#
# _framework density 22.410046999999999
#
# number of rings (size 3 to 8) (size 9 to 14) (size 15 to 20)
#    0.750    1.500    0.000    0.750    3.500    8.000 
#    0.000    0.000    0.000    0.000    0.000    0.000 
#    0.000    0.000    0.000    0.000    0.000    0.000 
#
# Total GULP energy -99111.133240 kJ/mol
# GULP energy per Si atom -12388.891655 kJ/mol
# Density = 2.235904 g / cm^3
# Si number density = 22.410047 Si / 1000 Ang^3
#
#
#
# Elastic Constant Matrix: (Units=GPa)
#
#
# Indices 1 2 3 4 5 6 
#
# 1 95.9799 17.9244 14.1142 -2.2049 -9.0848 -16.0222
# 2 17.9244 93.0586 21.6962 -11.4063 -0.6754 -9.1940
# 3 14.1142 21.6962 63.8086 -9.8277 8.2328 -6.0623
# 4 -2.2049 -11.4063 -9.8277 40.7703 -8.9451 -2.1868
# 5 -9.0848 -0.6754 8.2328 -8.9451 25.6289 9.9846
# 6 -16.0222 -9.1940 -6.0623 -2.1868 9.9846 27.3682
#
#
#
# Elastic Compliance Matrix: (Units=1/GPa)
#
#
# Indices 1 2 3 4 5 6 
#
# 1 0.012130 -0.001227 -0.002072 0.000793 0.003215 0.005121
# 2 -0.001227 0.012391 -0.003374 0.002945 0.001003 0.002566
# 3 -0.002072 -0.003374 0.019131 0.002020 -0.008234 0.005057
# 4 0.000793 0.002945 0.002020 0.027931 0.009149 0.000795
# 5 0.003215 0.001003 -0.008234 0.009149 0.053136 -0.018259
# 6 0.005121 0.002566 0.005057 0.000795 -0.018259 0.048243
#
#
# Mechanical properties :
#
#
# Convention : Reuss Voigt Hill
#
# Bulk Modulus (GPa) = 32.99631 40.03517 36.51574
# Shear Modulus (GPa) = 25.45691 32.02763 28.74227
#
# Velocity S-wave (km/s) = 3.37406 3.78453 3.58517
# Velocity P-wave (km/s) = 5.47128 6.08280 5.78513
#
# Compressibility (1/GPa) = 0.03030642
#
# Stress axis : x y z
#
# Youngs Moduli (GPa) = 82.44015 80.70660 52.27032
#
# Poissons Ratio (x) = 0.09901 0.10831
# Poissons Ratio (y) = 0.10114 0.17635
# Poissons Ratio (z) = 0.17082 0.27229
#
# Static dielectric constant tensor:
#      x y z
#    x 3.924350 -0.114490 -0.054830 
#    y -0.114490 3.925400 0.230580 
#    z -0.054830 0.230580 3.884950 
# 
# 
# High freq. dielectric constant tensor:
#      x y z
#    x 1.865630 -0.011370 -0.000620 
#    y -0.011370 1.874020 0.018200 
#    z -0.000620 0.018200 1.876050 
# 
# From -- ./inp_files/2189.got.cif
#   From: 2010.03.12/outbox.cif.g09.slc.cpg/sg1_2_cif.got.tgz:2189.got - 2010.03.29 11:57:58.
