data_PCOD8000006
_publ_section_title
;
Structure prediction by ZEFSAII (Michael W. Deem and Ramdas Pophale) SiO2 
 PCOD8000006
Probable space group: P 1
;
_chemical_formula_sum "Si O2"
_cell_formula_units_Z 8
_cell_length_a 9.101888
_cell_length_b 9.401960
_cell_length_c 9.359488
_cell_angle_alpha 64.801355
_cell_angle_beta 131.807090
_cell_angle_gamma 81.888366
_cell_volume 419.511309
_symmetry_space_group_name_H-M "P 1"
_symmetry_group_IT_number 1
_symmetry_cell_setting 'triclinic'
loop_
_space_group_symop_operation_xyz
x,y,z
loop_
_atom_site_type_symbol
_atom_site_label
_atom_site_fract_x
_atom_site_fract_y
_atom_site_fract_z
Si Si1 0.140670 0.518920 0.773260
Si Si2 0.396347 0.742057 0.506500
Si Si3 0.123190 0.587908 0.294069
Si Si4 0.702811 0.784156 0.160037
Si Si5 0.471120 0.229207 0.865806
Si Si6 0.322891 0.764571 0.765182
Si Si7 0.955227 0.505077 0.949956
Si Si8 0.994541 0.133148 0.215888
O O1 0.373164 0.328620 0.916564
O O2 0.192171 0.674741 0.781697
O O3 0.878953 0.638226 0.465392
O O4 0.115079 0.434414 0.938671
O O5 0.312818 0.640572 0.395113
O O6 0.446831 0.653497 0.739807
O O7 0.658702 0.682661 0.644036
O O8 0.171753 0.984605 0.262040
O O9 0.255289 0.371198 0.546892
O O10 0.870993 0.759482 0.146221
O O11 0.051222 0.590444 0.083578
O O12 0.531157 0.722798 0.028549
O O13 0.528270 0.015776 0.998135
O O14 0.713557 0.208256 0.984829
O O15 0.113240 0.006963 0.495724
O O16 0.994912 0.319704 0.133195
#
# Coordination Sequence:
#
# PCOD8000006 Si02
#       8
#     1   1   1   1   1   1   1   1
#     4  11  25  40  57  93 127 155 187 253 305 344
#     4  10  20  38  64  86 115 158 200 247 283 349
#     4  11  20  36  64  93 111 159 203 246 287 349
#     4  11  20  39  66  88 113 157 211 239 288 354
#     4  11  19  39  67  83 120 157 204 245 281 359
#     4  10  19  41  64  87 111 162 204 239 286 354
#     4  12  24  38  61  92 127 151 193 250 307 344
#     4  10  19  39  63  88 114 157 204 241 287 349
#
# _framework density 19.069807000000001
#
# number of rings (size 3 to 8) (size 9 to 14) (size 15 to 20)
#    0.750    0.500    7.500    0.750    0.000    2.000 
#    0.000    0.000    0.000    0.000    0.000    0.000 
#    0.000    0.000    0.000    0.000    0.000    0.000 
#
# Total GULP energy -99186.550431 kJ/mol
# GULP energy per Si atom -12398.318804 kJ/mol
# Density = 1.902640 g / cm^3
# Si number density = 19.069807 Si / 1000 Ang^3
#
#
#
# Elastic Constant Matrix: (Units=GPa)
#
#
# Indices 1 2 3 4 5 6 
#
# 1 82.6756 35.8217 37.7327 9.5198 9.8329 -6.8121
# 2 35.8217 109.0974 55.5513 13.8469 11.1110 2.0147
# 3 37.7327 55.5513 81.6108 11.2982 18.1785 1.1373
# 4 9.5198 13.8469 11.2982 40.3640 0.0856 11.7937
# 5 9.8329 11.1110 18.1785 0.0856 24.1649 3.4133
# 6 -6.8121 2.0147 1.1373 11.7937 3.4133 30.4125
#
#
#
# Elastic Compliance Matrix: (Units=1/GPa)
#
#
# Indices 1 2 3 4 5 6 
#
# 1 0.016587 -0.002215 -0.005197 -0.003341 -0.002607 0.005645
# 2 -0.002215 0.014528 -0.008809 -0.001847 0.000927 -0.000517
# 3 -0.005197 -0.008809 0.023605 -0.002584 -0.011703 0.000852
# 4 -0.003341 -0.001847 -0.002584 0.030738 0.005895 -0.013111
# 5 -0.002607 0.000927 -0.011703 0.005895 0.051976 -0.008327
# 6 0.005645 -0.000517 0.000852 -0.013111 -0.008327 0.040167
#
#
# Mechanical properties :
#
#
# Convention : Reuss Voigt Hill
#
# Bulk Modulus (GPa) = 44.88501 59.06612 51.97557
# Shear Modulus (GPa) = 22.99195 28.60681 25.79938
#
# Velocity S-wave (km/s) = 3.47605 3.87733 3.68216
# Velocity P-wave (km/s) = 6.30070 7.14743 6.73738
#
# Compressibility (1/GPa) = 0.02227915
#
# Stress axis : x y z
#
# Youngs Moduli (GPa) = 60.28916 68.83167 42.36432
#
# Poissons Ratio (x) = 0.15244 0.22016
# Poissons Ratio (y) = 0.13352 0.37318
# Poissons Ratio (z) = 0.31331 0.60633
#
# Static dielectric constant tensor:
#      x y z
#    x 3.184760 -0.019910 0.275160 
#    y -0.019910 3.446780 -0.034890 
#    z 0.275160 -0.034890 3.427380 
# 
# 
# High freq. dielectric constant tensor:
#      x y z
#    x 1.714980 0.004210 0.025720 
#    y 0.004210 1.744590 -0.001590 
#    z 0.025720 -0.001590 1.734280 
# 
# From -- ./inp_files/4224.got.cif
#   From: 2010.03.12/outbox.cif.g09.slc.cpg/sg1_3_cif.got.tgz:4224.got - 2010.03.29 11:57:58.
