data_PCOD8000024
_publ_section_title
;
Structure prediction by ZEFSAII (Michael W. Deem and Ramdas Pophale) SiO2 
 PCOD8000024
Probable space group: P 1
;
_chemical_formula_sum "Si O2"
_cell_formula_units_Z 6
_cell_length_a 15.722858
_cell_length_b 5.183075
_cell_length_c 10.550259
_cell_angle_alpha 119.424574
_cell_angle_beta 155.640564
_cell_angle_gamma 60.364430
_cell_volume 306.227474
_symmetry_space_group_name_H-M "P 1"
_symmetry_group_IT_number 1
_symmetry_cell_setting 'triclinic'
loop_
_space_group_symop_operation_xyz
x,y,z
loop_
_atom_site_type_symbol
_atom_site_label
_atom_site_fract_x
_atom_site_fract_y
_atom_site_fract_z
Si Si1 0.991670 0.950610 0.196950
Si Si2 0.208609 0.479851 0.541891
Si Si3 0.806240 0.132657 0.600853
Si Si4 0.205717 0.393441 0.239650
Si Si5 0.589301 0.622834 0.255912
Si Si6 0.592193 0.132230 0.558153
O O1 0.037391 0.769562 0.347484
O O2 0.081436 0.731985 0.148350
O O3 0.106226 0.244817 0.431143
O O4 0.747305 0.044815 0.865496
O O5 0.288375 0.327209 0.479654
O O6 0.398955 0.588455 0.898902
O O7 0.691684 0.302147 0.366660
O O8 0.716473 0.280533 0.649453
O O9 0.760519 0.787704 0.450319
O O10 0.050605 0.156674 0.932307
O O11 0.398955 0.363908 0.398901
O O12 0.509535 0.833963 0.318149
#
# Coordination Sequence:
#
# PCOD8000024 Si02
#       6
#     1   1   1   1   1   1
#     4  10  20  39  57  87 118 145 197 238 277 348
#     4  10  20  38  60  84 119 153 186 242 292 331
#     4  10  20  39  57  87 118 145 197 238 277 348
#     4  10  21  39  63  87 112 158 194 236 287 345
#     4  10  20  38  60  84 119 153 186 242 292 331
#     4  10  21  39  63  87 112 158 194 236 287 345
#
# _framework density 19.593278999999999
#
# number of rings (size 3 to 8) (size 9 to 14) (size 15 to 20)
#    2.000    0.000    3.333    1.000    0.000    1.333 
#    0.000    3.333    0.000    0.000    0.000    0.000 
#    0.000    0.000    0.000    0.000    0.000    0.000 
#
# Total GULP energy -74331.872653 kJ/mol
# GULP energy per Si atom -12388.645442 kJ/mol
# Density = 1.954868 g / cm^3
# Si number density = 19.593279 Si / 1000 Ang^3
#
#
#
# Elastic Constant Matrix: (Units=GPa)
#
#
# Indices 1 2 3 4 5 6 
#
# 1 38.1082 20.4816 28.8467 -10.8194 9.4289 8.4656
# 2 20.4816 81.5565 33.5913 1.8610 6.0879 29.1617
# 3 28.8467 33.5913 148.4891 4.2916 -7.4332 4.1094
# 4 -10.8194 1.8610 4.2916 33.1812 -1.2821 1.6705
# 5 9.4289 6.0879 -7.4332 -1.2821 34.6616 -8.2693
# 6 8.4656 29.1617 4.1094 1.6705 -8.2693 31.6241
#
#
#
# Elastic Compliance Matrix: (Units=1/GPa)
#
#
# Indices 1 2 3 4 5 6 
#
# 1 0.046943 -0.001179 -0.009792 0.016744 -0.017800 -0.015745
# 2 -0.001179 0.024019 -0.005069 -0.000284 -0.010712 -0.023960
# 3 -0.009792 -0.005069 0.010058 -0.004331 0.007502 0.008179
# 4 0.016744 -0.000284 -0.004331 0.036307 -0.005782 -0.007088
# 5 -0.017800 -0.010712 0.007502 -0.005782 0.042984 0.025213
# 6 -0.015745 -0.023960 0.008179 -0.007088 0.025213 0.063835
#
#
# Mechanical properties :
#
#
# Convention : Reuss Voigt Hill
#
# Bulk Modulus (GPa) = 20.43382 48.22143 34.32763
# Shear Modulus (GPa) = 18.34593 32.24233 25.29413
#
# Velocity S-wave (km/s) = 3.06328 4.06098 3.59689
# Velocity P-wave (km/s) = 4.79200 6.83033 5.89986
#
# Compressibility (1/GPa) = 0.04893847
#
# Stress axis : x y z
#
# Youngs Moduli (GPa) = 21.30256 41.63361 99.42405
#
# Poissons Ratio (x) = 0.04910 0.97355
# Poissons Ratio (y) = 0.02512 0.50402
# Poissons Ratio (z) = 0.20859 0.21106
#
# Static dielectric constant tensor:
#      x y z
#    x 3.109790 0.229970 -0.100020 
#    y 0.229970 3.375320 0.057750 
#    z -0.100020 0.057750 3.390570 
# 
# 
# High freq. dielectric constant tensor:
#      x y z
#    x 1.715610 0.029980 -0.008600 
#    y 0.029980 1.750220 0.004960 
#    z -0.008600 0.004960 1.772300 
# 
# From -- ./inp_files/77.got.cif
#   From: 2010.03.12/outbox.cif.g09.slc.cpg/sg1_1_cif.got.tgz:77.got - 2010.03.29 11:57:58.
