data_PCOD8000882
_publ_section_title
;
Structure prediction by ZEFSAII (Michael W. Deem and Ramdas Pophale) SiO2 
 PCOD8000882
Probable space group: P -1
;
_chemical_formula_sum "Si O2"
_cell_formula_units_Z 16
_cell_length_a 11.928255
_cell_length_b 15.445079
_cell_length_c 9.230368
_cell_angle_alpha 43.495128
_cell_angle_beta 91.743264
_cell_angle_gamma 58.870084
_cell_volume 726.937544
_symmetry_space_group_name_H-M "P -1"
_symmetry_group_IT_number 2
_symmetry_cell_setting 'triclinic'
loop_
_space_group_symop_operation_xyz
x,y,z
-x,-y,-z
loop_
_atom_site_type_symbol
_atom_site_label
_atom_site_fract_x
_atom_site_fract_y
_atom_site_fract_z
Si Si1 0.377173 0.358379 0.004685
Si Si2 0.561871 0.638761 0.299459
Si Si3 0.144487 0.805169 0.480352
Si Si4 0.539322 0.851043 0.288781
Si Si5 0.176954 0.415382 0.154095
Si Si6 0.068475 0.781551 0.810745
Si Si7 0.218758 0.775491 0.094710
Si Si8 0.686509 0.102962 0.550709
O O1 0.419288 0.283948 0.931158
O O2 0.230105 0.598557 0.694850
O O3 0.293295 0.310438 0.137767
O O4 0.551929 0.245958 0.238670
O O5 0.589201 0.688213 0.389541
O O6 0.361620 0.761529 0.124655
O O7 0.711892 0.395764 0.587032
O O8 0.056249 0.884718 0.544268
O O9 0.297056 0.779632 0.504095
O O10 0.973822 0.995386 0.142036
O O11 0.713082 0.745901 0.515182
O O12 0.381040 0.946767 0.279367
O O13 0.500000 0.000000 0.000000
O O14 0.156283 0.578046 0.999018
O O15 0.000000 0.500000 0.000000
O O16 0.207403 0.721697 0.001268
O O17 0.882337 0.900953 0.735253
#
# Coordination Sequence:
#
# PCOD8000882 Si02
#       8
#     2   2   2   2   2   2   2   2
#     4  10  22  37  63  93 124 163 211 251 317 382
#     4  11  23  40  61  92 130 168 200 259 317 371
#     4  10  20  35  63  96 129 160 205 253 315 380
#     4  11  26  46  63  90 127 172 218 264 312 369
#     4  10  23  45  65  88 122 170 219 266 306 374
#     4  10  19  40  64  97 125 161 206 260 313 378
#     4  10  21  36  61  91 135 160 195 252 323 372
#     4  10  21  39  65  90 123 169 210 253 312 376
#
# _framework density 22.010142999999999
#
# number of rings (size 3 to 8) (size 9 to 14) (size 15 to 20)
#    0.000    1.750    1.250    3.375    3.500    4.500 
#    6.750    3.750    0.000    0.000    0.000    0.000 
#    0.000    0.000    0.000    0.000    0.000    0.000 
#
# Total GULP energy -198264.299987 kJ/mol
# GULP energy per Si atom -12391.518749 kJ/mol
# Density = 2.196005 g / cm^3
# Si number density = 22.010143 Si / 1000 Ang^3
#
#
#
# Elastic Constant Matrix: (Units=GPa)
#
#
# Indices 1 2 3 4 5 6 
#
# 1 96.8906 17.7599 49.2901 24.2800 15.5993 -15.2197
# 2 17.7599 67.8946 32.7135 31.7946 -1.0624 -18.0403
# 3 49.2901 32.7135 125.6075 20.6255 12.9953 -19.0213
# 4 24.2800 31.7946 20.6255 33.4576 -0.2684 -5.0154
# 5 15.5993 -1.0624 12.9953 -0.2684 36.3737 2.9963
# 6 -15.2197 -18.0403 -19.0213 -5.0154 2.9963 26.7522
#
#
#
# Elastic Compliance Matrix: (Units=1/GPa)
#
#
# Indices 1 2 3 4 5 6 
#
# 1 0.017640 0.007209 -0.004011 -0.015757 -0.006850 0.009859
# 2 0.007209 0.035559 -0.003217 -0.034108 -0.002779 0.019710
# 3 -0.004011 -0.003217 0.011307 -0.000453 -0.002731 0.003809
# 4 -0.015757 -0.034108 -0.000453 0.071103 0.008084 -0.019863
# 5 -0.006850 -0.002779 -0.002731 0.008084 0.032192 -0.009803
# 6 0.009859 0.019710 0.003809 -0.019863 -0.009803 0.056363
#
#
# Mechanical properties :
#
#
# Convention : Reuss Voigt Hill
#
# Bulk Modulus (GPa) = 15.51136 54.43552 34.97344
# Shear Modulus (GPa) = 20.35089 32.02530 26.18809
#
# Velocity S-wave (km/s) = 3.04405 3.81862 3.45312
# Velocity P-wave (km/s) = 4.40654 6.65042 5.64118
#
# Compressibility (1/GPa) = 0.06446889
#
# Stress axis : x y z
#
# Youngs Moduli (GPa) = 56.69017 28.12207 88.44218
#
# Poissons Ratio (x) = -0.20274 0.35472
# Poissons Ratio (y) = -0.40870 0.28453
# Poissons Ratio (z) = 0.22737 0.09047
#
# Static dielectric constant tensor:
#      x y z
#    x 3.806060 -0.062200 0.033090 
#    y -0.062200 4.209020 0.186450 
#    z 0.033090 0.186450 4.094910 
# 
# 
# High freq. dielectric constant tensor:
#      x y z
#    x 1.849280 -0.007320 0.006560 
#    y -0.007320 1.868200 0.012630 
#    z 0.006560 0.012630 1.879280 
# 
# From -- ./inp_files/270898.got.cif
#   From: 2010.06.25/outbox.cif.g09.slc.cpg/sg2_136_cif.got.tgz:270898.got - 2010.06.27 13:26:56.
