data_PCOD8000175
_publ_section_title
;
Structure prediction by ZEFSAII (Michael W. Deem and Ramdas Pophale) SiO2 
 PCOD8000175
Probable space group: P 1
;
_chemical_formula_sum "Si O2"
_cell_formula_units_Z 8
_cell_length_a 8.395980
_cell_length_b 7.402574
_cell_length_c 7.907786
_cell_angle_alpha 115.248544
_cell_angle_beta 70.782935
_cell_angle_gamma 140.726654
_cell_volume 281.396409
_symmetry_space_group_name_H-M "P 1"
_symmetry_group_IT_number 1
_symmetry_cell_setting 'triclinic'
loop_
_space_group_symop_operation_xyz
x,y,z
loop_
_atom_site_type_symbol
_atom_site_label
_atom_site_fract_x
_atom_site_fract_y
_atom_site_fract_z
Si Si1 0.412290 0.359670 0.058010
Si Si2 0.529786 0.028836 0.280734
Si Si3 0.020505 0.869554 0.762261
Si Si4 0.108265 0.352160 0.691013
Si Si5 0.172310 0.037377 0.334812
Si Si6 0.607872 0.808565 0.910354
Si Si7 0.066285 0.527387 0.435229
Si Si8 0.845194 0.475097 0.992393
O O1 0.225582 0.235367 0.233642
O O2 0.557945 0.289461 0.043467
O O3 0.581731 0.693790 0.067991
O O4 0.281084 0.191934 0.858812
O O5 0.290940 0.677830 0.283270
O O6 0.434216 0.174181 0.370940
O O7 0.619377 0.053131 0.064653
O O8 0.780150 0.208409 0.374564
O O9 0.853192 0.918131 0.788301
O O10 0.059591 0.765788 0.541742
O O11 0.911179 0.645778 0.863685
O O12 0.043538 0.068618 0.534416
O O13 0.374837 0.576736 0.777867
O O14 0.157097 0.532887 0.585968
O O15 0.896394 0.280042 0.855888
O O16 0.002764 0.700421 0.189342
#
# Coordination Sequence:
#
# PCOD8000175 Si02
#       8
#     1   1   1   1   1   1   1   1
#     4  10  23  44  75 100 148 193 240 303 375 432
#     4  12  28  48  74 106 153 194 246 304 368 440
#     4   9  22  43  71  99 142 192 243 299 361 435
#     4  11  24  47  71 108 142 192 247 303 367 437
#     4  11  24  45  70 105 145 191 243 301 369 436
#     4  11  24  46  72 108 144 194 247 301 370 439
#     4  11  28  49  72 109 146 197 246 304 367 438
#     4   9  21  44  67 105 140 187 238 305 361 433
#
# _framework density 28.429645000000001
#
# number of rings (size 3 to 8) (size 9 to 14) (size 15 to 20)
#    0.000    1.500    1.250    1.500   15.750    0.000 
#    2.250    0.000    0.000    0.000    0.000    0.000 
#    0.000    0.000    0.000    0.000    0.000    0.000 
#
# Total GULP energy -99126.714028 kJ/mol
# GULP energy per Si atom -12390.839254 kJ/mol
# Density = 2.836494 g / cm^3
# Si number density = 28.429645 Si / 1000 Ang^3
#
#
#
# Elastic Constant Matrix: (Units=GPa)
#
#
# Indices 1 2 3 4 5 6 
#
# 1 167.7897 44.2517 70.1851 0.3141 -7.3837 21.0138
# 2 44.2517 58.4321 42.8029 -8.9635 -0.3967 24.4626
# 3 70.1851 42.8029 190.9847 -1.5906 -34.6749 24.9448
# 4 0.3141 -8.9635 -1.5906 45.1793 7.6556 -4.4577
# 5 -7.3837 -0.3967 -34.6749 7.6556 48.7279 5.1550
# 6 21.0138 24.4626 24.9448 -4.4577 5.1550 58.0543
#
#
#
# Elastic Compliance Matrix: (Units=1/GPa)
#
#
# Indices 1 2 3 4 5 6 
#
# 1 0.008031 -0.004828 -0.001846 -0.001105 0.000055 -0.000169
# 2 -0.004828 0.027608 -0.004011 0.005208 -0.003390 -0.007461
# 3 -0.001846 -0.004011 0.008104 -0.001673 0.005905 -0.001776
# 4 -0.001105 0.005208 -0.001673 0.024126 -0.005238 0.001242
# 5 0.000055 -0.003390 0.005905 -0.005238 0.025933 -0.003834
# 6 -0.000169 -0.007461 -0.001776 0.001242 -0.003834 0.021630
#
#
# Mechanical properties :
#
#
# Convention : Reuss Voigt Hill
#
# Bulk Modulus (GPa) = 44.69790 81.29843 62.99817
# Shear Modulus (GPa) = 34.65991 47.72342 41.19166
#
# Velocity S-wave (km/s) = 3.49542 4.10158 3.81057
# Velocity P-wave (km/s) = 5.66101 7.14766 6.44733
#
# Compressibility (1/GPa) = 0.02237241
#
# Stress axis : x y z
#
# Youngs Moduli (GPa) = 124.51533 36.22185 123.40159
#
# Poissons Ratio (x) = 0.17487 0.22786
# Poissons Ratio (y) = 0.60115 0.49492
# Poissons Ratio (z) = 0.22991 0.14527
#
# Static dielectric constant tensor:
#      x y z
#    x 5.737030 -0.295830 -0.366220 
#    y -0.295830 5.234340 -0.372160 
#    z -0.366220 -0.372160 5.425030 
# 
# 
# High freq. dielectric constant tensor:
#      x y z
#    x 2.191490 -0.034370 -0.009270 
#    y -0.034370 2.165270 -0.041390 
#    z -0.009270 -0.041390 2.167020 
# 
# From -- ./inp_files/1876.got.cif
#   From: 2010.03.12/outbox.cif.g09.slc.cpg/sg1_1_cif.got.tgz:1876.got - 2010.03.29 11:57:58.
