data_PCOD8000852
_publ_section_title
;
Structure prediction by ZEFSAII (Michael W. Deem and Ramdas Pophale) SiO2 
 PCOD8000852
Probable space group: P -1
;
_chemical_formula_sum "Si O2"
_cell_formula_units_Z 16
_cell_length_a 14.535752
_cell_length_b 11.835771
_cell_length_c 8.199996
_cell_angle_alpha 90.391289
_cell_angle_beta 148.474899
_cell_angle_gamma 81.146624
_cell_volume 707.418345
_symmetry_space_group_name_H-M "P -1"
_symmetry_group_IT_number 2
_symmetry_cell_setting 'triclinic'
loop_
_space_group_symop_operation_xyz
x,y,z
-x,-y,-z
loop_
_atom_site_type_symbol
_atom_site_label
_atom_site_fract_x
_atom_site_fract_y
_atom_site_fract_z
Si Si1 0.638599 0.422491 0.337584
Si Si2 0.940954 0.193181 0.138060
Si Si3 0.006702 0.760140 0.139157
Si Si4 0.560512 0.364940 0.548317
Si Si5 0.526306 0.029148 0.285569
Si Si6 0.702911 0.642572 0.586745
Si Si7 0.786534 0.992104 0.972367
Si Si8 0.334547 0.185599 0.734308
O O1 0.803390 0.323422 0.498248
O O2 0.538119 0.357311 0.316801
O O3 0.729563 0.505321 0.587927
O O4 0.500000 0.500000 0.000000
O O5 0.124564 0.220535 0.482811
O O6 0.951862 0.173733 0.958700
O O7 0.768518 0.304201 0.920227
O O8 0.920505 0.075019 0.195030
O O9 0.891079 0.671086 0.911500
O O10 0.903719 0.857641 0.114511
O O11 0.500000 0.500000 0.500000
O O12 0.428491 0.307654 0.455097
O O13 0.334846 0.005559 0.050157
O O14 0.644378 0.052481 0.614652
O O15 0.650360 0.919390 0.373097
O O16 0.476446 0.144943 0.096617
O O17 0.617128 0.708963 0.289100
#
# Coordination Sequence:
#
# PCOD8000852 Si02
#       8
#     2   2   2   2   2   2   2   2
#     4  10  22  41  60  91 117 147 196 251 292 339
#     4  10  20  35  62  85 117 154 199 237 288 346
#     4  10  21  38  59  88 114 160 197 230 295 359
#     4   9  20  38  62  86 113 157 194 237 291 354
#     4  10  22  37  57  84 124 150 199 233 295 342
#     4  10  19  40  64  81 113 160 195 234 292 354
#     4  11  21  38  59  87 119 158 196 239 286 357
#     4  10  21  39  57  89 116 155 194 240 292 347
#
# _framework density 22.617453000000001
#
# number of rings (size 3 to 8) (size 9 to 14) (size 15 to 20)
#    0.000    2.000    2.500    1.500    1.750    3.500 
#    6.750    0.625    0.000    0.000    0.000    0.000 
#    0.000    0.000    0.000    0.000    0.000    0.000 
#
# Total GULP energy -198325.110285 kJ/mol
# GULP energy per Si atom -12395.319393 kJ/mol
# Density = 2.256598 g / cm^3
# Si number density = 22.617453 Si / 1000 Ang^3
#
#
#
# Elastic Constant Matrix: (Units=GPa)
#
#
# Indices 1 2 3 4 5 6 
#
# 1 112.4705 21.1065 38.3002 -13.5687 16.5741 17.8393
# 2 21.1065 70.4873 24.3427 -12.6643 14.5589 2.8446
# 3 38.3002 24.3427 74.6866 -32.1352 12.9121 -3.8768
# 4 -13.5687 -12.6643 -32.1352 31.5417 -0.5978 7.4342
# 5 16.5741 14.5589 12.9121 -0.5978 33.7485 -4.4191
# 6 17.8393 2.8446 -3.8768 7.4342 -4.4191 32.0438
#
#
#
# Elastic Compliance Matrix: (Units=1/GPa)
#
#
# Indices 1 2 3 4 5 6 
#
# 1 0.013321 -0.000205 -0.005239 0.002412 -0.005633 -0.009368
# 2 -0.000205 0.017636 -0.002269 0.005484 -0.007063 -0.003973
# 3 -0.005239 -0.002269 0.029747 0.027144 -0.007428 -0.000605
# 4 0.002412 0.005484 0.027144 0.066070 -0.014850 -0.015922
# 5 -0.005633 -0.007063 -0.007428 -0.014850 0.039564 0.011766
# 6 -0.009368 -0.003973 -0.000605 -0.015922 0.011766 0.042018
#
#
# Mechanical properties :
#
#
# Convention : Reuss Voigt Hill
#
# Bulk Modulus (GPa) = 22.08512 47.23814 34.66163
# Shear Modulus (GPa) = 20.93154 31.05980 25.99567
#
# Velocity S-wave (km/s) = 3.04544 3.70978 3.39390
# Velocity P-wave (km/s) = 4.70660 6.26746 5.54225
#
# Compressibility (1/GPa) = 0.04527935
#
# Stress axis : x y z
#
# Youngs Moduli (GPa) = 75.07169 56.70176 33.61632
#
# Poissons Ratio (x) = 0.01160 0.17611
# Poissons Ratio (y) = 0.01535 0.07627
# Poissons Ratio (z) = 0.39330 0.12865
#
# Static dielectric constant tensor:
#      x y z
#    x 4.573190 0.253090 0.230160 
#    y 0.253090 3.847930 -0.311130 
#    z 0.230160 -0.311130 3.839740 
# 
# 
# High freq. dielectric constant tensor:
#      x y z
#    x 1.898660 0.015150 0.017040 
#    y 0.015150 1.880430 -0.026430 
#    z 0.017040 -0.026430 1.876050 
# 
# From -- ./inp_files/299504.got.cif
#   From: 2010.06.25/outbox.cif.g09.slc.cpg/sg2_150_cif.got.tgz:299504.got - 2010.06.27 13:26:56.
