data_PCOD8000746
_publ_section_title
;
Structure prediction by ZEFSAII (Michael W. Deem and Ramdas Pophale) SiO2 
 PCOD8000746
Probable space group: P -1
;
_chemical_formula_sum "Si O2"
_cell_formula_units_Z 16
_cell_length_a 32.265586
_cell_length_b 31.767688
_cell_length_c 18.266656
_cell_angle_alpha 18.597032
_cell_angle_beta 18.610109
_cell_angle_gamma 8.934924
_cell_volume 902.360507
_symmetry_space_group_name_H-M "P -1"
_symmetry_group_IT_number 2
_symmetry_cell_setting 'triclinic'
loop_
_space_group_symop_operation_xyz
x,y,z
-x,-y,-z
loop_
_atom_site_type_symbol
_atom_site_label
_atom_site_fract_x
_atom_site_fract_y
_atom_site_fract_z
Si Si1 0.680076 0.502504 0.287273
Si Si2 0.169186 0.982757 0.247091
Si Si3 0.010187 0.335357 0.248527
Si Si4 0.490644 0.749532 0.342800
Si Si5 0.790734 0.282278 0.130420
Si Si6 0.707287 0.191590 0.824815
Si Si7 0.269878 0.687623 0.977840
Si Si8 0.174694 0.691368 0.284316
O O1 0.584116 0.694533 0.192521
O O2 0.726791 0.323679 0.546168
O O3 0.973518 0.269738 0.139472
O O4 0.447195 0.705275 0.281857
O O5 0.242937 0.953359 0.087693
O O6 0.000000 0.000000 0.500000
O O7 0.771755 0.487985 0.347040
O O8 0.962357 0.318519 0.437564
O O9 0.302806 0.034856 0.218729
O O10 0.000000 0.500000 0.000000
O O11 0.319545 0.768360 0.603361
O O12 0.595809 0.555966 0.050916
O O13 0.799941 0.324681 0.961038
O O14 0.084857 0.021707 0.105499
O O15 0.563760 0.496588 0.796356
O O16 0.261118 0.591955 0.218241
O O17 0.046938 0.997496 0.852985
#
# Coordination Sequence:
#
# PCOD8000746 Si02
#       8
#     2   2   2   2   2   2   2   2
#     4  10  18  27  42  56  82 121 153 189 209 254
#     4  10  16  27  37  58  85 118 152 178 215 261
#     4  12  22  34  49  66  93 121 153 200 237 272
#     4  11  20  32  45  66  86 119 161 191 225 272
#     4  11  17  28  43  65  87 120 148 192 218 258
#     4  10  18  24  40  62  90 117 150 180 220 265
#     4  10  19  30  51  64  92 115 154 197 223 269
#     4  10  19  34  46  69  85 119 154 193 235 272
#
# _framework density 17.731273999999999
#
# number of rings (size 3 to 8) (size 9 to 14) (size 15 to 20)
#    0.000    1.500    2.500    8.625    0.000    0.000 
#    0.000    0.000    0.000    0.000    0.000    0.000 
#    0.000    0.000    0.000   22.500    0.000    2.750 
#
# Total GULP energy -198275.052576 kJ/mol
# GULP energy per Si atom -12392.190786 kJ/mol
# Density = 1.769092 g / cm^3
# Si number density = 17.731274 Si / 1000 Ang^3
#
#
#
# Elastic Constant Matrix: (Units=GPa)
#
#
# Indices 1 2 3 4 5 6 
#
# 1 130.5113 40.4144 23.7950 -4.3843 27.3647 11.0481
# 2 40.4144 113.3286 7.3096 -2.2565 9.9671 3.0041
# 3 23.7950 7.3096 42.9898 -2.6971 9.9653 8.2446
# 4 -4.3843 -2.2565 -2.6971 7.0651 -0.8530 2.4553
# 5 27.3647 9.9671 9.9653 -0.8530 13.5390 0.6982
# 6 11.0481 3.0041 8.2446 2.4553 0.6982 46.3728
#
#
#
# Elastic Compliance Matrix: (Units=1/GPa)
#
#
# Indices 1 2 3 4 5 6 
#
# 1 0.014643 -0.002636 -0.000477 0.005924 -0.026770 -0.003144
# 2 -0.002636 0.009965 0.000392 0.001477 -0.002197 -0.000132
# 3 -0.000477 0.000392 0.029906 0.010693 -0.020380 -0.005488
# 4 0.005924 0.001477 0.010693 0.152405 -0.010745 -0.011316
# 5 -0.026770 -0.002197 -0.020380 -0.010745 0.143468 0.008552
# 6 -0.003144 -0.000132 -0.005488 -0.011316 0.008552 0.023768
#
#
# Mechanical properties :
#
#
# Convention : Reuss Voigt Hill
#
# Bulk Modulus (GPa) = 20.37779 47.76308 34.07043
# Shear Modulus (GPa) = 12.62773 27.74944 20.18858
#
# Velocity S-wave (km/s) = 2.67155 3.96030 3.37796
# Velocity P-wave (km/s) = 4.58626 6.92153 5.87118
#
# Compressibility (1/GPa) = 0.04907304
#
# Stress axis : x y z
#
# Youngs Moduli (GPa) = 68.29035 100.35449 33.43784
#
# Poissons Ratio (x) = 0.26449 0.01595
# Poissons Ratio (y) = 0.17998 -0.01311
# Poissons Ratio (z) = 0.03258 -0.03933
#
# Static dielectric constant tensor:
#      x y z
#    x 4.406120 0.627110 0.423380 
#    y 0.627110 3.931690 0.113440 
#    z 0.423380 0.113440 2.614630 
# 
# 
# High freq. dielectric constant tensor:
#      x y z
#    x 1.709180 0.005100 0.025130 
#    y 0.005100 1.719670 0.001600 
#    z 0.025130 0.001600 1.579720 
# 
# From -- ./inp_files/439477.got.cif
#   From: 2010.06.25/outbox.cif.g09.slc.cpg/sg2_220_cif.got.tgz:439477.got - 2010.06.27 13:26:56.
