data_PCOD8000669
_publ_section_title
;
Structure prediction by ZEFSAII (Michael W. Deem and Ramdas Pophale) SiO2 
 PCOD8000669
Probable space group: P -1
;
_chemical_formula_sum "Si O2"
_cell_formula_units_Z 16
_cell_length_a 13.473244
_cell_length_b 13.086214
_cell_length_c 9.808895
_cell_angle_alpha 136.747809
_cell_angle_beta 108.238659
_cell_angle_gamma 103.183065
_cell_volume 802.974550
_symmetry_space_group_name_H-M "P -1"
_symmetry_group_IT_number 2
_symmetry_cell_setting 'triclinic'
loop_
_space_group_symop_operation_xyz
x,y,z
-x,-y,-z
loop_
_atom_site_type_symbol
_atom_site_label
_atom_site_fract_x
_atom_site_fract_y
_atom_site_fract_z
Si Si1 0.325680 0.194329 0.384906
Si Si2 0.365696 0.139541 0.785516
Si Si3 0.198261 0.012144 0.866721
Si Si4 0.352687 0.468481 0.060677
Si Si5 0.312327 0.513974 0.785046
Si Si6 0.847099 0.161006 0.818149
Si Si7 0.951365 0.540421 0.386608
Si Si8 0.919910 0.835144 0.183514
O O1 0.491638 0.316863 0.611889
O O2 0.289896 0.329736 0.531597
O O3 0.217028 0.979738 0.211846
O O4 0.304431 0.143082 0.166755
O O5 0.301112 0.071737 0.842633
O O6 0.272818 0.941382 0.452680
O O7 0.359119 0.297674 0.869217
O O8 0.535092 0.259078 0.978933
O O9 0.085287 0.767124 0.604537
O O10 0.109089 0.075161 0.861672
O O11 0.308570 0.504273 0.937398
O O12 0.232492 0.386267 0.043504
O O13 0.181036 0.485473 0.649004
O O14 0.984851 0.204383 0.868543
O O15 0.899591 0.378672 0.087687
O O16 0.000000 0.500000 0.500000
O O17 0.000000 0.000000 0.500000
#
# Coordination Sequence:
#
# PCOD8000669 Si02
#       8
#     2   2   2   2   2   2   2   2
#     4  11  21  40  70  93 126 162 209 262 321 362
#     4  10  21  41  68  97 124 154 216 263 308 375
#     4  11  24  42  63  96 128 164 208 267 313 367
#     4  10  19  39  67 102 124 151 211 269 306 376
#     4  11  22  41  68  93 122 170 208 254 317 378
#     4  12  22  42  65  88 130 170 204 261 308 368
#     4  12  28  43  58  91 134 169 215 253 306 379
#     4  11  21  39  67  97 128 158 209 264 313 369
#
# _framework density 19.925913000000001
#
# number of rings (size 3 to 8) (size 9 to 14) (size 15 to 20)
#    0.000    1.000    6.250    2.250    1.750    6.500 
#    0.000    0.625    0.000    0.000    0.000    0.000 
#    0.000    0.000    0.000    0.000    0.000    0.000 
#
# Total GULP energy -198493.001346 kJ/mol
# GULP energy per Si atom -12405.812584 kJ/mol
# Density = 1.988056 g / cm^3
# Si number density = 19.925913 Si / 1000 Ang^3
#
#
#
# Elastic Constant Matrix: (Units=GPa)
#
#
# Indices 1 2 3 4 5 6 
#
# 1 77.1186 55.0562 38.5542 13.5379 15.6426 3.3682
# 2 55.0562 104.3130 49.7932 -4.9681 7.1220 8.1850
# 3 38.5542 49.7932 119.8490 -1.8132 -2.2512 1.4663
# 4 13.5379 -4.9681 -1.8132 39.3598 5.4187 4.4806
# 5 15.6426 7.1220 -2.2512 5.4187 31.9181 -3.4963
# 6 3.3682 8.1850 1.4663 4.4806 -3.4963 21.2394
#
#
#
# Elastic Compliance Matrix: (Units=1/GPa)
#
#
# Indices 1 2 3 4 5 6 
#
# 1 0.027496 -0.012602 -0.003951 -0.010143 -0.009065 0.001416
# 2 -0.012602 0.018832 -0.003583 0.007332 -0.000246 -0.006599
# 3 -0.003951 -0.003583 0.011161 0.000738 0.003581 0.001671
# 4 -0.010143 0.007332 0.000738 0.031189 -0.002818 -0.008311
# 5 -0.009065 -0.000246 0.003581 -0.002818 0.037440 0.008043
# 6 0.001416 -0.006599 0.001671 -0.008311 0.008043 0.052363
#
#
# Mechanical properties :
#
#
# Convention : Reuss Voigt Hill
#
# Bulk Modulus (GPa) = 58.07810 65.34310 61.71060
# Shear Modulus (GPa) = 22.27250 29.02858 25.65054
#
# Velocity S-wave (km/s) = 3.34693 3.82098 3.59178
# Velocity P-wave (km/s) = 6.64426 7.23400 6.94539
#
# Compressibility (1/GPa) = 0.01721820
#
# Stress axis : x y z
#
# Youngs Moduli (GPa) = 36.36833 53.10114 89.59492
#
# Poissons Ratio (x) = 0.66918 0.35396
# Poissons Ratio (y) = 0.45832 0.32103
# Poissons Ratio (z) = 0.14368 0.19027
#
# Static dielectric constant tensor:
#      x y z
#    x 5.570530 1.228290 0.460150 
#    y 1.228290 4.261510 0.196480 
#    z 0.460150 0.196480 3.813260 
# 
# 
# High freq. dielectric constant tensor:
#      x y z
#    x 1.767170 0.014990 0.016780 
#    y 0.014990 1.777640 -0.001360 
#    z 0.016780 -0.001360 1.786680 
# 
# From -- ./inp_files/215527.got.cif
#   From: 2010.06.25/outbox.cif.g09.slc.cpg/sg2_108_cif.got.tgz:215527.got - 2010.06.27 13:26:56.
