data_PCOD8000708
_publ_section_title
;
Structure prediction by ZEFSAII (Michael W. Deem and Ramdas Pophale) SiO2 
 PCOD8000708
Probable space group: P -1
;
_chemical_formula_sum "Si O2"
_cell_formula_units_Z 16
_cell_length_a 8.991748
_cell_length_b 16.165923
_cell_length_c 13.605473
_cell_angle_alpha 156.112342
_cell_angle_beta 111.525771
_cell_angle_gamma 68.866539
_cell_volume 743.348269
_symmetry_space_group_name_H-M "P -1"
_symmetry_group_IT_number 2
_symmetry_cell_setting 'triclinic'
loop_
_space_group_symop_operation_xyz
x,y,z
-x,-y,-z
loop_
_atom_site_type_symbol
_atom_site_label
_atom_site_fract_x
_atom_site_fract_y
_atom_site_fract_z
Si Si1 0.599715 0.119214 0.234762
Si Si2 0.046593 0.285740 0.327694
Si Si3 0.779952 0.002140 0.654190
Si Si4 0.641556 0.414404 0.010601
Si Si5 0.916268 0.853006 0.015486
Si Si6 0.060005 0.401389 0.806090
Si Si7 0.835266 0.412551 0.581332
Si Si8 0.360186 0.246907 0.474273
O O1 0.650112 0.346447 0.460581
O O2 0.513243 0.137415 0.338557
O O3 0.500000 0.000000 0.000000
O O4 0.774279 0.014337 0.186198
O O5 0.029968 0.119525 0.056270
O O6 0.231587 0.281145 0.395166
O O7 0.000000 0.500000 0.500000
O O8 0.940981 0.252069 0.362767
O O9 0.849738 0.825708 0.403957
O O10 0.694256 0.898092 0.610384
O O11 0.647308 0.166628 0.753691
O O12 0.927572 0.129125 0.861984
O O13 0.813817 0.454454 0.052697
O O14 0.609840 0.528881 0.231430
O O15 0.500000 0.500000 0.000000
O O16 0.842121 0.636480 0.781878
O O17 0.909326 0.393110 0.687486
O O18 0.000000 0.500000 0.000000
#
# Coordination Sequence:
#
# PCOD8000708 Si02
#       8
#     2   2   2   2   2   2   2   2
#     4  12  26  41  61 100 143 178 218 275 337 398
#     4  10  19  39  68  93 128 180 222 269 328 396
#     4  11  23  46  74  96 129 182 232 275 340 416
#     4  11  25  46  70  98 131 170 230 293 343 396
#     4  11  22  41  70  97 132 182 227 267 338 405
#     4  11  24  44  70 102 134 173 225 283 341 408
#     4  11  23  44  65  96 138 175 229 278 323 410
#     4  11  24  43  63  99 138 171 228 282 335 401
#
# _framework density 21.524231
#
# number of rings (size 3 to 8) (size 9 to 14) (size 15 to 20)
#    0.000    1.000    6.250    0.750    3.500    5.000 
#    2.250    0.000    0.000    0.000    0.000    0.000 
#    0.000    0.000    0.000    0.000    0.000    0.000 
#
# Total GULP energy -198326.803365 kJ/mol
# GULP energy per Si atom -12395.425210 kJ/mol
# Density = 2.147524 g / cm^3
# Si number density = 21.524231 Si / 1000 Ang^3
#
#
#
# Elastic Constant Matrix: (Units=GPa)
#
#
# Indices 1 2 3 4 5 6 
#
# 1 117.6149 29.9053 53.2215 -12.3928 -18.3650 11.6259
# 2 29.9053 94.8988 48.0651 -2.8738 -19.4878 -8.2966
# 3 53.2215 48.0651 131.2299 -4.5237 -25.2299 18.3222
# 4 -12.3928 -2.8738 -4.5237 31.9517 4.4085 -3.6821
# 5 -18.3650 -19.4878 -25.2299 4.4085 48.8732 -2.0620
# 6 11.6259 -8.2966 18.3222 -3.6821 -2.0620 28.6976
#
#
#
# Elastic Compliance Matrix: (Units=1/GPa)
#
#
# Indices 1 2 3 4 5 6 
#
# 1 0.011195 -0.001746 -0.003154 0.003245 0.001484 -0.002503
# 2 -0.001746 0.015307 -0.005575 0.000544 0.002899 0.008970
# 3 -0.003154 -0.005575 0.012613 -0.001297 0.002868 -0.008347
# 4 0.003245 0.000544 -0.001297 0.033141 -0.002063 0.003774
# 5 0.001484 0.002899 0.002868 -0.002063 0.023835 -0.000146
# 6 -0.002503 0.008970 -0.008347 0.003774 -0.000146 0.044257
#
#
# Mechanical properties :
#
#
# Convention : Reuss Voigt Hill
#
# Bulk Modulus (GPa) = 55.04858 67.34748 61.19803
# Shear Modulus (GPa) = 29.87705 36.07461 32.97583
#
# Velocity S-wave (km/s) = 3.72972 4.09834 3.91837
# Velocity P-wave (km/s) = 6.64668 7.33159 6.99752
#
# Compressibility (1/GPa) = 0.01816577
#
# Stress axis : x y z
#
# Youngs Moduli (GPa) = 89.32947 65.32809 79.28177
#
# Poissons Ratio (x) = 0.11408 0.25004
# Poissons Ratio (y) = 0.15599 0.44197
# Poissons Ratio (z) = 0.28173 0.36418
#
# Static dielectric constant tensor:
#      x y z
#    x 3.950590 0.066270 -0.090600 
#    y 0.066270 3.724030 0.044000 
#    z -0.090600 0.044000 4.320180 
# 
# 
# High freq. dielectric constant tensor:
#      x y z
#    x 1.842250 0.000030 -0.001700 
#    y 0.000030 1.835380 0.009160 
#    z -0.001700 0.009160 1.864330 
# 
# From -- ./inp_files/400131.got.cif
#   From: 2010.06.25/outbox.cif.g09.slc.cpg/sg2_201_cif.got.tgz:400131.got - 2010.06.27 13:26:56.
