data_PCOD8000526
_publ_section_title
;
Structure prediction by ZEFSAII (Michael W. Deem and Ramdas Pophale) SiO2 
 PCOD8000526
Probable space group: P -1
;
_chemical_formula_sum "Si O2"
_cell_formula_units_Z 16
_cell_length_a 12.482600
_cell_length_b 9.876916
_cell_length_c 9.367931
_cell_angle_alpha 112.679380
_cell_angle_beta 119.341121
_cell_angle_gamma 55.898695
_cell_volume 823.794960
_symmetry_space_group_name_H-M "P -1"
_symmetry_group_IT_number 2
_symmetry_cell_setting 'triclinic'
loop_
_space_group_symop_operation_xyz
x,y,z
-x,-y,-z
loop_
_atom_site_type_symbol
_atom_site_label
_atom_site_fract_x
_atom_site_fract_y
_atom_site_fract_z
Si Si1 0.805058 0.701828 0.810802
Si Si2 0.224685 0.510499 0.045626
Si Si3 0.222544 0.394562 0.693659
Si Si4 0.385146 0.647193 0.392930
Si Si5 0.089501 0.854547 0.392500
Si Si6 0.018860 0.132246 0.969907
Si Si7 0.950897 0.413884 0.588447
Si Si8 0.566175 0.807992 0.483041
O O1 0.811147 0.610581 0.927806
O O2 0.916283 0.583081 0.718650
O O3 0.654925 0.759284 0.666554
O O4 0.834376 0.860911 0.917624
O O5 0.336838 0.553407 0.209049
O O6 0.089834 0.679747 0.994001
O O7 0.279717 0.429230 0.893287
O O8 0.137421 0.556573 0.603466
O O9 0.350668 0.262532 0.636778
O O10 0.114555 0.321197 0.624296
O O11 0.500000 0.500000 0.500000
O O12 0.255107 0.791291 0.454780
O O13 0.451708 0.745141 0.392200
O O14 0.089939 0.686964 0.369490
O O15 0.001906 0.923600 0.221375
O O16 0.000000 0.000000 0.500000
O O17 0.000000 0.000000 0.000000
O O18 0.500000 0.000000 0.500000
#
# Coordination Sequence:
#
# PCOD8000526 Si02
#       8
#     2   2   2   2   2   2   2   2
#     4  11  20  43  67  90 126 171 212 257 325 394
#     4  11  21  40  68  93 123 166 223 267 309 387
#     4  10  22  36  65  93 121 161 216 262 309 382
#     4  11  22  46  66  89 127 178 220 251 321 396
#     4  11  25  39  66  96 131 164 212 276 331 374
#     4  11  24  37  62 100 132 161 207 275 334 366
#     4  10  19  39  63  95 122 163 210 260 321 387
#     4  11  26  42  62  89 130 176 208 256 325 386
#
# _framework density 19.422308999999998
#
# number of rings (size 3 to 8) (size 9 to 14) (size 15 to 20)
#    0.000    1.250    5.000    1.875    7.000    0.500 
#    0.000    1.875    0.000    0.000    0.000    0.000 
#    0.000    0.000    0.000    0.000    0.000    0.000 
#
# Total GULP energy -198274.958298 kJ/mol
# GULP energy per Si atom -12392.184894 kJ/mol
# Density = 1.937810 g / cm^3
# Si number density = 19.422309 Si / 1000 Ang^3
#
#
#
# Elastic Constant Matrix: (Units=GPa)
#
#
# Indices 1 2 3 4 5 6 
#
# 1 143.5553 58.4255 56.6829 6.4563 -0.1900 5.8343
# 2 58.4255 90.2277 52.7667 5.9800 -5.8269 10.3607
# 3 56.6829 52.7667 137.4163 -2.5358 -10.0720 0.3274
# 4 6.4563 5.9800 -2.5358 22.4256 4.5153 -6.6464
# 5 -0.1900 -5.8269 -10.0720 4.5153 36.1708 5.0390
# 6 5.8343 10.3607 0.3274 -6.6464 5.0390 48.3819
#
#
#
# Elastic Compliance Matrix: (Units=1/GPa)
#
#
# Indices 1 2 3 4 5 6 
#
# 1 0.010025 -0.005096 -0.002294 -0.001608 -0.001178 -0.000200
# 2 -0.005096 0.018263 -0.004794 -0.005827 0.002916 -0.004368
# 3 -0.002294 -0.004794 0.010226 0.003258 0.001443 0.001531
# 4 -0.001608 -0.005827 0.003258 0.051281 -0.007733 0.009270
# 5 -0.001178 0.002916 0.001443 -0.007733 0.030131 -0.004693
# 6 -0.000200 -0.004368 0.001531 0.009270 -0.004693 0.023380
#
#
# Mechanical properties :
#
#
# Convention : Reuss Voigt Hill
#
# Bulk Modulus (GPa) = 70.69225 78.54995 74.62110
# Shear Modulus (GPa) = 29.00401 34.95060 31.97731
#
# Velocity S-wave (km/s) = 3.86856 4.24666 4.06201
# Velocity P-wave (km/s) = 7.51204 8.03595 7.77841
#
# Compressibility (1/GPa) = 0.01414582
#
# Stress axis : x y z
#
# Youngs Moduli (GPa) = 99.75307 54.75605 97.78663
#
# Poissons Ratio (x) = 0.27906 0.22429
# Poissons Ratio (y) = 0.50839 0.46878
# Poissons Ratio (z) = 0.22880 0.26249
#
# Static dielectric constant tensor:
#      x y z
#    x 3.638260 0.045310 0.091480 
#    y 0.045310 3.888280 -0.341650 
#    z 0.091480 -0.341650 4.153080 
# 
# 
# High freq. dielectric constant tensor:
#      x y z
#    x 1.761380 0.012660 -0.001450 
#    y 0.012660 1.741030 -0.008390 
#    z -0.001450 -0.008390 1.766390 
# 
# From -- ./inp_files/242877.got.cif
#   From: 2010.06.25/outbox.cif.g09.slc.cpg/sg2_122_cif.got.tgz:242877.got - 2010.06.27 13:26:56.
