data_PCOD8000404
_publ_section_title
;
Structure prediction by ZEFSAII (Michael W. Deem and Ramdas Pophale) SiO2 
 PCOD8000404
Probable space group: P -1
;
_chemical_formula_sum "Si O2"
_cell_formula_units_Z 16
_cell_length_a 7.990179
_cell_length_b 21.341561
_cell_length_c 6.604942
_cell_angle_alpha 87.922440
_cell_angle_beta 61.046356
_cell_angle_gamma 122.606765
_cell_volume 759.756675
_symmetry_space_group_name_H-M "P -1"
_symmetry_group_IT_number 2
_symmetry_cell_setting 'triclinic'
loop_
_space_group_symop_operation_xyz
x,y,z
-x,-y,-z
loop_
_atom_site_type_symbol
_atom_site_label
_atom_site_fract_x
_atom_site_fract_y
_atom_site_fract_z
Si Si1 0.591629 0.740653 0.051832
Si Si2 0.338048 0.907569 0.545188
Si Si3 0.923127 0.830275 0.474452
Si Si4 0.393658 0.166017 0.632611
Si Si5 0.897549 0.418728 0.780292
Si Si6 0.226743 0.465379 0.228388
Si Si7 0.863299 0.329007 0.175341
Si Si8 0.015849 0.234151 0.932028
O O1 0.653006 0.820912 0.111488
O O2 0.305999 0.662186 0.219985
O O3 0.721252 0.713950 0.113985
O O4 0.697112 0.765945 0.760838
O O5 0.521683 0.887789 0.396417
O O6 0.175860 0.893616 0.445601
O O7 0.500000 0.000000 0.500000
O O8 0.165412 0.852780 0.839191
O O9 0.846027 0.874061 0.371211
O O10 0.967888 0.779644 0.311131
O O11 0.592118 0.258458 0.426891
O O12 0.834580 0.478717 0.826555
O O13 0.161090 0.457382 0.509395
O O14 0.890130 0.397079 0.020039
O O15 0.050168 0.375246 0.246982
O O16 0.500000 0.500000 0.000000
O O17 0.924452 0.285469 0.991495
#
# Coordination Sequence:
#
# PCOD8000404 Si02
#       8
#     2   2   2   2   2   2   2   2
#     4  10  19  39  61  88 116 158 207 256 304 364
#     4  10  23  40  61  91 128 161 198 251 311 376
#     4  10  21  39  62  91 121 158 209 255 308 365
#     4  10  21  38  64  90 118 157 210 253 298 368
#     4  11  23  38  64  87 122 165 203 256 322 364
#     4  11  25  42  56  88 129 163 203 257 315 382
#     4  11  21  39  61  87 116 157 208 255 304 364
#     4   9  22  37  62  91 117 157 212 253 302 370
#
# _framework density 21.059376
#
# number of rings (size 3 to 8) (size 9 to 14) (size 15 to 20)
#    0.000    1.750    2.500    1.125    1.750    3.500 
#    0.000    5.625    0.000    0.000    0.000    0.000 
#    0.000    0.000    0.000    0.000    0.000    0.000 
#
# Total GULP energy -198290.588264 kJ/mol
# GULP energy per Si atom -12393.161767 kJ/mol
# Density = 2.101144 g / cm^3
# Si number density = 21.059376 Si / 1000 Ang^3
#
#
#
# Elastic Constant Matrix: (Units=GPa)
#
#
# Indices 1 2 3 4 5 6 
#
# 1 86.4476 37.6823 27.3939 6.3643 -10.6900 5.8050
# 2 37.6823 87.8285 33.2206 10.8674 0.9131 -1.3009
# 3 27.3939 33.2206 97.9807 27.5134 -8.7115 -8.1380
# 4 6.3643 10.8674 27.5134 21.6152 -1.9068 3.2570
# 5 -10.6900 0.9131 -8.7115 -1.9068 32.1059 6.4406
# 6 5.8050 -1.3009 -8.1380 3.2570 6.4406 29.2568
#
#
#
# Elastic Compliance Matrix: (Units=1/GPa)
#
#
# Indices 1 2 3 4 5 6 
#
# 1 0.016367 -0.006352 -0.003696 0.004595 0.006191 -0.006433
# 2 -0.006352 0.015635 -0.002797 -0.003145 -0.003988 0.002406
# 3 -0.003696 -0.002797 0.019637 -0.023683 0.001071 0.008472
# 4 0.004595 -0.003145 -0.023683 0.079532 0.003374 -0.017236
# 5 0.006191 -0.003988 0.001071 0.003374 0.035686 -0.009339
# 6 -0.006433 0.002406 0.008472 -0.017236 -0.009339 0.041895
#
#
# Mechanical properties :
#
#
# Convention : Reuss Voigt Hill
#
# Bulk Modulus (GPa) = 38.53817 52.09449 45.31633
# Shear Modulus (GPa) = 20.56827 28.19293 24.38060
#
# Velocity S-wave (km/s) = 3.12858 3.66284 3.40620
# Velocity P-wave (km/s) = 5.60269 6.53293 6.08561
#
# Compressibility (1/GPa) = 0.02594830
#
# Stress axis : x y z
#
# Youngs Moduli (GPa) = 61.09783 63.95757 50.92432
#
# Poissons Ratio (x) = 0.40628 0.18824
# Poissons Ratio (y) = 0.38811 0.14243
# Poissons Ratio (z) = 0.22584 0.17888
#
# Static dielectric constant tensor:
#      x y z
#    x 3.855280 0.067000 -0.155520 
#    y 0.067000 3.556150 0.225030 
#    z -0.155520 0.225030 4.105350 
# 
# 
# High freq. dielectric constant tensor:
#      x y z
#    x 1.825450 0.003840 -0.007200 
#    y 0.003840 1.807340 0.018750 
#    z -0.007200 0.018750 1.835340 
# 
# From -- ./inp_files/53239.got.cif
#   From: 2010.06.25/outbox.cif.g09.slc.cpg/sg2_27_cif.got.tgz:53239.got - 2010.06.27 13:26:56.
