data_PCOD8000917
_publ_section_title
;
Structure prediction by ZEFSAII (Michael W. Deem and Ramdas Pophale) SiO2 
 PCOD8000917
Probable space group: P -1
;
_chemical_formula_sum "Si O2"
_cell_formula_units_Z 16
_cell_length_a 13.774128
_cell_length_b 14.564490
_cell_length_c 14.461124
_cell_angle_alpha 32.197683
_cell_angle_beta 130.170803
_cell_angle_gamma 148.977427
_cell_volume 762.029992
_symmetry_space_group_name_H-M "P -1"
_symmetry_group_IT_number 2
_symmetry_cell_setting 'triclinic'
loop_
_space_group_symop_operation_xyz
x,y,z
-x,-y,-z
loop_
_atom_site_type_symbol
_atom_site_label
_atom_site_fract_x
_atom_site_fract_y
_atom_site_fract_z
Si Si1 0.598921 0.368345 0.200022
Si Si2 0.812410 0.117289 0.452391
Si Si3 0.195162 0.778842 0.840483
Si Si4 0.485301 0.688090 0.322010
Si Si5 0.482568 0.777339 0.036092
Si Si6 0.780889 0.352965 0.683207
Si Si7 0.357640 0.382894 0.150499
Si Si8 0.384111 0.837615 0.455198
O O1 0.530209 0.459416 0.139959
O O2 0.717461 0.363806 0.346941
O O3 0.410118 0.067750 0.296942
O O4 0.727735 0.570012 0.019171
O O5 0.854616 0.161002 0.331724
O O6 0.986003 0.399882 0.369302
O O7 0.811963 0.918793 0.657696
O O8 0.603970 0.987748 0.454889
O O9 0.300025 0.010761 0.781648
O O10 0.337662 0.768873 0.909433
O O11 0.000000 0.500000 0.000000
O O12 0.500000 0.500000 0.500000
O O13 0.423592 0.678656 0.189214
O O14 0.324248 0.596014 0.372707
O O15 0.462534 0.583705 0.130202
O O16 0.700611 0.086516 0.899302
O O17 0.744098 0.330674 0.570108
#
# Coordination Sequence:
#
# PCOD8000917 Si02
#       8
#     2   2   2   2   2   2   2   2
#     4   9  19  37  65  85 117 160 199 253 306 354
#     4  11  21  37  64  90 123 155 204 247 297 359
#     4  11  21  38  59  87 123 163 205 242 288 360
#     4  11  23  38  58  90 126 157 197 248 300 352
#     4  11  21  38  63  85 124 163 200 243 301 360
#     4  11  22  40  61  92 121 160 202 242 297 364
#     4  10  20  36  62  91 118 157 201 251 310 349
#     4  10  19  40  66  86 118 163 202 245 306 356
#
# _framework density 20.996547
#
# number of rings (size 3 to 8) (size 9 to 14) (size 15 to 20)
#    0.000    1.500    3.750    3.750    1.750    1.000 
#    0.000   10.000    0.000    0.000    0.000    0.000 
#    0.000    0.000    0.000    0.000    0.000    0.000 
#
# Total GULP energy -198330.768746 kJ/mol
# GULP energy per Si atom -12395.673047 kJ/mol
# Density = 2.094876 g / cm^3
# Si number density = 20.996547 Si / 1000 Ang^3
#
#
#
# Elastic Constant Matrix: (Units=GPa)
#
#
# Indices 1 2 3 4 5 6 
#
# 1 56.9025 34.6395 27.2261 -5.4783 10.6158 -32.2504
# 2 34.6395 114.4210 44.0528 1.0498 -8.2939 -23.2515
# 3 27.2261 44.0528 147.1624 9.8676 -9.8761 -15.2517
# 4 -5.4783 1.0498 9.8676 45.2377 -14.2397 -11.1159
# 5 10.6158 -8.2939 -9.8761 -14.2397 33.6149 -0.2780
# 6 -32.2504 -23.2515 -15.2517 -11.1159 -0.2780 38.2405
#
#
#
# Elastic Compliance Matrix: (Units=1/GPa)
#
#
# Indices 1 2 3 4 5 6 
#
# 1 0.050339 -0.006141 -0.005038 0.013195 -0.012968 0.040453
# 2 -0.006141 0.012106 -0.002064 0.001424 0.004938 0.001808
# 3 -0.005038 -0.002064 0.008379 -0.002274 0.002557 -0.002805
# 4 0.013195 0.001424 -0.002274 0.032128 0.009296 0.020494
# 5 -0.012968 0.004938 0.002557 0.009296 0.039719 -0.003924
# 6 0.040453 0.001808 -0.002805 0.020494 -0.003924 0.066176
#
#
# Mechanical properties :
#
#
# Convention : Reuss Voigt Hill
#
# Bulk Modulus (GPa) = 22.55395 58.92473 40.73934
# Shear Modulus (GPa) = 19.99101 37.58980 28.79041
#
# Velocity S-wave (km/s) = 3.08897 4.23577 3.70699
# Velocity P-wave (km/s) = 4.84638 7.21438 6.14551
#
# Compressibility (1/GPa) = 0.04433813
#
# Stress axis : x y z
#
# Youngs Moduli (GPa) = 19.86517 82.60425 119.35162
#
# Poissons Ratio (x) = 0.50726 0.60124
# Poissons Ratio (y) = 0.12199 0.24640
# Poissons Ratio (z) = 0.10007 0.17053
#
# Static dielectric constant tensor:
#      x y z
#    x 3.742440 -0.377240 -0.135550 
#    y -0.377240 3.900070 0.089930 
#    z -0.135550 0.089930 4.528180 
# 
# 
# High freq. dielectric constant tensor:
#      x y z
#    x 1.808940 -0.039750 -0.001670 
#    y -0.039750 1.802780 0.012080 
#    z -0.001670 0.012080 1.843140 
# 
# From -- ./inp_files/203302.got.cif
#   From: 2010.06.25/outbox.cif.g09.slc.cpg/sg2_102_cif.got.tgz:203302.got - 2010.06.27 13:26:56.
