data_PCOD8000984
_publ_section_title
;
Structure prediction by ZEFSAII (Michael W. Deem and Ramdas Pophale) SiO2 
 PCOD8000984
Probable space group: P -1
;
_chemical_formula_sum "Si O2"
_cell_formula_units_Z 16
_cell_length_a 16.590365
_cell_length_b 20.083005
_cell_length_c 15.991321
_cell_angle_alpha 34.590891
_cell_angle_beta 162.630238
_cell_angle_gamma 147.268340
_cell_volume 853.179230
_symmetry_space_group_name_H-M "P -1"
_symmetry_group_IT_number 2
_symmetry_cell_setting 'triclinic'
loop_
_space_group_symop_operation_xyz
x,y,z
-x,-y,-z
loop_
_atom_site_type_symbol
_atom_site_label
_atom_site_fract_x
_atom_site_fract_y
_atom_site_fract_z
Si Si1 0.926820 0.084894 0.979123
Si Si2 0.415227 0.912297 0.086241
Si Si3 0.486581 0.809119 0.822085
Si Si4 0.049097 0.029865 0.333046
Si Si5 0.603427 0.342278 0.745870
Si Si6 0.088798 0.232526 0.605287
Si Si7 0.861412 0.607368 0.666149
Si Si8 0.502366 0.870664 0.598386
O O1 0.733412 0.168095 0.670070
O O2 0.728911 0.942867 0.928481
O O3 0.053929 0.114013 0.168450
O O4 0.185690 0.113565 0.141667
O O5 0.634671 0.954797 0.336641
O O6 0.388271 0.772885 0.181147
O O7 0.113591 0.921399 0.806981
O O8 0.500000 0.000000 0.000000
O O9 0.199356 0.809178 0.582801
O O10 0.424928 0.772257 0.700968
O O11 0.633628 0.720707 0.107134
O O12 0.897500 0.883986 0.315978
O O13 0.682136 0.461207 0.639660
O O14 0.292292 0.318456 0.503186
O O15 0.820966 0.367733 0.012064
O O16 0.109909 0.347138 0.447698
O O17 0.500000 0.000000 0.500000
#
# Coordination Sequence:
#
# PCOD8000984 Si02
#       8
#     2   2   2   2   2   2   2   2
#     4  10  18  29  43  63  95 133 162 189 230 282
#     4  12  22  34  50  71  99 127 160 198 238 282
#     4  10  18  27  44  70  98 128 162 194 234 290
#     4  11  21  32  47  70  99 129 161 193 233 289
#     4  10  21  36  53  72  92 127 166 201 241 283
#     4  11  19  31  47  71 101 130 159 195 243 283
#     4  10  20  36  54  70  95 125 163 203 242 285
#     4  10  16  27  43  63  94 131 162 189 230 282
#
# _framework density 18.753387
#
# number of rings (size 3 to 8) (size 9 to 14) (size 15 to 20)
#    0.000    1.500    0.000   10.875    0.000    0.000 
#    0.000    0.000    0.000    0.000    0.000    0.000 
#    0.000   20.000    0.000    0.000    0.000    0.000 
#
# Total GULP energy -198353.455350 kJ/mol
# GULP energy per Si atom -12397.090959 kJ/mol
# Density = 1.871070 g / cm^3
# Si number density = 18.753387 Si / 1000 Ang^3
#
#
#
# Elastic Constant Matrix: (Units=GPa)
#
#
# Indices 1 2 3 4 5 6 
#
# 1 109.4954 29.0675 32.1548 -11.8401 -10.9683 15.8040
# 2 29.0675 41.5010 13.6866 -10.7829 -2.7180 6.3590
# 3 32.1548 13.6866 100.1256 -3.3918 -10.0517 6.8855
# 4 -11.8401 -10.7829 -3.3918 18.4205 -0.7574 -4.4513
# 5 -10.9683 -2.7180 -10.0517 -0.7574 53.9997 -2.2438
# 6 15.8040 6.3590 6.8855 -4.4513 -2.2438 13.7309
#
#
#
# Elastic Compliance Matrix: (Units=1/GPa)
#
#
# Indices 1 2 3 4 5 6 
#
# 1 0.013423 -0.006369 -0.002507 0.002002 0.001538 -0.010343
# 2 -0.006369 0.033310 -0.001834 0.014479 0.000142 -0.002459
# 3 -0.002507 -0.001834 0.011288 -0.001040 0.001401 -0.002035
# 4 0.002002 0.014479 -0.001040 0.067275 0.002456 0.013723
# 5 0.001538 0.000142 0.001401 0.002456 0.019191 0.001394
# 6 -0.010343 -0.002459 -0.002035 0.013723 0.001394 0.091568
#
#
# Mechanical properties :
#
#
# Convention : Reuss Voigt Hill
#
# Bulk Modulus (GPa) = 27.32138 44.54885 35.93512
# Shear Modulus (GPa) = 18.54075 28.97776 23.75926
#
# Velocity S-wave (km/s) = 3.14771 3.93517 3.56326
# Velocity P-wave (km/s) = 5.27363 6.66739 6.01104
#
# Compressibility (1/GPa) = 0.03660137
#
# Stress axis : x y z
#
# Youngs Moduli (GPa) = 74.49867 30.02130 88.58616
#
# Poissons Ratio (x) = 0.19121 0.22206
# Poissons Ratio (y) = 0.47450 0.16246
# Poissons Ratio (z) = 0.18674 0.05506
#
# Static dielectric constant tensor:
#      x y z
#    x 3.513340 0.236660 -0.435430 
#    y 0.236660 2.896170 -0.054650 
#    z -0.435430 -0.054650 4.214730 
# 
# 
# High freq. dielectric constant tensor:
#      x y z
#    x 1.740860 0.021390 -0.008090 
#    y 0.021390 1.650770 0.003860 
#    z -0.008090 0.003860 1.762680 
# 
# From -- ./inp_files/439579.got.cif
#   From: 2010.06.25/outbox.cif.g09.slc.cpg/sg2_220_cif.got.tgz:439579.got - 2010.06.27 13:26:56.
