data_PCOD8000826
_publ_section_title
;
Structure prediction by ZEFSAII (Michael W. Deem and Ramdas Pophale) SiO2 
 PCOD8000826
Probable space group: P -1
;
_chemical_formula_sum "Si O2"
_cell_formula_units_Z 16
_cell_length_a 18.715789
_cell_length_b 5.128406
_cell_length_c 8.980749
_cell_angle_alpha 114.583132
_cell_angle_beta 116.407385
_cell_angle_gamma 68.123748
_cell_volume 683.193834
_symmetry_space_group_name_H-M "P -1"
_symmetry_group_IT_number 2
_symmetry_cell_setting 'triclinic'
loop_
_space_group_symop_operation_xyz
x,y,z
-x,-y,-z
loop_
_atom_site_type_symbol
_atom_site_label
_atom_site_fract_x
_atom_site_fract_y
_atom_site_fract_z
Si Si1 0.573455 0.727045 0.977191
Si Si2 0.635367 0.791805 0.352522
Si Si3 0.785273 0.426880 0.293973
Si Si4 0.739230 0.816895 0.062572
Si Si5 0.954576 0.113895 0.331149
Si Si6 0.455479 0.547702 0.623948
Si Si7 0.116177 0.299131 0.024932
Si Si8 0.978632 0.535602 0.746207
O O1 0.530413 0.498432 0.799799
O O2 0.611075 0.608476 0.143908
O O3 0.643850 0.807810 0.955641
O O4 0.500000 0.000000 0.000000
O O5 0.734090 0.668967 0.422087
O O6 0.593344 0.703966 0.442121
O O7 0.609012 0.135453 0.367207
O O8 0.782509 0.581496 0.168474
O O9 0.881720 0.335549 0.410516
O O10 0.745956 0.142644 0.191777
O O11 0.788646 0.714259 0.929737
O O12 0.996166 0.193901 0.613490
O O13 0.021552 0.265104 0.351939
O O14 0.903871 0.007846 0.121968
O O15 0.500000 0.500000 0.500000
O O16 0.053140 0.554907 0.933620
O O17 0.103647 0.361713 0.205986
#
# Coordination Sequence:
#
# PCOD8000826 Si02
#       8
#     2   2   2   2   2   2   2   2
#     4   9  19  34  52  71  94 124 162 194 235 280
#     4  10  20  34  53  72  94 124 157 196 233 282
#     4  10  16  27  41  63  87 113 150 188 227 262
#     4  10  18  26  40  62  86 116 154 192 222 269
#     4   9  14  22  32  52  75 111 145 177 210 262
#     4  11  22  36  52  72  95 124 157 196 240 284
#     4   8  16  21  33  49  79 112 152 172 215 265
#     4   9  15  20  33  47  78 115 150 169 213 270
#
# _framework density 23.419418
#
# number of rings (size 3 to 8) (size 9 to 14) (size 15 to 20)
#    0.750    1.750    1.250    3.375    0.000    3.000 
#    0.000    0.000    0.000    0.000    0.000    0.000 
#    0.000    0.000    0.000    6.750    2.250    0.000 
#
# Total GULP energy -198214.738819 kJ/mol
# GULP energy per Si atom -12388.421176 kJ/mol
# Density = 2.336611 g / cm^3
# Si number density = 23.419418 Si / 1000 Ang^3
#
#
#
# Elastic Constant Matrix: (Units=GPa)
#
#
# Indices 1 2 3 4 5 6 
#
# 1 173.1704 47.4419 18.7905 -4.7177 -38.5868 -15.4872
# 2 47.4419 114.9457 7.9873 -14.9310 -4.8665 5.8125
# 3 18.7905 7.9873 41.1535 -2.8130 -18.9819 -7.7919
# 4 -4.7177 -14.9310 -2.8130 21.2967 1.0209 -6.9590
# 5 -38.5868 -4.8665 -18.9819 1.0209 34.0882 -2.3100
# 6 -15.4872 5.8125 -7.7919 -6.9590 -2.3100 46.3990
#
#
#
# Elastic Compliance Matrix: (Units=1/GPa)
#
#
# Indices 1 2 3 4 5 6 
#
# 1 0.009759 -0.003847 0.003080 0.000910 0.012525 0.005017
# 2 -0.003847 0.011185 -0.002543 0.006078 -0.004520 -0.002426
# 3 0.003080 -0.002543 0.036664 0.005714 0.024016 0.009556
# 4 0.000910 0.006078 0.005714 0.054900 0.004041 0.008937
# 5 0.012525 -0.004520 0.024016 0.004041 0.056949 0.012221
# 6 0.005017 -0.002426 0.009556 0.008937 0.012221 0.027084
#
#
# Mechanical properties :
#
#
# Convention : Reuss Voigt Hill
#
# Bulk Modulus (GPa) = 19.61272 53.07876 36.34574
# Shear Modulus (GPa) = 22.71120 37.36012 30.03566
#
# Velocity S-wave (km/s) = 3.11747 3.99841 3.58510
# Velocity P-wave (km/s) = 4.62071 6.63551 5.71756
#
# Compressibility (1/GPa) = 0.05098731
#
# Stress axis : x y z
#
# Youngs Moduli (GPa) = 102.47241 89.40565 27.27497
#
# Poissons Ratio (x) = 0.34393 -0.08401
# Poissons Ratio (y) = 0.39420 0.06937
# Poissons Ratio (z) = -0.31562 0.22738
#
# Static dielectric constant tensor:
#      x y z
#    x 4.657140 -0.312930 0.205490 
#    y -0.312930 4.428040 -0.191210 
#    z 0.205490 -0.191210 4.525660 
# 
# 
# High freq. dielectric constant tensor:
#      x y z
#    x 1.940440 -0.010180 -0.020740 
#    y -0.010180 1.927410 -0.001020 
#    z -0.020740 -0.001020 1.891800 
# 
# From -- ./inp_files/44554.got.cif
#   From: 2010.06.25/outbox.cif.g09.slc.cpg/sg2_23_cif.got.tgz:44554.got - 2010.06.27 13:26:56.
