data_PCOD8000121
_publ_section_title
;
Structure prediction by ZEFSAII (Michael W. Deem and Ramdas Pophale) SiO2 
 PCOD8000121
Probable space group: P 1
;
_chemical_formula_sum "Si O2"
_cell_formula_units_Z 8
_cell_length_a 5.228588
_cell_length_b 11.099304
_cell_length_c 10.136988
_cell_angle_alpha 140.788667
_cell_angle_beta 106.852278
_cell_angle_gamma 83.608401
_cell_volume 349.636771
_symmetry_space_group_name_H-M "P 1"
_symmetry_group_IT_number 1
_symmetry_cell_setting 'triclinic'
loop_
_space_group_symop_operation_xyz
x,y,z
loop_
_atom_site_type_symbol
_atom_site_label
_atom_site_fract_x
_atom_site_fract_y
_atom_site_fract_z
Si Si1 0.783470 0.436180 0.185630
Si Si2 0.036203 0.223937 0.559671
Si Si3 0.480358 0.973706 0.354824
Si Si4 0.160545 0.273212 0.901255
Si Si5 0.961811 0.485902 0.531669
Si Si6 0.354607 0.834966 0.945594
Si Si7 0.792522 0.870291 0.842699
Si Si8 0.788014 0.883660 0.561195
O O1 0.902627 0.370344 0.286337
O O2 0.855653 0.669551 0.387715
O O3 0.463916 0.344173 0.060070
O O4 0.937362 0.362354 0.024168
O O5 0.252396 0.103409 0.434734
O O6 0.162604 0.346536 0.811292
O O7 0.935189 0.347019 0.534177
O O8 0.768583 0.090837 0.458065
O O9 0.524778 0.881992 0.426384
O O10 0.405235 0.815622 0.093261
O O11 0.059457 0.038220 0.691118
O O12 0.266181 0.617094 0.690052
O O13 0.749949 0.634200 0.641109
O O14 0.112469 0.957864 0.991072
O O15 0.615518 0.943041 0.994125
O O16 0.704910 0.938226 0.743632
#
# Coordination Sequence:
#
# PCOD8000121 Si02
#       8
#     1   1   1   1   1   1   1   1
#     4  11  26  44  73 100 134 187 222 277 353 388
#     4  11  25  44  64  95 140 166 221 284 325 404
#     4  11  25  42  66  98 129 182 214 269 353 387
#     4  11  26  45  68 105 136 179 230 274 343 405
#     4   9  25  42  66  96 136 165 229 275 330 406
#     4  10  22  41  64  97 126 172 224 260 334 406
#     4   9  22  39  68  92 131 175 212 281 331 382
#     4  10  25  47  69 101 144 170 232 288 323 416
#
# _framework density 22.880887999999999
#
# number of rings (size 3 to 8) (size 9 to 14) (size 15 to 20)
#    0.750    1.000    0.000    2.250    7.000   10.000 
#    0.000    0.000    0.000    0.000    0.000    0.000 
#    0.000    0.000    0.000    0.000    0.000    0.000 
#
# Total GULP energy -99131.929875 kJ/mol
# GULP energy per Si atom -12391.491234 kJ/mol
# Density = 2.282881 g / cm^3
# Si number density = 22.880888 Si / 1000 Ang^3
#
#
#
# Elastic Constant Matrix: (Units=GPa)
#
#
# Indices 1 2 3 4 5 6 
#
# 1 132.1320 22.5524 34.3668 -11.0429 -2.9246 14.7174
# 2 22.5524 119.3986 44.1796 -39.5304 0.9966 -8.3384
# 3 34.3668 44.1796 126.5221 -37.6175 13.0336 -0.0827
# 4 -11.0429 -39.5304 -37.6175 52.9532 3.6357 6.9859
# 5 -2.9246 0.9966 13.0336 3.6357 31.3327 -9.7663
# 6 14.7174 -8.3384 -0.0827 6.9859 -9.7663 21.6641
#
#
#
# Elastic Compliance Matrix: (Units=1/GPa)
#
#
# Indices 1 2 3 4 5 6 
#
# 1 0.009097 -0.001360 -0.001730 0.000658 -0.000723 -0.007248
# 2 -0.001360 0.011763 -0.001798 0.006714 0.000570 0.003536
# 3 -0.001730 -0.001798 0.012301 0.008344 -0.007985 -0.005760
# 4 0.000658 0.006714 0.008344 0.032550 -0.011630 -0.013570
# 5 -0.000723 0.000570 -0.007985 -0.011630 0.044075 0.024300
# 6 -0.007248 0.003536 -0.005760 -0.013570 0.024300 0.067753
#
#
# Mechanical properties :
#
#
# Convention : Reuss Voigt Hill
#
# Bulk Modulus (GPa) = 42.76526 64.47225 53.61875
# Shear Modulus (GPa) = 25.62650 39.65359 32.64004
#
# Velocity S-wave (km/s) = 3.35026 4.16750 3.78103
# Velocity P-wave (km/s) = 5.80488 7.16910 6.52275
#
# Compressibility (1/GPa) = 0.02338347
#
# Stress axis : x y z
#
# Youngs Moduli (GPa) = 109.92893 85.01427 81.29349
#
# Poissons Ratio (x) = 0.11563 0.14068
# Poissons Ratio (y) = 0.14952 0.14616
# Poissons Ratio (z) = 0.19023 0.15285
#
# Static dielectric constant tensor:
#      x y z
#    x 3.859980 -0.055520 0.182910 
#    y -0.055520 4.324480 -0.485200 
#    z 0.182910 -0.485200 4.508000 
# 
# 
# High freq. dielectric constant tensor:
#      x y z
#    x 1.894760 0.004130 0.007680 
#    y 0.004130 1.895730 -0.025470 
#    z 0.007680 -0.025470 1.914350 
# 
# From -- ./inp_files/3191.got.cif
#   From: 2010.03.12/outbox.cif.g09.slc.cpg/sg1_2_cif.got.tgz:3191.got - 2010.03.29 11:57:58.
