data_PCOD8000522
_publ_section_title
;
Structure prediction by ZEFSAII (Michael W. Deem and Ramdas Pophale) SiO2 
 PCOD8000522
Probable space group: P -1
;
_chemical_formula_sum "Si O2"
_cell_formula_units_Z 16
_cell_length_a 11.144658
_cell_length_b 11.497439
_cell_length_c 12.252484
_cell_angle_alpha 63.003751
_cell_angle_beta 144.251826
_cell_angle_gamma 93.254570
_cell_volume 654.644125
_symmetry_space_group_name_H-M "P -1"
_symmetry_group_IT_number 2
_symmetry_cell_setting 'triclinic'
loop_
_space_group_symop_operation_xyz
x,y,z
-x,-y,-z
loop_
_atom_site_type_symbol
_atom_site_label
_atom_site_fract_x
_atom_site_fract_y
_atom_site_fract_z
Si Si1 0.348398 0.370714 0.444528
Si Si2 0.200700 0.047537 0.785891
Si Si3 0.253279 0.430453 0.798723
Si Si4 0.718763 0.857832 0.962215
Si Si5 0.168382 0.167441 0.356052
Si Si6 0.897798 0.259560 0.900399
Si Si7 0.663176 0.728863 0.284505
Si Si8 0.827360 0.281361 0.266063
O O1 0.228363 0.296935 0.320034
O O2 0.653297 0.261446 0.693451
O O3 0.204252 0.556930 0.225529
O O4 0.303585 0.361413 0.542515
O O5 0.302964 0.125077 0.745900
O O6 0.920830 0.133908 0.485780
O O7 0.192789 0.097303 0.883931
O O8 0.359075 0.851424 0.970452
O O9 0.273456 0.300108 0.948264
O O10 0.524914 0.392045 0.985620
O O11 0.165102 0.414847 0.617633
O O12 0.091374 0.606887 0.664987
O O13 0.432581 0.998911 0.655058
O O14 0.918424 0.820484 0.032880
O O15 0.956456 0.229117 0.266114
O O16 0.052289 0.149462 0.167473
#
# Coordination Sequence:
#
# PCOD8000522 Si02
#       8
#     2   2   2   2   2   2   2   2
#     4  11  23  44  68  96 129 176 226 272 321 389
#     4  10  20  37  65  93 127 161 209 259 328 394
#     4  10  24  37  63  99 134 161 216 271 331 402
#     4  11  24  44  63  97 131 172 219 270 325 392
#     4  12  23  46  69  90 136 175 218 277 325 387
#     4  11  27  43  66  98 128 182 227 266 325 382
#     4  10  19  39  63  92 125 165 204 265 325 384
#     4  11  22  40  63 101 126 171 211 269 340 389
#
# _framework density 24.440760000000001
#
# number of rings (size 3 to 8) (size 9 to 14) (size 15 to 20)
#    0.000    1.250    2.500    3.750    1.750    4.500 
#    4.500    0.000    0.000    0.000    0.000    0.000 
#    0.000    0.000    0.000    0.000    0.000    0.000 
#
# Total GULP energy -198381.935748 kJ/mol
# GULP energy per Si atom -12398.870984 kJ/mol
# Density = 2.438513 g / cm^3
# Si number density = 24.440760 Si / 1000 Ang^3
#
#
#
# Elastic Constant Matrix: (Units=GPa)
#
#
# Indices 1 2 3 4 5 6 
#
# 1 140.2950 37.6389 47.2134 8.4719 17.0269 -33.6933
# 2 37.6389 55.4965 3.0244 -9.0300 10.5235 -9.5798
# 3 47.2134 3.0244 75.1178 -3.2428 1.3160 -4.5858
# 4 8.4719 -9.0300 -3.2428 34.1003 -6.3318 3.3665
# 5 17.0269 10.5235 1.3160 -6.3318 40.4429 1.1686
# 6 -33.6933 -9.5798 -4.5858 3.3665 1.1686 32.5223
#
#
#
# Elastic Compliance Matrix: (Units=1/GPa)
#
#
# Indices 1 2 3 4 5 6 
#
# 1 0.019068 -0.009908 -0.010928 -0.011421 -0.007366 0.016742
# 2 -0.009908 0.025755 0.005460 0.009887 -0.001076 -0.002893
# 3 -0.010928 0.005460 0.019738 0.007546 0.003946 -0.007852
# 4 -0.011421 0.009887 0.007546 0.038240 0.008327 -0.012113
# 5 -0.007366 -0.001076 0.003946 0.008327 0.029552 -0.009315
# 6 0.016742 -0.002893 -0.007852 -0.012113 -0.009315 0.047722
#
#
# Mechanical properties :
#
#
# Convention : Reuss Voigt Hill
#
# Bulk Modulus (GPa) = 29.57843 49.62920 39.60381
# Shear Modulus (GPa) = 22.51276 33.61528 28.06402
#
# Velocity S-wave (km/s) = 3.03828 3.71263 3.39226
# Velocity P-wave (km/s) = 4.94334 6.22320 5.61982
#
# Compressibility (1/GPa) = 0.03380842
#
# Stress axis : x y z
#
# Youngs Moduli (GPa) = 52.44444 38.82754 50.66347
#
# Poissons Ratio (x) = 0.38471 0.55363
# Poissons Ratio (y) = 0.51963 -0.27660
# Poissons Ratio (z) = 0.57309 -0.21198
#
# Static dielectric constant tensor:
#      x y z
#    x 4.289260 0.112370 0.260340 
#    y 0.112370 4.594600 0.003760 
#    z 0.260340 0.003760 5.140710 
# 
# 
# High freq. dielectric constant tensor:
#      x y z
#    x 1.966890 -0.000510 0.019800 
#    y -0.000510 1.973340 0.002390 
#    z 0.019800 0.002390 2.013780 
# 
# From -- ./inp_files/427403.got.cif
#   From: 2010.06.25/outbox.cif.g09.slc.cpg/sg2_214_cif.got.tgz:427403.got - 2010.06.27 13:26:56.
