data_PCOD8000297
_publ_section_title
;
Structure prediction by ZEFSAII (Michael W. Deem and Ramdas Pophale) SiO2 
 PCOD8000297
Probable space group: P 1
;
_chemical_formula_sum "Si O2"
_cell_formula_units_Z 8
_cell_length_a 11.288934
_cell_length_b 14.879478
_cell_length_c 5.313968
_cell_angle_alpha 69.089844
_cell_angle_beta 61.931079
_cell_angle_gamma 31.105680
_cell_volume 404.823789
_symmetry_space_group_name_H-M "P 1"
_symmetry_group_IT_number 1
_symmetry_cell_setting 'triclinic'
loop_
_space_group_symop_operation_xyz
x,y,z
loop_
_atom_site_type_symbol
_atom_site_label
_atom_site_fract_x
_atom_site_fract_y
_atom_site_fract_z
Si Si1 0.071050 0.151720 0.832070
Si Si2 0.748876 0.625236 0.681002
Si Si3 0.288291 0.221660 0.544821
Si Si4 0.278397 0.810356 0.966007
Si Si5 0.571852 0.828977 0.154411
Si Si6 0.992128 0.145752 0.416934
Si Si7 0.026503 0.913588 0.614557
Si Si8 0.566068 0.058737 0.929919
O O1 0.276485 0.111545 0.666646
O O2 0.905414 0.256470 0.640433
O O3 0.196072 0.971656 0.887432
O O4 0.905664 0.256468 0.145400
O O5 0.571954 0.637470 0.845105
O O6 0.708611 0.710227 0.888671
O O7 0.019487 0.423540 0.611324
O O8 0.708001 0.711256 0.384729
O O9 0.424733 0.177463 0.701691
O O10 0.425252 0.177082 0.203611
O O11 0.187759 0.808325 0.811031
O O12 0.188008 0.808106 0.306231
O O13 0.595437 0.928275 0.030527
O O14 0.290237 0.962992 0.301978
O O15 0.887976 0.100030 0.566533
O O16 0.832019 0.945660 0.776862
#
# Coordination Sequence:
#
# PCOD8000297 Si02
#       8
#     1   1   1   1   1   1   1   1
#     4  10  16  32  55  82 105 140 187 238 255 325
#     4  12  22  35  61  88 115 148 183 246 286 330
#     4  12  23  36  55  90 123 141 187 235 293 332
#     4  10  17  35  57  84 107 143 195 229 282 321
#     4  12  19  38  61  86 109 149 200 232 275 330
#     4  10  16  32  59  79 106 130 194 232 266 309
#     4  10  20  32  58  84 108 142 190 242 262 327
#     4  12  23  38  58  87 115 151 192 230 277 342
#
# _framework density 19.761683000000001
#
# number of rings (size 3 to 8) (size 9 to 14) (size 15 to 20)
#    0.000    1.000    7.500    2.250    0.000    0.000 
#    0.000    0.000    0.000   18.000    0.000    0.000 
#    0.000    0.000    0.000    0.000    0.000    0.000 
#
# Total GULP energy -99150.369425 kJ/mol
# GULP energy per Si atom -12393.796178 kJ/mol
# Density = 1.971670 g / cm^3
# Si number density = 19.761683 Si / 1000 Ang^3
#
#
#
# Elastic Constant Matrix: (Units=GPa)
#
#
# Indices 1 2 3 4 5 6 
#
# 1 90.0988 37.9980 64.2811 -1.1595 9.1920 -16.9552
# 2 37.9980 67.8521 42.8164 8.0435 1.3792 -15.2140
# 3 64.2811 42.8164 166.2923 -1.3449 44.1734 -17.8479
# 4 -1.1595 8.0435 -1.3449 17.1349 -9.2592 0.1803
# 5 9.1920 1.3792 44.1734 -9.2592 50.0916 -6.7400
# 6 -16.9552 -15.2140 -17.8479 0.1803 -6.7400 18.2329
#
#
#
# Elastic Compliance Matrix: (Units=1/GPa)
#
#
# Indices 1 2 3 4 5 6 
#
# 1 0.019080 -0.005702 -0.006059 0.005671 0.004197 0.008550
# 2 -0.005702 0.024251 -0.003665 -0.010350 0.003407 0.012707
# 3 -0.006059 -0.003665 0.011819 -0.003094 -0.009882 -0.000745
# 4 0.005671 -0.010350 -0.003094 0.071468 0.014973 -0.001564
# 5 0.004197 0.003407 -0.009882 0.014973 0.031747 0.008660
# 6 0.008550 0.012707 -0.000745 -0.001564 0.008660 0.075887
#
#
# Mechanical properties :
#
#
# Convention : Reuss Voigt Hill
#
# Bulk Modulus (GPa) = 41.15459 68.27049 54.71254
# Shear Modulus (GPa) = 18.30139 29.03504 23.66821
#
# Velocity S-wave (km/s) = 3.04650 3.83725 3.46451
# Velocity P-wave (km/s) = 5.76589 7.36577 6.61438
#
# Compressibility (1/GPa) = 0.02429862
#
# Stress axis : x y z
#
# Youngs Moduli (GPa) = 52.41055 41.23579 84.60780
#
# Poissons Ratio (x) = 0.23514 0.51262
# Poissons Ratio (y) = 0.29887 0.31005
# Poissons Ratio (z) = 0.31754 0.15111
#
# Static dielectric constant tensor:
#      x y z
#    x 3.967460 -0.115250 0.846220 
#    y -0.115250 3.097990 -0.282430 
#    z 0.846220 -0.282430 4.916710 
# 
# 
# High freq. dielectric constant tensor:
#      x y z
#    x 1.770670 -0.000170 0.027950 
#    y -0.000170 1.716990 -0.015160 
#    z 0.027950 -0.015160 1.800270 
# 
# From -- ./inp_files/1137.got.cif
#   From: 2010.03.12/outbox.cif.g09.slc.cpg/sg1_1_cif.got.tgz:1137.got - 2010.03.29 11:57:58.
