data_PCOD8000904
_publ_section_title
;
Structure prediction by ZEFSAII (Michael W. Deem and Ramdas Pophale) SiO2 
 PCOD8000904
Probable space group: P -1
;
_chemical_formula_sum "Si O2"
_cell_formula_units_Z 16
_cell_length_a 22.206317
_cell_length_b 8.672786
_cell_length_c 8.634764
_cell_angle_alpha 132.135051
_cell_angle_beta 142.683839
_cell_angle_gamma 57.450369
_cell_volume 747.547373
_symmetry_space_group_name_H-M "P -1"
_symmetry_group_IT_number 2
_symmetry_cell_setting 'triclinic'
loop_
_space_group_symop_operation_xyz
x,y,z
-x,-y,-z
loop_
_atom_site_type_symbol
_atom_site_label
_atom_site_fract_x
_atom_site_fract_y
_atom_site_fract_z
Si Si1 0.769120 0.736385 0.274510
Si Si2 0.422418 0.385680 0.871471
Si Si3 0.914655 0.528662 0.218509
Si Si4 0.741458 0.355708 0.177832
Si Si5 0.943710 0.187575 0.436813
Si Si6 0.431082 0.937862 0.461087
Si Si7 0.453538 0.200021 0.119601
Si Si8 0.898699 0.078354 0.919559
O O1 0.831810 0.697823 0.219832
O O2 0.765776 0.506531 0.186166
O O3 0.816603 0.906504 0.600292
O O4 0.660129 0.827065 0.076135
O O5 0.317487 0.508907 0.722153
O O6 0.402096 0.149956 0.629795
O O7 0.500000 0.500000 0.000000
O O8 0.458742 0.388117 0.129336
O O9 0.000000 0.500000 0.500000
O O10 0.974803 0.628595 0.266821
O O11 0.869448 0.302601 0.932544
O O12 0.846798 0.261125 0.387308
O O13 0.671405 0.163391 0.864576
O O14 0.906675 0.114859 0.143334
O O15 0.000000 0.000000 0.500000
O O16 0.485438 0.772511 0.577255
O O17 0.500000 0.000000 0.500000
O O18 0.500000 0.000000 0.000000
O O19 0.000000 0.000000 0.000000
#
# Coordination Sequence:
#
# PCOD8000904 Si02
#       8
#     2   2   2   2   2   2   2   2
#     4  11  21  39  70  95 126 171 217 265 323 388
#     4  10  21  42  64  91 130 171 214 278 323 380
#     4  10  19  40  65  93 127 164 213 260 318 389
#     4  11  23  40  69  91 132 173 218 263 337 383
#     4  11  24  42  66  96 136 167 215 271 325 390
#     4  11  23  44  67  92 133 178 215 273 335 384
#     4   9  23  39  65  97 129 165 226 263 320 398
#     4  11  20  40  71  89 124 172 212 260 328 383
#
# _framework density 21.403327000000001
#
# number of rings (size 3 to 8) (size 9 to 14) (size 15 to 20)
#    0.000    1.500    6.250    0.000    5.250    3.000 
#    0.000    3.750    8.250    0.000    0.000    0.000 
#    0.000    0.000    0.000    0.000    0.000    0.000 
#
# Total GULP energy -198219.009811 kJ/mol
# GULP energy per Si atom -12388.688113 kJ/mol
# Density = 2.135461 g / cm^3
# Si number density = 21.403327 Si / 1000 Ang^3
#
#
#
# Elastic Constant Matrix: (Units=GPa)
#
#
# Indices 1 2 3 4 5 6 
#
# 1 125.1545 59.1341 39.2852 -9.6880 27.3404 -17.2405
# 2 59.1341 133.3113 52.6021 1.3964 16.1527 -17.3180
# 3 39.2852 52.6021 81.9998 21.2445 21.3040 -0.8611
# 4 -9.6880 1.3964 21.2445 41.0161 -5.1625 9.1677
# 5 27.3404 16.1527 21.3040 -5.1625 35.3587 -1.0286
# 6 -17.2405 -17.3180 -0.8611 9.1677 -1.0286 53.1545
#
#
#
# Elastic Compliance Matrix: (Units=1/GPa)
#
#
# Indices 1 2 3 4 5 6 
#
# 1 0.012337 -0.003266 -0.003289 0.003554 -0.005484 0.002165
# 2 -0.003266 0.011767 -0.006957 0.002128 0.001720 0.002328
# 3 -0.003289 -0.006957 0.025086 -0.014859 -0.011580 -0.000588
# 4 0.003554 0.002128 -0.014859 0.035081 0.010231 -0.004247
# 5 -0.005484 0.001720 -0.011580 0.010231 0.040137 -0.002394
# 6 0.002165 0.002328 -0.000588 -0.004247 -0.002394 0.020950
#
#
# Mechanical properties :
#
#
# Convention : Reuss Voigt Hill
#
# Bulk Modulus (GPa) = 45.11560 71.38982 58.25271
# Shear Modulus (GPa) = 27.81306 38.53548 33.17427
#
# Velocity S-wave (km/s) = 3.60873 4.24777 3.94122
# Velocity P-wave (km/s) = 6.20391 7.58189 6.92725
#
# Compressibility (1/GPa) = 0.02216528
#
# Stress axis : x y z
#
# Youngs Moduli (GPa) = 81.05664 84.98319 39.86315
#
# Poissons Ratio (x) = 0.27759 0.13110
# Poissons Ratio (y) = 0.26476 0.27734
# Poissons Ratio (z) = 0.26657 0.59125
#
# Static dielectric constant tensor:
#      x y z
#    x 3.869630 -0.438460 0.091200 
#    y -0.438460 4.126340 0.048980 
#    z 0.091200 0.048980 3.882330 
# 
# 
# High freq. dielectric constant tensor:
#      x y z
#    x 1.847290 -0.019840 0.023290 
#    y -0.019840 1.849550 0.020520 
#    z 0.023290 0.020520 1.813130 
# 
# From -- ./inp_files/343083.got.cif
#   From: 2010.06.25/outbox.cif.g09.slc.cpg/sg2_172_cif.got.tgz:343083.got - 2010.06.27 13:26:56.
