data_PCOD8000394
_publ_section_title
;
Structure prediction by ZEFSAII (Michael W. Deem and Ramdas Pophale) SiO2 
 PCOD8000394
Probable space group: P -1
;
_chemical_formula_sum "Si O2"
_cell_formula_units_Z 14
_cell_length_a 8.615260
_cell_length_b 9.530143
_cell_length_c 21.315380
_cell_angle_alpha 129.338589
_cell_angle_beta 31.324243
_cell_angle_gamma 117.618756
_cell_volume 690.342668
_symmetry_space_group_name_H-M "P -1"
_symmetry_group_IT_number 2
_symmetry_cell_setting 'triclinic'
loop_
_space_group_symop_operation_xyz
x,y,z
-x,-y,-z
loop_
_atom_site_type_symbol
_atom_site_label
_atom_site_fract_x
_atom_site_fract_y
_atom_site_fract_z
Si Si1 0.383800 0.863077 0.548510
Si Si2 0.273660 0.743053 0.907183
Si Si3 0.667662 0.058784 0.604872
Si Si4 0.387533 0.209792 0.869431
Si Si5 0.562683 0.623422 0.312222
Si Si6 0.685004 0.031319 0.835554
Si Si7 0.780061 0.373478 0.968220
O O1 0.493733 0.659933 0.421188
O O2 0.021308 0.913663 0.696267
O O3 0.500000 0.000000 0.500000
O O4 0.549003 0.885422 0.564119
O O5 0.480204 0.583224 0.748252
O O6 0.448837 0.907576 0.905025
O O7 0.186499 0.649213 0.974923
O O8 0.955519 0.810603 0.999477
O O9 0.438781 0.127898 0.759413
O O10 0.677285 0.225627 0.600368
O O11 0.000000 0.000000 0.500000
O O12 0.629406 0.090912 0.799238
O O13 0.420351 0.424956 0.920867
O O14 0.897165 0.653854 0.186021
O O15 0.611341 0.215662 0.955357
#
# Coordination Sequence:
#
# PCOD8000394 Si02
#       7
#     2   2   2   2   2   2   2
#     4  10  20  38  59  87 116 154 202 243 288 352
#     4  11  22  39  60  87 127 157 191 243 300 351
#     4  11  20  35  64  88 111 148 206 249 281 343
#     4  11  21  38  59  90 120 153 204 239 290 348
#     4  10  19  39  61  85 115 158 203 236 289 353
#     4  12  23  36  61  93 121 157 192 248 299 344
#     4  11  20  39  61  85 118 161 201 240 284 356
#
# _framework density 20.279783999999999
#
# number of rings (size 3 to 8) (size 9 to 14) (size 15 to 20)
#    0.000    1.143    5.714    3.857    0.000    0.571 
#    0.000    0.000    0.000    1.714    0.000    0.000 
#    0.000    0.000    0.000    0.000    0.000    0.000 
#
# Total GULP energy -173579.894001 kJ/mol
# GULP energy per Si atom -12398.563857 kJ/mol
# Density = 2.023363 g / cm^3
# Si number density = 20.279784 Si / 1000 Ang^3
#
#
#
# Elastic Constant Matrix: (Units=GPa)
#
#
# Indices 1 2 3 4 5 6 
#
# 1 121.4176 30.9328 56.7435 15.5170 -0.4150 16.9168
# 2 30.9328 88.3757 34.3758 6.7858 -3.5620 23.1328
# 3 56.7435 34.3758 108.6247 18.8033 11.1778 14.1632
# 4 15.5170 6.7858 18.8033 19.6739 8.6563 3.9322
# 5 -0.4150 -3.5620 11.1778 8.6563 39.3500 3.6216
# 6 16.9168 23.1328 14.1632 3.9322 3.6216 30.9065
#
#
#
# Elastic Compliance Matrix: (Units=1/GPa)
#
#
# Indices 1 2 3 4 5 6 
#
# 1 0.011860 -0.000885 -0.004926 -0.004932 0.002831 -0.003276
# 2 -0.000885 0.015811 -0.003413 -0.001042 0.003547 -0.010069
# 3 -0.004926 -0.003413 0.014459 -0.007503 -0.002809 -0.000091
# 4 -0.004932 -0.001042 -0.007503 0.067990 -0.012952 -0.000216
# 5 0.002831 0.003547 -0.002809 -0.012952 0.029850 -0.004767
# 6 -0.003276 -0.010069 -0.000091 -0.000216 -0.004767 0.042313
#
#
# Mechanical properties :
#
#
# Convention : Reuss Voigt Hill
#
# Bulk Modulus (GPa) = 42.22549 62.50247 52.36398
# Shear Modulus (GPa) = 23.96638 31.07713 27.52176
#
# Velocity S-wave (km/s) = 3.44144 3.91886 3.68788
# Velocity P-wave (km/s) = 6.05459 7.16684 6.63407
#
# Compressibility (1/GPa) = 0.02368238
#
# Stress axis : x y z
#
# Youngs Moduli (GPa) = 84.31789 63.24580 69.16076
#
# Poissons Ratio (x) = 0.05596 0.34067
# Poissons Ratio (y) = 0.07460 0.23607
# Poissons Ratio (z) = 0.41533 0.21588
#
# Static dielectric constant tensor:
#      x y z
#    x 3.904680 0.249860 0.403010 
#    y 0.249860 3.470800 0.393720 
#    z 0.403010 0.393720 4.151560 
# 
# 
# High freq. dielectric constant tensor:
#      x y z
#    x 1.796740 0.019270 0.011160 
#    y 0.019270 1.760260 0.017050 
#    z 0.011160 0.017050 1.798080 
# 
# From -- ./inp_files/169481.got.cif
#   From: 2010.06.25/outbox.cif.g09.slc.cpg/sg2_85_cif.got.tgz:169481.got - 2010.06.27 13:26:56.
