data_PCOD8000295
_publ_section_title
;
Structure prediction by ZEFSAII (Michael W. Deem and Ramdas Pophale) SiO2 
 PCOD8000295
Probable space group: P 1
;
_chemical_formula_sum "Si O2"
_cell_formula_units_Z 8
_cell_length_a 9.161207
_cell_length_b 8.807056
_cell_length_c 9.231272
_cell_angle_alpha 108.124303
_cell_angle_beta 46.713254
_cell_angle_gamma 77.800747
_cell_volume 406.803954
_symmetry_space_group_name_H-M "P 1"
_symmetry_group_IT_number 1
_symmetry_cell_setting 'triclinic'
loop_
_space_group_symop_operation_xyz
x,y,z
loop_
_atom_site_type_symbol
_atom_site_label
_atom_site_fract_x
_atom_site_fract_y
_atom_site_fract_z
Si Si1 0.976550 0.267490 0.818590
Si Si2 0.505688 0.959455 0.907866
Si Si3 0.981376 0.944683 0.541541
Si Si4 0.208096 0.314564 0.420635
Si Si5 0.186320 0.265629 0.970019
Si Si6 0.630021 0.265782 0.673008
Si Si7 0.439190 0.499514 0.168380
Si Si8 0.784187 0.514347 0.545336
O O1 0.157333 0.304977 0.621461
O O2 0.996758 0.078567 0.687923
O O3 0.681903 0.467252 0.066547
O O4 0.060285 0.226292 0.916006
O O5 0.775938 0.912871 0.712846
O O6 0.552200 0.748329 0.797270
O O7 0.370138 0.083318 0.183945
O O8 0.322930 0.082431 0.934266
O O9 0.251132 0.724956 0.300429
O O10 0.901718 0.046532 0.462953
O O11 0.328073 0.429933 0.342971
O O12 0.934444 0.443020 0.571571
O O13 0.962303 0.468814 0.271696
O O14 0.406463 0.270684 0.754076
O O15 0.669767 0.391924 0.573267
O O16 0.523522 0.352565 0.931789
#
# Coordination Sequence:
#
# PCOD8000295 Si02
#       8
#     1   1   1   1   1   1   1   1
#     4  11  24  38  57  89 125 159 188 234 308 345
#     4  10  20  39  65  86 115 151 203 246 288 337
#     4  10  19  36  61  87 118 151 196 242 291 341
#     4  11  20  37  60  92 115 151 196 249 282 348
#     4  10  23  41  55  85 128 155 189 244 289 355
#     4  10  20  37  59  90 110 155 201 240 288 342
#     4  11  20  37  62  87 119 152 197 248 285 346
#     4  11  20  37  65  88 112 154 200 243 293 336
#
# _framework density 19.665490999999999
#
# number of rings (size 3 to 8) (size 9 to 14) (size 15 to 20)
#    0.000    1.500    8.750    0.000    1.750    2.000 
#    0.000    0.000    0.000    0.000    0.000    0.000 
#    0.000    0.000    0.000    0.000    0.000    0.000 
#
# Total GULP energy -99131.754616 kJ/mol
# GULP energy per Si atom -12391.469327 kJ/mol
# Density = 1.962073 g / cm^3
# Si number density = 19.665491 Si / 1000 Ang^3
#
#
#
# Elastic Constant Matrix: (Units=GPa)
#
#
# Indices 1 2 3 4 5 6 
#
# 1 87.7501 21.4943 21.1309 3.5268 -8.9769 -5.8920
# 2 21.4943 99.2165 49.4561 13.6415 -9.2370 11.0476
# 3 21.1309 49.4561 68.5405 11.1068 -13.1281 -5.0623
# 4 3.5268 13.6415 11.1068 36.8390 -2.9333 -4.1526
# 5 -8.9769 -9.2370 -13.1281 -2.9333 23.1217 -2.2764
# 6 -5.8920 11.0476 -5.0623 -4.1526 -2.2764 19.6138
#
#
#
# Elastic Compliance Matrix: (Units=1/GPa)
#
#
# Indices 1 2 3 4 5 6 
#
# 1 0.013090 -0.002774 -0.000974 0.001068 0.004142 0.005950
# 2 -0.002774 0.020629 -0.015279 -0.005100 -0.003923 -0.017931
# 3 -0.000974 -0.015279 0.029519 -0.000251 0.011946 0.017265
# 4 0.001068 -0.005100 -0.000251 0.030369 0.003063 0.009914
# 5 0.004142 -0.003923 0.011946 0.003063 0.051761 0.013193
# 6 0.005950 -0.017931 0.017265 0.009914 0.013193 0.070958
#
#
# Mechanical properties :
#
#
# Convention : Reuss Voigt Hill
#
# Bulk Modulus (GPa) = 39.70860 48.85222 44.28041
# Shear Modulus (GPa) = 19.02770 26.80995 22.91882
#
# Velocity S-wave (km/s) = 3.11395 3.69629 3.41755
# Velocity P-wave (km/s) = 5.75889 6.56600 6.17564
#
# Compressibility (1/GPa) = 0.02518346
#
# Stress axis : x y z
#
# Youngs Moduli (GPa) = 76.39132 48.47653 33.87644
#
# Poissons Ratio (x) = 0.13448 0.03301
# Poissons Ratio (y) = 0.21191 0.51759
# Poissons Ratio (z) = 0.07443 0.74067
#
# Static dielectric constant tensor:
#      x y z
#    x 3.386070 0.068910 -0.373970 
#    y 0.068910 3.676170 0.134380 
#    z -0.373970 0.134380 3.725100 
# 
# 
# High freq. dielectric constant tensor:
#      x y z
#    x 1.742120 0.006520 -0.030400 
#    y 0.006520 1.763680 0.002740 
#    z -0.030400 0.002740 1.763650 
# 
# From -- ./inp_files/4042.got.cif
#   From: 2010.03.12/outbox.cif.g09.slc.cpg/sg1_3_cif.got.tgz:4042.got - 2010.03.29 11:57:58.
