data_PCOD8000512
_publ_section_title
;
Structure prediction by ZEFSAII (Michael W. Deem and Ramdas Pophale) SiO2 
 PCOD8000512
Probable space group: P -1
;
_chemical_formula_sum "Si O2"
_cell_formula_units_Z 16
_cell_length_a 8.766683
_cell_length_b 13.936633
_cell_length_c 14.270391
_cell_angle_alpha 39.897706
_cell_angle_beta 114.681868
_cell_angle_gamma 86.669124
_cell_volume 772.763228
_symmetry_space_group_name_H-M "P -1"
_symmetry_group_IT_number 2
_symmetry_cell_setting 'triclinic'
loop_
_space_group_symop_operation_xyz
x,y,z
-x,-y,-z
loop_
_atom_site_type_symbol
_atom_site_label
_atom_site_fract_x
_atom_site_fract_y
_atom_site_fract_z
Si Si1 0.663115 0.559874 0.203320
Si Si2 0.223480 0.612373 0.441968
Si Si3 0.102988 0.561920 0.836581
Si Si4 0.379658 0.251724 0.431698
Si Si5 0.174500 0.181435 0.135085
Si Si6 0.543195 0.245923 0.672753
Si Si7 0.793301 0.812823 0.073969
Si Si8 0.749340 0.384593 0.982017
O O1 0.761028 0.404878 0.429146
O O2 0.820845 0.435266 0.249226
O O3 0.657087 0.738022 0.095078
O O4 0.412377 0.662005 0.037476
O O5 0.415776 0.398630 0.609341
O O6 0.256178 0.764860 0.303656
O O7 0.989435 0.685573 0.293766
O O8 0.205342 0.618603 0.893993
O O9 0.837609 0.723987 0.654174
O O10 0.186605 0.347039 0.046042
O O11 0.382801 0.305348 0.499793
O O12 0.592781 0.031070 0.624179
O O13 0.369577 0.400575 0.250957
O O14 0.978137 0.213579 0.116330
O O15 0.112513 0.207139 0.990397
O O16 0.634971 0.039419 0.894370
#
# Coordination Sequence:
#
# PCOD8000512 Si02
#       8
#     2   2   2   2   2   2   2   2
#     4  11  23  40  59  90 129 161 193 251 305 356
#     4  11  21  38  63  88 120 156 205 242 293 360
#     4  10  22  38  61  84 122 162 199 248 300 355
#     4  10  19  39  63  91 117 154 205 246 298 352
#     4   9  20  37  64  90 117 156 200 253 290 357
#     4  10  21  37  64  91 115 156 197 253 289 356
#     4  10  22  39  61  89 123 156 196 241 306 356
#     4  11  21  38  60  89 119 159 205 245 299 352
#
# _framework density 20.704917999999999
#
# number of rings (size 3 to 8) (size 9 to 14) (size 15 to 20)
#    0.000    1.750    1.250    4.875    1.750    2.500 
#    0.000    7.500    0.000    9.000    0.000    0.000 
#    0.000    0.000    0.000    0.000    0.000    0.000 
#
# Total GULP energy -198472.231162 kJ/mol
# GULP energy per Si atom -12404.514448 kJ/mol
# Density = 2.065779 g / cm^3
# Si number density = 20.704918 Si / 1000 Ang^3
#
#
#
# Elastic Constant Matrix: (Units=GPa)
#
#
# Indices 1 2 3 4 5 6 
#
# 1 119.7258 48.1791 65.3675 12.6529 18.1966 14.0898
# 2 48.1791 82.3432 52.6904 15.9188 11.1036 13.2237
# 3 65.3675 52.6904 112.5248 -3.2593 17.5382 -0.6603
# 4 12.6529 15.9188 -3.2593 26.5962 -2.0210 6.3196
# 5 18.1966 11.1036 17.5382 -2.0210 25.2217 5.7255
# 6 14.0898 13.2237 -0.6603 6.3196 5.7255 31.0484
#
#
#
# Elastic Compliance Matrix: (Units=1/GPa)
#
#
# Indices 1 2 3 4 5 6 
#
# 1 0.014862 -0.001347 -0.007518 -0.006533 -0.004477 -0.004175
# 2 -0.001347 0.023361 -0.010310 -0.013176 -0.001710 -0.006560
# 3 -0.007518 -0.010310 0.019045 0.010139 -0.004031 0.006888
# 4 -0.006533 -0.013176 0.010139 0.051217 0.008286 -0.003160
# 5 -0.004477 -0.001710 -0.004031 0.008286 0.048921 -0.008034
# 6 -0.004175 -0.006560 0.006888 -0.003160 -0.008034 0.039168
#
#
# Mechanical properties :
#
#
# Convention : Reuss Voigt Hill
#
# Bulk Modulus (GPa) = 52.86582 71.89643 62.38113
# Shear Modulus (GPa) = 20.72708 26.46372 23.59540
#
# Velocity S-wave (km/s) = 3.16740 3.57898 3.37946
# Velocity P-wave (km/s) = 6.24219 7.20268 6.73957
#
# Compressibility (1/GPa) = 0.01891581
#
# Stress axis : x y z
#
# Youngs Moduli (GPa) = 67.28681 42.80599 52.50855
#
# Poissons Ratio (x) = 0.05768 0.39478
# Poissons Ratio (y) = 0.09067 0.54136
# Poissons Ratio (z) = 0.50589 0.44133
#
# Static dielectric constant tensor:
#      x y z
#    x 3.774770 0.049400 0.037010 
#    y 0.049400 3.793450 0.082160 
#    z 0.037010 0.082160 3.655200 
# 
# 
# High freq. dielectric constant tensor:
#      x y z
#    x 1.804860 0.000660 0.005070 
#    y 0.000660 1.815050 0.012550 
#    z 0.005070 0.012550 1.802050 
# 
# From -- ./inp_files/201635.got.cif
#   From: 2010.06.25/outbox.cif.g09.slc.cpg/sg2_101_cif.got.tgz:201635.got - 2010.06.27 13:26:56.
