data_PCOD8000288
_publ_section_title
;
Structure prediction by ZEFSAII (Michael W. Deem and Ramdas Pophale) SiO2 
 PCOD8000288
Probable space group: P 1
;
_chemical_formula_sum "Si O2"
_cell_formula_units_Z 8
_cell_length_a 7.502615
_cell_length_b 9.845665
_cell_length_c 16.017356
_cell_angle_alpha 30.807179
_cell_angle_beta 125.895871
_cell_angle_gamma 131.223476
_cell_volume 455.138508
_symmetry_space_group_name_H-M "P 1"
_symmetry_group_IT_number 1
_symmetry_cell_setting 'triclinic'
loop_
_space_group_symop_operation_xyz
x,y,z
loop_
_atom_site_type_symbol
_atom_site_label
_atom_site_fract_x
_atom_site_fract_y
_atom_site_fract_z
Si Si1 0.818680 0.505340 0.400290
Si Si2 0.953662 0.074782 0.578960
Si Si3 0.071804 0.658360 0.095932
Si Si4 0.669006 0.349255 0.266306
Si Si5 0.373084 0.466563 0.389989
Si Si6 0.172549 0.124783 0.167169
Si Si7 0.389203 0.064605 0.088694
Si Si8 0.898397 0.506689 0.948739
O O1 0.719077 0.546089 0.259612
O O2 0.609443 0.414292 0.458940
O O3 0.923803 0.253639 0.557754
O O4 0.020893 0.802996 0.323421
O O5 0.224729 0.222209 0.543285
O O6 0.768841 0.095972 0.446038
O O7 0.894736 0.747593 0.756403
O O8 0.211050 0.452675 0.270694
O O9 0.808880 0.539753 0.126326
O O10 0.220315 0.977166 0.005737
O O11 0.053584 0.661585 0.989804
O O12 0.392901 0.224344 0.237707
O O13 0.439001 0.783524 0.281612
O O14 0.254709 0.156169 0.077246
O O15 0.015469 0.314731 0.034983
O O16 0.631246 0.321482 0.998835
#
# Coordination Sequence:
#
# PCOD8000288 Si02
#       8
#     1   1   1   1   1   1   1   1
#     4  10  18  37  61  80 113 157 190 225 284 345
#     4   9  22  39  53  87 124 145 181 250 290 321
#     4   9  18  37  58  82 116 151 188 229 285 339
#     4   9  19  36  61  82 114 149 194 230 277 343
#     4   9  17  38  61  76 110 160 187 223 277 347
#     4  12  19  34  65  88 106 153 204 225 274 351
#     4  10  20  36  59  86 115 149 195 235 272 347
#     4  12  23  35  60  93 114 146 189 247 289 321
#
# _framework density 17.577068000000001
#
# number of rings (size 3 to 8) (size 9 to 14) (size 15 to 20)
#    1.500    0.500    5.000    0.750    0.000    1.000 
#    2.250    0.000    0.000    1.500    0.000    0.000 
#    0.000    0.000    0.000    0.000    0.000    0.000 
#
# Total GULP energy -99124.060653 kJ/mol
# GULP energy per Si atom -12390.507582 kJ/mol
# Density = 1.753706 g / cm^3
# Si number density = 17.577068 Si / 1000 Ang^3
#
#
#
# Elastic Constant Matrix: (Units=GPa)
#
#
# Indices 1 2 3 4 5 6 
#
# 1 120.7159 19.2359 21.7070 -12.9309 -7.3634 11.7192
# 2 19.2359 78.9717 13.3821 -8.5834 -3.2135 10.2039
# 3 21.7070 13.3821 63.1243 -18.3624 -3.0613 8.3945
# 4 -12.9309 -8.5834 -18.3624 21.2812 0.1198 -7.1365
# 5 -7.3634 -3.2135 -3.0613 0.1198 21.9682 -4.3231
# 6 11.7192 10.2039 8.3945 -7.1365 -4.3231 32.5599
#
#
#
# Elastic Compliance Matrix: (Units=1/GPa)
#
#
# Indices 1 2 3 4 5 6 
#
# 1 0.009446 -0.001371 -0.001712 0.003190 0.002412 -0.001509
# 2 -0.001371 0.013907 -0.001266 0.002730 0.000827 -0.002830
# 3 -0.001712 -0.001266 0.021851 0.017090 0.002075 -0.000599
# 4 0.003190 0.002730 0.017090 0.067816 0.005282 0.009155
# 5 0.002412 0.000827 0.002075 0.005282 0.047861 0.005850
# 6 -0.001509 -0.002830 -0.000599 0.009155 0.005850 0.035081
#
#
# Mechanical properties :
#
#
# Convention : Reuss Voigt Hill
#
# Bulk Modulus (GPa) = 27.39328 41.27353 34.33341
# Shear Modulus (GPa) = 23.05976 29.06098 26.06037
#
# Velocity S-wave (km/s) = 3.62598 4.07055 3.85468
# Velocity P-wave (km/s) = 5.75750 6.75462 6.27589
#
# Compressibility (1/GPa) = 0.03650531
#
# Stress axis : x y z
#
# Youngs Moduli (GPa) = 105.87010 71.90465 45.76533
#
# Poissons Ratio (x) = 0.09857 0.07835
# Poissons Ratio (y) = 0.14512 0.05795
# Poissons Ratio (z) = 0.18125 0.09105
#
# Static dielectric constant tensor:
#      x y z
#    x 3.282930 0.037880 -0.049040 
#    y 0.037880 3.177470 -0.092260 
#    z -0.049040 -0.092260 2.776070 
# 
# 
# High freq. dielectric constant tensor:
#      x y z
#    x 1.691450 0.007400 -0.010370 
#    y 0.007400 1.674830 -0.012650 
#    z -0.010370 -0.012650 1.633100 
# 
# From -- ./inp_files/3620.got.cif
#   From: 2010.03.12/outbox.cif.g09.slc.cpg/sg1_2_cif.got.tgz:3620.got - 2010.03.29 11:57:58.
