data_PCOD8000030
_publ_section_title
;
Structure prediction by ZEFSAII (Michael W. Deem and Ramdas Pophale) SiO2 
 PCOD8000030
Probable space group: P 1
;
_chemical_formula_sum "Si O2"
_cell_formula_units_Z 8
_cell_length_a 7.479912
_cell_length_b 8.032759
_cell_length_c 10.959181
_cell_angle_alpha 72.848266
_cell_angle_beta 138.212201
_cell_angle_gamma 124.275130
_cell_volume 353.124857
_symmetry_space_group_name_H-M "P 1"
_symmetry_group_IT_number 1
_symmetry_cell_setting 'triclinic'
loop_
_space_group_symop_operation_xyz
x,y,z
loop_
_atom_site_type_symbol
_atom_site_label
_atom_site_fract_x
_atom_site_fract_y
_atom_site_fract_z
Si Si1 0.559050 0.549870 0.785040
Si Si2 0.251701 0.824358 0.020360
Si Si3 0.614685 0.121374 0.517887
Si Si4 0.241897 0.197773 0.882972
Si Si5 0.815771 0.506987 0.697089
Si Si6 0.140143 0.663503 0.418588
Si Si7 0.423806 0.616161 0.332038
Si Si8 0.444818 0.354593 0.205471
O O1 0.490993 0.412483 0.898901
O O2 0.551691 0.423858 0.688400
O O3 0.297852 0.610286 0.622120
O O4 0.916560 0.754227 0.934044
O O5 0.170198 0.662488 0.900814
O O6 0.390731 0.054302 0.990448
O O7 0.486050 0.811414 0.239188
O O8 0.768400 0.306737 0.653562
O O9 0.533389 0.193464 0.336602
O O10 0.903292 0.081370 0.662342
O O11 0.299022 0.910699 0.445187
O O12 0.204507 0.247354 0.993747
O O13 0.751924 0.647490 0.541589
O O14 0.189925 0.582633 0.331641
O O15 0.769663 0.559309 0.279667
O O16 0.273533 0.414539 0.208895
#
# Coordination Sequence:
#
# PCOD8000030 Si02
#       8
#     1   1   1   1   1   1   1   1
#     4   9  20  39  59  90 122 163 199 252 309 365
#     4  10  20  39  62  89 125 163 199 258 312 357
#     4  11  21  42  63  91 125 162 212 255 306 375
#     4  12  21  37  66  92 120 165 211 246 314 372
#     4   8  20  39  59  88 122 161 197 258 306 355
#     4  11  21  44  65  88 132 164 201 262 314 360
#     4  10  20  41  62  85 129 162 199 257 306 361
#     4  11  25  39  64  97 123 164 210 258 305 373
#
# _framework density 22.654876999999999
#
# number of rings (size 3 to 8) (size 9 to 14) (size 15 to 20)
#    0.750    1.000    2.500    2.250    0.000    0.000 
#    6.750    5.000    0.000    0.000    0.000    0.000 
#    0.000    0.000    0.000    0.000    0.000    0.000 
#
# Total GULP energy -99114.031791 kJ/mol
# GULP energy per Si atom -12389.253974 kJ/mol
# Density = 2.260331 g / cm^3
# Si number density = 22.654877 Si / 1000 Ang^3
#
#
#
# Elastic Constant Matrix: (Units=GPa)
#
#
# Indices 1 2 3 4 5 6 
#
# 1 46.6396 27.5834 14.8407 -1.9675 -14.0009 -8.1757
# 2 27.5834 130.7232 38.8889 -18.8676 -11.5044 4.3189
# 3 14.8407 38.8889 93.8814 -28.5609 -11.3251 8.0163
# 4 -1.9675 -18.8676 -28.5609 42.1239 3.1851 -0.5954
# 5 -14.0009 -11.5044 -11.3251 3.1851 34.9193 2.1170
# 6 -8.1757 4.3189 8.0163 -0.5954 2.1170 27.0238
#
#
#
# Elastic Compliance Matrix: (Units=1/GPa)
#
#
# Indices 1 2 3 4 5 6 
#
# 1 0.030048 -0.005423 -0.003501 -0.003925 0.008865 0.010215
# 2 -0.005423 0.009942 -0.002202 0.002648 0.000299 -0.002541
# 3 -0.003501 -0.002202 0.015671 0.009216 0.002437 -0.005344
# 4 -0.003925 0.002648 0.009216 0.030963 -0.000316 -0.003637
# 5 0.008865 0.000299 0.002437 -0.000316 0.033152 -0.000693
# 6 0.010215 -0.002541 -0.005344 -0.003637 -0.000693 0.042060
#
#
# Mechanical properties :
#
#
# Convention : Reuss Voigt Hill
#
# Bulk Modulus (GPa) = 29.93139 48.20782 39.06960
# Shear Modulus (GPa) = 25.61164 33.47547 29.54355
#
# Velocity S-wave (km/s) = 3.36596 3.84816 3.61511
# Velocity P-wave (km/s) = 5.32417 6.40858 5.89138
#
# Compressibility (1/GPa) = 0.03340974
#
# Stress axis : x y z
#
# Youngs Moduli (GPa) = 33.27994 100.58706 63.81111
#
# Poissons Ratio (x) = 0.54546 0.22338
# Poissons Ratio (y) = 0.18047 0.14053
# Poissons Ratio (z) = 0.11650 0.22152
#
# Static dielectric constant tensor:
#      x y z
#    x 3.756560 -0.152550 -0.248020 
#    y -0.152550 3.879210 -0.310460 
#    z -0.248020 -0.310460 4.131220 
# 
# 
# High freq. dielectric constant tensor:
#      x y z
#    x 1.856570 -0.015440 -0.017690 
#    y -0.015440 1.882670 -0.029130 
#    z -0.017690 -0.029130 1.904660 
# 
# From -- ./inp_files/5335.got.cif
#   From: 2010.03.12/outbox.cif.g09.slc.cpg/sg1_3_cif.got.tgz:5335.got - 2010.03.29 11:57:58.
