data_PCOD8000465
_publ_section_title
;
Structure prediction by ZEFSAII (Michael W. Deem and Ramdas Pophale) SiO2 
 PCOD8000465
Probable space group: P -1
;
_chemical_formula_sum "Si O2"
_cell_formula_units_Z 12
_cell_length_a 11.975280
_cell_length_b 9.105018
_cell_length_c 9.080925
_cell_angle_alpha 88.928452
_cell_angle_beta 131.895090
_cell_angle_gamma 122.057958
_cell_volume 528.838247
_symmetry_space_group_name_H-M "P -1"
_symmetry_group_IT_number 2
_symmetry_cell_setting 'triclinic'
loop_
_space_group_symop_operation_xyz
x,y,z
-x,-y,-z
loop_
_atom_site_type_symbol
_atom_site_label
_atom_site_fract_x
_atom_site_fract_y
_atom_site_fract_z
Si Si1 0.701157 0.234363 0.215632
Si Si2 0.226598 0.243510 0.045826
Si Si3 0.034763 0.355356 0.703227
Si Si4 0.334881 0.564832 0.554384
Si Si5 0.020407 0.802564 0.893425
Si Si6 0.726774 0.222104 0.694039
O O1 0.789673 0.394724 0.156187
O O2 0.643910 0.305034 0.297587
O O3 0.892940 0.258090 0.432008
O O4 0.500000 0.000000 0.000000
O O5 0.476516 0.421782 0.279133
O O6 0.124261 0.240738 0.100343
O O7 0.156633 0.285490 0.837661
O O8 0.178681 0.039023 0.984996
O O9 0.870644 0.259253 0.690835
O O10 0.119662 0.325063 0.372673
O O11 0.311339 0.630682 0.371099
O O12 0.152571 0.744003 0.051120
O O13 0.500000 0.000000 0.500000
#
# Coordination Sequence:
#
# PCOD8000465 Si02
#       6
#     2   2   2   2   2   2
#     4  10  23  45  65  84 121 165 213 258 301 357
#     4  10  21  38  60  91 129 158 193 250 319 368
#     4   9  22  42  61  90 123 159 207 256 306 360
#     4  11  22  37  62  93 118 165 208 249 302 368
#     4  10  21  38  59  91 134 157 195 252 308 368
#     4  10  19  39  62  91 125 161 203 249 306 366
#
# _framework density 22.69125
#
# number of rings (size 3 to 8) (size 9 to 14) (size 15 to 20)
#    0.000    2.000    1.667    1.000    0.000    6.000 
#   12.000    1.667    0.000    0.000    0.000    0.000 
#    0.000    0.000    0.000    0.000    0.000    0.000 
#
# Total GULP energy -148658.910130 kJ/mol
# GULP energy per Si atom -12388.242511 kJ/mol
# Density = 2.263960 g / cm^3
# Si number density = 22.691250 Si / 1000 Ang^3
#
#
#
# Elastic Constant Matrix: (Units=GPa)
#
#
# Indices 1 2 3 4 5 6 
#
# 1 51.4592 42.4752 44.5800 -1.2908 20.4298 2.0296
# 2 42.4752 92.6242 60.6187 -10.9240 6.4524 7.6194
# 3 44.5800 60.6187 153.9628 5.0643 30.1410 -5.4294
# 4 -1.2908 -10.9240 5.0643 56.0550 -14.9685 14.5014
# 5 20.4298 6.4524 30.1410 -14.9685 37.3047 2.5197
# 6 2.0296 7.6194 -5.4294 14.5014 2.5197 29.8465
#
#
#
# Elastic Compliance Matrix: (Units=1/GPa)
#
#
# Indices 1 2 3 4 5 6 
#
# 1 0.050728 -0.026489 0.003510 -0.017342 -0.034024 0.015249
# 2 -0.026489 0.033026 -0.012201 0.019795 0.028002 -0.020831
# 3 0.003510 -0.012201 0.014379 -0.011287 -0.016796 0.012394
# 4 -0.017342 0.019795 -0.011287 0.037933 0.032243 -0.027080
# 5 -0.034024 0.028002 -0.016796 0.032243 0.069088 -0.029388
# 6 0.015249 -0.020831 0.012394 -0.027080 -0.029388 0.055678
#
#
# Mechanical properties :
#
#
# Convention : Reuss Voigt Hill
#
# Bulk Modulus (GPa) = 36.00629 65.93264 50.96946
# Shear Modulus (GPa) = 14.68648 34.66607 24.67627
#
# Velocity S-wave (km/s) = 2.54683 3.91286 3.30127
# Velocity P-wave (km/s) = 4.95488 7.03800 6.08623
#
# Compressibility (1/GPa) = 0.02777293
#
# Stress axis : x y z
#
# Youngs Moduli (GPa) = 19.71301 30.27927 69.54714
#
# Poissons Ratio (x) = 0.80208 -0.24412
# Poissons Ratio (y) = 0.52218 0.84852
# Poissons Ratio (z) = -0.06919 0.36942
#
# Static dielectric constant tensor:
#      x y z
#    x 6.084390 -1.775620 -1.724570 
#    y -1.775620 5.947820 1.238550 
#    z -1.724570 1.238550 6.236810 
# 
# 
# High freq. dielectric constant tensor:
#      x y z
#    x 1.874680 0.007400 0.026480 
#    y 0.007400 1.896120 -0.000770 
#    z 0.026480 -0.000770 1.902640 
# 
# From -- ./inp_files/26319.got.cif
#   From: 2010.06.25/outbox.cif.g09.slc.cpg/sg2_14_cif.got.tgz:26319.got - 2010.06.27 13:26:56.
