data_PCOD8000893
_publ_section_title
;
Structure prediction by ZEFSAII (Michael W. Deem and Ramdas Pophale) SiO2 
 PCOD8000893
Probable space group: P -1
;
_chemical_formula_sum "Si O2"
_cell_formula_units_Z 16
_cell_length_a 8.242290
_cell_length_b 20.799731
_cell_length_c 13.962412
_cell_angle_alpha 30.007629
_cell_angle_beta 42.611220
_cell_angle_gamma 40.968782
_cell_volume 759.880775
_symmetry_space_group_name_H-M "P -1"
_symmetry_group_IT_number 2
_symmetry_cell_setting 'triclinic'
loop_
_space_group_symop_operation_xyz
x,y,z
-x,-y,-z
loop_
_atom_site_type_symbol
_atom_site_label
_atom_site_fract_x
_atom_site_fract_y
_atom_site_fract_z
Si Si1 0.529586 0.326937 0.114001
Si Si2 0.253193 0.184948 0.809933
Si Si3 0.813607 0.540263 0.437962
Si Si4 0.238523 0.000871 0.214011
Si Si5 0.096534 0.542153 0.124898
Si Si6 0.699817 0.810970 0.898788
Si Si7 0.307126 0.981557 0.529894
Si Si8 0.319976 0.692149 0.147341
O O1 0.238112 0.413842 0.158985
O O2 0.612080 0.179717 0.320517
O O3 0.703671 0.409839 0.965795
O O4 0.567558 0.305198 0.011341
O O5 0.306639 0.294608 0.717598
O O6 0.505760 0.129557 0.703797
O O7 0.988249 0.246713 0.787986
O O8 0.236975 0.049668 0.042757
O O9 0.606231 0.463851 0.642869
O O10 0.000000 0.500000 0.500000
O O11 0.939798 0.496971 0.334253
O O12 0.234423 0.135334 0.099414
O O13 0.989362 0.959353 0.387172
O O14 0.921134 0.663286 0.975536
O O15 0.682089 0.931510 0.678436
O O16 0.433563 0.781911 0.050204
O O17 0.500000 0.000000 0.500000
#
# Coordination Sequence:
#
# PCOD8000893 Si02
#       8
#     2   2   2   2   2   2   2   2
#     4  11  22  43  67  93 132 171 220 262 332 387
#     4  10  20  41  64  89 128 166 213 258 325 386
#     4  10  19  40  65  90 125 171 211 262 329 382
#     4  11  22  39  64  94 124 167 215 263 316 390
#     4  11  23  41  67  98 128 170 219 273 316 389
#     4  12  24  41  67  94 134 165 219 272 322 375
#     4  12  23  44  67  92 132 172 210 266 332 384
#     4  11  22  41  66  92 132 175 205 271 326 384
#
# _framework density 21.055935999999999
#
# number of rings (size 3 to 8) (size 9 to 14) (size 15 to 20)
#    0.000    1.000    7.500    0.375    0.000    4.500 
#    2.250    1.250    0.000    0.000    0.000    0.000 
#    0.000    0.000    0.000    0.000    0.000    0.000 
#
# Total GULP energy -198260.729782 kJ/mol
# GULP energy per Si atom -12391.295611 kJ/mol
# Density = 2.100801 g / cm^3
# Si number density = 21.055936 Si / 1000 Ang^3
#
#
#
# Elastic Constant Matrix: (Units=GPa)
#
#
# Indices 1 2 3 4 5 6 
#
# 1 68.4892 22.8380 15.8904 10.6906 -15.7314 -9.7139
# 2 22.8380 122.6297 27.4640 4.1108 -4.7349 -26.3092
# 3 15.8904 27.4640 121.1628 3.2940 -2.9455 -5.6735
# 4 10.6906 4.1108 3.2940 15.0159 -7.1210 0.5730
# 5 -15.7314 -4.7349 -2.9455 -7.1210 43.0280 0.4017
# 6 -9.7139 -26.3092 -5.6735 0.5730 0.4017 22.9355
#
#
#
# Elastic Compliance Matrix: (Units=1/GPa)
#
#
# Indices 1 2 3 4 5 6 
#
# 1 0.019106 -0.001292 -0.001498 -0.010849 0.004885 0.006425
# 2 -0.001292 0.011511 -0.001801 -0.002214 0.000190 0.012264
# 3 -0.001498 -0.001801 0.008842 -0.000462 -0.000212 -0.000498
# 4 -0.010849 -0.002214 -0.000462 0.079669 0.009031 -0.009398
# 5 0.004885 0.000190 -0.000212 0.009031 0.026513 0.001545
# 6 0.006425 0.012264 -0.000498 -0.009398 0.001545 0.060474
#
#
# Mechanical properties :
#
#
# Convention : Reuss Voigt Hill
#
# Bulk Modulus (GPa) = 33.02811 49.40740 41.21776
# Shear Modulus (GPa) = 22.18378 32.60183 27.39281
#
# Velocity S-wave (km/s) = 3.24939 3.93917 3.61079
# Velocity P-wave (km/s) = 5.45875 6.64870 6.08289
#
# Compressibility (1/GPa) = 0.03027724
#
# Stress axis : x y z
#
# Youngs Moduli (GPa) = 52.33953 86.87194 113.09508
#
# Poissons Ratio (x) = 0.11224 0.16946
# Poissons Ratio (y) = 0.06762 0.20365
# Poissons Ratio (z) = 0.07842 0.15643
#
# Static dielectric constant tensor:
#      x y z
#    x 2.047390 -0.327530 -0.928950 
#    y -0.327530 4.093910 -0.284570 
#    z -0.928950 -0.284570 3.868320 
# 
# 
# High freq. dielectric constant tensor:
#      x y z
#    x 1.809590 -0.011080 -0.000250 
#    y -0.011080 1.810400 -0.009490 
#    z -0.000250 -0.009490 1.840920 
# 
# From -- ./inp_files/319528.got.cif
#   From: 2010.06.25/outbox.cif.g09.slc.cpg/sg2_160_cif.got.tgz:319528.got - 2010.06.27 13:26:56.
