data_PCOD8000576
_publ_section_title
;
Structure prediction by ZEFSAII (Michael W. Deem and Ramdas Pophale) SiO2 
 PCOD8000576
Probable space group: P -1
;
_chemical_formula_sum "Si O2"
_cell_formula_units_Z 16
_cell_length_a 27.620194
_cell_length_b 12.289404
_cell_length_c 9.757856
_cell_angle_alpha 143.225448
_cell_angle_beta 28.361198
_cell_angle_gamma 151.476428
_cell_volume 745.638325
_symmetry_space_group_name_H-M "P -1"
_symmetry_group_IT_number 2
_symmetry_cell_setting 'triclinic'
loop_
_space_group_symop_operation_xyz
x,y,z
-x,-y,-z
loop_
_atom_site_type_symbol
_atom_site_label
_atom_site_fract_x
_atom_site_fract_y
_atom_site_fract_z
Si Si1 0.030718 0.475003 0.553244
Si Si2 0.352082 0.190994 0.805678
Si Si3 0.631163 0.544659 0.571480
Si Si4 0.237562 0.978304 0.591797
Si Si5 0.132200 0.216498 0.953755
Si Si6 0.386726 0.061795 0.043015
Si Si7 0.340232 0.560639 0.308332
Si Si8 0.767128 0.214804 0.095278
O O1 0.103623 0.362421 0.262532
O O2 0.000000 0.500000 0.500000
O O3 0.112865 0.719883 0.670557
O O4 0.904606 0.310810 0.792020
O O5 0.506622 0.349815 0.596947
O O6 0.323070 0.084131 0.620368
O O7 0.278389 0.994146 0.903285
O O8 0.299386 0.342317 0.099414
O O9 0.648228 0.778522 0.765541
O O10 0.607963 0.459709 0.697861
O O11 0.764115 0.608782 0.243564
O O12 0.320164 0.962136 0.255029
O O13 0.195558 0.133265 0.807468
O O14 0.000000 0.000000 0.000000
O O15 0.539793 0.201123 0.819428
O O16 0.330401 0.861210 0.867523
O O17 0.227444 0.586113 0.635757
#
# Coordination Sequence:
#
# PCOD8000576 Si02
#       8
#     2   2   2   2   2   2   2   2
#     4  12  23  41  67  95 124 169 224 262 310 380
#     4  11  25  44  62  97 138 165 205 273 331 372
#     4  10  20  39  68  98 126 168 215 262 320 384
#     4  11  26  43  65  96 134 168 209 273 323 374
#     4  11  23  40  70  98 124 168 221 259 314 381
#     4  10  19  39  64  96 124 162 217 264 312 380
#     4  11  22  37  69  97 125 169 217 259 322 384
#     4  12  23  39  68  94 127 168 221 263 313 384
#
# _framework density 21.458124000000002
#
# number of rings (size 3 to 8) (size 9 to 14) (size 15 to 20)
#    0.000    1.000    5.000    2.625    0.000    6.000 
#    0.000    2.500    0.000    0.000    0.000    0.000 
#    0.000    0.000    0.000    0.000    0.000    0.000 
#
# Total GULP energy -198431.704583 kJ/mol
# GULP energy per Si atom -12401.981536 kJ/mol
# Density = 2.140928 g / cm^3
# Si number density = 21.458124 Si / 1000 Ang^3
#
#
#
# Elastic Constant Matrix: (Units=GPa)
#
#
# Indices 1 2 3 4 5 6 
#
# 1 62.1272 22.9069 6.1533 -9.9640 20.6069 13.9658
# 2 22.9069 101.0416 28.1879 -10.3695 13.3818 3.0140
# 3 6.1533 28.1879 109.2896 -12.1286 4.1803 -5.5031
# 4 -9.9640 -10.3695 -12.1286 41.5479 -0.5927 4.7048
# 5 20.6069 13.3818 4.1803 -0.5927 24.8862 2.4376
# 6 13.9658 3.0140 -5.5031 4.7048 2.4376 24.4304
#
#
#
# Elastic Compliance Matrix: (Units=1/GPa)
#
#
# Indices 1 2 3 4 5 6 
#
# 1 0.028554 -0.002467 -0.000112 0.007656 -0.020602 -0.015463
# 2 -0.002467 0.011877 -0.002628 0.001617 -0.003807 -0.000579
# 3 -0.000112 -0.002628 0.010191 0.002022 -0.000386 0.002333
# 4 0.007656 0.001617 0.002022 0.027818 -0.006017 -0.008878
# 5 -0.020602 -0.003807 -0.000386 -0.006017 0.058478 0.007484
# 6 -0.015463 -0.000579 0.002333 -0.008878 0.007484 0.051332
#
#
# Mechanical properties :
#
#
# Convention : Reuss Voigt Hill
#
# Bulk Modulus (GPa) = 24.87155 42.99497 33.93326
# Shear Modulus (GPa) = 23.57756 32.52025 28.04890
#
# Velocity S-wave (km/s) = 3.31837 3.89719 3.61937
# Velocity P-wave (km/s) = 5.12816 6.35067 5.77187
#
# Compressibility (1/GPa) = 0.04020658
#
# Stress axis : x y z
#
# Youngs Moduli (GPa) = 35.02166 84.19790 98.12652
#
# Poissons Ratio (x) = 0.20768 0.01103
# Poissons Ratio (y) = 0.08638 0.25792
# Poissons Ratio (z) = 0.00394 0.22131
#
# Static dielectric constant tensor:
#      x y z
#    x 3.508360 -0.115440 0.070140 
#    y -0.115440 4.107710 -0.030710 
#    z 0.070140 -0.030710 4.123890 
# 
# 
# High freq. dielectric constant tensor:
#      x y z
#    x 1.803190 -0.011170 0.003710 
#    y -0.011170 1.856940 -0.000330 
#    z 0.003710 -0.000330 1.856020 
# 
# From -- ./inp_files/285764.got.cif
#   From: 2010.06.25/outbox.cif.g09.slc.cpg/sg2_143_cif.got.tgz:285764.got - 2010.06.27 13:26:56.
