data_PCOD8000596
_publ_section_title
;
Structure prediction by ZEFSAII (Michael W. Deem and Ramdas Pophale) SiO2 
 PCOD8000596
Probable space group: P -1
;
_chemical_formula_sum "Si O2"
_cell_formula_units_Z 16
_cell_length_a 12.151464
_cell_length_b 6.450626
_cell_length_c 28.161886
_cell_angle_alpha 52.606844
_cell_angle_beta 26.338190
_cell_angle_gamma 58.872276
_cell_volume 775.768475
_symmetry_space_group_name_H-M "P -1"
_symmetry_group_IT_number 2
_symmetry_cell_setting 'triclinic'
loop_
_space_group_symop_operation_xyz
x,y,z
-x,-y,-z
loop_
_atom_site_type_symbol
_atom_site_label
_atom_site_fract_x
_atom_site_fract_y
_atom_site_fract_z
Si Si1 0.477022 0.493303 0.090198
Si Si2 0.993466 0.219256 0.344116
Si Si3 0.932354 0.668455 0.956314
Si Si4 0.632370 0.391251 0.533176
Si Si5 0.755445 0.234037 0.939538
Si Si6 0.178421 0.674648 0.700895
Si Si7 0.158734 0.359935 0.493879
Si Si8 0.368224 0.838577 0.698378
O O1 0.266912 0.363502 0.225140
O O2 0.366198 0.741835 0.070229
O O3 0.717573 0.537872 0.023925
O O4 0.544626 0.296953 0.049738
O O5 0.784373 0.392917 0.424516
O O6 0.961351 0.177383 0.306061
O O7 0.971798 0.931257 0.413386
O O8 0.191136 0.693673 0.825149
O O9 0.837680 0.952985 0.962738
O O10 0.000000 0.500000 0.000000
O O11 0.431637 0.604595 0.586128
O O12 0.837113 0.468845 0.483542
O O13 0.489407 0.106991 0.635829
O O14 0.007424 0.423119 0.819770
O O15 0.223476 0.878824 0.698717
O O16 0.433160 0.363362 0.365192
O O17 0.000000 0.500000 0.500000
#
# Coordination Sequence:
#
# PCOD8000596 Si02
#       8
#     2   2   2   2   2   2   2   2
#     4  10  23  42  63  94 128 168 215 266 319 376
#     4  10  23  38  61  96 120 160 211 259 305 378
#     4  12  25  40  64  99 128 168 217 264 320 389
#     4  10  21  38  64  90 122 158 202 257 317 362
#     4  10  21  42  66  88 127 173 213 263 321 375
#     4  10  19  39  65  89 124 156 208 262 315 368
#     4  10  24  42  61  86 127 171 204 252 314 377
#     4  10  22  40  63  92 123 164 207 259 316 376
#
# _framework density 20.624711000000001
#
# number of rings (size 3 to 8) (size 9 to 14) (size 15 to 20)
#    0.000    1.750    2.500    0.750    0.000   12.000 
#    0.000    0.000    0.000    0.000    0.000    0.000 
#    0.000    0.000    0.000    0.000    0.000    0.000 
#
# Total GULP energy -198231.220034 kJ/mol
# GULP energy per Si atom -12389.451252 kJ/mol
# Density = 2.057777 g / cm^3
# Si number density = 20.624711 Si / 1000 Ang^3
#
#
#
# Elastic Constant Matrix: (Units=GPa)
#
#
# Indices 1 2 3 4 5 6 
#
# 1 78.8710 22.2693 15.3094 -6.5766 1.2222 -9.4759
# 2 22.2693 75.0516 26.6942 -6.2541 13.6268 -5.7503
# 3 15.3094 26.6942 136.5487 10.7348 6.6050 -0.8098
# 4 -6.5766 -6.2541 10.7348 24.6814 4.1237 2.4678
# 5 1.2222 13.6268 6.6050 4.1237 27.5328 -3.7372
# 6 -9.4759 -5.7503 -0.8098 2.4678 -3.7372 32.6465
#
#
#
# Elastic Compliance Matrix: (Units=1/GPa)
#
#
# Indices 1 2 3 4 5 6 
#
# 1 0.014585 -0.003666 -0.001196 0.002876 0.001500 0.003512
# 2 -0.003666 0.017656 -0.003108 0.006253 -0.008699 0.000500
# 3 -0.001196 -0.003108 0.008428 -0.004783 0.000246 -0.000296
# 4 0.002876 0.006253 -0.004783 0.046810 -0.009466 -0.002805
# 5 0.001500 -0.008699 0.000246 -0.009466 0.042528 0.004493
# 6 0.003512 0.000500 -0.000296 -0.002805 0.004493 0.032458
#
#
# Mechanical properties :
#
#
# Convention : Reuss Voigt Hill
#
# Bulk Modulus (GPa) = 40.44075 46.55746 43.49911
# Shear Modulus (GPa) = 26.78857 32.05204 29.42030
#
# Velocity S-wave (km/s) = 3.60788 3.94643 3.78095
# Velocity P-wave (km/s) = 6.08327 6.58699 6.34013
#
# Compressibility (1/GPa) = 0.02472753
#
# Stress axis : x y z
#
# Youngs Moduli (GPa) = 68.56502 56.63744 118.65762
#
# Poissons Ratio (x) = 0.20761 0.14196
# Poissons Ratio (y) = 0.25133 0.36885
# Poissons Ratio (z) = 0.08203 0.17606
#
# Static dielectric constant tensor:
#      x y z
#    x 4.121080 0.442080 -0.350050 
#    y 0.442080 3.867020 -0.094570 
#    z -0.350050 -0.094570 4.049840 
# 
# 
# High freq. dielectric constant tensor:
#      x y z
#    x 1.802850 0.010630 -0.010500 
#    y 0.010630 1.792840 0.013110 
#    z -0.010500 0.013110 1.819010 
# 
# From -- ./inp_files/70328.got.cif
#   From: 2010.06.25/outbox.cif.g09.slc.cpg/sg2_36_cif.got.tgz:70328.got - 2010.06.27 13:26:56.
