data_PCOD8000533
_publ_section_title
;
Structure prediction by ZEFSAII (Michael W. Deem and Ramdas Pophale) SiO2 
 PCOD8000533
Probable space group: P -1
;
_chemical_formula_sum "Si O2"
_cell_formula_units_Z 16
_cell_length_a 8.972032
_cell_length_b 16.503163
_cell_length_c 9.324267
_cell_angle_alpha 104.285530
_cell_angle_beta 46.301009
_cell_angle_gamma 126.230359
_cell_volume 773.642488
_symmetry_space_group_name_H-M "P -1"
_symmetry_group_IT_number 2
_symmetry_cell_setting 'triclinic'
loop_
_space_group_symop_operation_xyz
x,y,z
-x,-y,-z
loop_
_atom_site_type_symbol
_atom_site_label
_atom_site_fract_x
_atom_site_fract_y
_atom_site_fract_z
Si Si1 0.807879 0.241793 0.979077
Si Si2 0.348907 0.208068 0.424601
Si Si3 0.082694 0.226293 0.044384
Si Si4 0.518834 0.791017 0.349019
Si Si5 0.805361 0.110334 0.688762
Si Si6 0.274921 0.386683 0.547124
Si Si7 0.376968 0.003657 0.726273
Si Si8 0.982204 0.704402 0.593094
O O1 0.543828 0.229147 0.176419
O O2 0.942079 0.257782 0.049016
O O3 0.738453 0.139455 0.896203
O O4 0.011882 0.343645 0.790883
O O5 0.429584 0.181281 0.504978
O O6 0.354371 0.309593 0.485634
O O7 0.051101 0.107928 0.544860
O O8 0.150189 0.285504 0.176711
O O9 0.350579 0.262298 0.814180
O O10 0.910035 0.101049 0.118891
O O11 0.625560 0.896160 0.233399
O O12 0.213875 0.701641 0.491270
O O13 0.542847 0.006655 0.753547
O O14 0.890748 0.194962 0.546379
O O15 0.500000 0.500000 0.500000
O O16 0.226741 0.393562 0.411700
O O17 0.500000 0.000000 0.500000
#
# Coordination Sequence:
#
# PCOD8000533 Si02
#       8
#     2   2   2   2   2   2   2   2
#     4  10  20  38  63  84 116 155 189 237 295 341
#     4  10  19  39  64  82 120 155 189 238 298 336
#     4  12  20  37  61  84 118 163 193 240 282 332
#     4  11  20  37  59  87 117 161 191 237 285 333
#     4   9  20  37  54  84 120 157 197 237 281 329
#     4  10  23  43  63  89 116 142 189 244 293 363
#     4  11  21  37  54  84 126 154 205 240 268 333
#     4   9  20  37  62  82 118 148 192 232 295 345
#
# _framework density 20.681387999999998
#
# number of rings (size 3 to 8) (size 9 to 14) (size 15 to 20)
#    0.000    2.000    6.250    0.375    0.000    7.000 
#    2.250    2.500    0.000    0.000    0.000    0.000 
#    0.000    0.000    0.000    0.000    0.000    0.000 
#
# Total GULP energy -198287.264498 kJ/mol
# GULP energy per Si atom -12392.954031 kJ/mol
# Density = 2.063432 g / cm^3
# Si number density = 20.681388 Si / 1000 Ang^3
#
#
#
# Elastic Constant Matrix: (Units=GPa)
#
#
# Indices 1 2 3 4 5 6 
#
# 1 118.7364 28.5929 38.8235 10.0144 1.1510 32.1754
# 2 28.5929 67.0814 22.9645 7.6543 -0.7656 28.3808
# 3 38.8235 22.9645 140.4149 19.2400 -11.3309 16.1067
# 4 10.0144 7.6543 19.2400 16.8596 3.2715 5.2338
# 5 1.1510 -0.7656 -11.3309 3.2715 40.9239 4.8760
# 6 32.1754 28.3808 16.1067 5.2338 4.8760 32.7625
#
#
#
# Elastic Compliance Matrix: (Units=1/GPa)
#
#
# Indices 1 2 3 4 5 6 
#
# 1 0.012088 0.000400 -0.001811 -0.001972 0.000647 -0.011109
# 2 0.000400 0.024391 -0.000851 -0.004460 0.003049 -0.020844
# 3 -0.001811 -0.000851 0.009516 -0.009739 0.003584 -0.001140
# 4 -0.001972 -0.004460 -0.009739 0.075365 -0.008731 -0.000151
# 5 0.000647 0.003049 0.003584 -0.008731 0.027079 -0.007675
# 6 -0.011109 -0.020844 -0.001140 -0.000151 -0.007675 0.061216
#
#
# Mechanical properties :
#
#
# Convention : Reuss Voigt Hill
#
# Bulk Modulus (GPa) = 24.11364 56.33274 40.22319
# Shear Modulus (GPa) = 21.92945 33.83265 27.88105
#
# Velocity S-wave (km/s) = 3.25983 4.04901 3.67566
# Velocity P-wave (km/s) = 5.08464 7.01119 6.12415
#
# Compressibility (1/GPa) = 0.04147030
#
# Stress axis : x y z
#
# Youngs Moduli (GPa) = 82.72497 40.99911 105.08433
#
# Poissons Ratio (x) = -0.01639 0.19030
# Poissons Ratio (y) = -0.03308 0.08947
# Poissons Ratio (z) = 0.14981 0.03491
#
# Static dielectric constant tensor:
#      x y z
#    x 4.349220 0.581800 -0.020580 
#    y 0.581800 3.291660 0.227890 
#    z -0.020580 0.227890 3.710500 
# 
# 
# High freq. dielectric constant tensor:
#      x y z
#    x 1.822320 0.023550 0.002410 
#    y 0.023550 1.754330 0.010160 
#    z 0.002410 0.010160 1.818160 
# 
# From -- ./inp_files/213193.got.cif
#   From: 2010.06.25/outbox.cif.g09.slc.cpg/sg2_107_cif.got.tgz:213193.got - 2010.06.27 13:26:56.
