data_PCOD8000759
_publ_section_title
;
Structure prediction by ZEFSAII (Michael W. Deem and Ramdas Pophale) SiO2 
 PCOD8000759
Probable space group: P -1
;
_chemical_formula_sum "Si O2"
_cell_formula_units_Z 16
_cell_length_a 23.423223
_cell_length_b 9.176701
_cell_length_c 19.779921
_cell_angle_alpha 30.585405
_cell_angle_beta 18.927374
_cell_angle_gamma 31.833168
_cell_volume 685.516605
_symmetry_space_group_name_H-M "P -1"
_symmetry_group_IT_number 2
_symmetry_cell_setting 'triclinic'
loop_
_space_group_symop_operation_xyz
x,y,z
-x,-y,-z
loop_
_atom_site_type_symbol
_atom_site_label
_atom_site_fract_x
_atom_site_fract_y
_atom_site_fract_z
Si Si1 0.431227 0.212806 0.266820
Si Si2 0.056994 0.819488 0.665766
Si Si3 0.458910 0.846982 0.173633
Si Si4 0.971327 0.829051 0.033107
Si Si5 0.692165 0.157271 0.880889
Si Si6 0.377528 0.770383 0.731959
Si Si7 0.517513 0.692947 0.468620
Si Si8 0.821355 0.193802 0.326833
O O1 0.321256 0.548553 0.267693
O O2 0.497795 0.034446 0.332848
O O3 0.304271 0.041811 0.434984
O O4 0.608627 0.238641 0.015946
O O5 0.245645 0.910595 0.401147
O O6 0.065262 0.479120 0.777821
O O7 0.022501 0.886773 0.758658
O O8 0.901761 0.006342 0.717631
O O9 0.534688 0.504640 0.211485
O O10 0.500000 0.000000 0.000000
O O11 0.577471 0.942034 0.062675
O O12 0.802230 0.057292 0.099467
O O13 0.120681 0.788145 0.823267
O O14 0.000000 0.000000 0.000000
O O15 0.367060 0.673476 0.702507
O O16 0.500000 0.000000 0.500000
O O17 0.500000 0.500000 0.500000
O O18 0.715446 0.520826 0.341501
#
# Coordination Sequence:
#
# PCOD8000759 Si02
#       8
#     2   2   2   2   2   2   2   2
#     4  10  22  42  70 106 143 190 251 302 368 442
#     4  12  25  49  75 104 152 195 254 311 366 462
#     4  12  27  49  73 104 153 202 247 303 390 449
#     4  12  25  41  72 114 148 187 252 314 376 438
#     4  11  25  45  70 105 150 199 245 302 379 446
#     4  12  24  44  68 102 144 185 243 307 362 435
#     4  10  19  39  73  96 138 188 238 302 366 425
#     4  11  22  44  74 110 146 193 250 316 378 435
#
# _framework density 23.340062
#
# number of rings (size 3 to 8) (size 9 to 14) (size 15 to 20)
#    0.000    0.750    3.750    4.125    1.750    4.000 
#    2.250    0.000    0.000    0.000    0.000    0.000 
#    0.000    0.000    0.000    0.000    0.000    0.000 
#
# Total GULP energy -198241.738299 kJ/mol
# GULP energy per Si atom -12390.108644 kJ/mol
# Density = 2.328694 g / cm^3
# Si number density = 23.340062 Si / 1000 Ang^3
#
#
#
# Elastic Constant Matrix: (Units=GPa)
#
#
# Indices 1 2 3 4 5 6 
#
# 1 68.0927 31.9715 36.4426 -8.0328 2.4898 -5.2739
# 2 31.9715 164.7946 59.7428 -9.0947 -0.8565 -26.3312
# 3 36.4426 59.7428 101.4882 -10.2582 -3.9164 -14.1442
# 4 -8.0328 -9.0947 -10.2582 39.4175 -3.7802 2.9561
# 5 2.4898 -0.8565 -3.9164 -3.7802 45.2812 0.0263
# 6 -5.2739 -26.3312 -14.1442 2.9561 0.0263 43.9638
#
#
#
# Elastic Compliance Matrix: (Units=1/GPa)
#
#
# Indices 1 2 3 4 5 6 
#
# 1 0.018721 -0.001552 -0.005766 0.001872 -0.001401 -0.000664
# 2 -0.001552 0.008343 -0.003826 0.000340 -0.000061 0.003557
# 3 -0.005766 -0.003826 0.014646 0.001792 0.001660 0.001607
# 4 0.001872 0.000340 0.001792 0.026573 0.002277 -0.000783
# 5 -0.001401 -0.000061 0.001660 0.002277 0.022494 0.000163
# 6 -0.000664 0.003557 0.001607 -0.000783 0.000163 0.025366
#
#
# Mechanical properties :
#
#
# Convention : Reuss Voigt Hill
#
# Bulk Modulus (GPa) = 51.49050 65.63214 58.56132
# Shear Modulus (GPa) = 34.50525 39.48041 36.99283
#
# Velocity S-wave (km/s) = 3.84913 4.11728 3.98546
# Velocity P-wave (km/s) = 6.47018 7.12627 6.80614
#
# Compressibility (1/GPa) = 0.01942106
#
# Stress axis : x y z
#
# Youngs Moduli (GPa) = 53.41549 119.85834 68.27966
#
# Poissons Ratio (x) = 0.18597 0.39373
# Poissons Ratio (y) = 0.08288 0.26127
# Poissons Ratio (z) = 0.30802 0.45863
#
# Static dielectric constant tensor:
#      x y z
#    x 4.371960 -0.179980 -0.197830 
#    y -0.179980 4.649100 -0.010640 
#    z -0.197830 -0.010640 4.010600 
# 
# 
# High freq. dielectric constant tensor:
#      x y z
#    x 1.930310 -0.004090 -0.004690 
#    y -0.004090 1.932050 -0.004420 
#    z -0.004690 -0.004420 1.912660 
# 
# From -- ./inp_files/601907.got.cif
#   From: 2010.06.25/outbox.cif.g09.slc.cpg/sg2_301_cif.got.tgz:601907.got - 2010.06.27 13:26:56.
