data_PCOD8000879
_publ_section_title
;
Structure prediction by ZEFSAII (Michael W. Deem and Ramdas Pophale) SiO2 
 PCOD8000879
Probable space group: P -1
;
_chemical_formula_sum "Si O2"
_cell_formula_units_Z 16
_cell_length_a 11.914473
_cell_length_b 13.857220
_cell_length_c 5.542455
_cell_angle_alpha 126.392587
_cell_angle_beta 80.310911
_cell_angle_gamma 73.766367
_cell_volume 637.711406
_symmetry_space_group_name_H-M "P -1"
_symmetry_group_IT_number 2
_symmetry_cell_setting 'triclinic'
loop_
_space_group_symop_operation_xyz
x,y,z
-x,-y,-z
loop_
_atom_site_type_symbol
_atom_site_label
_atom_site_fract_x
_atom_site_fract_y
_atom_site_fract_z
Si Si1 0.717080 0.459385 0.278554
Si Si2 0.605831 0.734215 0.474796
Si Si3 0.192694 0.409117 0.183212
Si Si4 0.785991 0.800090 0.794610
Si Si5 0.407622 0.938993 0.524956
Si Si6 0.718114 0.192726 0.883395
Si Si7 0.945569 0.336328 0.665786
Si Si8 0.865308 0.133217 0.234578
O O1 0.623042 0.586465 0.328833
O O2 0.730559 0.519593 0.614893
O O3 0.655350 0.357621 0.174509
O O4 0.865177 0.370282 0.993558
O O5 0.653207 0.804022 0.762767
O O6 0.462153 0.837859 0.587607
O O7 0.700530 0.714982 0.191345
O O8 0.136351 0.335005 0.267418
O O9 0.078142 0.519152 0.222151
O O10 0.899352 0.768761 0.508056
O O11 0.736044 0.943062 0.164769
O O12 0.392914 0.854141 0.176479
O O13 0.500000 0.000000 0.500000
O O14 0.793893 0.142663 0.527612
O O15 0.794908 0.125369 0.002195
O O16 0.889246 0.263803 0.396475
O O17 0.000000 0.000000 0.000000
#
# Coordination Sequence:
#
# PCOD8000879 Si02
#       8
#     2   2   2   2   2   2   2   2
#     4   9  21  42  69 100 139 175 233 292 353 417
#     4  10  23  42  68  95 138 184 240 291 341 409
#     4  10  19  40  64  95 137 171 230 281 349 411
#     4  11  23  39  65  98 134 184 226 281 355 416
#     4  12  26  47  68  98 137 186 241 294 346 422
#     4  11  25  46  72 103 139 188 235 292 357 419
#     4  10  21  37  66 101 138 175 221 286 352 428
#     4  11  23  44  69 106 144 183 231 287 356 432
#
# _framework density 25.089718000000001
#
# number of rings (size 3 to 8) (size 9 to 14) (size 15 to 20)
#    0.000    1.500    2.500    1.875    0.000    9.000 
#    0.000    0.625    0.000    0.000    0.000    0.000 
#    0.000    0.000    0.000    0.000    0.000    0.000 
#
# Total GULP energy -198267.737105 kJ/mol
# GULP energy per Si atom -12391.733569 kJ/mol
# Density = 2.503261 g / cm^3
# Si number density = 25.089718 Si / 1000 Ang^3
#
#
#
# Elastic Constant Matrix: (Units=GPa)
#
#
# Indices 1 2 3 4 5 6 
#
# 1 76.0589 30.0096 8.5605 10.9827 14.2814 -6.8919
# 2 30.0096 102.1218 28.2654 2.7270 9.4695 -13.1449
# 3 8.5605 28.2654 69.1367 9.3173 10.5028 -2.6101
# 4 10.9827 2.7270 9.3173 42.8423 0.9719 8.1735
# 5 14.2814 9.4695 10.5028 0.9719 33.5424 -1.7080
# 6 -6.8919 -13.1449 -2.6101 8.1735 -1.7080 27.3907
#
#
#
# Elastic Compliance Matrix: (Units=1/GPa)
#
#
# Indices 1 2 3 4 5 6 
#
# 1 0.016793 -0.004171 0.001330 -0.004843 -0.006075 0.003417
# 2 -0.004171 0.012888 -0.004601 0.000382 -0.000200 0.004571
# 3 0.001330 -0.004601 0.017420 -0.003857 -0.004577 0.000652
# 4 -0.004843 0.000382 -0.003857 0.027145 0.001897 -0.009385
# 5 -0.006075 -0.000200 -0.004577 0.001897 0.033808 -0.000519
# 6 0.003417 0.004571 0.000652 -0.009385 -0.000519 0.042392
#
#
# Mechanical properties :
#
#
# Convention : Reuss Voigt Hill
#
# Bulk Modulus (GPa) = 31.03809 42.33206 36.68508
# Shear Modulus (GPa) = 28.39799 32.78718 30.59258
#
# Velocity S-wave (km/s) = 3.36796 3.61889 3.49568
# Velocity P-wave (km/s) = 5.24613 5.86265 5.56294
#
# Compressibility (1/GPa) = 0.03221848
#
# Stress axis : x y z
#
# Youngs Moduli (GPa) = 59.54826 77.59145 57.40438
#
# Poissons Ratio (x) = 0.32360 -0.07636
# Poissons Ratio (y) = 0.24835 0.26413
# Poissons Ratio (z) = -0.07921 0.35701
#
# Static dielectric constant tensor:
#      x y z
#    x 4.294540 0.176600 0.238270 
#    y 0.176600 4.578850 0.210080 
#    z 0.238270 0.210080 4.751460 
# 
# 
# High freq. dielectric constant tensor:
#      x y z
#    x 1.975950 0.007880 0.005540 
#    y 0.007880 1.998440 0.012060 
#    z 0.005540 0.012060 2.016420 
# 
# From -- ./inp_files/76999.got.cif
#   From: 2010.06.25/outbox.cif.g09.slc.cpg/sg2_39_cif.got.tgz:76999.got - 2010.06.27 13:26:56.
