data_PCOD8000319
_publ_section_title
;
Structure prediction by ZEFSAII (Michael W. Deem and Ramdas Pophale) SiO2 
 PCOD8000319
Probable space group: P -1
;
_chemical_formula_sum "Si O2"
_cell_formula_units_Z 14
_cell_length_a 5.159691
_cell_length_b 28.304879
_cell_length_c 6.884738
_cell_angle_alpha 59.924691
_cell_angle_beta 73.396710
_cell_angle_gamma 106.548225
_cell_volume 714.184000
_symmetry_space_group_name_H-M "P -1"
_symmetry_group_IT_number 2
_symmetry_cell_setting 'triclinic'
loop_
_space_group_symop_operation_xyz
x,y,z
-x,-y,-z
loop_
_atom_site_type_symbol
_atom_site_label
_atom_site_fract_x
_atom_site_fract_y
_atom_site_fract_z
Si Si1 0.232295 0.074357 0.777714
Si Si2 0.172494 0.161368 0.910764
Si Si3 0.983893 0.577229 0.706284
Si Si4 0.268049 0.711839 0.532503
Si Si5 0.948956 0.130189 0.440584
Si Si6 0.179341 0.242126 0.425444
Si Si7 0.398957 0.517766 0.685033
O O1 0.216787 0.108513 0.904219
O O2 0.142129 0.100471 0.554385
O O3 0.000000 0.000000 0.000000
O O4 0.415982 0.912136 0.339769
O O5 0.007550 0.187391 0.743451
O O6 0.512769 0.222986 0.769929
O O7 0.961093 0.128525 0.209865
O O8 0.203921 0.652323 0.539007
O O9 0.715562 0.565232 0.635506
O O10 0.201893 0.552511 0.619120
O O11 0.824739 0.545351 0.011838
O O12 0.944338 0.708928 0.659600
O O13 0.446946 0.715094 0.690270
O O14 0.108973 0.204384 0.316176
O O15 0.500000 0.500000 0.500000
#
# Coordination Sequence:
#
# PCOD8000319 Si02
#       7
#     2   2   2   2   2   2   2
#     4  11  24  40  59  87 116 150 197 237 281 348
#     4   9  23  37  61  81 121 146 190 239 291 337
#     4  10  21  38  60  84 118 151 194 239 284 337
#     4  10  19  39  57  84 119 147 187 246 284 335
#     4  11  21  39  61  80 113 157 183 236 299 335
#     4   9  19  37  54  81 118 143 184 235 288 338
#     4  10  21  40  59  84 118 157 191 237 284 335
#
# _framework density 19.602793999999999
#
# number of rings (size 3 to 8) (size 9 to 14) (size 15 to 20)
#    0.857    1.143    1.429    1.714    2.000    1.143 
#    5.143    0.000    0.000    0.000    0.000    0.000 
#    0.000    0.000    0.000    0.000    0.000    0.000 
#
# Total GULP energy -173532.457363 kJ/mol
# GULP energy per Si atom -12395.175526 kJ/mol
# Density = 1.955818 g / cm^3
# Si number density = 19.602794 Si / 1000 Ang^3
#
#
#
# Elastic Constant Matrix: (Units=GPa)
#
#
# Indices 1 2 3 4 5 6 
#
# 1 113.0040 25.6821 16.1578 -0.8190 -2.2545 0.9071
# 2 25.6821 125.2285 57.4552 -11.0940 -16.1398 3.2277
# 3 16.1578 57.4552 54.2160 19.6469 -6.2238 -4.9003
# 4 -0.8190 -11.0940 19.6469 34.3753 -1.5558 -3.6964
# 5 -2.2545 -16.1398 -6.2238 -1.5558 19.5157 -1.9978
# 6 0.9071 3.2277 -4.9003 -3.6964 -1.9978 31.3556
#
#
#
# Elastic Compliance Matrix: (Units=1/GPa)
#
#
# Indices 1 2 3 4 5 6 
#
# 1 0.009396 -0.000141 -0.003464 0.002098 -0.000025 -0.000553
# 2 -0.000141 0.045262 -0.065115 0.051927 0.020029 -0.007434
# 3 -0.003464 -0.065115 0.119407 -0.088871 -0.021864 0.013594
# 4 0.002098 0.051927 -0.088871 0.096989 0.021915 -0.006465
# 5 -0.000025 0.020029 -0.021864 0.021915 0.062689 0.001100
# 6 -0.000553 -0.007434 0.013594 -0.006465 0.001100 0.034106
#
#
# Mechanical properties :
#
#
# Convention : Reuss Voigt Hill
#
# Bulk Modulus (GPa) = 27.30373 54.55983 40.93178
# Shear Modulus (GPa) = 9.66189 29.92622 19.79405
#
# Velocity S-wave (km/s) = 2.22251 3.91145 3.18111
# Velocity P-wave (km/s) = 4.53263 6.94927 5.86673
#
# Compressibility (1/GPa) = 0.03662503
#
# Stress axis : x y z
#
# Youngs Moduli (GPa) = 106.43194 22.09335 8.37475
#
# Poissons Ratio (x) = 0.00311 0.02901
# Poissons Ratio (y) = 0.01497 0.54532
# Poissons Ratio (z) = 0.36870 1.43861
#
# Static dielectric constant tensor:
#      x y z
#    x 3.668600 0.021110 0.076180 
#    y 0.021110 3.468480 -0.042810 
#    z 0.076180 -0.042810 3.166120 
# 
# 
# High freq. dielectric constant tensor:
#      x y z
#    x 1.777110 0.001540 0.006430 
#    y 0.001540 1.769440 -0.001640 
#    z 0.006430 -0.001640 1.727990 
# 
# From -- ./inp_files/13999.got.cif
#   From: 2010.06.25/outbox.cif.g09.slc.cpg/sg2_7_cif.got.tgz:13999.got - 2010.06.27 13:26:56.
