data_PCOD8000930
_publ_section_title
;
Structure prediction by ZEFSAII (Michael W. Deem and Ramdas Pophale) SiO2 
 PCOD8000930
Probable space group: P -1
;
_chemical_formula_sum "Si O2"
_cell_formula_units_Z 16
_cell_length_a 9.535779
_cell_length_b 18.955065
_cell_length_c 13.726725
_cell_angle_alpha 21.662406
_cell_angle_beta 90.200736
_cell_angle_gamma 78.302202
_cell_volume 759.977988
_symmetry_space_group_name_H-M "P -1"
_symmetry_group_IT_number 2
_symmetry_cell_setting 'triclinic'
loop_
_space_group_symop_operation_xyz
x,y,z
-x,-y,-z
loop_
_atom_site_type_symbol
_atom_site_label
_atom_site_fract_x
_atom_site_fract_y
_atom_site_fract_z
Si Si1 0.695896 0.899594 0.639743
Si Si2 0.005414 0.598142 0.684961
Si Si3 0.739511 0.975844 0.336565
Si Si4 0.692867 0.373929 0.696579
Si Si5 0.634889 0.091891 0.787697
Si Si6 0.621146 0.902212 0.837923
Si Si7 0.778996 0.365216 0.502596
Si Si8 0.729585 0.686057 0.436834
O O1 0.753268 0.997071 0.427264
O O2 0.699069 0.970688 0.660682
O O3 0.500000 0.000000 0.500000
O O4 0.823228 0.622771 0.988737
O O5 0.906491 0.752180 0.580284
O O6 0.890183 0.538857 0.697497
O O7 0.051930 0.728370 0.439277
O O8 0.583028 0.952204 0.344955
O O9 0.725768 0.191779 0.011318
O O10 0.500000 0.500000 0.500000
O O11 0.813719 0.262574 0.744628
O O12 0.734738 0.546224 0.522366
O O13 0.675848 0.284172 0.546954
O O14 0.433633 0.233611 0.602880
O O15 0.700106 0.944549 0.877515
O O16 0.716448 0.915461 0.104946
O O17 0.675195 0.640773 0.160122
#
# Coordination Sequence:
#
# PCOD8000930 Si02
#       8
#     2   2   2   2   2   2   2   2
#     4   9  22  42  69  89 122 177 222 265 328 387
#     4  11  24  41  63 100 132 160 221 279 321 379
#     4  11  20  39  68  90 127 173 212 271 325 376
#     4  12  21  38  65  95 134 173 215 256 321 399
#     4  11  20  37  66  94 133 176 214 253 329 393
#     4  10  19  40  66  93 126 169 223 259 313 392
#     4  11  23  39  62  97 133 170 213 260 325 392
#     4  11  22  36  62  99 133 172 212 267 320 389
#
# _framework density 21.053241
#
# number of rings (size 3 to 8) (size 9 to 14) (size 15 to 20)
#    0.000    1.250    5.000    1.125    0.000    2.500 
#    4.500    0.625    5.500    7.500    0.000    0.000 
#    0.000    0.000    0.000    0.000    0.000    0.000 
#
# Total GULP energy -198224.241927 kJ/mol
# GULP energy per Si atom -12389.015120 kJ/mol
# Density = 2.100532 g / cm^3
# Si number density = 21.053241 Si / 1000 Ang^3
#
#
#
# Elastic Constant Matrix: (Units=GPa)
#
#
# Indices 1 2 3 4 5 6 
#
# 1 74.9866 66.2647 50.5660 6.9559 0.3660 -6.4887
# 2 66.2647 129.6811 42.9777 -0.9933 -21.0887 -15.6969
# 3 50.5660 42.9777 91.3559 2.0292 2.7303 -2.5155
# 4 6.9559 -0.9933 2.0292 30.8906 -9.8707 -9.2690
# 5 0.3660 -21.0887 2.7303 -9.8707 30.6795 -0.9200
# 6 -6.4887 -15.6969 -2.5155 -9.2690 -0.9200 45.8886
#
#
#
# Elastic Compliance Matrix: (Units=1/GPa)
#
#
# Indices 1 2 3 4 5 6 
#
# 1 0.041502 -0.021245 -0.012165 -0.017337 -0.019773 -0.005964
# 2 -0.021245 0.023046 0.000189 0.014731 0.021066 0.008287
# 3 -0.012165 0.000189 0.017580 0.001148 -0.000935 -0.000479
# 4 -0.017337 0.014731 0.001148 0.049036 0.026399 0.013084
# 5 -0.019773 0.021066 -0.000935 0.026399 0.056213 0.010818
# 6 -0.005964 0.008287 -0.000479 0.013084 0.010818 0.026617
#
#
# Mechanical properties :
#
#
# Convention : Reuss Voigt Hill
#
# Bulk Modulus (GPa) = 63.75415 68.40449 66.07932
# Shear Modulus (GPa) = 17.50305 30.57277 24.03791
#
# Velocity S-wave (km/s) = 2.88648 3.81486 3.38267
# Velocity P-wave (km/s) = 6.43872 7.20874 6.83458
#
# Compressibility (1/GPa) = 0.01568525
#
# Stress axis : x y z
#
# Youngs Moduli (GPa) = 24.09546 43.39100 56.88272
#
# Poissons Ratio (x) = 0.92185 0.69198
# Poissons Ratio (y) = 0.51191 -0.01074
# Poissons Ratio (z) = 0.29312 -0.00819
#
# Static dielectric constant tensor:
#      x y z
#    x 3.736190 -0.380190 -0.028060 
#    y -0.380190 4.332340 0.249620 
#    z -0.028060 0.249620 3.772360 
# 
# 
# High freq. dielectric constant tensor:
#      x y z
#    x 1.805840 -0.022920 0.008240 
#    y -0.022920 1.843460 0.005620 
#    z 0.008240 0.005620 1.807110 
# 
# From -- ./inp_files/314783.got.cif
#   From: 2010.06.25/outbox.cif.g09.slc.cpg/sg2_158_cif.got.tgz:314783.got - 2010.06.27 13:26:56.
