data_PCOD8000535
_publ_section_title
;
Structure prediction by ZEFSAII (Michael W. Deem and Ramdas Pophale) SiO2 
 PCOD8000535
Probable space group: P -1
;
_chemical_formula_sum "Si O2"
_cell_formula_units_Z 16
_cell_length_a 10.565028
_cell_length_b 15.382911
_cell_length_c 9.332119
_cell_angle_alpha 124.471545
_cell_angle_beta 77.165434
_cell_angle_gamma 58.942032
_cell_volume 734.317143
_symmetry_space_group_name_H-M "P -1"
_symmetry_group_IT_number 2
_symmetry_cell_setting 'triclinic'
loop_
_space_group_symop_operation_xyz
x,y,z
-x,-y,-z
loop_
_atom_site_type_symbol
_atom_site_label
_atom_site_fract_x
_atom_site_fract_y
_atom_site_fract_z
Si Si1 0.791394 0.701166 0.758119
Si Si2 0.827409 0.998063 0.445525
Si Si3 0.246796 0.867021 0.827634
Si Si4 0.632595 0.313225 0.633613
Si Si5 0.819670 0.359794 0.822631
Si Si6 0.339990 0.019431 0.778468
Si Si7 0.628777 0.133646 0.916835
Si Si8 0.219536 0.190654 0.437940
O O1 0.735955 0.771014 0.677240
O O2 0.000000 0.500000 0.500000
O O3 0.808337 0.789788 0.943544
O O4 0.622616 0.727017 0.884955
O O5 0.811837 0.109989 0.451390
O O6 0.686361 0.130894 0.739138
O O7 0.729396 0.962559 0.349754
O O8 0.063504 0.805534 0.260573
O O9 0.371647 0.695059 0.545565
O O10 0.312329 0.938690 0.816047
O O11 0.312086 0.817501 0.932638
O O12 0.000000 0.000000 0.000000
O O13 0.720685 0.368964 0.713825
O O14 0.384218 0.454447 0.874528
O O15 0.985950 0.346045 0.721395
O O16 0.587739 0.898312 0.588883
O O17 0.765090 0.940537 0.735933
#
# Coordination Sequence:
#
# PCOD8000535 Si02
#       8
#     2   2   2   2   2   2   2   2
#     4  11  22  35  61  90 126 158 199 256 307 360
#     4  10  22  39  65  88 125 163 201 254 311 360
#     4  11  20  37  65  91 115 164 205 247 306 364
#     4  10  23  40  63  92 124 160 211 250 301 374
#     4  10  22  40  64  88 125 164 202 255 310 359
#     4  10  21  41  60  90 123 154 210 250 298 376
#     4  10  20  38  61  87 119 159 203 247 305 362
#     4  10  19  39  64  84 118 165 198 252 306 360
#
# _framework density 21.788948999999999
#
# number of rings (size 3 to 8) (size 9 to 14) (size 15 to 20)
#    0.000    1.750    2.500    2.625    1.750    6.500 
#    0.000    2.500    0.000    5.250    0.000    0.000 
#    0.000    0.000    0.000    0.000    0.000    0.000 
#
# Total GULP energy -198229.085183 kJ/mol
# GULP energy per Si atom -12389.317824 kJ/mol
# Density = 2.173936 g / cm^3
# Si number density = 21.788949 Si / 1000 Ang^3
#
#
#
# Elastic Constant Matrix: (Units=GPa)
#
#
# Indices 1 2 3 4 5 6 
#
# 1 95.8758 9.7100 51.6581 -10.5197 4.8274 -29.5388
# 2 9.7100 44.6013 19.6400 -13.0038 10.2495 -17.8453
# 3 51.6581 19.6400 132.4855 -10.7046 8.5971 -28.8275
# 4 -10.5197 -13.0038 -10.7046 31.2753 -10.1413 9.4769
# 5 4.8274 10.2495 8.5971 -10.1413 38.0558 -12.1658
# 6 -29.5388 -17.8453 -28.8275 9.4769 -12.1658 33.4926
#
#
#
# Elastic Compliance Matrix: (Units=1/GPa)
#
#
# Indices 1 2 3 4 5 6 
#
# 1 0.016465 0.003599 -0.004047 0.002533 0.002765 0.013244
# 2 0.003599 0.031426 -0.001947 0.008537 -0.001296 0.015356
# 3 -0.004047 -0.001947 0.010355 0.000100 0.000105 0.004316
# 4 0.002533 0.008537 0.000100 0.039261 0.007313 -0.001584
# 5 0.002765 -0.001296 0.000105 0.007313 0.031822 0.011328
# 6 0.013244 0.015356 0.004316 -0.001584 0.011328 0.057998
#
#
# Mechanical properties :
#
#
# Convention : Reuss Voigt Hill
#
# Bulk Modulus (GPa) = 18.70636 48.33099 33.51867
# Shear Modulus (GPa) = 23.81702 33.36169 28.58936
#
# Velocity S-wave (km/s) = 3.30976 3.91721 3.62623
# Velocity P-wave (km/s) = 4.81767 6.53368 5.74016
#
# Compressibility (1/GPa) = 0.05345775
#
# Stress axis : x y z
#
# Youngs Moduli (GPa) = 60.73491 31.82107 96.57320
#
# Poissons Ratio (x) = -0.11454 0.39079
# Poissons Ratio (y) = -0.21861 0.18801
# Poissons Ratio (z) = 0.24577 0.06195
#
# Static dielectric constant tensor:
#      x y z
#    x 4.032370 -0.260310 0.004840 
#    y -0.260310 3.542620 -0.207540 
#    z 0.004840 -0.207540 4.310540 
# 
# 
# High freq. dielectric constant tensor:
#      x y z
#    x 1.856920 -0.016790 -0.005530 
#    y -0.016790 1.831510 -0.016350 
#    z -0.005530 -0.016350 1.863640 
# 
# From -- ./inp_files/208209.got.cif
#   From: 2010.06.25/outbox.cif.g09.slc.cpg/sg2_105_cif.got.tgz:208209.got - 2010.06.27 13:26:56.
