data_PCOD8000373
_publ_section_title
;
Structure prediction by ZEFSAII (Michael W. Deem and Ramdas Pophale) SiO2 
 PCOD8000373
Probable space group: P -1
;
_chemical_formula_sum "Si O2"
_cell_formula_units_Z 16
_cell_length_a 12.879347
_cell_length_b 21.296242
_cell_length_c 18.611974
_cell_angle_alpha 28.656272
_cell_angle_beta 137.424780
_cell_angle_gamma 158.007125
_cell_volume 827.596474
_symmetry_space_group_name_H-M "P -1"
_symmetry_group_IT_number 2
_symmetry_cell_setting 'triclinic'
loop_
_space_group_symop_operation_xyz
x,y,z
-x,-y,-z
loop_
_atom_site_type_symbol
_atom_site_label
_atom_site_fract_x
_atom_site_fract_y
_atom_site_fract_z
Si Si1 0.087139 0.203824 0.154609
Si Si2 0.755637 0.689249 0.500626
Si Si3 0.046373 0.827175 0.164678
Si Si4 0.909105 0.608751 0.905393
Si Si5 0.603531 0.110485 0.239205
Si Si6 0.718763 0.534910 0.149181
Si Si7 0.393355 0.030016 0.471306
Si Si8 0.420385 0.358629 0.805003
O O1 0.984597 0.244255 0.114747
O O2 0.436609 0.424554 0.129823
O O3 0.057089 0.234156 0.027437
O O4 0.864414 0.917141 0.340530
O O5 0.500000 0.500000 0.500000
O O6 0.615255 0.531660 0.660420
O O7 0.036355 0.803351 0.504791
O O8 0.897290 0.643309 0.205610
O O9 0.792898 0.677077 0.245992
O O10 0.278565 0.902323 0.247041
O O11 0.211939 0.077919 0.965627
O O12 0.644656 0.498996 0.844650
O O13 0.201023 0.820623 0.789780
O O14 0.783955 0.371562 0.097072
O O15 0.549344 0.975156 0.413711
O O16 0.600574 0.310577 0.282373
O O17 0.500000 0.000000 0.500000
#
# Coordination Sequence:
#
# PCOD8000373 Si02
#       8
#     2   2   2   2   2   2   2   2
#     4  10  21  38  63  86 114 154 197 244 290 336
#     4  11  24  40  61  88 116 150 202 249 282 343
#     4  10  21  37  61  91 118 153 193 240 288 343
#     4  10  19  39  60  87 117 155 195 235 291 350
#     4  10  22  37  60  87 122 155 188 235 295 355
#     4  10  21  39  60  87 117 152 198 241 285 348
#     4  11  24  41  60  84 120 160 190 237 301 350
#     4  10  20  37  63  88 117 153 196 241 286 338
#
# _framework density 19.333093999999999
#
# number of rings (size 3 to 8) (size 9 to 14) (size 15 to 20)
#    0.000    1.750    2.500    1.500    1.750    2.000 
#    2.250    0.625    0.000    0.000    0.000    0.000 
#    0.000    0.000    0.000    0.000    0.000    0.000 
#
# Total GULP energy -198473.161489 kJ/mol
# GULP energy per Si atom -12404.572593 kJ/mol
# Density = 1.928909 g / cm^3
# Si number density = 19.333094 Si / 1000 Ang^3
#
#
#
# Elastic Constant Matrix: (Units=GPa)
#
#
# Indices 1 2 3 4 5 6 
#
# 1 119.4396 48.3396 26.3819 -4.3509 9.5463 7.9570
# 2 48.3396 91.3648 15.4202 -3.7809 -0.2375 0.9951
# 3 26.3819 15.4202 71.9593 2.5506 -4.5054 9.8087
# 4 -4.3509 -3.7809 2.5506 21.2921 -0.1473 -6.5404
# 5 9.5463 -0.2375 -4.5054 -0.1473 18.4789 -0.8729
# 6 7.9570 0.9951 9.8087 -6.5404 -0.8729 26.5901
#
#
#
# Elastic Compliance Matrix: (Units=1/GPa)
#
#
# Indices 1 2 3 4 5 6 
#
# 1 0.012281 -0.005861 -0.003458 0.001177 -0.007354 -0.002132
# 2 -0.005861 0.014308 -0.001112 0.002195 0.003065 0.002269
# 3 -0.003458 -0.001112 0.016747 -0.004741 0.005530 -0.006086
# 4 0.001177 0.002195 -0.004741 0.052525 -0.000646 0.014213
# 5 -0.007354 0.003065 0.005530 -0.000646 0.059384 0.001837
# 6 -0.002132 0.002269 -0.006086 0.014213 0.001837 0.043962
#
#
# Mechanical properties :
#
#
# Convention : Reuss Voigt Hill
#
# Bulk Modulus (GPa) = 44.49894 51.44967 47.97430
# Shear Modulus (GPa) = 21.97199 26.11370 24.04284
#
# Velocity S-wave (km/s) = 3.37485 3.67921 3.53031
# Velocity P-wave (km/s) = 6.18491 6.68721 6.44096
#
# Compressibility (1/GPa) = 0.02247245
#
# Stress axis : x y z
#
# Youngs Moduli (GPa) = 81.42549 69.89066 59.71290
#
# Poissons Ratio (x) = 0.40965 0.20649
# Poissons Ratio (y) = 0.47726 0.06642
# Poissons Ratio (z) = 0.28158 0.07774
#
# Static dielectric constant tensor:
#      x y z
#    x 5.162710 -0.891150 -3.189990 
#    y -0.891150 4.094860 1.805200 
#    z -3.189990 1.805200 9.325510 
# 
# 
# High freq. dielectric constant tensor:
#      x y z
#    x 1.756140 0.002440 -0.005470 
#    y 0.002440 1.749100 0.001320 
#    z -0.005470 0.001320 1.754590 
# 
# From -- ./inp_files/263084.got.cif
#   From: 2010.06.25/outbox.cif.g09.slc.cpg/sg2_132_cif.got.tgz:263084.got - 2010.06.27 13:26:56.
