data_PCOD8000272
_publ_section_title
;
Structure prediction by ZEFSAII (Michael W. Deem and Ramdas Pophale) SiO2 
 PCOD8000272
Probable space group: P 1
;
_chemical_formula_sum "Si O2"
_cell_formula_units_Z 8
_cell_length_a 12.925644
_cell_length_b 4.877830
_cell_length_c 6.692296
_cell_angle_alpha 77.632772
_cell_angle_beta 94.654547
_cell_angle_gamma 124.259735
_cell_volume 340.234824
_symmetry_space_group_name_H-M "P 1"
_symmetry_group_IT_number 1
_symmetry_cell_setting 'triclinic'
loop_
_space_group_symop_operation_xyz
x,y,z
loop_
_atom_site_type_symbol
_atom_site_label
_atom_site_fract_x
_atom_site_fract_y
_atom_site_fract_z
Si Si1 0.358400 0.743900 0.134060
Si Si2 0.624221 0.708838 0.604326
Si Si3 0.597474 0.226171 0.339882
Si Si4 0.946861 0.510012 0.025101
Si Si5 0.113614 0.493494 0.380093
Si Si6 0.132665 0.958584 0.649191
Si Si7 0.782083 0.779570 0.975160
Si Si8 0.378945 0.351756 0.856822
O O1 0.223388 0.562677 0.240289
O O2 0.463569 0.912012 0.294141
O O3 0.366622 0.464807 0.058404
O O4 0.377501 0.015014 0.931716
O O5 0.575806 0.404966 0.489933
O O6 0.509453 0.641409 0.734076
O O7 0.675145 0.067508 0.446364
O O8 0.735534 0.742432 0.746469
O O9 0.667939 0.493387 0.133021
O O10 0.901976 0.759512 0.013993
O O11 0.001960 0.466889 0.243424
O O12 0.824989 0.148310 0.000689
O O13 0.050815 0.667945 0.843738
O O14 0.163055 0.792843 0.500568
O O15 0.061441 0.131381 0.534329
O O16 0.263140 0.267194 0.713379
#
# Coordination Sequence:
#
# PCOD8000272 Si02
#       8
#     1   1   1   1   1   1   1   1
#     4  12  24  44  76 105 143 182 224 289 362 418
#     4  12  26  46  74 105 143 183 232 289 354 416
#     4  12  26  46  74 105 143 183 232 289 354 416
#     4  12  28  47  72 101 142 188 240 288 340 408
#     4  12  26  46  74 105 143 183 232 289 354 416
#     4  12  26  46  74 105 143 183 232 289 354 416
#     4  12  28  47  72 101 142 188 240 288 340 408
#     4  12  24  44  76 105 143 182 224 289 362 418
#
# _framework density 23.513172999999998
#
# number of rings (size 3 to 8) (size 9 to 14) (size 15 to 20)
#    0.000    0.000    2.500    7.500    3.500    6.000 
#    0.000    0.000    0.000    0.000    0.000    0.000 
#    0.000    0.000    0.000    0.000    0.000    0.000 
#
# Total GULP energy -99280.378563 kJ/mol
# GULP energy per Si atom -12410.047320 kJ/mol
# Density = 2.345966 g / cm^3
# Si number density = 23.513173 Si / 1000 Ang^3
#
#
#
# Elastic Constant Matrix: (Units=GPa)
#
#
# Indices 1 2 3 4 5 6 
#
# 1 92.7248 16.3131 30.7104 11.1760 16.0903 -8.7258
# 2 16.3131 99.7360 33.3566 12.0863 5.4923 -10.5052
# 3 30.7104 33.3566 99.1165 17.8821 23.3548 -8.6476
# 4 11.1760 12.0863 17.8821 47.2938 -15.6887 1.1874
# 5 16.0903 5.4923 23.3548 -15.6887 42.7196 -0.2303
# 6 -8.7258 -10.5052 -8.6476 1.1874 -0.2303 41.6526
#
#
#
# Elastic Compliance Matrix: (Units=1/GPa)
#
#
# Indices 1 2 3 4 5 6 
#
# 1 0.013106 -0.000539 -0.001600 -0.004252 -0.005541 0.002368
# 2 -0.000539 0.011639 -0.003201 -0.001750 -0.000175 0.002207
# 3 -0.001600 -0.003201 0.015940 -0.008472 -0.010799 0.002349
# 4 -0.004252 -0.001750 -0.008472 0.031922 0.018161 -0.003901
# 5 -0.005541 -0.000175 -0.010799 0.018161 0.038071 -0.003754
# 6 0.002368 0.002207 0.002349 -0.003901 -0.003754 0.025639
#
#
# Mechanical properties :
#
#
# Convention : Reuss Voigt Hill
#
# Bulk Modulus (GPa) = 33.32597 50.25972 41.79285
# Shear Modulus (GPa) = 31.84733 40.41302 36.13017
#
# Velocity S-wave (km/s) = 3.68427 4.15027 3.92419
# Velocity P-wave (km/s) = 5.68354 6.66242 6.19235
#
# Compressibility (1/GPa) = 0.03000663
#
# Stress axis : x y z
#
# Youngs Moduli (GPa) = 76.29954 85.91629 62.73488
#
# Poissons Ratio (x) = 0.04628 0.10039
# Poissons Ratio (y) = 0.04110 0.20079
# Poissons Ratio (z) = 0.12209 0.27499
#
# Static dielectric constant tensor:
#      x y z
#    x 4.150120 -0.168990 0.244790 
#    y -0.168990 4.141110 -0.074330 
#    z 0.244790 -0.074330 4.393470 
# 
# 
# High freq. dielectric constant tensor:
#      x y z
#    x 1.933510 -0.011890 0.011010 
#    y -0.011890 1.936060 -0.001110 
#    z 0.011010 -0.001110 1.945720 
# 
# From -- ./inp_files/670.got.cif
#   From: 2010.03.12/outbox.cif.g09.slc.cpg/sg1_1_cif.got.tgz:670.got - 2010.03.29 11:57:58.
