data_PCOD8000798
_publ_section_title
;
Structure prediction by ZEFSAII (Michael W. Deem and Ramdas Pophale) SiO2 
 PCOD8000798
Probable space group: P -1
;
_chemical_formula_sum "Si O2"
_cell_formula_units_Z 16
_cell_length_a 8.062409
_cell_length_b 11.417656
_cell_length_c 22.364685
_cell_angle_alpha 138.736663
_cell_angle_beta 143.503919
_cell_angle_gamma 55.114410
_cell_volume 804.821491
_symmetry_space_group_name_H-M "P -1"
_symmetry_group_IT_number 2
_symmetry_cell_setting 'triclinic'
loop_
_space_group_symop_operation_xyz
x,y,z
-x,-y,-z
loop_
_atom_site_type_symbol
_atom_site_label
_atom_site_fract_x
_atom_site_fract_y
_atom_site_fract_z
Si Si1 0.872074 0.453891 0.560277
Si Si2 0.802898 0.120387 0.760088
Si Si3 0.299935 0.270438 0.153701
Si Si4 0.246447 0.898539 0.126813
Si Si5 0.695248 0.996978 0.200930
Si Si6 0.789546 0.762753 0.564318
Si Si7 0.292470 0.301294 0.298370
Si Si8 0.457420 0.363867 0.671938
O O1 0.869145 0.589222 0.555788
O O2 0.595533 0.318458 0.425275
O O3 0.897419 0.564779 0.671908
O O4 0.139422 0.341153 0.593979
O O5 0.744818 0.181611 0.834464
O O6 0.652701 0.250101 0.723547
O O7 0.680534 0.913748 0.635206
O O8 0.136333 0.134768 0.843295
O O9 0.471243 0.094114 0.133142
O O10 0.306059 0.354941 0.253846
O O11 0.433025 0.428234 0.210857
O O12 0.984009 0.217539 0.022217
O O13 0.539207 0.896961 0.174026
O O14 0.159123 0.098995 0.186432
O O15 0.922784 0.152211 0.351576
O O16 0.548194 0.711023 0.426265
#
# Coordination Sequence:
#
# PCOD8000798 Si02
#       8
#     2   2   2   2   2   2   2   2
#     4  11  20  36  66  91 120 148 198 255 300 348
#     4  10  24  40  61  87 124 162 194 239 304 365
#     4  11  22  37  66  85 116 157 205 251 285 345
#     4  11  22  42  60  88 121 159 205 243 291 351
#     4   9  20  40  62  90 111 158 195 251 298 341
#     4  10  19  40  61  87 119 155 192 250 302 348
#     4  10  20  38  61  96 116 147 201 258 294 346
#     4  12  21  39  59  93 118 156 199 239 305 358
#
# _framework density 19.880184
#
# number of rings (size 3 to 8) (size 9 to 14) (size 15 to 20)
#    0.750    0.750    3.750    3.750    0.000    1.000 
#    4.500    3.125    0.000    0.000    0.000    0.000 
#    0.000    0.000    0.000    0.000    0.000    0.000 
#
# Total GULP energy -198284.375096 kJ/mol
# GULP energy per Si atom -12392.773443 kJ/mol
# Density = 1.983494 g / cm^3
# Si number density = 19.880184 Si / 1000 Ang^3
#
#
#
# Elastic Constant Matrix: (Units=GPa)
#
#
# Indices 1 2 3 4 5 6 
#
# 1 95.0447 28.5217 23.2868 -11.2970 7.6907 1.6275
# 2 28.5217 64.6943 16.9490 -23.0051 8.0426 -3.0021
# 3 23.2868 16.9490 81.5455 1.8088 8.6822 5.2044
# 4 -11.2970 -23.0051 1.8088 24.7713 -0.0609 -1.9361
# 5 7.6907 8.0426 8.6822 -0.0609 20.7204 3.8534
# 6 1.6275 -3.0021 5.2044 -1.9361 3.8534 16.0081
#
#
#
# Elastic Compliance Matrix: (Units=1/GPa)
#
#
# Indices 1 2 3 4 5 6 
#
# 1 0.012788 -0.003834 -0.002666 0.002432 -0.002067 -0.000361
# 2 -0.003834 0.030597 -0.005649 0.028142 -0.010592 0.013918
# 3 -0.002666 -0.005649 0.014980 -0.008042 -0.001973 -0.006156
# 4 0.002432 0.028142 -0.008042 0.069649 -0.011767 0.018901
# 5 -0.002067 -0.010592 -0.001973 -0.011767 0.056958 -0.016268
# 6 -0.000361 0.013918 -0.006156 0.018901 -0.016268 0.073319
#
#
# Mechanical properties :
#
#
# Convention : Reuss Voigt Hill
#
# Bulk Modulus (GPa) = 29.35441 42.08881 35.72161
# Shear Modulus (GPa) = 17.01002 23.80177 20.40589
#
# Velocity S-wave (km/s) = 2.92828 3.46390 3.20729
# Velocity P-wave (km/s) = 5.12161 6.10044 5.63233
#
# Compressibility (1/GPa) = 0.03406643
#
# Stress axis : x y z
#
# Youngs Moduli (GPa) = 78.20082 32.68255 66.75591
#
# Poissons Ratio (x) = 0.12531 0.17795
# Poissons Ratio (y) = 0.29983 0.37714
# Poissons Ratio (z) = 0.20846 0.18464
#
# Static dielectric constant tensor:
#      x y z
#    x 3.680060 0.045530 -0.015400 
#    y 0.045530 3.261970 0.092710 
#    z -0.015400 0.092710 3.546590 
# 
# 
# High freq. dielectric constant tensor:
#      x y z
#    x 1.775210 0.005150 -0.000980 
#    y 0.005150 1.743850 0.009830 
#    z -0.000980 0.009830 1.768450 
# 
# From -- ./inp_files/331590.got.cif
#   From: 2010.06.25/outbox.cif.g09.slc.cpg/sg2_166_cif.got.tgz:331590.got - 2010.06.27 13:26:56.
