data_PCOD8000331
_publ_section_title
;
Structure prediction by ZEFSAII (Michael W. Deem and Ramdas Pophale) SiO2 
 PCOD8000331
Probable space group: P -1
;
_chemical_formula_sum "Si O2"
_cell_formula_units_Z 16
_cell_length_a 11.866816
_cell_length_b 10.788204
_cell_length_c 14.037195
_cell_angle_alpha 54.650331
_cell_angle_beta 31.275729
_cell_angle_gamma 64.806910
_cell_volume 750.838752
_symmetry_space_group_name_H-M "P -1"
_symmetry_group_IT_number 2
_symmetry_cell_setting 'triclinic'
loop_
_space_group_symop_operation_xyz
x,y,z
-x,-y,-z
loop_
_atom_site_type_symbol
_atom_site_label
_atom_site_fract_x
_atom_site_fract_y
_atom_site_fract_z
Si Si1 0.689184 0.689864 0.235489
Si Si2 0.874390 0.783752 0.352453
Si Si3 0.976144 0.640872 0.700844
Si Si4 0.738499 0.813272 0.644236
Si Si5 0.743642 0.308920 0.006583
Si Si6 0.282275 0.844202 0.520521
Si Si7 0.648016 0.517227 0.532364
Si Si8 0.152785 0.877122 0.806799
O O1 0.502103 0.788127 0.352595
O O2 0.749103 0.592973 0.325809
O O3 0.600484 0.570473 0.266594
O O4 0.903081 0.802253 0.997319
O O5 0.889192 0.801089 0.447525
O O6 0.661244 0.652878 0.540393
O O7 0.838809 0.942444 0.257782
O O8 0.092568 0.729875 0.177466
O O9 0.856062 0.754151 0.675606
O O10 0.065192 0.728698 0.694359
O O11 0.186917 0.601213 0.506564
O O12 0.807961 0.485330 0.915903
O O13 0.499224 0.711670 0.851647
O O14 0.718533 0.989725 0.599337
O O15 0.742457 0.193634 0.147331
O O16 0.293811 0.853101 0.622494
#
# Coordination Sequence:
#
# PCOD8000331 Si02
#       8
#     2   2   2   2   2   2   2   2
#     4  10  19  39  58  86 120 149 190 240 292 345
#     4  10  22  38  58  88 119 153 193 241 290 345
#     4  10  21  44  58  84 121 154 201 238 281 347
#     4  11  24  39  62  84 118 161 196 235 285 346
#     4  11  23  37  59  90 116 157 189 241 295 340
#     4  10  24  38  63  89 113 156 195 240 296 342
#     4   9  20  35  60  84 114 155 188 234 293 337
#     4  11  22  36  60  92 121 147 191 242 300 347
#
# _framework density 21.309501000000001
#
# number of rings (size 3 to 8) (size 9 to 14) (size 15 to 20)
#    0.000    1.750    2.500    1.875    3.500    4.500 
#    0.000    2.500    0.000    9.000    0.000    0.000 
#    0.000    0.000    0.000    0.000    0.000    0.000 
#
# Total GULP energy -198418.795128 kJ/mol
# GULP energy per Si atom -12401.174696 kJ/mol
# Density = 2.126100 g / cm^3
# Si number density = 21.309501 Si / 1000 Ang^3
#
#
#
# Elastic Constant Matrix: (Units=GPa)
#
#
# Indices 1 2 3 4 5 6 
#
# 1 52.0557 19.5273 4.5787 7.8597 -10.0230 -13.9596
# 2 19.5273 81.8267 18.8659 -14.5271 -4.4942 -2.9350
# 3 4.5787 18.8659 45.6453 -4.9871 -9.5099 -0.8796
# 4 7.8597 -14.5271 -4.9871 16.1185 7.2921 -8.4289
# 5 -10.0230 -4.4942 -9.5099 7.2921 29.1350 -7.8946
# 6 -13.9596 -2.9350 -0.8796 -8.4289 -7.8946 34.9895
#
#
#
# Elastic Compliance Matrix: (Units=1/GPa)
#
#
# Indices 1 2 3 4 5 6 
#
# 1 0.036505 -0.013927 0.003320 -0.034241 0.022880 0.010393
# 2 -0.013927 0.021770 -0.006590 0.029684 -0.010791 0.000820
# 3 0.003320 -0.006590 0.026209 -0.002390 0.010130 0.003141
# 4 -0.034241 0.029684 -0.002390 0.127212 -0.036810 0.011109
# 5 0.022880 -0.010791 0.010130 -0.036810 0.056391 0.012334
# 6 0.010393 0.000820 0.003141 0.011109 0.012334 0.038333
#
#
# Mechanical properties :
#
#
# Convention : Reuss Voigt Hill
#
# Bulk Modulus (GPa) = 19.96373 29.49684 24.73028
# Shear Modulus (GPa) = 13.98560 25.15233 19.56896
#
# Velocity S-wave (km/s) = 2.56463 3.43933 3.03367
# Velocity P-wave (km/s) = 4.26129 5.44464 4.88890
#
# Compressibility (1/GPa) = 0.05009085
#
# Stress axis : x y z
#
# Youngs Moduli (GPa) = 27.39371 45.93375 38.15524
#
# Poissons Ratio (x) = 0.63970 -0.12669
# Poissons Ratio (y) = 0.38150 0.25146
# Poissons Ratio (z) = -0.09096 0.30272
#
# Static dielectric constant tensor:
#      x y z
#    x 3.738990 0.148520 -0.271860 
#    y 0.148520 4.018930 -0.244600 
#    z -0.271860 -0.244600 3.710410 
# 
# 
# High freq. dielectric constant tensor:
#      x y z
#    x 1.825540 0.006170 -0.023950 
#    y 0.006170 1.850900 -0.011690 
#    z -0.023950 -0.011690 1.821620 
# 
# From -- ./inp_files/274605.got.cif
#   From: 2010.06.25/outbox.cif.g09.slc.cpg/sg2_138_cif.got.tgz:274605.got - 2010.06.27 13:26:56.
