data_PCOD8000973
_publ_section_title
;
Structure prediction by ZEFSAII (Michael W. Deem and Ramdas Pophale) SiO2 
 PCOD8000973
Probable space group: P -1
;
_chemical_formula_sum "Si O2"
_cell_formula_units_Z 16
_cell_length_a 9.380401
_cell_length_b 11.374472
_cell_length_c 8.334668
_cell_angle_alpha 87.391954
_cell_angle_beta 77.211794
_cell_angle_gamma 118.397930
_cell_volume 750.993703
_symmetry_space_group_name_H-M "P -1"
_symmetry_group_IT_number 2
_symmetry_cell_setting 'triclinic'
loop_
_space_group_symop_operation_xyz
x,y,z
-x,-y,-z
loop_
_atom_site_type_symbol
_atom_site_label
_atom_site_fract_x
_atom_site_fract_y
_atom_site_fract_z
Si Si1 0.652742 0.325124 0.066637
Si Si2 0.146202 0.829737 0.931699
Si Si3 0.310749 0.437275 0.492076
Si Si4 0.782737 0.612059 0.131124
Si Si5 0.919380 0.008015 0.852041
Si Si6 0.691378 0.799279 0.676861
Si Si7 0.751544 0.930277 0.342721
Si Si8 0.490001 0.677580 0.227251
O O1 0.759868 0.254811 0.091002
O O2 0.768497 0.485903 0.043107
O O3 0.505064 0.284334 0.233004
O O4 0.580573 0.280488 0.909334
O O5 0.197313 0.922302 0.751550
O O6 0.193431 0.922902 0.076947
O O7 0.944408 0.736897 0.002141
O O8 0.500000 0.500000 0.500000
O O9 0.193158 0.404457 0.681724
O O10 0.251924 0.300367 0.412940
O O11 0.324108 0.558318 0.367787
O O12 0.617792 0.626219 0.140799
O O13 0.088693 0.096892 0.700863
O O14 0.799311 0.864244 0.806566
O O15 0.000000 0.000000 0.000000
O O16 0.714673 0.920283 0.542698
O O17 0.589424 0.810492 0.303368
#
# Coordination Sequence:
#
# PCOD8000973 Si02
#       8
#     2   2   2   2   2   2   2   2
#     4  12  25  38  63  99 126 171 216 260 325 376
#     4  11  25  42  60  89 142 171 202 266 320 384
#     4  10  19  40  67  97 118 157 219 280 307 358
#     4  11  21  43  67  90 124 170 218 267 314 375
#     4  10  22  39  62  91 125 164 211 259 312 375
#     4  12  22  38  67  96 126 164 219 264 316 374
#     4  11  22  41  65  93 123 172 213 261 317 377
#     4  11  21  39  68  95 122 163 218 269 311 372
#
# _framework density 21.305105999999999
#
# number of rings (size 3 to 8) (size 9 to 14) (size 15 to 20)
#    0.000    1.000    6.250    2.625    1.750    2.500 
#    0.000    1.875    0.000    0.000    0.000    0.000 
#    0.000    0.000    0.000    0.000    0.000    0.000 
#
# Total GULP energy -198244.644954 kJ/mol
# GULP energy per Si atom -12390.290310 kJ/mol
# Density = 2.125661 g / cm^3
# Si number density = 21.305106 Si / 1000 Ang^3
#
#
#
# Elastic Constant Matrix: (Units=GPa)
#
#
# Indices 1 2 3 4 5 6 
#
# 1 53.6887 26.4050 20.6968 -2.4376 7.7151 -9.6286
# 2 26.4050 121.9397 39.7183 -1.3528 7.9343 8.9817
# 3 20.6968 39.7183 76.4141 -17.0071 9.1378 3.8417
# 4 -2.4376 -1.3528 -17.0071 51.4575 0.2493 4.6398
# 5 7.7151 7.9343 9.1378 0.2493 15.7100 -3.2983
# 6 -9.6286 8.9817 3.8417 4.6398 -3.2983 24.6270
#
#
#
# Elastic Compliance Matrix: (Units=1/GPa)
#
#
# Indices 1 2 3 4 5 6 
#
# 1 0.025538 -0.004506 -0.004964 -0.001613 -0.004821 0.012061
# 2 -0.004506 0.011055 -0.004206 -0.000830 -0.002014 -0.005251
# 3 -0.004964 -0.004206 0.019329 0.006599 -0.007990 -0.005736
# 4 -0.001613 -0.000830 0.006599 0.022086 -0.004256 -0.006089
# 5 -0.004821 -0.002014 -0.007990 -0.004256 0.074023 0.010812
# 6 0.012061 -0.005251 -0.005736 -0.006089 0.010812 0.050726
#
#
# Mechanical properties :
#
#
# Convention : Reuss Voigt Hill
#
# Bulk Modulus (GPa) = 34.99942 47.29808 41.14875
# Shear Modulus (GPa) = 20.86534 29.37373 25.11953
#
# Velocity S-wave (km/s) = 3.13287 3.71714 3.43744
# Velocity P-wave (km/s) = 5.43598 6.37741 5.92542
#
# Compressibility (1/GPa) = 0.02857190
#
# Stress axis : x y z
#
# Youngs Moduli (GPa) = 39.15740 90.45799 51.73441
#
# Poissons Ratio (x) = 0.40758 0.25680
# Poissons Ratio (y) = 0.17643 0.21757
# Poissons Ratio (z) = 0.19437 0.38043
#
# Static dielectric constant tensor:
#      x y z
#    x 3.559840 -0.067300 -0.244040 
#    y -0.067300 4.253860 -0.270990 
#    z -0.244040 -0.270990 4.817070 
# 
# 
# High freq. dielectric constant tensor:
#      x y z
#    x 1.780780 0.010730 0.000300 
#    y 0.010730 1.850970 -0.013330 
#    z 0.000300 -0.013330 1.849440 
# 
# From -- ./inp_files/179006.got.cif
#   From: 2010.06.25/outbox.cif.g09.slc.cpg/sg2_90_cif.got.tgz:179006.got - 2010.06.27 13:26:56.
