data_PCOD8000296
_publ_section_title
;
Structure prediction by ZEFSAII (Michael W. Deem and Ramdas Pophale) SiO2 
 PCOD8000296
Probable space group: P 1
;
_chemical_formula_sum "Si O2"
_cell_formula_units_Z 8
_cell_length_a 9.022888
_cell_length_b 11.202430
_cell_length_c 5.100866
_cell_angle_alpha 64.367754
_cell_angle_beta 90.879218
_cell_angle_gamma 49.424175
_cell_volume 318.206022
_symmetry_space_group_name_H-M "P 1"
_symmetry_group_IT_number 1
_symmetry_cell_setting 'triclinic'
loop_
_space_group_symop_operation_xyz
x,y,z
loop_
_atom_site_type_symbol
_atom_site_label
_atom_site_fract_x
_atom_site_fract_y
_atom_site_fract_z
Si Si1 0.882740 0.987530 0.315550
Si Si2 0.228496 0.951958 0.164991
Si Si3 0.015900 0.325760 0.533550
Si Si4 0.317235 0.323069 0.780215
Si Si5 0.502113 0.444046 0.865724
Si Si6 0.532406 0.595676 0.219792
Si Si7 0.403102 0.039650 0.443212
Si Si8 0.704317 0.990750 0.816451
O O1 0.119240 0.896134 0.355601
O O2 0.870701 0.939807 0.654290
O O3 0.713433 0.216428 0.067829
O O4 0.838989 0.901233 0.177028
O O5 0.354206 0.829474 0.014234
O O6 0.407179 0.898805 0.418393
O O7 0.050024 0.178399 0.868669
O O8 0.084385 0.418116 0.594361
O O9 0.165322 0.208845 0.397547
O O10 0.771568 0.495800 0.264659
O O11 0.294719 0.482901 0.760175
O O12 0.486087 0.223447 0.631970
O O13 0.438151 0.141046 0.151674
O O14 0.525854 0.543972 0.562624
O O15 0.466641 0.529743 0.068403
O O16 0.600832 0.918134 0.777940
#
# Coordination Sequence:
#
# PCOD8000296 Si02
#       8
#     1   1   1   1   1   1   1   1
#     4  11  21  38  68  95 128 166 217 264 324 384
#     4  11  26  42  64 101 134 172 220 266 324 394
#     4  10  23  42  69  96 131 177 216 268 326 385
#     4   9  20  38  68 100 122 171 223 265 322 389
#     4  11  22  42  68  95 131 171 216 272 324 383
#     4  12  27  43  66  97 136 172 216 270 325 385
#     4  10  20  39  70  96 128 173 220 262 326 388
#     4  10  19  36  65 100 122 166 220 265 319 386
#
# _framework density 25.140947000000001
#
# number of rings (size 3 to 8) (size 9 to 14) (size 15 to 20)
#    0.000    1.500    3.750    2.250    7.000    0.000 
#    0.000    2.500    0.000    1.500    0.000    0.000 
#    0.000    0.000    0.000    0.000    0.000    0.000 
#
# Total GULP energy -99154.645117 kJ/mol
# GULP energy per Si atom -12394.330640 kJ/mol
# Density = 2.508373 g / cm^3
# Si number density = 25.140947 Si / 1000 Ang^3
#
#
#
# Elastic Constant Matrix: (Units=GPa)
#
#
# Indices 1 2 3 4 5 6 
#
# 1 170.7298 70.5535 20.9699 24.0131 21.2600 11.2121
# 2 70.5535 97.0904 24.3092 31.6054 20.7162 3.7789
# 3 20.9699 24.3092 49.8106 32.0189 9.8881 2.3765
# 4 24.0131 31.6054 32.0189 37.3622 1.9047 5.6075
# 5 21.2600 20.7162 9.8881 1.9047 30.7887 21.9386
# 6 11.2121 3.7789 2.3765 5.6075 21.9386 43.0125
#
#
#
# Elastic Compliance Matrix: (Units=1/GPa)
#
#
# Indices 1 2 3 4 5 6 
#
# 1 0.008521 -0.005948 -0.000783 0.000466 -0.000685 -0.001367
# 2 -0.005948 0.027933 0.017213 -0.035783 -0.031425 0.018839
# 3 -0.000783 0.017213 0.068516 -0.074748 -0.049855 0.030080
# 4 0.000466 -0.035783 -0.074748 0.124015 0.073069 -0.046284
# 5 -0.000685 -0.031425 -0.049855 0.073069 0.107325 -0.058573
# 6 -0.001367 0.018839 0.030080 -0.046284 -0.058573 0.056197
#
#
# Mechanical properties :
#
#
# Convention : Reuss Voigt Hill
#
# Bulk Modulus (GPa) = 7.94067 61.03288 34.48678
# Shear Modulus (GPa) = 12.09133 35.68589 23.88861
#
# Velocity S-wave (km/s) = 2.19542 3.77162 3.08586
# Velocity P-wave (km/s) = 3.09706 6.57996 5.14236
#
# Compressibility (1/GPa) = 0.12593389
#
# Stress axis : x y z
#
# Youngs Moduli (GPa) = 117.35688 35.80043 14.59517
#
# Poissons Ratio (x) = 0.21296 0.01142
# Poissons Ratio (y) = 0.69809 -0.25123
# Poissons Ratio (z) = 0.09185 -0.61624
#
# Static dielectric constant tensor:
#      x y z
#    x 4.844850 0.193170 0.143180 
#    y 0.193170 4.388250 0.397680 
#    z 0.143180 0.397680 4.243890 
# 
# 
# High freq. dielectric constant tensor:
#      x y z
#    x 2.021420 0.002510 0.007840 
#    y 0.002510 1.982930 0.039120 
#    z 0.007840 0.039120 1.976830 
# 
# From -- ./inp_files/1084.got.cif
#   From: 2010.03.12/outbox.cif.g09.slc.cpg/sg1_1_cif.got.tgz:1084.got - 2010.03.29 11:57:58.
