data_PCOD8000492
_publ_section_title
;
Structure prediction by ZEFSAII (Michael W. Deem and Ramdas Pophale) SiO2 
 PCOD8000492
Probable space group: P -1
;
_chemical_formula_sum "Si O2"
_cell_formula_units_Z 16
_cell_length_a 20.094988
_cell_length_b 9.359389
_cell_length_c 14.584608
_cell_angle_alpha 139.980649
_cell_angle_beta 30.142375
_cell_angle_gamma 139.455474
_cell_volume 844.286088
_symmetry_space_group_name_H-M "P -1"
_symmetry_group_IT_number 2
_symmetry_cell_setting 'triclinic'
loop_
_space_group_symop_operation_xyz
x,y,z
-x,-y,-z
loop_
_atom_site_type_symbol
_atom_site_label
_atom_site_fract_x
_atom_site_fract_y
_atom_site_fract_z
Si Si1 0.897694 0.011382 0.501433
Si Si2 0.579082 0.752383 0.070263
Si Si3 0.147207 0.092892 0.820191
Si Si4 0.200337 0.244325 0.329538
Si Si5 0.228629 0.162669 0.950302
Si Si6 0.292772 0.737377 0.405193
Si Si7 0.151312 0.570432 0.314881
Si Si8 0.979934 0.740933 0.106878
O O1 0.800789 0.861044 0.621016
O O2 0.915424 0.843866 0.317746
O O3 0.810792 0.182218 0.658910
O O4 0.046066 0.172375 0.437900
O O5 0.457971 0.881574 0.281754
O O6 0.500000 0.500000 0.000000
O O7 0.705865 0.862147 0.902811
O O8 0.632661 0.763894 0.117293
O O9 0.129530 0.286069 0.862165
O O10 0.192684 0.897813 0.613489
O O11 0.260766 0.167624 0.804459
O O12 0.000000 0.000000 0.000000
O O13 0.255786 0.524165 0.417351
O O14 0.152728 0.360740 0.144048
O O15 0.128410 0.914274 0.983187
O O16 0.262600 0.594704 0.275116
O O17 0.000000 0.500000 0.500000
O O18 0.000000 0.500000 0.000000
#
# Coordination Sequence:
#
# PCOD8000492 Si02
#       8
#     2   2   2   2   2   2   2   2
#     4  11  21  33  60  90 121 151 199 256 315 339
#     4  10  19  39  63  87 118 160 209 248 297 354
#     4  10  23  36  57  91 117 153 202 242 303 357
#     4  10  21  34  57  95 117 151 203 254 301 352
#     4  11  21  38  59  90 121 157 202 251 292 358
#     4  11  20  37  65  82 119 163 203 246 289 371
#     4  12  17  35  61  86 118 154 202 256 300 343
#     4  11  22  37  58  88 126 160 188 249 316 360
#
# _framework density 18.950923
#
# number of rings (size 3 to 8) (size 9 to 14) (size 15 to 20)
#    0.000    1.250    7.500    0.750    3.500    1.500 
#    0.000    0.625    0.000    0.750    0.000    0.000 
#    0.000    0.000    0.000    0.000    0.000    0.000 
#
# Total GULP energy -198220.123467 kJ/mol
# GULP energy per Si atom -12388.757717 kJ/mol
# Density = 1.890779 g / cm^3
# Si number density = 18.950923 Si / 1000 Ang^3
#
#
#
# Elastic Constant Matrix: (Units=GPa)
#
#
# Indices 1 2 3 4 5 6 
#
# 1 131.7325 44.3982 23.0509 -3.0959 5.0218 -9.4831
# 2 44.3982 83.8660 29.9447 14.8065 -5.7566 -24.6398
# 3 23.0509 29.9447 69.2783 6.5865 -7.7184 -12.3090
# 4 -3.0959 14.8065 6.5865 29.5801 0.9681 -3.4505
# 5 5.0218 -5.7566 -7.7184 0.9681 31.2365 0.4273
# 6 -9.4831 -24.6398 -12.3090 -3.4505 0.4273 33.7932
#
#
#
# Elastic Compliance Matrix: (Units=1/GPa)
#
#
# Indices 1 2 3 4 5 6 
#
# 1 0.010125 -0.006308 -0.001781 0.004501 -0.003344 -0.001905
# 2 -0.006308 0.022175 -0.003981 -0.009623 0.004252 0.011912
# 3 -0.001781 -0.003981 0.017889 -0.001974 0.003995 0.002861
# 4 0.004501 -0.009623 -0.001974 0.039391 -0.004173 -0.002398
# 5 -0.003344 0.004252 0.003995 -0.004173 0.034414 0.002756
# 6 -0.001905 0.011912 0.002861 -0.002398 0.002756 0.038505
#
#
# Mechanical properties :
#
#
# Convention : Reuss Voigt Hill
#
# Bulk Modulus (GPa) = 38.38926 53.29604 45.84265
# Shear Modulus (GPa) = 25.59864 31.42083 28.50973
#
# Velocity S-wave (km/s) = 3.67929 4.07628 3.88287
# Velocity P-wave (km/s) = 6.19280 7.09500 6.65920
#
# Compressibility (1/GPa) = 0.02604895
#
# Stress axis : x y z
#
# Youngs Moduli (GPa) = 98.76617 45.09531 55.89988
#
# Poissons Ratio (x) = 0.28446 0.09957
# Poissons Ratio (y) = 0.62301 0.22254
# Poissons Ratio (z) = 0.17593 0.17952
#
# Static dielectric constant tensor:
#      x y z
#    x 4.127930 -0.093740 0.008360 
#    y -0.093740 3.258300 -0.085960 
#    z 0.008360 -0.085960 3.585330 
# 
# 
# High freq. dielectric constant tensor:
#      x y z
#    x 1.753400 -0.007790 0.001330 
#    y -0.007790 1.699800 0.009160 
#    z 0.001330 0.009160 1.731110 
# 
# From -- ./inp_files/254797.got.cif
#   From: 2010.06.25/outbox.cif.g09.slc.cpg/sg2_128_cif.got.tgz:254797.got - 2010.06.27 13:26:56.
