data_PCOD8000839
_publ_section_title
;
Structure prediction by ZEFSAII (Michael W. Deem and Ramdas Pophale) SiO2 
 PCOD8000839
Probable space group: P -1
;
_chemical_formula_sum "Si O2"
_cell_formula_units_Z 16
_cell_length_a 14.536166
_cell_length_b 8.396077
_cell_length_c 22.687055
_cell_angle_alpha 66.482063
_cell_angle_beta 20.216944
_cell_angle_gamma 76.529615
_cell_volume 785.026105
_symmetry_space_group_name_H-M "P -1"
_symmetry_group_IT_number 2
_symmetry_cell_setting 'triclinic'
loop_
_space_group_symop_operation_xyz
x,y,z
-x,-y,-z
loop_
_atom_site_type_symbol
_atom_site_label
_atom_site_fract_x
_atom_site_fract_y
_atom_site_fract_z
Si Si1 0.601985 0.873275 0.619914
Si Si2 0.652751 0.887043 0.720721
Si Si3 0.768732 0.519381 0.972183
Si Si4 0.682060 0.120717 0.962622
Si Si5 0.775019 0.861036 0.850675
Si Si6 0.165719 0.336278 0.720892
Si Si7 0.069155 0.953793 0.901412
Si Si8 0.234435 0.447186 0.899314
O O1 0.564425 0.925122 0.702661
O O2 0.366254 0.923342 0.719517
O O3 0.540038 0.647425 0.682522
O O4 0.933360 0.988750 0.379910
O O5 0.559669 0.656342 0.815932
O O6 0.491108 0.953835 0.859327
O O7 0.000000 0.000000 0.500000
O O8 0.828243 0.676987 0.862577
O O9 0.987777 0.418960 0.855233
O O10 0.828747 0.616569 0.985322
O O11 0.014730 0.291922 0.752414
O O12 0.706992 0.946441 0.938940
O O13 0.504196 0.205085 0.016075
O O14 0.500000 0.500000 0.500000
O O15 0.123166 0.128594 0.799552
O O16 0.778837 0.748998 0.091866
O O17 0.000000 0.000000 0.000000
O O18 0.000000 0.500000 0.000000
#
# Coordination Sequence:
#
# PCOD8000839 Si02
#       8
#     2   2   2   2   2   2   2   2
#     4  10  21  38  65  93 121 165 213 253 314 379
#     4  10  19  40  63  87 120 165 206 255 304 372
#     4  10  22  38  62  89 123 162 207 256 316 367
#     4  10  23  40  65  86 132 161 206 266 313 371
#     4  11  22  41  63  94 127 162 207 261 324 370
#     4  11  23  39  58  87 123 164 207 253 310 373
#     4  11  21  37  60  89 124 160 209 259 306 362
#     4   9  19  37  60  86 121 164 202 252 306 369
#
# _framework density 20.381488999999998
#
# number of rings (size 3 to 8) (size 9 to 14) (size 15 to 20)
#    0.000    1.750    1.250    4.500    0.000    5.000 
#    2.250    5.000   11.000    0.000    0.000    0.000 
#    0.000    0.000    0.000    0.000    0.000    0.000 
#
# Total GULP energy -198221.508854 kJ/mol
# GULP energy per Si atom -12388.844303 kJ/mol
# Density = 2.033510 g / cm^3
# Si number density = 20.381489 Si / 1000 Ang^3
#
#
#
# Elastic Constant Matrix: (Units=GPa)
#
#
# Indices 1 2 3 4 5 6 
#
# 1 123.6103 58.2106 63.8657 -12.9872 -4.8236 11.1754
# 2 58.2106 126.8534 52.2216 -18.8071 1.0134 0.4799
# 3 63.8657 52.2216 116.8419 -21.7487 -14.7276 1.4726
# 4 -12.9872 -18.8071 -21.7487 31.0747 3.1994 4.1432
# 5 -4.8236 1.0134 -14.7276 3.1994 37.7006 0.2920
# 6 11.1754 0.4799 1.4726 4.1432 0.2920 41.7425
#
#
#
# Elastic Compliance Matrix: (Units=1/GPa)
#
#
# Indices 1 2 3 4 5 6 
#
# 1 0.012892 -0.003692 -0.005433 -0.000189 -0.000333 -0.003196
# 2 -0.003692 0.011185 -0.002592 0.003545 -0.002091 0.000614
# 3 -0.005433 -0.002592 0.014299 0.005656 0.004477 0.000387
# 4 -0.000189 0.003545 0.005656 0.038865 -0.001177 -0.004039
# 5 -0.000333 -0.002091 0.004477 -0.001177 0.028388 -0.000127
# 6 -0.003196 0.000614 0.000387 -0.004039 -0.000127 0.025193
#
#
# Mechanical properties :
#
#
# Convention : Reuss Voigt Hill
#
# Bulk Modulus (GPa) = 66.93361 79.54461 73.23911
# Shear Modulus (GPa) = 31.39944 34.97073 33.18509
#
# Velocity S-wave (km/s) = 3.92929 4.14673 4.03947
# Velocity P-wave (km/s) = 7.31419 7.87653 7.60056
#
# Compressibility (1/GPa) = 0.01494018
#
# Stress axis : x y z
#
# Youngs Moduli (GPa) = 77.56624 89.40898 69.93426
#
# Poissons Ratio (x) = 0.33014 0.37998
# Poissons Ratio (y) = 0.28641 0.18127
# Poissons Ratio (z) = 0.42145 0.23174
#
# Static dielectric constant tensor:
#      x y z
#    x 3.996840 0.207000 -0.349210 
#    y 0.207000 3.688050 -0.109900 
#    z -0.349210 -0.109900 3.687920 
# 
# 
# High freq. dielectric constant tensor:
#      x y z
#    x 1.814000 0.009340 -0.011570 
#    y 0.009340 1.791680 -0.010900 
#    z -0.011570 -0.010900 1.782240 
# 
# From -- ./inp_files/469602.got.cif
#   From: 2010.06.25/outbox.cif.g09.slc.cpg/sg2_235_cif.got.tgz:469602.got - 2010.06.27 13:26:56.
