data_PCOD8000789
_publ_section_title
;
Structure prediction by ZEFSAII (Michael W. Deem and Ramdas Pophale) SiO2 
 PCOD8000789
Probable space group: P -1
;
_chemical_formula_sum "Si O2"
_cell_formula_units_Z 14
_cell_length_a 9.276263
_cell_length_b 20.187761
_cell_length_c 8.831794
_cell_angle_alpha 139.860603
_cell_angle_beta 50.698739
_cell_angle_gamma 138.958539
_cell_volume 693.732216
_symmetry_space_group_name_H-M "P -1"
_symmetry_group_IT_number 2
_symmetry_cell_setting 'triclinic'
loop_
_space_group_symop_operation_xyz
x,y,z
-x,-y,-z
loop_
_atom_site_type_symbol
_atom_site_label
_atom_site_fract_x
_atom_site_fract_y
_atom_site_fract_z
Si Si1 0.204416 0.104133 0.451580
Si Si2 0.298841 0.126970 0.939608
Si Si3 0.463020 0.719642 0.214390
Si Si4 0.815559 0.049914 0.050079
Si Si5 0.581206 0.534843 0.677945
Si Si6 0.964673 0.306712 0.476874
Si Si7 0.244074 0.276693 0.480607
O O1 0.398339 0.206865 0.603771
O O2 0.133364 0.177568 0.515990
O O3 0.000000 0.000000 0.500000
O O4 0.299988 0.036222 0.170645
O O5 0.485284 0.183944 0.785915
O O6 0.306241 0.020583 0.836523
O O7 0.347588 0.232914 0.209495
O O8 0.062005 0.074691 0.927164
O O9 0.201374 0.648633 0.301751
O O10 0.524720 0.624931 0.952593
O O11 0.822679 0.174778 0.257332
O O12 0.500000 0.500000 0.500000
O O13 0.450830 0.407102 0.634304
O O14 0.847259 0.600347 0.605257
O O15 0.061480 0.294112 0.550304
#
# Coordination Sequence:
#
# PCOD8000789 Si02
#       7
#     2   2   2   2   2   2   2
#     4  11  21  36  60  87 119 152 187 235 294 342
#     4   9  16  33  57  80 108 154 193 224 277 339
#     4  12  22  34  61  92 113 146 198 241 277 337
#     4   9  17  35  55  75 119 157 179 228 289 334
#     4  10  19  40  61  81 116 154 189 239 284 332
#     4  10  21  36  62  89 112 148 202 232 275 342
#     4   9  20  39  61  79 115 160 185 231 294 336
#
# _framework density 20.180696999999999
#
# number of rings (size 3 to 8) (size 9 to 14) (size 15 to 20)
#    0.000    2.000    5.714    0.857    0.000    4.000 
#    0.000    0.714    3.143    0.000    0.000    0.000 
#    0.000    0.000    0.000    0.000    0.000    0.000 
#
# Total GULP energy -173484.468444 kJ/mol
# GULP energy per Si atom -12391.747746 kJ/mol
# Density = 2.013477 g / cm^3
# Si number density = 20.180697 Si / 1000 Ang^3
#
#
#
# Elastic Constant Matrix: (Units=GPa)
#
#
# Indices 1 2 3 4 5 6 
#
# 1 48.8726 35.6364 32.5178 -6.9540 5.6740 4.3158
# 2 35.6364 121.4456 52.1542 6.0137 -5.5251 -1.7106
# 3 32.5178 52.1542 97.0024 0.8266 13.5484 14.2118
# 4 -6.9540 6.0137 0.8266 31.9975 9.9996 0.2144
# 5 5.6740 -5.5251 13.5484 9.9996 23.3896 -7.0800
# 6 4.3158 -1.7106 14.2118 0.2144 -7.0800 26.8191
#
#
#
# Elastic Compliance Matrix: (Units=1/GPa)
#
#
# Indices 1 2 3 4 5 6 
#
# 1 0.036021 -0.012313 -0.000692 0.017215 -0.022312 -0.012243
# 2 -0.012313 0.019025 -0.011896 -0.013948 0.025263 0.016280
# 3 -0.000692 -0.011896 0.023540 0.009943 -0.026655 -0.020238
# 4 0.017215 -0.013948 0.009943 0.050242 -0.040794 -0.020100
# 5 -0.022312 0.025263 -0.026655 -0.040794 0.101038 0.046326
# 6 -0.012243 0.016280 -0.020238 -0.020100 0.046326 0.063410
#
#
# Mechanical properties :
#
#
# Convention : Reuss Voigt Hill
#
# Bulk Modulus (GPa) = 34.74071 56.43751 45.58911
# Shear Modulus (GPa) = 14.17745 26.24203 20.20974
#
# Velocity S-wave (km/s) = 2.65339 3.60995 3.16799
# Velocity P-wave (km/s) = 5.16135 6.73814 6.00175
#
# Compressibility (1/GPa) = 0.02878467
#
# Stress axis : x y z
#
# Youngs Moduli (GPa) = 27.76196 52.56160 42.48002
#
# Poissons Ratio (x) = 0.64717 0.02939
# Poissons Ratio (y) = 0.34182 0.50536
# Poissons Ratio (z) = 0.01921 0.62530
#
# Static dielectric constant tensor:
#      x y z
#    x 3.355990 -0.153080 0.247520 
#    y -0.153080 4.239800 0.253130 
#    z 0.247520 0.253130 3.729050 
# 
# 
# High freq. dielectric constant tensor:
#      x y z
#    x 1.738730 -0.004760 0.019760 
#    y -0.004760 1.798220 0.016320 
#    z 0.019760 0.016320 1.786580 
# 
# From -- ./inp_files/187269.got.cif
#   From: 2010.06.25/outbox.cif.g09.slc.cpg/sg2_94_cif.got.tgz:187269.got - 2010.06.27 13:26:56.
