data_PCOD8000646
_publ_section_title
;
Structure prediction by ZEFSAII (Michael W. Deem and Ramdas Pophale) SiO2 
 PCOD8000646
Probable space group: P -1
;
_chemical_formula_sum "Si O2"
_cell_formula_units_Z 16
_cell_length_a 11.096056
_cell_length_b 10.377855
_cell_length_c 12.513969
_cell_angle_alpha 103.517910
_cell_angle_beta 46.707680
_cell_angle_gamma 69.400681
_cell_volume 703.857398
_symmetry_space_group_name_H-M "P -1"
_symmetry_group_IT_number 2
_symmetry_cell_setting 'triclinic'
loop_
_space_group_symop_operation_xyz
x,y,z
-x,-y,-z
loop_
_atom_site_type_symbol
_atom_site_label
_atom_site_fract_x
_atom_site_fract_y
_atom_site_fract_z
Si Si1 0.355355 0.820645 0.484641
Si Si2 0.866084 0.977809 0.806473
Si Si3 0.949643 0.876577 0.970948
Si Si4 0.084456 0.252925 0.448195
Si Si5 0.857356 0.447095 0.054426
Si Si6 0.163321 0.197197 0.630382
Si Si7 0.506291 0.767881 0.603784
Si Si8 0.380007 0.349796 0.265408
O O1 0.574125 0.637992 0.246256
O O2 0.392426 0.750222 0.571783
O O3 0.092648 0.934830 0.622534
O O4 0.361081 0.977810 0.509570
O O5 0.806324 0.915168 0.733649
O O6 0.953443 0.851485 0.836148
O O7 0.626356 0.202649 0.018966
O O8 0.116198 0.670802 0.885586
O O9 0.000000 0.000000 0.000000
O O10 0.675659 0.011625 0.201670
O O11 0.090207 0.197664 0.554980
O O12 0.252483 0.281791 0.335465
O O13 0.803102 0.439452 0.631779
O O14 0.000000 0.500000 0.000000
O O15 0.938455 0.328031 0.873218
O O16 0.259981 0.291707 0.592887
O O17 0.562757 0.638266 0.644644
#
# Coordination Sequence:
#
# PCOD8000646 Si02
#       8
#     2   2   2   2   2   2   2   2
#     4  12  24  39  64 100 132 170 213 268 340 391
#     4  11  24  40  64  96 129 166 211 269 329 391
#     4  11  22  40  64  95 136 168 204 273 340 383
#     4  10  23  42  67  91 121 175 217 260 318 392
#     4  12  25  39  67  98 127 176 224 263 322 400
#     4  11  23  44  63  90 137 171 217 273 320 385
#     4  10  19  39  66  90 129 170 204 271 332 382
#     4   9  22  41  66  91 125 163 217 269 322 379
#
# _framework density 22.731877999999998
#
# number of rings (size 3 to 8) (size 9 to 14) (size 15 to 20)
#    0.000    1.250    3.750    1.500    1.750    6.000 
#    0.000    1.250    0.000    0.000    0.000    0.000 
#    0.000    0.000    0.000    0.000    0.000    0.000 
#
# Total GULP energy -198339.408851 kJ/mol
# GULP energy per Si atom -12396.213053 kJ/mol
# Density = 2.268014 g / cm^3
# Si number density = 22.731878 Si / 1000 Ang^3
#
#
#
# Elastic Constant Matrix: (Units=GPa)
#
#
# Indices 1 2 3 4 5 6 
#
# 1 71.7040 13.8283 12.0445 -5.7951 11.6531 -16.6742
# 2 13.8283 73.7003 27.8773 7.2374 2.9725 -7.4207
# 3 12.0445 27.8773 141.3510 13.4484 -3.5253 -14.1293
# 4 -5.7951 7.2374 13.4484 28.3085 -9.7859 -0.1487
# 5 11.6531 2.9725 -3.5253 -9.7859 45.3826 -5.4583
# 6 -16.6742 -7.4207 -14.1293 -0.1487 -5.4583 30.3873
#
#
#
# Elastic Compliance Matrix: (Units=1/GPa)
#
#
# Indices 1 2 3 4 5 6 
#
# 1 0.017088 -0.002423 -0.000572 0.003556 -0.002535 0.008081
# 2 -0.002423 0.015461 -0.002411 -0.003731 -0.001252 0.001082
# 3 -0.000572 -0.002411 0.008218 -0.003174 0.000621 0.003014
# 4 0.003556 -0.003731 -0.003174 0.041337 0.008146 0.001230
# 5 -0.002535 -0.001252 0.000621 0.008146 0.024947 0.003113
# 6 0.008081 0.001082 0.003014 0.001230 0.003113 0.039574
#
#
# Mechanical properties :
#
#
# Convention : Reuss Voigt Hill
#
# Bulk Modulus (GPa) = 33.38378 43.80616 38.59497
# Shear Modulus (GPa) = 29.86482 36.34937 33.10709
#
# Velocity S-wave (km/s) = 3.62855 4.00315 3.82044
# Velocity P-wave (km/s) = 5.68093 6.37805 6.03956
#
# Compressibility (1/GPa) = 0.02995466
#
# Stress axis : x y z
#
# Youngs Moduli (GPa) = 58.52019 64.67961 121.69019
#
# Poissons Ratio (x) = 0.15673 0.06960
# Poissons Ratio (y) = 0.14180 0.29338
# Poissons Ratio (z) = 0.03347 0.15593
#
# Static dielectric constant tensor:
#      x y z
#    x 4.012020 -0.213030 -0.090410 
#    y -0.213030 3.919300 -0.051450 
#    z -0.090410 -0.051450 4.343390 
# 
# 
# High freq. dielectric constant tensor:
#      x y z
#    x 1.885040 -0.011620 -0.004260 
#    y -0.011620 1.877140 -0.004660 
#    z -0.004260 -0.004660 1.912760 
# 
# From -- ./inp_files/333330.got.cif
#   From: 2010.06.25/outbox.cif.g09.slc.cpg/sg2_167_cif.got.tgz:333330.got - 2010.06.27 13:26:56.
