data_PCOD8000204
_publ_section_title
;
Structure prediction by ZEFSAII (Michael W. Deem and Ramdas Pophale) SiO2 
 PCOD8000204
Probable space group: P 1
;
_chemical_formula_sum "Si O2"
_cell_formula_units_Z 8
_cell_length_a 9.124072
_cell_length_b 9.892555
_cell_length_c 9.296429
_cell_angle_alpha 150.433960
_cell_angle_beta 122.353552
_cell_angle_gamma 55.546229
_cell_volume 339.487148
_symmetry_space_group_name_H-M "P 1"
_symmetry_group_IT_number 1
_symmetry_cell_setting 'triclinic'
loop_
_space_group_symop_operation_xyz
x,y,z
loop_
_atom_site_type_symbol
_atom_site_label
_atom_site_fract_x
_atom_site_fract_y
_atom_site_fract_z
Si Si1 0.857380 0.439020 0.863840
Si Si2 0.977331 0.643762 0.535671
Si Si3 0.716282 0.951026 0.457738
Si Si4 0.126666 0.831876 0.044688
Si Si5 0.807317 0.618830 0.698993
Si Si6 0.200005 0.475688 0.225920
Si Si7 0.345326 0.219761 0.636001
Si Si8 0.409763 0.944822 0.725402
O O1 0.809857 0.418111 0.651129
O O2 0.842058 0.144240 0.647080
O O3 0.721337 0.697658 0.112963
O O4 0.061557 0.462248 0.011688
O O5 0.800568 0.837373 0.550009
O O6 0.899764 0.467225 0.458179
O O7 0.101740 0.822020 0.848092
O O8 0.099592 0.457320 0.306960
O O9 0.514780 0.131362 0.537531
O O10 0.931284 0.832735 0.010774
O O11 0.280926 0.558344 0.926128
O O12 0.182164 0.113202 0.381306
O O13 0.607249 0.776296 0.706005
O O14 0.267766 0.757136 0.500341
O O15 0.364591 0.203495 0.053485
O O16 0.397800 0.075583 0.682319
#
# Coordination Sequence:
#
# PCOD8000204 Si02
#       8
#     1   1   1   1   1   1   1   1
#     4  11  24  44  69 101 137 182 224 281 344 404
#     4   9  23  50  66 105 135 189 218 282 346 411
#     4  11  24  44  70  98 142 178 227 279 345 408
#     4  10  25  39  71  93 138 175 231 271 336 408
#     4  10  24  49  67 106 136 185 225 287 340 410
#     4  11  25  45  72 101 137 183 225 284 341 409
#     4  12  22  44  65 106 131 185 223 285 338 407
#     4  12  25  43  72 100 142 173 237 279 344 399
#
# _framework density 23.564957
#
# number of rings (size 3 to 8) (size 9 to 14) (size 15 to 20)
#    0.750    0.500    1.250    4.500    0.000    9.000 
#    0.000    0.000    0.000    0.000    0.000    0.000 
#    0.000    0.000    0.000    0.000    0.000    0.000 
#
# Total GULP energy -99151.258139 kJ/mol
# GULP energy per Si atom -12393.907267 kJ/mol
# Density = 2.351132 g / cm^3
# Si number density = 23.564957 Si / 1000 Ang^3
#
#
#
# Elastic Constant Matrix: (Units=GPa)
#
#
# Indices 1 2 3 4 5 6 
#
# 1 95.0302 36.8004 2.7387 -5.1698 -11.0548 -2.1156
# 2 36.8004 100.2334 18.6918 -30.4291 -8.8793 12.0550
# 3 2.7387 18.6918 59.2711 -0.1164 -5.3713 14.3759
# 4 -5.1698 -30.4291 -0.1164 29.7484 4.1966 0.0612
# 5 -11.0548 -8.8793 -5.3713 4.1966 35.2278 -4.0669
# 6 -2.1156 12.0550 14.3759 0.0612 -4.0669 40.0131
#
#
#
# Elastic Compliance Matrix: (Units=1/GPa)
#
#
# Indices 1 2 3 4 5 6 
#
# 1 0.013239 -0.006568 0.001132 -0.004921 0.003563 0.002642
# 2 -0.006568 0.019507 -0.004752 0.018895 -0.000652 -0.004612
# 3 0.001132 -0.004752 0.019812 -0.004876 0.002136 -0.005402
# 4 -0.004921 0.018895 -0.004876 0.052692 -0.004347 -0.004723
# 5 0.003563 -0.000652 0.002136 -0.004347 0.030498 0.002724
# 6 0.002642 -0.004612 -0.005402 -0.004723 0.002724 0.028746
#
#
# Mechanical properties :
#
#
# Convention : Reuss Voigt Hill
#
# Bulk Modulus (GPa) = 31.07167 41.22184 36.14675
# Shear Modulus (GPa) = 25.56264 34.08478 29.82371
#
# Velocity S-wave (km/s) = 3.29716 3.80731 3.56138
# Velocity P-wave (km/s) = 5.26395 6.07110 5.68188
#
# Compressibility (1/GPa) = 0.03218365
#
# Stress axis : x y z
#
# Youngs Moduli (GPa) = 75.53246 51.26244 50.47435
#
# Poissons Ratio (x) = 0.33669 -0.05714
# Poissons Ratio (y) = 0.49609 0.23984
# Poissons Ratio (z) = -0.08550 0.24358
#
# Static dielectric constant tensor:
#      x y z
#    x 4.251280 -0.018310 -0.142910 
#    y -0.018310 4.250390 -0.135900 
#    z -0.142910 -0.135900 4.107270 
# 
# 
# High freq. dielectric constant tensor:
#      x y z
#    x 1.939510 -0.003740 -0.010580 
#    y -0.003740 1.940910 -0.005590 
#    z -0.010580 -0.005590 1.917090 
# 
# From -- ./inp_files/4496.got.cif
#   From: 2010.03.12/outbox.cif.g09.slc.cpg/sg1_3_cif.got.tgz:4496.got - 2010.03.29 11:57:58.
