data_PCOD8000524
_publ_section_title
;
Structure prediction by ZEFSAII (Michael W. Deem and Ramdas Pophale) SiO2 
 PCOD8000524
Probable space group: P -1
;
_chemical_formula_sum "Si O2"
_cell_formula_units_Z 16
_cell_length_a 7.911983
_cell_length_b 16.992505
_cell_length_c 13.276531
_cell_angle_alpha 46.491879
_cell_angle_beta 117.376600
_cell_angle_gamma 144.706366
_cell_volume 725.435354
_symmetry_space_group_name_H-M "P -1"
_symmetry_group_IT_number 2
_symmetry_cell_setting 'triclinic'
loop_
_space_group_symop_operation_xyz
x,y,z
-x,-y,-z
loop_
_atom_site_type_symbol
_atom_site_label
_atom_site_fract_x
_atom_site_fract_y
_atom_site_fract_z
Si Si1 0.227156 0.480688 0.838882
Si Si2 0.854404 0.264213 0.530665
Si Si3 0.710957 0.720781 0.423146
Si Si4 0.242671 0.246102 0.124338
Si Si5 0.787318 0.945706 0.402807
Si Si6 0.784300 0.585049 0.319951
Si Si7 0.284206 0.599306 0.238097
Si Si8 0.194947 0.175902 0.955749
O O1 0.457382 0.654057 0.817411
O O2 0.305083 0.531656 0.695714
O O3 0.874234 0.353837 0.863400
O O4 0.279134 0.381151 0.971815
O O5 0.496272 0.120117 0.563809
O O6 0.975345 0.193104 0.607955
O O7 0.965676 0.357398 0.588598
O O8 0.994845 0.395254 0.361709
O O9 0.737121 0.818831 0.431966
O O10 0.508886 0.531073 0.582990
O O11 0.537478 0.707410 0.298719
O O12 0.194619 0.147865 0.099630
O O13 0.952637 0.110173 0.236288
O O14 0.000000 0.000000 0.500000
O O15 0.932676 0.761465 0.162454
O O16 0.454566 0.657963 0.127702
O O17 0.000000 0.000000 0.000000
#
# Coordination Sequence:
#
# PCOD8000524 Si02
#       8
#     2   2   2   2   2   2   2   2
#     4  10  22  41  67  87 126 175 211 261 318 383
#     4  11  22  39  68  97 127 167 214 268 320 376
#     4  11  21  40  67  97 129 164 215 270 317 381
#     4  10  24  44  59  93 129 169 215 257 322 387
#     4  12  26  43  64  95 131 168 214 268 321 382
#     4  10  19  39  63  93 123 160 212 263 317 372
#     4  11  20  40  65 100 119 163 218 259 320 379
#     4  11  22  37  63  89 131 166 203 261 311 376
#
# _framework density 22.055721999999999
#
# number of rings (size 3 to 8) (size 9 to 14) (size 15 to 20)
#    0.000    1.250    2.500    4.500    0.000    4.000 
#    0.000    3.125    0.000    0.000    0.000    0.000 
#    0.000    0.000    0.000    0.000    0.000    0.000 
#
# Total GULP energy -198232.916971 kJ/mol
# GULP energy per Si atom -12389.557311 kJ/mol
# Density = 2.200552 g / cm^3
# Si number density = 22.055722 Si / 1000 Ang^3
#
#
#
# Elastic Constant Matrix: (Units=GPa)
#
#
# Indices 1 2 3 4 5 6 
#
# 1 108.0591 52.3555 18.7555 12.5447 -14.6114 32.9428
# 2 52.3555 101.5289 27.1376 12.7156 -6.7294 14.4517
# 3 18.7555 27.1376 70.4234 8.5481 -26.5549 17.9453
# 4 12.5447 12.7156 8.5481 27.5088 6.0185 -0.6594
# 5 -14.6114 -6.7294 -26.5549 6.0185 33.9432 -4.3502
# 6 32.9428 14.4517 17.9453 -0.6594 -4.3502 40.4785
#
#
#
# Elastic Compliance Matrix: (Units=1/GPa)
#
#
# Indices 1 2 3 4 5 6 
#
# 1 0.019236 -0.007644 0.007891 -0.010882 0.012919 -0.015213
# 2 -0.007644 0.014713 -0.006226 -0.000256 -0.004788 0.003210
# 3 0.007891 -0.006226 0.030548 -0.016494 0.027050 -0.015104
# 4 -0.010882 -0.000256 -0.016494 0.052391 -0.025080 0.014418
# 5 0.012919 -0.004788 0.027050 -0.025080 0.057760 -0.014998
# 6 -0.015213 0.003210 -0.015104 0.014418 -0.014998 0.041259
#
#
# Mechanical properties :
#
#
# Convention : Reuss Voigt Hill
#
# Bulk Modulus (GPa) = 19.03310 52.94538 35.98924
# Shear Modulus (GPa) = 20.37665 32.50362 26.44014
#
# Velocity S-wave (km/s) = 3.04282 3.84305 3.46611
# Velocity P-wave (km/s) = 4.58185 6.61434 5.68959
#
# Compressibility (1/GPa) = 0.05254005
#
# Stress axis : x y z
#
# Youngs Moduli (GPa) = 51.98516 67.96543 32.73515
#
# Poissons Ratio (x) = 0.51955 -0.25833
# Poissons Ratio (y) = 0.39739 0.20381
# Poissons Ratio (z) = -0.41024 0.42316
#
# Static dielectric constant tensor:
#      x y z
#    x 4.075190 -0.011670 -0.207900 
#    y -0.011670 4.013660 0.211210 
#    z -0.207900 0.211210 4.265630 
# 
# 
# High freq. dielectric constant tensor:
#      x y z
#    x 1.860880 0.001390 -0.009070 
#    y 0.001390 1.849180 0.011740 
#    z -0.009070 0.011740 1.882500 
# 
# From -- ./inp_files/403039.got.cif
#   From: 2010.06.25/outbox.cif.g09.slc.cpg/sg2_202_cif.got.tgz:403039.got - 2010.06.27 13:26:56.
