data_PCOD8000203
_publ_section_title
;
Structure prediction by ZEFSAII (Michael W. Deem and Ramdas Pophale) SiO2 
 PCOD8000203
Probable space group: P 1
;
_chemical_formula_sum "Si O2"
_cell_formula_units_Z 8
_cell_length_a 7.239217
_cell_length_b 7.256924
_cell_length_c 6.665052
_cell_angle_alpha 108.549914
_cell_angle_beta 73.488052
_cell_angle_gamma 88.588537
_cell_volume 315.704336
_symmetry_space_group_name_H-M "P 1"
_symmetry_group_IT_number 1
_symmetry_cell_setting 'triclinic'
loop_
_space_group_symop_operation_xyz
x,y,z
loop_
_atom_site_type_symbol
_atom_site_label
_atom_site_fract_x
_atom_site_fract_y
_atom_site_fract_z
Si Si1 0.092900 0.794260 0.216140
Si Si2 0.809893 0.005699 0.676611
Si Si3 0.523678 0.360447 0.410904
Si Si4 0.245548 0.190639 0.178175
Si Si5 0.885831 0.363709 0.551126
Si Si6 0.382668 0.120950 0.695598
Si Si7 0.814349 0.748686 0.950071
Si Si8 0.437316 0.737302 0.326832
O O1 0.275366 0.650893 0.204886
O O2 0.188559 0.987418 0.200909
O O3 0.918134 0.835244 0.443164
O O4 0.005704 0.703470 0.013819
O O5 0.898734 0.208668 0.678075
O O6 0.585795 0.032092 0.697933
O O7 0.831066 0.944008 0.882259
O O8 0.462944 0.228880 0.196679
O O9 0.744457 0.299440 0.395650
O O10 0.388019 0.313491 0.623478
O O11 0.496501 0.587986 0.437955
O O12 0.093569 0.365441 0.380523
O O13 0.232133 0.189988 0.941490
O O14 0.802830 0.572614 0.737804
O O15 0.322354 0.939843 0.521363
O O16 0.622586 0.779484 0.155773
#
# Coordination Sequence:
#
# PCOD8000203 Si02
#       8
#     1   1   1   1   1   1   1   1
#     4  11  26  49  74 112 145 193 245 298 363 437
#     4  10  24  48  75 106 145 193 241 298 366 427
#     4  11  27  50  73 110 149 191 244 303 363 431
#     4  11  26  48  75 109 144 196 240 302 365 430
#     4  10  27  50  73 111 147 190 245 301 364 434
#     4  11  24  50  75 105 150 189 242 301 362 433
#     4  12  27  49  74 109 149 194 239 305 364 428
#     4  12  27  48  73 110 149 194 244 296 367 432
#
# _framework density 25.340164000000001
#
# number of rings (size 3 to 8) (size 9 to 14) (size 15 to 20)
#    0.000    1.000    2.500    1.500    7.000    1.000 
#    4.500    0.000    0.000    0.000    0.000    0.000 
#    0.000    0.000    0.000    0.000    0.000    0.000 
#
# Total GULP energy -99193.499229 kJ/mol
# GULP energy per Si atom -12399.187404 kJ/mol
# Density = 2.528249 g / cm^3
# Si number density = 25.340164 Si / 1000 Ang^3
#
#
#
# Elastic Constant Matrix: (Units=GPa)
#
#
# Indices 1 2 3 4 5 6 
#
# 1 97.1645 29.2576 49.7800 -9.8356 20.6385 1.9721
# 2 29.2576 109.7834 63.7466 -37.0624 -8.9841 -1.1327
# 3 49.7800 63.7466 149.1780 -23.6359 2.0305 1.9879
# 4 -9.8356 -37.0624 -23.6359 48.1924 0.3023 8.2646
# 5 20.6385 -8.9841 2.0305 0.3023 35.4745 -1.7803
# 6 1.9721 -1.1327 1.9879 8.2646 -1.7803 31.6938
#
#
#
# Elastic Compliance Matrix: (Units=1/GPa)
#
#
# Indices 1 2 3 4 5 6 
#
# 1 0.014991 -0.002812 -0.003770 -0.000700 -0.009269 -0.001135
# 2 -0.002812 0.016298 -0.004519 0.009915 0.005877 -0.001214
# 3 -0.003770 -0.004519 0.010022 0.000795 0.000432 -0.000739
# 4 -0.000700 0.009915 0.000795 0.029862 0.002251 -0.007313
# 5 -0.009269 0.005877 0.000432 0.002251 0.035134 0.002146
# 6 -0.001135 -0.001214 -0.000739 -0.007313 0.002146 0.033653
#
#
# Mechanical properties :
#
#
# Convention : Reuss Voigt Hill
#
# Bulk Modulus (GPa) = 52.33224 71.29937 61.81580
# Shear Modulus (GPa) = 29.66764 37.29491 33.48127
#
# Velocity S-wave (km/s) = 3.42537 3.84053 3.63888
# Velocity P-wave (km/s) = 6.02835 6.91840 6.48865
#
# Compressibility (1/GPa) = 0.01910868
#
# Stress axis : x y z
#
# Youngs Moduli (GPa) = 66.70488 61.35733 99.77670
#
# Poissons Ratio (x) = 0.17256 0.37619
# Poissons Ratio (y) = 0.18760 0.45087
# Poissons Ratio (z) = 0.25150 0.27726
#
# Static dielectric constant tensor:
#      x y z
#    x 4.708220 0.026340 0.121720 
#    y 0.026340 4.377090 -0.298690 
#    z 0.121720 -0.298690 4.559100 
# 
# 
# High freq. dielectric constant tensor:
#      x y z
#    x 2.018350 0.004070 0.011350 
#    y 0.004070 2.007080 -0.023520 
#    z 0.011350 -0.023520 2.005430 
# 
# From -- ./inp_files/1241.got.cif
#   From: 2010.03.12/outbox.cif.g09.slc.cpg/sg1_1_cif.got.tgz:1241.got - 2010.03.29 11:57:58.
