data_PCOD8000420
_publ_section_title
;
Structure prediction by ZEFSAII (Michael W. Deem and Ramdas Pophale) SiO2 
 PCOD8000420
Probable space group: P -1
;
_chemical_formula_sum "Si O2"
_cell_formula_units_Z 14
_cell_length_a 17.610679
_cell_length_b 9.121345
_cell_length_c 10.834439
_cell_angle_alpha 139.663691
_cell_angle_beta 34.580480
_cell_angle_gamma 127.875012
_cell_volume 638.915195
_symmetry_space_group_name_H-M "P -1"
_symmetry_group_IT_number 2
_symmetry_cell_setting 'triclinic'
loop_
_space_group_symop_operation_xyz
x,y,z
-x,-y,-z
loop_
_atom_site_type_symbol
_atom_site_label
_atom_site_fract_x
_atom_site_fract_y
_atom_site_fract_z
Si Si1 0.515949 0.378480 0.202256
Si Si2 0.403344 0.214156 0.797903
Si Si3 0.041690 0.777141 0.226182
Si Si4 0.510456 0.077673 0.799738
Si Si5 0.788302 0.978205 0.246391
Si Si6 0.343828 0.659985 0.774042
Si Si7 0.001958 0.278948 0.031185
O O1 0.535537 0.556984 0.182960
O O2 0.381504 0.433174 0.498830
O O3 0.647357 0.377501 0.114163
O O4 0.497488 0.143822 0.003509
O O5 0.405589 0.231047 0.955013
O O6 0.500000 0.000000 0.500000
O O7 0.258397 0.171421 0.904321
O O8 0.983130 0.802362 0.182818
O O9 0.201664 0.761815 0.989686
O O10 0.991035 0.553787 0.221258
O O11 0.000000 0.000000 0.500000
O O12 0.663196 0.093774 0.560303
O O13 0.465603 0.821018 0.680561
O O14 0.866962 0.810782 0.128337
O O15 0.874577 0.181949 0.209374
#
# Coordination Sequence:
#
# PCOD8000420 Si02
#       7
#     2   2   2   2   2   2   2
#     4  11  23  39  65 100 128 170 202 268 333 376
#     4  10  19  39  61  92 131 160 204 265 322 375
#     4  11  26  46  67  93 130 174 226 261 316 388
#     4  11  23  39  67 101 127 164 213 267 327 390
#     4  10  21  44  67  94 136 168 216 266 330 380
#     4  11  24  43  65  96 132 164 214 271 322 375
#     4  10  24  45  67  92 129 181 213 269 316 383
#
# _framework density 21.912140000000001
#
# number of rings (size 3 to 8) (size 9 to 14) (size 15 to 20)
#    0.000    1.429    2.857    2.571    6.000    2.286 
#    5.143    1.429    0.000    0.000    0.000    0.000 
#    0.000    0.000    0.000    0.000    0.000    0.000 
#
# Total GULP energy -173536.520194 kJ/mol
# GULP energy per Si atom -12395.465728 kJ/mol
# Density = 2.186227 g / cm^3
# Si number density = 21.912140 Si / 1000 Ang^3
#
#
#
# Elastic Constant Matrix: (Units=GPa)
#
#
# Indices 1 2 3 4 5 6 
#
# 1 167.0752 39.2815 66.1925 3.4002 -2.1567 -9.6772
# 2 39.2815 88.5012 23.3111 -6.8150 -4.6036 -12.8052
# 3 66.1925 23.3111 88.4710 -7.0511 0.4760 10.1056
# 4 3.4002 -6.8150 -7.0511 22.0348 3.9444 -5.9518
# 5 -2.1567 -4.6036 0.4760 3.9444 41.7529 3.1075
# 6 -9.6772 -12.8052 10.1056 -5.9518 3.1075 39.3556
#
#
#
# Elastic Compliance Matrix: (Units=1/GPa)
#
#
# Indices 1 2 3 4 5 6 
#
# 1 0.009634 -0.002211 -0.007262 -0.003796 0.000479 0.002902
# 2 -0.002211 0.014092 -0.002252 0.005332 0.000561 0.005382
# 3 -0.007262 -0.002252 0.018450 0.004721 -0.000798 -0.006479
# 4 -0.003796 0.005332 0.004721 0.052187 -0.005179 0.007891
# 5 0.000479 0.000561 -0.000798 -0.005179 0.024701 -0.002229
# 6 0.002902 0.005382 -0.006479 0.007891 -0.002229 0.030907
#
#
# Mechanical properties :
#
#
# Convention : Reuss Voigt Hill
#
# Bulk Modulus (GPa) = 53.39828 66.84640 60.12234
# Shear Modulus (GPa) = 27.82991 34.97946 31.40469
#
# Velocity S-wave (km/s) = 3.56767 3.99977 3.78988
# Velocity P-wave (km/s) = 6.43375 7.20442 6.82997
#
# Compressibility (1/GPa) = 0.01872719
#
# Stress axis : x y z
#
# Youngs Moduli (GPa) = 103.80261 70.96159 54.19944
#
# Poissons Ratio (x) = 0.15687 0.39359
# Poissons Ratio (y) = 0.22946 0.12206
# Poissons Ratio (z) = 0.75381 0.15980
#
# Static dielectric constant tensor:
#      x y z
#    x 4.746490 -0.182590 -0.043800 
#    y -0.182590 4.011620 0.092650 
#    z -0.043800 0.092650 3.537860 
# 
# 
# High freq. dielectric constant tensor:
#      x y z
#    x 1.890570 -0.012910 -0.004190 
#    y -0.012910 1.872180 0.007470 
#    z -0.004190 0.007470 1.824390 
# 
# From -- ./inp_files/462536.got.cif
#   From: 2010.06.25/outbox.cif.g09.slc.cpg/sg2_232_cif.got.tgz:462536.got - 2010.06.27 13:26:56.
