data_PCOD8000424
_publ_section_title
;
Structure prediction by ZEFSAII (Michael W. Deem and Ramdas Pophale) SiO2 
 PCOD8000424
Probable space group: P -1
;
_chemical_formula_sum "Si O2"
_cell_formula_units_Z 14
_cell_length_a 8.994276
_cell_length_b 9.129098
_cell_length_c 9.396689
_cell_angle_alpha 65.095139
_cell_angle_beta 80.266058
_cell_angle_gamma 71.201895
_cell_volume 661.981451
_symmetry_space_group_name_H-M "P -1"
_symmetry_group_IT_number 2
_symmetry_cell_setting 'triclinic'
loop_
_space_group_symop_operation_xyz
x,y,z
-x,-y,-z
loop_
_atom_site_type_symbol
_atom_site_label
_atom_site_fract_x
_atom_site_fract_y
_atom_site_fract_z
Si Si1 0.783512 0.777651 0.231278
Si Si2 0.179715 0.774648 0.646302
Si Si3 0.312718 0.823873 0.892487
Si Si4 0.679136 0.497122 0.487112
Si Si5 0.135618 0.741217 0.217555
Si Si6 0.846391 0.970825 0.693663
Si Si7 0.609592 0.846317 0.958190
O O1 0.698990 0.684542 0.396754
O O2 0.970116 0.701327 0.244472
O O3 0.732074 0.974471 0.193793
O O4 0.732199 0.736543 0.097035
O O5 0.296483 0.747641 0.772366
O O6 0.219019 0.606876 0.615632
O O7 0.999355 0.814048 0.710063
O O8 0.203214 0.929277 0.485856
O O9 0.493895 0.748647 0.945965
O O10 0.198040 0.766612 0.041963
O O11 0.500000 0.500000 0.500000
O O12 0.743140 0.415751 0.661043
O O13 0.112093 0.912046 0.239838
O O14 0.700591 0.906632 0.791479
O O15 0.500000 0.000000 0.000000
#
# Coordination Sequence:
#
# PCOD8000424 Si02
#       7
#     2   2   2   2   2   2   2
#     4  11  21  38  66  93 120 167 213 251 311 378
#     4  10  23  39  63  91 129 163 207 265 312 364
#     4  11  21  38  68  98 119 161 221 260 302 361
#     4  11  26  44  61  89 135 169 203 257 329 375
#     4  11  20  40  69  91 125 168 212 254 306 388
#     4  10  19  39  61  95 125 162 207 261 305 369
#     4  10  20  34  63  97 127 157 209 259 311 361
#
# _framework density 21.148629
#
# number of rings (size 3 to 8) (size 9 to 14) (size 15 to 20)
#    0.000    1.429    4.286    2.571    6.000    0.571 
#    0.000    5.714    0.000    0.000    0.000    0.000 
#    0.000    0.000    0.000    0.000    0.000    0.000 
#
# Total GULP energy -173631.830710 kJ/mol
# GULP energy per Si atom -12402.273622 kJ/mol
# Density = 2.110049 g / cm^3
# Si number density = 21.148629 Si / 1000 Ang^3
#
#
#
# Elastic Constant Matrix: (Units=GPa)
#
#
# Indices 1 2 3 4 5 6 
#
# 1 138.7381 2.5134 33.7915 -5.5792 -3.3907 -5.3970
# 2 2.5134 23.3162 24.6387 -9.0565 -0.4568 -0.8785
# 3 33.7915 24.6387 98.2133 0.5709 -1.2003 2.4681
# 4 -5.5792 -9.0565 0.5709 34.7209 4.6212 -1.0636
# 5 -3.3907 -0.4568 -1.2003 4.6212 53.0529 0.5191
# 6 -5.3970 -0.8785 2.4681 -1.0636 0.5191 25.4079
#
#
#
# Elastic Compliance Matrix: (Units=1/GPa)
#
#
# Indices 1 2 3 4 5 6 
#
# 1 0.008323 0.004522 -0.004072 0.002628 0.000226 0.002425
# 2 0.004522 0.071196 -0.019705 0.019990 -0.001346 0.006201
# 3 -0.004072 -0.019705 0.016655 -0.006243 0.000524 -0.003436
# 4 0.002628 0.019990 -0.006243 0.035028 -0.002885 0.003381
# 5 0.000226 -0.001346 0.000524 -0.002885 0.019121 -0.000561
# 6 0.002425 0.006201 -0.003436 0.003381 -0.000561 0.040574
#
#
# Mechanical properties :
#
#
# Convention : Reuss Voigt Hill
#
# Bulk Modulus (GPa) = 17.34168 42.46166 29.90167
# Shear Modulus (GPa) = 20.11039 35.92459 28.01749
#
# Velocity S-wave (km/s) = 3.08702 4.12597 3.64371
# Velocity P-wave (km/s) = 4.57428 6.54366 5.64551
#
# Compressibility (1/GPa) = 0.05766453
#
# Stress axis : x y z
#
# Youngs Moduli (GPa) = 120.14711 14.04579 60.04129
#
# Poissons Ratio (x) = -0.06351 0.24446
# Poissons Ratio (y) = -0.54328 1.18312
# Poissons Ratio (z) = 0.48918 0.27677
#
# Static dielectric constant tensor:
#      x y z
#    x 3.897980 0.376380 0.070840 
#    y 0.376380 2.894890 0.224300 
#    z 0.070840 0.224300 3.963440 
# 
# 
# High freq. dielectric constant tensor:
#      x y z
#    x 1.844020 -0.006000 0.005280 
#    y -0.006000 1.786180 -0.003460 
#    z 0.005280 -0.003460 1.842770 
# 
# From -- ./inp_files/155985.got.cif
#   From: 2010.06.25/outbox.cif.g09.slc.cpg/sg2_78_cif.got.tgz:155985.got - 2010.06.27 13:26:56.
