data_PCOD8000518
_publ_section_title
;
Structure prediction by ZEFSAII (Michael W. Deem and Ramdas Pophale) SiO2 
 PCOD8000518
Probable space group: P -1
;
_chemical_formula_sum "Si O2"
_cell_formula_units_Z 12
_cell_length_a 7.953887
_cell_length_b 11.433264
_cell_length_c 12.624067
_cell_angle_alpha 35.325116
_cell_angle_beta 118.607252
_cell_angle_gamma 114.461304
_cell_volume 582.145484
_symmetry_space_group_name_H-M "P -1"
_symmetry_group_IT_number 2
_symmetry_cell_setting 'triclinic'
loop_
_space_group_symop_operation_xyz
x,y,z
-x,-y,-z
loop_
_atom_site_type_symbol
_atom_site_label
_atom_site_fract_x
_atom_site_fract_y
_atom_site_fract_z
Si Si1 0.582065 0.275323 0.070339
Si Si2 0.234335 0.434231 0.941103
Si Si3 0.990682 0.807071 0.319414
Si Si4 0.315038 0.861710 0.023336
Si Si5 0.361945 0.028785 0.338459
Si Si6 0.902880 0.405956 0.699635
O O1 0.754234 0.364846 0.131058
O O2 0.657785 0.258588 0.987775
O O3 0.498185 0.058855 0.252302
O O4 0.411488 0.436193 0.907888
O O5 0.037402 0.428620 0.824889
O O6 0.247763 0.234980 0.167084
O O7 0.010772 0.741635 0.252167
O O8 0.872838 0.627629 0.478710
O O9 0.202502 0.845873 0.407158
O O10 0.872281 0.007246 0.138531
O O11 0.291196 0.699852 0.232090
O O12 0.500000 0.000000 0.000000
O O13 0.500000 0.000000 0.500000
#
# Coordination Sequence:
#
# PCOD8000518 Si02
#       6
#     2   2   2   2   2   2
#     4   9  20  36  61  90 119 158 202 242 307 351
#     4   9  19  40  62  89 118 166 198 246 302 355
#     4  11  24  40  64  92 119 163 207 245 302 364
#     4  12  23  41  62  90 126 159 200 256 305 354
#     4  10  19  39  63  92 120 160 207 243 297 368
#     4  11  23  42  63  88 124 159 207 251 299 363
#
# _framework density 20.613403000000002
#
# number of rings (size 3 to 8) (size 9 to 14) (size 15 to 20)
#    1.000    0.667    1.667    3.500    0.000    1.333 
#    3.000    1.667    0.000    0.000    0.000    0.000 
#    0.000    0.000    0.000    0.000    0.000    0.000 
#
# Total GULP energy -148705.923095 kJ/mol
# GULP energy per Si atom -12392.160258 kJ/mol
# Density = 2.056649 g / cm^3
# Si number density = 20.613403 Si / 1000 Ang^3
#
#
#
# Elastic Constant Matrix: (Units=GPa)
#
#
# Indices 1 2 3 4 5 6 
#
# 1 70.5805 48.4333 41.5144 -3.6762 -32.9392 0.0193
# 2 48.4333 128.5419 28.6360 2.9662 -16.7400 7.0214
# 3 41.5144 28.6360 82.5717 -2.9100 -33.0165 0.9140
# 4 -3.6762 2.9662 -2.9100 31.1237 8.3702 -0.0252
# 5 -32.9392 -16.7400 -33.0165 8.3702 38.1280 0.7618
# 6 0.0193 7.0214 0.9140 -0.0252 0.7618 43.8807
#
#
#
# Elastic Compliance Matrix: (Units=1/GPa)
#
#
# Indices 1 2 3 4 5 6 
#
# 1 0.032307 -0.008415 -0.005507 -0.001190 0.019686 0.001105
# 2 -0.008415 0.010863 -0.000663 -0.001355 -0.002744 -0.001674
# 3 -0.005507 -0.000663 0.020215 -0.002179 0.012945 -0.000539
# 4 -0.001190 -0.001355 -0.002179 0.034923 -0.011186 0.000477
# 5 0.019686 -0.002744 0.012945 -0.011186 0.055711 -0.000813
# 6 0.001105 -0.001674 -0.000539 0.000477 -0.000813 0.023082
#
#
# Mechanical properties :
#
#
# Convention : Reuss Voigt Hill
#
# Bulk Modulus (GPa) = 29.22717 57.65129 43.43923
# Shear Modulus (GPa) = 22.96975 33.50050 28.23513
#
# Velocity S-wave (km/s) = 3.34175 4.03573 3.70502
# Velocity P-wave (km/s) = 5.39437 7.05299 6.27869
#
# Compressibility (1/GPa) = 0.03421474
#
# Stress axis : x y z
#
# Youngs Moduli (GPa) = 30.95286 92.05199 49.46911
#
# Poissons Ratio (x) = 0.77465 0.27244
# Poissons Ratio (y) = 0.26048 0.03278
# Poissons Ratio (z) = 0.17046 0.06100
#
# Static dielectric constant tensor:
#      x y z
#    x 3.568530 0.226690 -0.263960 
#    y 0.226690 3.863890 -0.162190 
#    z -0.263960 -0.162190 3.649640 
# 
# 
# High freq. dielectric constant tensor:
#      x y z
#    x 1.780500 0.019860 -0.018110 
#    y 0.019860 1.821510 -0.000650 
#    z -0.018110 -0.000650 1.792200 
# 
# From -- ./inp_files/388933.got.cif
#   From: 2010.06.25/outbox.cif.g09.slc.cpg/sg2_195_cif.got.tgz:388933.got - 2010.06.27 13:26:56.
