data_PCOD8000602
_publ_section_title
;
Structure prediction by ZEFSAII (Michael W. Deem and Ramdas Pophale) SiO2 
 PCOD8000602
Probable space group: P -1
;
_chemical_formula_sum "Si O2"
_cell_formula_units_Z 14
_cell_length_a 9.469611
_cell_length_b 8.796004
_cell_length_c 11.609635
_cell_angle_alpha 127.997085
_cell_angle_beta 122.070821
_cell_angle_gamma 76.404796
_cell_volume 639.625703
_symmetry_space_group_name_H-M "P -1"
_symmetry_group_IT_number 2
_symmetry_cell_setting 'triclinic'
loop_
_space_group_symop_operation_xyz
x,y,z
-x,-y,-z
loop_
_atom_site_type_symbol
_atom_site_label
_atom_site_fract_x
_atom_site_fract_y
_atom_site_fract_z
Si Si1 0.686678 0.735735 0.632240
Si Si2 0.028083 0.777687 0.899653
Si Si3 0.421334 0.343766 0.696002
Si Si4 0.174918 0.979568 0.507367
Si Si5 0.641035 0.248225 0.091972
Si Si6 0.768461 0.171323 0.777499
Si Si7 0.563931 0.122586 0.256861
O O1 0.850912 0.660610 0.725306
O O2 0.626926 0.608965 0.435107
O O3 0.547157 0.721133 0.665625
O O4 0.712694 0.958683 0.705450
O O5 0.161982 0.742051 0.844090
O O6 0.092081 0.711110 0.021516
O O7 0.000000 0.000000 0.000000
O O8 0.423158 0.544640 0.860032
O O9 0.604699 0.278630 0.747981
O O10 0.278914 0.186875 0.616806
O O11 0.147446 0.844932 0.318670
O O12 0.272764 0.868055 0.590066
O O13 0.000000 0.000000 0.500000
O O14 0.617565 0.178119 0.178395
O O15 0.538446 0.096299 0.888650
#
# Coordination Sequence:
#
# PCOD8000602 Si02
#       7
#     2   2   2   2   2   2   2
#     4  10  19  39  65  91 122 172 205 249 317 383
#     4  10  20  37  62  91 122 169 206 251 307 384
#     4  11  22  42  65  96 126 165 212 259 310 375
#     4  11  23  39  67  93 127 167 212 259 312 374
#     4  11  25  38  66  96 127 161 211 266 310 366
#     4  10  19  39  65  90 124 171 210 244 322 375
#     4  11  22  42  62  94 126 168 212 250 319 374
#
# _framework density 21.887802000000001
#
# number of rings (size 3 to 8) (size 9 to 14) (size 15 to 20)
#    0.000    1.429    5.714    0.857    6.000    3.429 
#    0.000    0.000    0.000    2.571    0.000    0.000 
#    0.000    0.000    0.000    0.000    0.000    0.000 
#
# Total GULP energy -173582.063156 kJ/mol
# GULP energy per Si atom -12398.718797 kJ/mol
# Density = 2.183798 g / cm^3
# Si number density = 21.887802 Si / 1000 Ang^3
#
#
#
# Elastic Constant Matrix: (Units=GPa)
#
#
# Indices 1 2 3 4 5 6 
#
# 1 192.7737 42.7097 43.1067 -21.3892 -5.2402 -25.8705
# 2 42.7097 48.6886 35.3800 -15.4122 6.9946 -14.4472
# 3 43.1067 35.3800 65.1525 -28.2400 6.6674 -17.0851
# 4 -21.3892 -15.4122 -28.2400 45.5363 -13.9678 -2.1239
# 5 -5.2402 6.9946 6.6674 -13.9678 29.8642 -9.7705
# 6 -25.8705 -14.4472 -17.0851 -2.1239 -9.7705 32.2459
#
#
#
# Elastic Compliance Matrix: (Units=1/GPa)
#
#
# Indices 1 2 3 4 5 6 
#
# 1 0.007712 -0.004621 0.000584 0.004819 0.006783 0.006799
# 2 -0.004621 0.038045 -0.017025 -0.001528 -0.005834 0.002449
# 3 0.000584 -0.017025 0.037123 0.021978 0.011820 0.017539
# 4 0.004819 -0.001528 0.021978 0.046723 0.026648 0.025978
# 5 0.006783 -0.005834 0.011820 0.026648 0.054852 0.027466
# 6 0.006799 0.002449 0.017539 0.025978 0.027466 0.056890
#
#
# Mechanical properties :
#
#
# Convention : Reuss Voigt Hill
#
# Bulk Modulus (GPa) = 24.53597 61.00085 42.76841
# Shear Modulus (GPa) = 16.83187 33.89052 25.36120
#
# Velocity S-wave (km/s) = 2.77611 3.93921 3.40765
# Velocity P-wave (km/s) = 4.63788 6.97281 5.92157
#
# Compressibility (1/GPa) = 0.04075649
#
# Stress axis : x y z
#
# Youngs Moduli (GPa) = 129.66591 26.28443 26.93720
#
# Poissons Ratio (x) = 0.12147 -0.01574
# Poissons Ratio (y) = 0.59925 0.45861
# Poissons Ratio (z) = -0.07578 0.44750
#
# Static dielectric constant tensor:
#      x y z
#    x 4.011380 -0.154230 -0.032450 
#    y -0.154230 3.868400 -0.586010 
#    z -0.032450 -0.586010 4.861620 
# 
# 
# High freq. dielectric constant tensor:
#      x y z
#    x 1.868580 -0.008490 -0.016970 
#    y -0.008490 1.844750 -0.024970 
#    z -0.016970 -0.024970 1.862620 
# 
# From -- ./inp_files/185035.got.cif
#   From: 2010.06.25/outbox.cif.g09.slc.cpg/sg2_93_cif.got.tgz:185035.got - 2010.06.27 13:26:56.
