data_PCOD8000195
_publ_section_title
;
Structure prediction by ZEFSAII (Michael W. Deem and Ramdas Pophale) SiO2 
 PCOD8000195
Probable space group: P 1
;
_chemical_formula_sum "Si O2"
_cell_formula_units_Z 8
_cell_length_a 9.287115
_cell_length_b 7.900609
_cell_length_c 9.455587
_cell_angle_alpha 103.341565
_cell_angle_beta 139.799236
_cell_angle_gamma 99.517331
_cell_volume 365.647615
_symmetry_space_group_name_H-M "P 1"
_symmetry_group_IT_number 1
_symmetry_cell_setting 'triclinic'
loop_
_space_group_symop_operation_xyz
x,y,z
loop_
_atom_site_type_symbol
_atom_site_label
_atom_site_fract_x
_atom_site_fract_y
_atom_site_fract_z
Si Si1 0.116030 0.350840 0.365810
Si Si2 0.698401 0.605219 0.760078
Si Si3 0.716441 0.293226 0.271225
Si Si4 0.749369 0.227463 0.793192
Si Si5 0.155225 0.962932 0.358442
Si Si6 0.195150 0.973280 0.701695
Si Si7 0.751996 0.673967 0.484068
Si Si8 0.820181 0.069946 0.539417
O O1 0.411274 0.548140 0.590836
O O2 0.997970 0.408303 0.422059
O O3 0.138508 0.162175 0.392003
O O4 0.925980 0.289973 0.076860
O O5 0.736608 0.418201 0.768447
O O6 0.723148 0.665464 0.627552
O O7 0.932651 0.799861 0.055527
O O8 0.622041 0.447587 0.273040
O O9 0.691699 0.168762 0.371011
O O10 0.512388 0.117207 0.974836
O O11 0.886661 0.168894 0.764678
O O12 0.449833 0.027760 0.546879
O O13 0.104161 0.865906 0.458717
O O14 0.094340 0.129686 0.681324
O O15 0.064322 0.797793 0.693054
O O16 0.640418 0.813269 0.366742
#
# Coordination Sequence:
#
# PCOD8000195 Si02
#       8
#     1   1   1   1   1   1   1   1
#     4  11  25  43  69 101 135 187 223 285 345 398
#     4  11  26  43  68 104 139 180 230 278 342 420
#     4  12  23  49  72  96 142 180 228 288 345 395
#     4  11  24  43  70  98 143 183 223 283 347 401
#     4  11  24  46  66 101 142 176 234 282 334 419
#     4  10  25  45  69 101 135 180 233 284 332 416
#     4  10  25  45  66 104 134 177 231 281 333 421
#     4  10  24  46  66 103 134 181 224 285 344 398
#
# _framework density 21.878988
#
# number of rings (size 3 to 8) (size 9 to 14) (size 15 to 20)
#    0.750    0.500    3.750    0.750    5.250    3.000 
#    2.250    0.000    0.000    0.000    0.000    0.000 
#    0.000    0.000    0.000    0.000    0.000    0.000 
#
# Total GULP energy -99126.391673 kJ/mol
# GULP energy per Si atom -12390.798959 kJ/mol
# Density = 2.182919 g / cm^3
# Si number density = 21.878988 Si / 1000 Ang^3
#
#
#
# Elastic Constant Matrix: (Units=GPa)
#
#
# Indices 1 2 3 4 5 6 
#
# 1 94.4849 7.7685 21.9006 3.7240 -22.2599 18.6562
# 2 7.7685 70.6674 10.1252 -6.1974 -14.2032 15.4405
# 3 21.9006 10.1252 96.9819 12.2842 -5.8041 16.2984
# 4 3.7240 -6.1974 12.2842 31.3804 3.1887 -1.0175
# 5 -22.2599 -14.2032 -5.8041 3.1887 33.6128 2.6288
# 6 18.6562 15.4405 16.2984 -1.0175 2.6288 37.0300
#
#
#
# Elastic Compliance Matrix: (Units=1/GPa)
#
#
# Indices 1 2 3 4 5 6 
#
# 1 0.015419 0.002738 -0.001178 -0.002361 0.012117 -0.009316
# 2 0.002738 0.018158 -0.000636 0.002203 0.009895 -0.009313
# 3 -0.001178 -0.000636 0.012212 -0.005117 0.001921 -0.004794
# 4 -0.002361 0.002203 -0.005117 0.035235 -0.005161 0.003858
# 5 0.012117 0.009895 0.001921 -0.005161 0.043899 -0.014334
# 6 -0.009316 -0.009313 -0.004794 0.003858 -0.014334 0.038815
#
#
# Mechanical properties :
#
#
# Convention : Reuss Voigt Hill
#
# Bulk Modulus (GPa) = 20.99201 37.96920 29.48061
# Shear Modulus (GPa) = 28.12650 35.22730 31.67690
#
# Velocity S-wave (km/s) = 3.58934 4.01695 3.80915
# Velocity P-wave (km/s) = 5.17622 6.23750 5.73148
#
# Compressibility (1/GPa) = 0.04763717
#
# Stress axis : x y z
#
# Youngs Moduli (GPa) = 64.85527 55.07329 81.88538
#
# Poissons Ratio (x) = -0.15077 0.09644
# Poissons Ratio (y) = -0.17755 0.05205
# Poissons Ratio (z) = 0.07638 0.03501
#
# Static dielectric constant tensor:
#      x y z
#    x 4.092510 0.086990 0.083770 
#    y 0.086990 3.991370 -0.087460 
#    z 0.083770 -0.087460 3.835010 
# 
# 
# High freq. dielectric constant tensor:
#      x y z
#    x 1.876770 0.006420 -0.008320 
#    y 0.006420 1.865070 -0.005180 
#    z -0.008320 -0.005180 1.836500 
# 
# From -- ./inp_files/4478.got.cif
#   From: 2010.03.12/outbox.cif.g09.slc.cpg/sg1_3_cif.got.tgz:4478.got - 2010.03.29 11:57:58.
