data_PCOD8000608
_publ_section_title
;
Structure prediction by ZEFSAII (Michael W. Deem and Ramdas Pophale) SiO2 
 PCOD8000608
Probable space group: P -1
;
_chemical_formula_sum "Si O2"
_cell_formula_units_Z 16
_cell_length_a 10.846519
_cell_length_b 11.188683
_cell_length_c 14.056443
_cell_angle_alpha 147.998584
_cell_angle_beta 55.574993
_cell_angle_gamma 130.577576
_cell_volume 686.218744
_symmetry_space_group_name_H-M "P -1"
_symmetry_group_IT_number 2
_symmetry_cell_setting 'triclinic'
loop_
_space_group_symop_operation_xyz
x,y,z
-x,-y,-z
loop_
_atom_site_type_symbol
_atom_site_label
_atom_site_fract_x
_atom_site_fract_y
_atom_site_fract_z
Si Si1 0.614555 0.697333 0.014272
Si Si2 0.125105 0.069997 0.216357
Si Si3 0.693083 0.434983 0.455047
Si Si4 0.840400 0.159876 0.332902
Si Si5 0.954691 0.149094 0.702696
Si Si6 0.602464 0.044390 0.728638
Si Si7 0.104534 0.587870 0.813064
Si Si8 0.770562 0.351146 0.684599
O O1 0.703778 0.558082 0.818186
O O2 0.500000 0.500000 0.000000
O O3 0.511364 0.824730 0.086115
O O4 0.744033 0.888505 0.155462
O O5 0.287079 0.294946 0.334752
O O6 0.027320 0.193460 0.279082
O O7 0.009093 0.930265 0.262491
O O8 0.166761 0.876724 0.004491
O O9 0.823642 0.353109 0.396498
O O10 0.748502 0.453010 0.332520
O O11 0.507342 0.247748 0.425055
O O12 0.775888 0.193314 0.486125
O O13 0.762716 0.094106 0.752911
O O14 0.063081 0.435152 0.827435
O O15 0.000000 0.000000 0.500000
O O16 0.647799 0.151278 0.674970
O O17 0.943265 0.489431 0.752927
#
# Coordination Sequence:
#
# PCOD8000608 Si02
#       8
#     2   2   2   2   2   2   2   2
#     4   9  19  36  59  91 133 163 202 270 315 371
#     4  12  23  40  68  96 128 173 215 266 314 380
#     4  11  24  41  61  98 139 163 209 267 327 385
#     4  11  22  38  66 100 129 169 218 257 326 382
#     4  11  22  46  74  92 120 172 226 265 313 381
#     4   9  22  40  63  94 130 170 208 268 323 375
#     4  11  23  41  66  98 125 168 222 262 316 378
#     4  10  19  39  65  92 130 169 216 262 312 383
#
# _framework density 23.316181
#
# number of rings (size 3 to 8) (size 9 to 14) (size 15 to 20)
#    0.000    1.500    3.750    1.500    0.000    7.500 
#    0.000    1.875    2.750    0.000    0.000    0.000 
#    0.000    0.000    0.000    0.000    0.000    0.000 
#
# Total GULP energy -198321.995727 kJ/mol
# GULP energy per Si atom -12395.124733 kJ/mol
# Density = 2.326311 g / cm^3
# Si number density = 23.316181 Si / 1000 Ang^3
#
#
#
# Elastic Constant Matrix: (Units=GPa)
#
#
# Indices 1 2 3 4 5 6 
#
# 1 53.2582 8.9523 14.0713 1.1308 -3.0654 6.7853
# 2 8.9523 86.7966 35.0537 20.1369 15.1830 15.6845
# 3 14.0713 35.0537 110.3760 17.3703 2.7544 26.0063
# 4 1.1308 20.1369 17.3703 38.4995 2.4357 5.0782
# 5 -3.0654 15.1830 2.7544 2.4357 20.5751 -0.7142
# 6 6.7853 15.6845 26.0063 5.0782 -0.7142 30.3119
#
#
#
# Elastic Compliance Matrix: (Units=1/GPa)
#
#
# Indices 1 2 3 4 5 6 
#
# 1 0.020079 -0.002095 -0.001728 0.001266 0.004548 -0.002033
# 2 -0.002095 0.017421 -0.002670 -0.006348 -0.012249 -0.005480
# 3 -0.001728 -0.002670 0.012631 -0.003131 0.000096 -0.008542
# 4 0.001266 -0.006348 -0.003131 0.030480 0.001706 0.000622
# 5 0.004548 -0.012249 0.000096 0.001706 0.058324 0.006326
# 6 -0.002033 -0.005480 -0.008542 0.000622 0.006326 0.043654
#
#
# Mechanical properties :
#
#
# Convention : Reuss Voigt Hill
#
# Bulk Modulus (GPa) = 26.92128 40.73173 33.82650
# Shear Modulus (GPa) = 24.04334 30.70087 27.37211
#
# Velocity S-wave (km/s) = 3.21469 3.63260 3.43002
# Velocity P-wave (km/s) = 5.03490 5.92466 5.49781
#
# Compressibility (1/GPa) = 0.03714534
#
# Stress axis : x y z
#
# Youngs Moduli (GPa) = 49.80301 57.40137 79.16978
#
# Poissons Ratio (x) = 0.12026 0.13682
# Poissons Ratio (y) = 0.10434 0.21136
# Poissons Ratio (z) = 0.08607 0.15325
#
# Static dielectric constant tensor:
#      x y z
#    x 4.245080 -0.123960 -0.562130 
#    y -0.123960 4.215730 0.189230 
#    z -0.562130 0.189230 4.617880 
# 
# 
# High freq. dielectric constant tensor:
#      x y z
#    x 1.898160 -0.000900 -0.013270 
#    y -0.000900 1.926320 0.018520 
#    z -0.013270 0.018520 1.926710 
# 
# From -- ./inp_files/519369.got.cif
#   From: 2010.06.25/outbox.cif.g09.slc.cpg/sg2_260_cif.got.tgz:519369.got - 2010.06.27 13:26:56.
