data_PCOD8000977
_publ_section_title
;
Structure prediction by ZEFSAII (Michael W. Deem and Ramdas Pophale) SiO2 
 PCOD8000977
Probable space group: P -1
;
_chemical_formula_sum "Si O2"
_cell_formula_units_Z 16
_cell_length_a 9.075039
_cell_length_b 9.310176
_cell_length_c 13.805129
_cell_angle_alpha 45.864220
_cell_angle_beta 80.483385
_cell_angle_gamma 72.324090
_cell_volume 795.778467
_symmetry_space_group_name_H-M "P -1"
_symmetry_group_IT_number 2
_symmetry_cell_setting 'triclinic'
loop_
_space_group_symop_operation_xyz
x,y,z
-x,-y,-z
loop_
_atom_site_type_symbol
_atom_site_label
_atom_site_fract_x
_atom_site_fract_y
_atom_site_fract_z
Si Si1 0.736989 0.459285 0.669696
Si Si2 0.967910 0.821557 0.020521
Si Si3 0.753425 0.048291 0.765850
Si Si4 0.738558 0.848146 0.383557
Si Si5 0.509538 0.820826 0.842698
Si Si6 0.965085 0.122015 0.546564
Si Si7 0.690838 0.409249 0.917747
Si Si8 0.907853 0.594203 0.308963
O O1 0.691354 0.289508 0.687420
O O2 0.667193 0.689807 0.527232
O O3 0.670494 0.448325 0.787984
O O4 0.922356 0.410001 0.669248
O O5 0.860481 0.915901 0.899118
O O6 0.884614 0.681495 0.160810
O O7 0.131000 0.683207 0.026817
O O8 0.000000 0.000000 0.000000
O O9 0.848070 0.025102 0.665958
O O10 0.600771 0.970850 0.809470
O O11 0.788696 0.747044 0.320737
O O12 0.877535 0.906537 0.397060
O O13 0.603901 0.058964 0.285598
O O14 0.633553 0.625501 0.876980
O O15 0.408634 0.749688 0.969756
O O16 0.884101 0.364311 0.420736
O O17 0.000000 0.000000 0.500000
#
# Coordination Sequence:
#
# PCOD8000977 Si02
#       8
#     2   2   2   2   2   2   2   2
#     4  10  20  39  70  90 120 162 218 260 298 371
#     4  11  20  40  74  91 117 165 215 262 309 360
#     4  12  23  41  63 102 122 157 218 264 302 368
#     4  11  21  44  66  89 130 173 199 250 324 380
#     4  11  27  41  61  91 135 169 201 257 319 379
#     4  11  23  41  66  97 127 158 215 268 303 364
#     4  10  23  46  60  89 127 172 209 248 323 379
#     4  10  19  40  67  98 119 164 210 260 314 367
#
# _framework density 20.106097999999999
#
# number of rings (size 3 to 8) (size 9 to 14) (size 15 to 20)
#    0.000    1.250    5.000    2.250    5.250    2.000 
#    4.500    0.000    0.000    0.000    0.000    0.000 
#    0.000    0.000    0.000    0.000    0.000    0.000 
#
# Total GULP energy -198465.276133 kJ/mol
# GULP energy per Si atom -12404.079758 kJ/mol
# Density = 2.006034 g / cm^3
# Si number density = 20.106098 Si / 1000 Ang^3
#
#
#
# Elastic Constant Matrix: (Units=GPa)
#
#
# Indices 1 2 3 4 5 6 
#
# 1 68.0134 24.1507 49.0872 -2.1487 -9.2360 4.4050
# 2 24.1507 59.0701 25.8320 2.4341 -2.6380 6.0740
# 3 49.0872 25.8320 129.6310 -3.9019 -14.0934 -2.3069
# 4 -2.1487 2.4341 -3.9019 35.6070 -3.9759 -1.0876
# 5 -9.2360 -2.6380 -14.0934 -3.9759 23.6738 -10.4187
# 6 4.4050 6.0740 -2.3069 -1.0876 -10.4187 25.5125
#
#
#
# Elastic Compliance Matrix: (Units=1/GPa)
#
#
# Indices 1 2 3 4 5 6 
#
# 1 0.022402 -0.005863 -0.006926 0.001332 0.003473 -0.001623
# 2 -0.005863 0.021057 -0.002695 -0.002818 -0.004803 -0.006326
# 3 -0.006926 -0.002695 0.011789 0.002007 0.006910 0.005811
# 4 0.001332 -0.002818 0.002007 0.029728 0.008808 0.005487
# 5 0.003473 -0.004803 0.006910 0.008808 0.060142 0.026105
# 6 -0.001623 -0.006326 0.005811 0.005487 0.026105 0.052403
#
#
# Mechanical properties :
#
#
# Convention : Reuss Voigt Hill
#
# Bulk Modulus (GPa) = 41.18744 50.53938 45.86341
# Shear Modulus (GPa) = 21.13410 27.46831 24.30120
#
# Velocity S-wave (km/s) = 3.24563 3.70018 3.48033
# Velocity P-wave (km/s) = 5.88005 6.59136 6.24584
#
# Compressibility (1/GPa) = 0.02427924
#
# Stress axis : x y z
#
# Youngs Moduli (GPa) = 44.63797 47.48984 84.82400
#
# Poissons Ratio (x) = 0.27845 0.58749
# Poissons Ratio (y) = 0.26172 0.22864
# Poissons Ratio (z) = 0.30916 0.12801
#
# Static dielectric constant tensor:
#      x y z
#    x 3.902860 -0.019760 0.674980 
#    y -0.019760 3.601480 -0.012860 
#    z 0.674980 -0.012860 6.251960 
# 
# 
# High freq. dielectric constant tensor:
#      x y z
#    x 1.763200 -0.007390 -0.014380 
#    y -0.007390 1.781700 -0.007880 
#    z -0.014380 -0.007880 1.808830 
# 
# From -- ./inp_files/217671.got.cif
#   From: 2010.06.25/outbox.cif.g09.slc.cpg/sg2_109_cif.got.tgz:217671.got - 2010.06.27 13:26:56.
