data_PCOD8000316
_publ_section_title
;
Structure prediction by ZEFSAII (Michael W. Deem and Ramdas Pophale) SiO2 
 PCOD8000316
Probable space group: P -1
;
_chemical_formula_sum "Si O2"
_cell_formula_units_Z 16
_cell_length_a 13.432773
_cell_length_b 14.858449
_cell_length_c 9.485459
_cell_angle_alpha 101.743494
_cell_angle_beta 124.294376
_cell_angle_gamma 39.524956
_cell_volume 894.109306
_symmetry_space_group_name_H-M "P -1"
_symmetry_group_IT_number 2
_symmetry_cell_setting 'triclinic'
loop_
_space_group_symop_operation_xyz
x,y,z
-x,-y,-z
loop_
_atom_site_type_symbol
_atom_site_label
_atom_site_fract_x
_atom_site_fract_y
_atom_site_fract_z
Si Si1 0.261403 0.840354 0.427045
Si Si2 0.575514 0.920894 0.386883
Si Si3 0.406258 0.914597 0.021165
Si Si4 0.755304 0.966749 0.366439
Si Si5 0.219348 0.723752 0.600028
Si Si6 0.196442 0.860640 0.892477
Si Si7 0.521653 0.617813 0.305829
Si Si8 0.236150 0.370198 0.621416
O O1 0.328226 0.886262 0.588478
O O2 0.219328 0.779840 0.473524
O O3 0.444622 0.702217 0.422276
O O4 0.047771 0.000032 0.228297
O O5 0.723549 0.905174 0.432131
O O6 0.500000 0.000000 0.500000
O O7 0.394014 0.005343 0.156352
O O8 0.701027 0.750990 0.472503
O O9 0.632172 0.725560 0.158607
O O10 0.377152 0.972262 0.860218
O O11 0.232941 0.946414 0.927551
O O12 0.995587 0.818314 0.472778
O O13 0.270108 0.760582 0.780484
O O14 0.393039 0.537976 0.667395
O O15 0.323404 0.741198 0.085736
O O16 0.707951 0.566715 0.382855
O O17 0.000000 0.500000 0.500000
#
# Coordination Sequence:
#
# PCOD8000316 Si02
#       8
#     2   2   2   2   2   2   2   2
#     4  11  21  36  60  84 120 144 185 234 277 336
#     4  10  21  35  59  83 107 138 192 238 276 316
#     4   9  19  35  62  76 111 145 189 227 269 335
#     4  11  19  37  60  83 107 155 190 219 283 335
#     4  11  21  36  59  84 116 150 188 225 272 351
#     4  10  19  39  57  84 111 154 189 222 275 341
#     4  11  22  35  57  85 117 148 182 236 290 311
#     4   9  20  37  57  79 111 148 187 228 277 332
#
# _framework density 17.894901999999998
#
# number of rings (size 3 to 8) (size 9 to 14) (size 15 to 20)
#    0.750    1.000    2.500    3.750    0.000    0.000 
#    0.000    0.000    2.750    1.500    0.000    0.000 
#    0.000    0.000    0.000    0.000    0.000    0.000 
#
# Total GULP energy -198297.202708 kJ/mol
# GULP energy per Si atom -12393.575169 kJ/mol
# Density = 1.785417 g / cm^3
# Si number density = 17.894902 Si / 1000 Ang^3
#
#
#
# Elastic Constant Matrix: (Units=GPa)
#
#
# Indices 1 2 3 4 5 6 
#
# 1 75.0305 22.7995 39.0765 6.9503 4.8682 5.4638
# 2 22.7995 91.5308 38.1321 13.0017 0.8929 0.9672
# 3 39.0765 38.1321 94.1705 17.0068 -0.0766 -7.0847
# 4 6.9503 13.0017 17.0068 21.9758 1.6795 -3.6091
# 5 4.8682 0.8929 -0.0766 1.6795 26.0567 0.2776
# 6 5.4638 0.9672 -7.0847 -3.6091 0.2776 30.0754
#
#
#
# Elastic Compliance Matrix: (Units=1/GPa)
#
#
# Indices 1 2 3 4 5 6 
#
# 1 0.018150 -0.001395 -0.007385 0.000244 -0.003328 -0.004932
# 2 -0.001395 0.013733 -0.004270 -0.004675 0.000097 -0.001756
# 3 -0.007385 -0.004270 0.017172 -0.007833 0.002033 0.004565
# 4 0.000244 -0.004675 -0.007833 0.055335 -0.003528 0.004934
# 5 -0.003328 0.000097 0.002033 -0.003528 0.039227 0.000295
# 6 -0.004932 -0.001756 0.004565 0.004934 0.000295 0.035867
#
#
# Mechanical properties :
#
#
# Convention : Reuss Voigt Hill
#
# Bulk Modulus (GPa) = 43.55939 51.19422 47.37680
# Shear Modulus (GPa) = 23.44829 26.33648 24.89239
#
# Velocity S-wave (km/s) = 3.62378 3.84048 3.73370
# Velocity P-wave (km/s) = 6.47330 6.95241 6.71713
#
# Compressibility (1/GPa) = 0.02295716
#
# Stress axis : x y z
#
# Youngs Moduli (GPa) = 55.09597 72.81577 58.23427
#
# Poissons Ratio (x) = 0.10155 0.43003
# Poissons Ratio (y) = 0.07684 0.24865
# Poissons Ratio (z) = 0.40686 0.31092
#
# Static dielectric constant tensor:
#      x y z
#    x 3.251610 0.098970 0.040590 
#    y 0.098970 3.164500 0.102930 
#    z 0.040590 0.102930 3.365800 
# 
# 
# High freq. dielectric constant tensor:
#      x y z
#    x 1.696480 0.011940 0.003870 
#    y 0.011940 1.679180 0.007740 
#    z 0.003870 0.007740 1.692030 
# 
# From -- ./inp_files/218692.got.cif
#   From: 2010.06.25/outbox.cif.g09.slc.cpg/sg2_110_cif.got.tgz:218692.got - 2010.06.27 13:26:56.
