data_PCOD8000336
_publ_section_title
;
Structure prediction by ZEFSAII (Michael W. Deem and Ramdas Pophale) SiO2 
 PCOD8000336
Probable space group: P -1
;
_chemical_formula_sum "Si O2"
_cell_formula_units_Z 16
_cell_length_a 15.327083
_cell_length_b 6.899805
_cell_length_c 12.068448
_cell_angle_alpha 49.890876
_cell_angle_beta 58.081917
_cell_angle_gamma 41.583397
_cell_volume 645.103451
_symmetry_space_group_name_H-M "P -1"
_symmetry_group_IT_number 2
_symmetry_cell_setting 'triclinic'
loop_
_space_group_symop_operation_xyz
x,y,z
-x,-y,-z
loop_
_atom_site_type_symbol
_atom_site_label
_atom_site_fract_x
_atom_site_fract_y
_atom_site_fract_z
Si Si1 0.498557 0.613187 0.581432
Si Si2 0.324729 0.703704 0.068005
Si Si3 0.788566 0.714454 0.937111
Si Si4 0.589883 0.617609 0.085430
Si Si5 0.780132 0.041404 0.608037
Si Si6 0.299976 0.279995 0.386908
Si Si7 0.023917 0.081147 0.074821
Si Si8 0.987948 0.224360 0.590218
O O1 0.500000 0.500000 0.500000
O O2 0.432654 0.506098 0.743794
O O3 0.652776 0.418885 0.584723
O O4 0.410314 0.007126 0.500459
O O5 0.365603 0.402160 0.227060
O O6 0.331897 0.954600 0.039675
O O7 0.422391 0.550570 0.951886
O O8 0.173155 0.932410 0.046555
O O9 0.828686 0.816530 0.765887
O O10 0.737401 0.509516 0.019495
O O11 0.923393 0.476775 0.004160
O O12 0.500000 0.000000 0.000000
O O13 0.735468 0.899701 0.602290
O O14 0.901169 0.022892 0.484887
O O15 0.162862 0.599443 0.416412
O O16 0.982609 0.954297 0.247320
O O17 0.000000 0.000000 0.000000
O O18 0.000000 0.500000 0.500000
#
# Coordination Sequence:
#
# PCOD8000336 Si02
#       8
#     2   2   2   2   2   2   2   2
#     4  10  21  36  66  92 122 166 219 260 318 384
#     4  11  24  43  64  98 132 163 218 264 321 386
#     4  12  24  40  67  96 131 169 211 269 322 382
#     4  12  23  43  67  92 127 174 216 261 325 381
#     4  10  19  39  58  92 125 167 213 262 319 381
#     4   9  18  39  61  90 124 168 210 267 313 381
#     4  11  21  40  67  97 128 169 212 268 322 384
#     4   9  19  32  61  93 121 164 219 254 320 382
#
# _framework density 24.802222
#
# number of rings (size 3 to 8) (size 9 to 14) (size 15 to 20)
#    0.000    1.500    3.750    2.625    5.250    1.500 
#    0.000    4.375    0.000    0.000    0.000    0.000 
#    0.000    0.000    0.000    0.000    0.000    0.000 
#
# Total GULP energy -198323.578381 kJ/mol
# GULP energy per Si atom -12395.223649 kJ/mol
# Density = 2.474577 g / cm^3
# Si number density = 24.802222 Si / 1000 Ang^3
#
#
#
# Elastic Constant Matrix: (Units=GPa)
#
#
# Indices 1 2 3 4 5 6 
#
# 1 33.0707 3.4801 23.9494 -2.0881 3.3976 -10.9052
# 2 3.4801 158.6188 86.9589 -14.0989 2.9779 -17.3089
# 3 23.9494 86.9589 202.5879 -1.7226 5.4216 -19.7840
# 4 -2.0881 -14.0989 -1.7226 51.7388 -6.7180 15.0333
# 5 3.3976 2.9779 5.4216 -6.7180 20.2391 3.2336
# 6 -10.9052 -17.3089 -19.7840 15.0333 3.2336 32.2636
#
#
#
# Elastic Compliance Matrix: (Units=1/GPa)
#
#
# Indices 1 2 3 4 5 6 
#
# 1 0.038426 0.002900 -0.004167 -0.003156 -0.009105 0.014372
# 2 0.002900 0.008774 -0.003812 0.001501 -0.000693 0.002720
# 3 -0.004167 -0.003812 0.007287 -0.001749 -0.001590 0.001989
# 4 -0.003156 0.001501 -0.001749 0.025156 0.011396 -0.014198
# 5 -0.009105 -0.000693 -0.001590 0.011396 0.057728 -0.015520
# 6 0.014372 0.002720 0.001989 -0.014198 -0.015520 0.046702
#
#
# Mechanical properties :
#
#
# Convention : Reuss Voigt Hill
#
# Bulk Modulus (GPa) = 22.55861 69.22827 45.89344
# Shear Modulus (GPa) = 23.92259 39.50755 31.71507
#
# Velocity S-wave (km/s) = 3.10906 3.99545 3.57980
# Velocity P-wave (km/s) = 4.69079 7.01837 5.96913
#
# Compressibility (1/GPa) = 0.04432898
#
# Stress axis : x y z
#
# Youngs Moduli (GPa) = 26.02390 113.97502 137.23193
#
# Poissons Ratio (x) = -0.33055 0.57188
# Poissons Ratio (y) = -0.07547 0.52313
# Poissons Ratio (z) = 0.10845 0.43447
#
# Static dielectric constant tensor:
#      x y z
#    x 3.690660 0.112630 0.908020 
#    y 0.112630 5.473570 -0.359750 
#    z 0.908020 -0.359750 3.761350 
# 
# 
# High freq. dielectric constant tensor:
#      x y z
#    x 1.990500 -0.012300 0.005540 
#    y -0.012300 2.015400 0.002880 
#    z 0.005540 0.002880 1.977470 
# 
# From -- ./inp_files/469841.got.cif
#   From: 2010.06.25/outbox.cif.g09.slc.cpg/sg2_235_cif.got.tgz:469841.got - 2010.06.27 13:26:56.
