data_PCOD8000964
_publ_section_title
;
Structure prediction by ZEFSAII (Michael W. Deem and Ramdas Pophale) SiO2 
 PCOD8000964
Probable space group: P -1
;
_chemical_formula_sum "Si O2"
_cell_formula_units_Z 16
_cell_length_a 15.666957
_cell_length_b 13.459815
_cell_length_c 12.330847
_cell_angle_alpha 66.842345
_cell_angle_beta 25.703831
_cell_angle_gamma 50.559805
_cell_volume 735.930926
_symmetry_space_group_name_H-M "P -1"
_symmetry_group_IT_number 2
_symmetry_cell_setting 'triclinic'
loop_
_space_group_symop_operation_xyz
x,y,z
-x,-y,-z
loop_
_atom_site_type_symbol
_atom_site_label
_atom_site_fract_x
_atom_site_fract_y
_atom_site_fract_z
Si Si1 0.491695 0.563385 0.706093
Si Si2 0.121199 0.826088 0.167468
Si Si3 0.892286 0.160050 0.570174
Si Si4 0.878352 0.726971 0.848852
Si Si5 0.590478 0.019029 0.563710
Si Si6 0.336206 0.676275 0.621250
Si Si7 0.581632 0.643801 0.142634
Si Si8 0.226465 0.008447 0.860098
O O1 0.428071 0.677264 0.636646
O O2 0.311258 0.521996 0.911088
O O3 0.815853 0.409600 0.394948
O O4 0.390918 0.655485 0.892821
O O5 0.151279 0.802444 0.270388
O O6 0.830288 0.890640 0.428781
O O7 0.116739 0.949453 0.077389
O O8 0.604858 0.274267 0.785748
O O9 0.113102 0.163991 0.274286
O O10 0.000000 0.000000 0.500000
O O11 0.809871 0.651366 0.880284
O O12 0.657576 0.824025 0.156819
O O13 0.708527 0.047249 0.316743
O O14 0.495100 0.946645 0.643415
O O15 0.500000 0.500000 0.500000
O O16 0.420280 0.724057 0.407329
O O17 0.001682 0.806324 0.949988
#
# Coordination Sequence:
#
# PCOD8000964 Si02
#       8
#     2   2   2   2   2   2   2   2
#     4  10  24  43  63  99 131 172 221 268 333 388
#     4  12  25  43  68  95 132 177 218 267 329 389
#     4  11  24  44  68  94 132 173 222 269 323 391
#     4  11  24  43  66  99 128 175 222 266 328 391
#     4  11  23  39  65  95 134 165 213 274 327 383
#     4  10  19  40  67  92 135 173 211 265 331 390
#     4  10  23  41  64  93 133 173 217 273 322 382
#     4  11  23  40  63  99 137 166 213 276 329 387
#
# _framework density 21.741171999999999
#
# number of rings (size 3 to 8) (size 9 to 14) (size 15 to 20)
#    0.000    1.250    1.250    5.625    1.750    6.500 
#    2.250    1.250    0.000    0.000    0.000    0.000 
#    0.000    0.000    0.000    0.000    0.000    0.000 
#
# Total GULP energy -198217.877943 kJ/mol
# GULP energy per Si atom -12388.617371 kJ/mol
# Density = 2.169169 g / cm^3
# Si number density = 21.741172 Si / 1000 Ang^3
#
#
#
# Elastic Constant Matrix: (Units=GPa)
#
#
# Indices 1 2 3 4 5 6 
#
# 1 136.6673 51.5777 39.7586 -15.0246 10.6769 -21.0631
# 2 51.5777 94.1115 49.1323 -1.5217 1.9935 -6.3697
# 3 39.7586 49.1323 100.7206 5.0149 11.7316 -2.2033
# 4 -15.0246 -1.5217 5.0149 29.4641 5.6041 3.4985
# 5 10.6769 1.9935 11.7316 5.6041 40.3887 -2.9829
# 6 -21.0631 -6.3697 -2.2033 3.4985 -2.9829 36.6631
#
#
#
# Elastic Compliance Matrix: (Units=1/GPa)
#
#
# Indices 1 2 3 4 5 6 
#
# 1 0.011226 -0.004602 -0.002068 0.005765 -0.002588 0.004765
# 2 -0.004602 0.016455 -0.006444 -0.000870 0.002405 0.000106
# 3 -0.002068 -0.006444 0.014359 -0.003099 -0.002979 -0.001391
# 4 0.005765 -0.000870 -0.003099 0.038652 -0.006033 -0.001205
# 5 -0.002588 0.002405 -0.002979 -0.006033 0.027141 0.001536
# 6 0.004765 0.000106 -0.001391 -0.001205 0.001536 0.030187
#
#
# Mechanical properties :
#
#
# Convention : Reuss Voigt Hill
#
# Bulk Modulus (GPa) = 63.24810 68.04850 65.64830
# Shear Modulus (GPa) = 29.49529 34.03858 31.76693
#
# Velocity S-wave (km/s) = 3.68728 3.96109 3.82664
# Velocity P-wave (km/s) = 6.87623 7.23102 7.05586
#
# Compressibility (1/GPa) = 0.01581075
#
# Stress axis : x y z
#
# Youngs Moduli (GPa) = 89.08125 60.77352 69.64223
#
# Poissons Ratio (x) = 0.27970 0.14399
# Poissons Ratio (y) = 0.40998 0.44880
# Poissons Ratio (z) = 0.18418 0.39165
#
# Static dielectric constant tensor:
#      x y z
#    x 4.154630 0.036850 0.000060 
#    y 0.036850 3.868320 -0.014600 
#    z 0.000060 -0.014600 3.831420 
# 
# 
# High freq. dielectric constant tensor:
#      x y z
#    x 1.870900 0.000130 0.005500 
#    y 0.000130 1.849550 0.001920 
#    z 0.005500 0.001920 1.842340 
# 
# From -- ./inp_files/454717.got.cif
#   From: 2010.06.25/outbox.cif.g09.slc.cpg/sg2_228_cif.got.tgz:454717.got - 2010.06.27 13:26:56.
