data_PCOD8000064
_publ_section_title
;
Structure prediction by ZEFSAII (Michael W. Deem and Ramdas Pophale) SiO2 
 PCOD8000064
Probable space group: P 1
;
_chemical_formula_sum "Si O2"
_cell_formula_units_Z 8
_cell_length_a 10.450936
_cell_length_b 9.068450
_cell_length_c 9.357546
_cell_angle_alpha 148.723282
_cell_angle_beta 117.165591
_cell_angle_gamma 51.072393
_cell_volume 351.006128
_symmetry_space_group_name_H-M "P 1"
_symmetry_group_IT_number 1
_symmetry_cell_setting 'triclinic'
loop_
_space_group_symop_operation_xyz
x,y,z
loop_
_atom_site_type_symbol
_atom_site_label
_atom_site_fract_x
_atom_site_fract_y
_atom_site_fract_z
Si Si1 0.141990 0.363360 0.402640
Si Si2 0.204141 0.905870 0.818825
Si Si3 0.807457 0.075702 0.253435
Si Si4 0.516844 0.507680 0.261606
Si Si5 0.580700 0.392123 0.675182
Si Si6 0.519199 0.851270 0.261833
Si Si7 0.015848 0.401205 0.666662
Si Si8 0.303795 0.165564 0.831643
O O1 0.128975 0.669414 0.558440
O O2 0.019434 0.521507 0.606916
O O3 0.325478 0.089866 0.323818
O O4 0.096175 0.155134 0.099213
O O5 0.398579 0.653515 0.739838
O O6 0.187653 0.145505 0.878846
O O7 0.695193 0.228384 0.181327
O O8 0.703754 0.213528 0.458931
O O9 0.965430 0.125281 0.391038
O O10 0.884594 0.686439 0.942459
O O11 0.543039 0.614187 0.208325
O O12 0.463848 0.803008 0.591037
O O13 0.374162 0.406107 0.104140
O O14 0.588577 0.096073 0.529195
O O15 0.625614 0.606150 0.980874
O O16 0.200658 0.257473 0.707447
#
# Coordination Sequence:
#
# PCOD8000064 Si02
#       8
#     1   1   1   1   1   1   1   1
#     4  10  21  39  64  94 127 167 212 265 325 374
#     4  10  21  38  66  96 122 162 222 275 305 369
#     4  12  26  44  64  96 138 175 207 262 337 393
#     4  12  24  42  68  99 128 167 228 268 309 381
#     4  10  21  39  64  94 127 167 212 265 325 374
#     4  10  21  38  66  96 122 162 222 275 305 369
#     4  12  26  44  64  96 138 175 207 262 337 393
#     4  12  24  42  68  99 128 167 228 268 309 381
#
# _framework density 22.791625
#
# number of rings (size 3 to 8) (size 9 to 14) (size 15 to 20)
#    0.000    1.000    2.500    4.500    7.000    0.000 
#    0.000    7.500    0.000    0.000    0.000    0.000 
#    0.000    0.000    0.000    0.000    0.000    0.000 
#
# Total GULP energy -99140.012363 kJ/mol
# GULP energy per Si atom -12392.501545 kJ/mol
# Density = 2.273975 g / cm^3
# Si number density = 22.791625 Si / 1000 Ang^3
#
#
#
# Elastic Constant Matrix: (Units=GPa)
#
#
# Indices 1 2 3 4 5 6 
#
# 1 57.5804 13.3694 24.7138 -2.9863 -3.1529 16.6122
# 2 13.3694 65.9195 12.7810 0.8893 7.8814 17.4293
# 3 24.7138 12.7810 114.0671 -6.1570 -15.2591 6.0514
# 4 -2.9863 0.8893 -6.1570 23.0292 7.0774 -0.5399
# 5 -3.1529 7.8814 -15.2591 7.0774 40.4108 -7.9246
# 6 16.6122 17.4293 6.0514 -0.5399 -7.9246 39.0742
#
#
#
# Elastic Compliance Matrix: (Units=1/GPa)
#
#
# Indices 1 2 3 4 5 6 
#
# 1 0.021935 -0.001215 -0.004283 0.002066 -0.001684 -0.008434
# 2 -0.001215 0.018968 -0.002235 0.000281 -0.006432 -0.008899
# 3 -0.004283 -0.002235 0.010464 0.001064 0.004274 0.002079
# 4 0.002066 0.000281 0.001064 0.046384 -0.008039 -0.002158
# 5 -0.001684 -0.006432 0.004274 -0.008039 0.030662 0.009031
# 6 -0.008434 -0.008899 0.002079 -0.002158 0.009031 0.034627
#
#
# Mechanical properties :
#
#
# Convention : Reuss Voigt Hill
#
# Bulk Modulus (GPa) = 27.85427 37.69949 32.77688
# Shear Modulus (GPa) = 26.25033 32.94971 29.60002
#
# Velocity S-wave (km/s) = 3.39743 3.80635 3.60769
# Velocity P-wave (km/s) = 5.25717 5.99121 5.63615
#
# Compressibility (1/GPa) = 0.03590113
#
# Stress axis : x y z
#
# Youngs Moduli (GPa) = 45.58841 52.72047 95.56514
#
# Poissons Ratio (x) = 0.06406 0.40928
# Poissons Ratio (y) = 0.05539 0.21362
# Poissons Ratio (z) = 0.19525 0.11785
#
# Static dielectric constant tensor:
#      x y z
#    x 3.916180 0.182750 0.016330 
#    y 0.182750 3.948790 0.042500 
#    z 0.016330 0.042500 4.436200 
# 
# 
# High freq. dielectric constant tensor:
#      x y z
#    x 1.880590 0.023040 -0.004020 
#    y 0.023040 1.881980 0.002650 
#    z -0.004020 0.002650 1.924540 
# 
# From -- ./inp_files/3459.got.cif
#   From: 2010.03.12/outbox.cif.g09.slc.cpg/sg1_2_cif.got.tgz:3459.got - 2010.03.29 11:57:58.
