data_PCOD8000349
_publ_section_title
;
Structure prediction by ZEFSAII (Michael W. Deem and Ramdas Pophale) SiO2 
 PCOD8000349
Probable space group: P -1
;
_chemical_formula_sum "Si O2"
_cell_formula_units_Z 16
_cell_length_a 11.166417
_cell_length_b 11.751713
_cell_length_c 24.077484
_cell_angle_alpha 29.050220
_cell_angle_beta 155.199151
_cell_angle_gamma 141.820293
_cell_volume 643.110508
_symmetry_space_group_name_H-M "P -1"
_symmetry_group_IT_number 2
_symmetry_cell_setting 'triclinic'
loop_
_space_group_symop_operation_xyz
x,y,z
-x,-y,-z
loop_
_atom_site_type_symbol
_atom_site_label
_atom_site_fract_x
_atom_site_fract_y
_atom_site_fract_z
Si Si1 0.360077 0.876231 0.069218
Si Si2 0.747675 0.270279 0.541409
Si Si3 0.955356 0.984867 0.322874
Si Si4 0.779399 0.214141 0.369865
Si Si5 0.634743 0.156222 0.659720
Si Si6 0.314060 0.346802 0.794732
Si Si7 0.120761 0.483902 0.193296
Si Si8 0.861337 0.494143 0.686248
O O1 0.429267 0.742583 0.097775
O O2 0.094609 0.738332 0.043223
O O3 0.643462 0.888200 0.221655
O O4 0.236961 0.137063 0.893799
O O5 0.804523 0.121483 0.572898
O O6 0.733308 0.098536 0.662552
O O7 0.460856 0.429006 0.348648
O O8 0.027690 0.426200 0.604909
O O9 0.051926 0.938861 0.446689
O O10 0.946760 0.267760 0.187976
O O11 0.596036 0.428876 0.228560
O O12 0.991819 0.310501 0.372591
O O13 0.556575 0.056503 0.310276
O O14 0.869281 0.236024 0.769882
O O15 0.454127 0.404596 0.474162
O O16 0.997085 0.533520 0.181710
#
# Coordination Sequence:
#
# PCOD8000349 Si02
#       8
#     2   2   2   2   2   2   2   2
#     4  10  24  42  58  84 127 162 193 241 298 355
#     4  10  19  39  59  92 119 142 203 246 297 351
#     4  11  23  35  61  96 117 150 196 251 303 349
#     4  12  21  36  63  89 119 152 199 250 288 349
#     4  10  21  34  58  90 117 155 186 249 294 348
#     4  10  22  42  60  86 122 163 197 237 298 358
#     4  11  22  39  63  90 120 154 195 251 297 350
#     4  10  22  37  55  92 122 152 197 237 302 348
#
# _framework density 24.879083000000001
#
# number of rings (size 3 to 8) (size 9 to 14) (size 15 to 20)
#    0.000    1.500    3.750    2.250    5.250    2.000 
#    2.250    2.500    0.000    1.500    0.000    0.000 
#    0.000    0.000    0.000    0.000    0.000    0.000 
#
# Total GULP energy -198253.619107 kJ/mol
# GULP energy per Si atom -12390.851194 kJ/mol
# Density = 2.482246 g / cm^3
# Si number density = 24.879083 Si / 1000 Ang^3
#
#
#
# Elastic Constant Matrix: (Units=GPa)
#
#
# Indices 1 2 3 4 5 6 
#
# 1 110.1625 55.7974 7.0911 -0.9821 -28.8698 -9.2281
# 2 55.7974 138.4617 2.6783 -31.3335 -15.8881 6.3405
# 3 7.0911 2.6783 32.7607 -10.9986 -8.4183 2.2051
# 4 -0.9821 -31.3335 -10.9986 27.5961 12.6908 -0.9545
# 5 -28.8698 -15.8881 -8.4183 12.6908 31.8621 -3.9957
# 6 -9.2281 6.3405 2.2051 -0.9545 -3.9957 31.3095
#
#
#
# Elastic Compliance Matrix: (Units=1/GPa)
#
#
# Indices 1 2 3 4 5 6 
#
# 1 0.024718 -0.014231 -0.008422 -0.030550 0.026906 0.013263
# 2 -0.014231 0.018375 0.008582 0.030202 -0.014682 -0.009473
# 3 -0.008422 0.008582 0.040103 0.027244 -0.004458 -0.006783
# 4 -0.030550 0.030202 0.027244 0.101928 -0.048546 -0.020127
# 5 0.026906 -0.014682 -0.004458 -0.048546 0.068926 0.018534
# 6 0.013263 -0.009473 -0.006783 -0.020127 0.018534 0.039996
#
#
# Mechanical properties :
#
#
# Convention : Reuss Voigt Hill
#
# Bulk Modulus (GPa) = 18.16394 45.83540 31.99967
# Shear Modulus (GPa) = 14.68263 32.54140 23.61201
#
# Velocity S-wave (km/s) = 2.43196 3.62053 3.08404
# Velocity P-wave (km/s) = 3.89905 5.99507 5.05685
#
# Compressibility (1/GPa) = 0.05505414
#
# Stress axis : x y z
#
# Youngs Moduli (GPa) = 40.45714 54.42268 24.93565
#
# Poissons Ratio (x) = 0.77450 0.21001
# Poissons Ratio (y) = 0.57575 -0.21401
# Poissons Ratio (z) = 0.34073 -0.46708
#
# Static dielectric constant tensor:
#      x y z
#    x 4.641000 -0.134000 -0.127640 
#    y -0.134000 4.514150 -0.142070 
#    z -0.127640 -0.142070 4.196170 
# 
# 
# High freq. dielectric constant tensor:
#      x y z
#    x 1.998630 -0.005060 -0.004240 
#    y -0.005060 1.995080 -0.016080 
#    z -0.004240 -0.016080 1.953720 
# 
# From -- ./inp_files/610257.got.cif
#   From: 2010.06.25/outbox.cif.g09.slc.cpg/sg2_306_cif.got.tgz:610257.got - 2010.06.27 13:26:56.
