data_PCOD8000220
_publ_section_title
;
Structure prediction by ZEFSAII (Michael W. Deem and Ramdas Pophale) SiO2 
 PCOD8000220
Probable space group: P 1
;
_chemical_formula_sum "Si O2"
_cell_formula_units_Z 8
_cell_length_a 9.100631
_cell_length_b 15.844518
_cell_length_c 4.871614
_cell_angle_alpha 75.590967
_cell_angle_beta 77.833848
_cell_angle_gamma 26.527113
_cell_volume 303.751049
_symmetry_space_group_name_H-M "P 1"
_symmetry_group_IT_number 1
_symmetry_cell_setting 'triclinic'
loop_
_space_group_symop_operation_xyz
x,y,z
loop_
_atom_site_type_symbol
_atom_site_label
_atom_site_fract_x
_atom_site_fract_y
_atom_site_fract_z
Si Si1 0.727140 0.176990 0.719990
Si Si2 0.377364 0.073070 0.424158
Si Si3 0.754126 0.574379 0.416954
Si Si4 0.139281 0.982671 0.213892
Si Si5 0.326686 0.214457 0.820289
Si Si6 0.748289 0.766693 0.154538
Si Si7 0.671605 0.444948 0.277806
Si Si8 0.345939 0.532428 0.814169
O O1 0.548717 0.182038 0.692385
O O2 0.483258 0.367061 0.819869
O O3 0.857104 0.154297 0.404679
O O4 0.006794 0.008076 0.967284
O O5 0.450193 0.069429 0.703913
O O6 0.009510 0.220490 0.421332
O O7 0.672381 0.854001 0.406032
O O8 0.370061 0.162263 0.156886
O O9 0.925739 0.580286 0.272021
O O10 0.753180 0.506560 0.217580
O O11 0.946168 0.433197 0.713143
O O12 0.369572 0.795249 0.445858
O O13 0.372999 0.943191 0.046381
O O14 0.973438 0.712417 0.921652
O O15 0.366804 0.579288 0.492088
O O16 0.575641 0.464703 0.995784
#
# Coordination Sequence:
#
# PCOD8000220 Si02
#       8
#     1   1   1   1   1   1   1   1
#     4  12  25  45  71 110 144 192 242 299 365 430
#     4  11  24  48  73 110 143 199 239 305 366 438
#     4   9  25  50  75 107 149 194 241 297 373 436
#     4  10  26  43  73 100 145 190 240 293 355 438
#     4  11  26  44  78 107 153 188 247 300 371 435
#     4  10  26  49  75 108 150 191 248 300 371 431
#     4  11  25  47  72 105 144 192 238 299 364 431
#     4  12  27  42  75 103 150 184 249 297 363 427
#
# _framework density 26.337358999999999
#
# number of rings (size 3 to 8) (size 9 to 14) (size 15 to 20)
#    0.750    0.500    0.000    4.500    7.000   10.000 
#    0.000    0.000    0.000    0.000    0.000    0.000 
#    0.000    0.000    0.000    0.000    0.000    0.000 
#
# Total GULP energy -99104.782080 kJ/mol
# GULP energy per Si atom -12388.097760 kJ/mol
# Density = 2.627741 g / cm^3
# Si number density = 26.337359 Si / 1000 Ang^3
#
#
#
# Elastic Constant Matrix: (Units=GPa)
#
#
# Indices 1 2 3 4 5 6 
#
# 1 143.0526 41.1592 26.5173 20.9585 6.0145 -0.4531
# 2 41.1592 78.6890 7.8533 21.8169 -1.7680 -6.5964
# 3 26.5173 7.8533 82.7455 18.4761 7.7618 -17.0156
# 4 20.9585 21.8169 18.4761 42.2539 -6.2656 -6.7205
# 5 6.0145 -1.7680 7.7618 -6.2656 36.3007 2.7876
# 6 -0.4531 -6.5964 -17.0156 -6.7205 2.7876 39.7252
#
#
#
# Elastic Compliance Matrix: (Units=1/GPa)
#
#
# Indices 1 2 3 4 5 6 
#
# 1 0.008915 -0.004122 -0.002309 -0.001767 -0.001352 -0.001776
# 2 -0.004122 0.016847 0.001823 -0.007122 -0.000296 0.002347
# 3 -0.002309 0.001823 0.015785 -0.006364 -0.004484 0.006275
# 4 -0.001767 -0.007122 -0.006364 0.032173 0.006780 0.001038
# 5 -0.001352 -0.000296 -0.004484 0.006780 0.030113 -0.002951
# 6 -0.001776 0.002347 0.006275 0.001038 -0.002951 0.028613
#
#
# Mechanical properties :
#
#
# Convention : Reuss Voigt Hill
#
# Bulk Modulus (GPa) = 30.93250 50.61629 40.77440
# Shear Modulus (GPa) = 32.80000 38.91979 35.85990
#
# Velocity S-wave (km/s) = 3.53282 3.84831 3.69394
# Velocity P-wave (km/s) = 5.33023 6.24549 5.80592
#
# Compressibility (1/GPa) = 0.03232845
#
# Stress axis : x y z
#
# Youngs Moduli (GPa) = 112.17633 59.35811 63.35314
#
# Poissons Ratio (x) = 0.24466 0.14631
# Poissons Ratio (y) = 0.46237 -0.11546
# Poissons Ratio (z) = 0.25907 -0.10818
#
# Static dielectric constant tensor:
#      x y z
#    x 4.809260 0.012730 0.123780 
#    y 0.012730 4.654990 0.198360 
#    z 0.123780 0.198360 4.324520 
# 
# 
# High freq. dielectric constant tensor:
#      x y z
#    x 2.065330 0.002980 0.008590 
#    y 0.002980 2.050370 0.013180 
#    z 0.008590 0.013180 2.043130 
# 
# From -- ./inp_files/1877.got.cif
#   From: 2010.03.12/outbox.cif.g09.slc.cpg/sg1_1_cif.got.tgz:1877.got - 2010.03.29 11:57:58.
