data_PCOD8000985
_publ_section_title
;
Structure prediction by ZEFSAII (Michael W. Deem and Ramdas Pophale) SiO2 
 PCOD8000985
Probable space group: P -1
;
_chemical_formula_sum "Si O2"
_cell_formula_units_Z 16
_cell_length_a 8.576107
_cell_length_b 13.883052
_cell_length_c 12.165239
_cell_angle_alpha 75.913822
_cell_angle_beta 149.392728
_cell_angle_gamma 93.169830
_cell_volume 679.538435
_symmetry_space_group_name_H-M "P -1"
_symmetry_group_IT_number 2
_symmetry_cell_setting 'triclinic'
loop_
_space_group_symop_operation_xyz
x,y,z
-x,-y,-z
loop_
_atom_site_type_symbol
_atom_site_label
_atom_site_fract_x
_atom_site_fract_y
_atom_site_fract_z
Si Si1 0.098163 0.250719 0.041719
Si Si2 0.840909 0.885773 0.084199
Si Si3 0.299356 0.425299 0.641616
Si Si4 0.144989 0.236234 0.664334
Si Si5 0.520076 0.604316 0.702193
Si Si6 0.586325 0.650859 0.487359
Si Si7 0.250625 0.061418 0.609021
Si Si8 0.399815 0.148937 0.464198
O O1 0.193063 0.355704 0.092562
O O2 0.228403 0.160470 0.238526
O O3 0.233517 0.194341 0.025379
O O4 0.715319 0.292202 0.791643
O O5 0.733790 0.851361 0.145146
O O6 0.212274 0.884147 0.306002
O O7 0.606892 0.002018 0.888174
O O8 0.383037 0.307913 0.775025
O O9 0.573189 0.484159 0.806843
O O10 0.191431 0.427779 0.445482
O O11 0.000000 0.500000 0.500000
O O12 0.130403 0.176235 0.558496
O O13 0.795779 0.311777 0.464390
O O14 0.495266 0.598306 0.555535
O O15 0.740673 0.737761 0.596502
O O16 0.289965 0.069428 0.497866
O O17 0.000000 0.000000 0.500000
#
# Coordination Sequence:
#
# PCOD8000985 Si02
#       8
#     2   2   2   2   2   2   2   2
#     4  10  20  39  71  93 127 161 231 261 308 379
#     4  11  23  44  69  91 130 186 213 264 326 392
#     4  10  22  37  67  94 128 173 210 259 336 388
#     4  11  21  43  63  91 134 169 212 266 333 379
#     4  10  20  40  67  93 126 174 212 266 317 388
#     4  10  19  40  68  92 127 173 215 264 324 386
#     4  12  26  41  66 101 132 170 218 275 332 381
#     4  10  22  44  69  92 129 176 217 271 319 390
#
# _framework density 23.545394000000002
#
# number of rings (size 3 to 8) (size 9 to 14) (size 15 to 20)
#    0.000    1.500    5.000    1.875    0.000    2.000 
#    4.500    0.625    2.750    0.000    0.000    0.000 
#    0.000    0.000    0.000    0.000    0.000    0.000 
#
# Total GULP energy -198236.326223 kJ/mol
# GULP energy per Si atom -12389.770389 kJ/mol
# Density = 2.349180 g / cm^3
# Si number density = 23.545394 Si / 1000 Ang^3
#
#
#
# Elastic Constant Matrix: (Units=GPa)
#
#
# Indices 1 2 3 4 5 6 
#
# 1 127.4209 38.5989 28.4434 1.3897 -8.1626 10.7644
# 2 38.5989 90.7889 3.7856 1.8510 4.1475 13.4707
# 3 28.4434 3.7856 69.4124 6.9317 -10.5723 6.4907
# 4 1.3897 1.8510 6.9317 20.1535 -4.7664 -5.0744
# 5 -8.1626 4.1475 -10.5723 -4.7664 20.5329 -6.5296
# 6 10.7644 13.4707 6.4907 -5.0744 -6.5296 58.4478
#
#
#
# Elastic Compliance Matrix: (Units=1/GPa)
#
#
# Indices 1 2 3 4 5 6 
#
# 1 0.010175 -0.004387 -0.003579 0.001789 0.003530 0.000084
# 2 -0.004387 0.013698 0.000807 -0.003511 -0.005996 -0.003413
# 3 -0.003579 0.000807 0.017302 -0.004697 0.005850 -0.001203
# 4 0.001789 -0.003511 -0.004697 0.056788 0.014589 0.007562
# 5 0.003530 -0.005996 0.005850 0.014589 0.060286 0.008084
# 6 0.000084 -0.003413 -0.001203 0.007562 0.008084 0.019574
#
#
# Mechanical properties :
#
#
# Convention : Reuss Voigt Hill
#
# Bulk Modulus (GPa) = 37.23392 47.69757 42.46574
# Shear Modulus (GPa) = 24.86402 34.27980 29.57191
#
# Velocity S-wave (km/s) = 3.25315 3.81977 3.54779
# Velocity P-wave (km/s) = 5.47345 6.30522 5.90400
#
# Compressibility (1/GPa) = 0.02685723
#
# Stress axis : x y z
#
# Youngs Moduli (GPa) = 98.27573 73.00329 57.79735
#
# Poissons Ratio (x) = 0.32027 0.20687
# Poissons Ratio (y) = 0.43115 -0.04665
# Poissons Ratio (z) = 0.35174 -0.05893
#
# Static dielectric constant tensor:
#      x y z
#    x 4.946390 -0.036530 -0.203490 
#    y -0.036530 4.844230 0.058390 
#    z -0.203490 0.058390 3.936540 
# 
# 
# High freq. dielectric constant tensor:
#      x y z
#    x 1.955140 -0.007990 -0.006980 
#    y -0.007990 1.945340 -0.000200 
#    z -0.006980 -0.000200 1.889710 
# 
# From -- ./inp_files/39985.got.cif
#   From: 2010.06.25/outbox.cif.g09.slc.cpg/sg2_20_cif.got.tgz:39985.got - 2010.06.27 13:26:56.
