data_PCOD8000132
_publ_section_title
;
Structure prediction by ZEFSAII (Michael W. Deem and Ramdas Pophale) SiO2 
 PCOD8000132
Probable space group: P 1
;
_chemical_formula_sum "Si O2"
_cell_formula_units_Z 8
_cell_length_a 5.250986
_cell_length_b 8.355217
_cell_length_c 10.768386
_cell_angle_alpha 106.347216
_cell_angle_beta 99.350444
_cell_angle_gamma 60.294539
_cell_volume 393.617228
_symmetry_space_group_name_H-M "P 1"
_symmetry_group_IT_number 1
_symmetry_cell_setting 'triclinic'
loop_
_space_group_symop_operation_xyz
x,y,z
loop_
_atom_site_type_symbol
_atom_site_label
_atom_site_fract_x
_atom_site_fract_y
_atom_site_fract_z
Si Si1 0.709320 0.699260 0.817020
Si Si2 0.503320 0.124409 0.470055
Si Si3 0.296338 0.968453 0.648742
Si Si4 0.339979 0.591950 0.921549
Si Si5 0.073710 0.765131 0.416860
Si Si6 0.459628 0.500800 0.197212
Si Si7 0.725897 0.327728 0.701883
Si Si8 0.090259 0.393584 0.301818
O O1 0.484275 0.723115 0.916939
O O2 0.798762 0.498386 0.710842
O O3 0.993188 0.703887 0.894511
O O4 0.556263 0.872730 0.747422
O O5 0.399956 0.046454 0.559467
O O6 0.594675 0.280491 0.558563
O O7 0.243219 0.220136 0.371441
O O8 0.781268 0.950583 0.389623
O O9 0.018296 0.142258 0.729126
O O10 0.205061 0.812380 0.560144
O O11 0.492254 0.394803 0.811953
O O12 0.399862 0.546252 0.059342
O O13 0.000864 0.594482 0.407966
O O14 0.307230 0.698040 0.306727
O O15 0.806403 0.388958 0.224314
O O16 0.315390 0.369640 0.201904
#
# Coordination Sequence:
#
# PCOD8000132 Si02
#       8
#     1   1   1   1   1   1   1   1
#     4  10  23  40  65  90 120 164 199 248 309 350
#     4  11  22  38  62  95 128 152 202 250 306 366
#     4  11  22  38  62  95 128 152 202 250 306 366
#     4  10  22  43  64  87 121 162 208 249 293 357
#     4   9  23  37  63  90 126 158 200 246 307 356
#     4  10  22  43  64  87 121 162 208 249 293 357
#     4   9  23  37  63  90 126 158 200 246 307 356
#     4  10  23  40  65  90 120 164 199 248 309 350
#
# _framework density 20.324314999999999
#
# number of rings (size 3 to 8) (size 9 to 14) (size 15 to 20)
#    1.500    0.500    0.000    3.000    7.000    2.000 
#    0.000    2.500    0.000    0.000    0.000    0.000 
#    0.000    0.000    0.000    0.000    0.000    0.000 
#
# Total GULP energy -99158.013504 kJ/mol
# GULP energy per Si atom -12394.751688 kJ/mol
# Density = 2.027806 g / cm^3
# Si number density = 20.324315 Si / 1000 Ang^3
#
#
#
# Elastic Constant Matrix: (Units=GPa)
#
#
# Indices 1 2 3 4 5 6 
#
# 1 143.0231 39.3828 52.8095 -29.6170 4.5929 -22.9497
# 2 39.3828 85.3159 55.3302 -34.0491 1.4088 -19.8617
# 3 52.8095 55.3302 102.4783 -45.5598 -3.6608 -25.2022
# 4 -29.6170 -34.0491 -45.5598 36.8387 -4.7606 6.1466
# 5 4.5929 1.4088 -3.6608 -4.7606 33.4006 -12.3259
# 6 -22.9497 -19.8617 -25.2022 6.1466 -12.3259 31.2811
#
#
#
# Elastic Compliance Matrix: (Units=1/GPa)
#
#
# Indices 1 2 3 4 5 6 
#
# 1 0.009352 -0.000366 -0.000776 0.005491 0.001456 0.005498
# 2 -0.000366 0.022378 -0.000107 0.018979 0.006478 0.012677
# 3 -0.000776 -0.000107 0.037680 0.043709 0.021378 0.029555
# 4 0.005491 0.018979 0.043709 0.100046 0.034132 0.045084
# 5 0.001456 0.006478 0.021378 0.034132 0.049693 0.035279
# 6 0.005498 0.012677 0.029555 0.045084 0.035279 0.072905
#
#
# Mechanical properties :
#
#
# Convention : Reuss Voigt Hill
#
# Bulk Modulus (GPa) = 14.94525 69.54025 42.24275
# Shear Modulus (GPa) = 15.77997 32.52373 24.15185
#
# Velocity S-wave (km/s) = 2.78943 4.00464 3.45095
# Velocity P-wave (km/s) = 4.21236 7.46139 6.05873
#
# Compressibility (1/GPa) = 0.06691087
#
# Stress axis : x y z
#
# Youngs Moduli (GPa) = 106.93091 44.68612 26.53918
#
# Poissons Ratio (x) = 0.01637 0.02060
# Poissons Ratio (y) = 0.03916 0.00284
# Poissons Ratio (z) = 0.08301 0.00479
#
# Static dielectric constant tensor:
#      x y z
#    x 3.776310 -0.213660 0.082330 
#    y -0.213660 3.583260 0.003860 
#    z 0.082330 0.003860 3.327830 
# 
# 
# High freq. dielectric constant tensor:
#      x y z
#    x 1.804070 -0.013680 0.004830 
#    y -0.013680 1.783100 -0.009780 
#    z 0.004830 -0.009780 1.767470 
# 
# From -- ./inp_files/2252.got.cif
#   From: 2010.03.12/outbox.cif.g09.slc.cpg/sg1_2_cif.got.tgz:2252.got - 2010.03.29 11:57:58.
