data_PCOD8000994
_publ_section_title
;
Structure prediction by ZEFSAII (Michael W. Deem and Ramdas Pophale) SiO2 
 PCOD8000994
Probable space group: P -1
;
_chemical_formula_sum "Si O2"
_cell_formula_units_Z 12
_cell_length_a 8.196335
_cell_length_b 8.391975
_cell_length_c 12.313944
_cell_angle_alpha 98.442149
_cell_angle_beta 45.697172
_cell_angle_gamma 114.755418
_cell_volume 536.450984
_symmetry_space_group_name_H-M "P -1"
_symmetry_group_IT_number 2
_symmetry_cell_setting 'triclinic'
loop_
_space_group_symop_operation_xyz
x,y,z
-x,-y,-z
loop_
_atom_site_type_symbol
_atom_site_label
_atom_site_fract_x
_atom_site_fract_y
_atom_site_fract_z
Si Si1 0.592818 0.182269 0.039745
Si Si2 0.212605 0.525267 0.492934
Si Si3 0.119587 0.861538 0.913374
Si Si4 0.125010 0.455880 0.175979
Si Si5 0.408341 0.912389 0.419044
Si Si6 0.182653 0.255174 0.331679
O O1 0.844571 0.216752 0.995892
O O2 0.351412 0.151023 0.224597
O O3 0.663369 0.353980 0.946531
O O4 0.500000 0.000000 0.000000
O O5 0.434264 0.725837 0.391496
O O6 0.291382 0.369045 0.405920
O O7 0.000000 0.500000 0.500000
O O8 0.109923 0.510673 0.663155
O O9 0.954338 0.696154 0.895277
O O10 0.407682 0.967185 0.747351
O O11 0.000000 0.000000 0.000000
O O12 0.236281 0.390594 0.218306
O O13 0.117754 0.881445 0.531824
O O14 0.500000 0.000000 0.500000
#
# Coordination Sequence:
#
# PCOD8000994 Si02
#       6
#     2   2   2   2   2   2
#     4  12  28  41  63  99 132 169 218 263 317 384
#     4   8  18  36  68  93 122 164 210 259 315 374
#     4  12  26  43  67  93 133 175 209 265 321 384
#     4  10  21  46  64  94 131 170 212 259 324 381
#     4  10  19  40  68  96 123 166 219 254 322 382
#     4  10  22  43  71  94 126 169 210 271 318 372
#
# _framework density 22.369236999999998
#
# number of rings (size 3 to 8) (size 9 to 14) (size 15 to 20)
#    0.000    2.000    3.333    2.000    9.333    0.667 
#    0.000    0.833    0.000    0.000    0.000    0.000 
#    0.000    0.000    0.000    0.000    0.000    0.000 
#
# Total GULP energy -148675.582130 kJ/mol
# GULP energy per Si atom -12389.631844 kJ/mol
# Density = 2.231832 g / cm^3
# Si number density = 22.369237 Si / 1000 Ang^3
#
#
#
# Elastic Constant Matrix: (Units=GPa)
#
#
# Indices 1 2 3 4 5 6 
#
# 1 61.7433 26.0621 21.2428 15.2957 -1.2979 0.4614
# 2 26.0621 167.6909 57.1237 31.1412 -7.7977 27.0892
# 3 21.2428 57.1237 87.0749 13.0243 -5.7594 -5.8049
# 4 15.2957 31.1412 13.0243 59.9746 4.0710 2.5742
# 5 -1.2979 -7.7977 -5.7594 4.0710 28.3143 11.1987
# 6 0.4614 27.0892 -5.8049 2.5742 11.1987 29.0845
#
#
#
# Elastic Compliance Matrix: (Units=1/GPa)
#
#
# Indices 1 2 3 4 5 6 
#
# 1 0.018672 -0.001243 -0.003180 -0.003458 0.000181 0.000463
# 2 -0.001243 0.012784 -0.007914 -0.004506 0.009048 -0.016552
# 3 -0.003180 -0.007914 0.017920 0.000748 -0.003671 0.012346
# 4 -0.003458 -0.004506 0.000748 0.019932 -0.006082 0.004979
# 5 0.000181 0.009048 -0.003671 -0.006082 0.048787 -0.027410
# 6 0.000463 -0.016552 0.012346 0.004979 -0.027410 0.062369
#
#
# Mechanical properties :
#
#
# Convention : Reuss Voigt Hill
#
# Bulk Modulus (GPa) = 40.48222 58.37402 49.42812
# Shear Modulus (GPa) = 23.43327 37.61340 30.52333
#
# Velocity S-wave (km/s) = 3.24012 4.10503 3.69795
# Velocity P-wave (km/s) = 5.66872 6.97285 6.35433
#
# Compressibility (1/GPa) = 0.02470220
#
# Stress axis : x y z
#
# Youngs Moduli (GPa) = 53.55689 78.22320 55.80209
#
# Poissons Ratio (x) = 0.09723 0.17743
# Poissons Ratio (y) = 0.06657 0.44164
# Poissons Ratio (z) = 0.17029 0.61909
#
# Static dielectric constant tensor:
#      x y z
#    x 3.642340 -0.000820 0.035920 
#    y -0.000820 4.729850 0.856610 
#    z 0.035920 0.856610 4.733020 
# 
# 
# High freq. dielectric constant tensor:
#      x y z
#    x 1.846750 0.010490 0.005450 
#    y 0.010490 1.897710 0.015700 
#    z 0.005450 0.015700 1.890750 
# 
# From -- ./inp_files/374159.got.cif
#   From: 2010.06.25/outbox.cif.g09.slc.cpg/sg2_188_cif.got.tgz:374159.got - 2010.06.27 13:26:56.
