data_PCOD8000922
_publ_section_title
;
Structure prediction by ZEFSAII (Michael W. Deem and Ramdas Pophale) SiO2 
 PCOD8000922
Probable space group: P -1
;
_chemical_formula_sum "Si O2"
_cell_formula_units_Z 16
_cell_length_a 23.132570
_cell_length_b 20.131910
_cell_length_c 8.692894
_cell_angle_alpha 36.354419
_cell_angle_beta 33.821842
_cell_angle_gamma 19.228936
_cell_volume 737.263431
_symmetry_space_group_name_H-M "P -1"
_symmetry_group_IT_number 2
_symmetry_cell_setting 'triclinic'
loop_
_space_group_symop_operation_xyz
x,y,z
-x,-y,-z
loop_
_atom_site_type_symbol
_atom_site_label
_atom_site_fract_x
_atom_site_fract_y
_atom_site_fract_z
Si Si1 0.829295 0.229532 0.402791
Si Si2 0.458380 0.043755 0.834932
Si Si3 0.744879 0.544688 0.478861
Si Si4 0.145235 0.186989 0.107109
Si Si5 0.444722 0.454177 0.325323
Si Si6 0.259340 0.491536 0.104641
Si Si7 0.649193 0.214359 0.619059
Si Si8 0.292293 0.209954 0.500202
O O1 0.731495 0.343622 0.566607
O O2 0.692825 0.288387 0.476246
O O3 0.880738 0.300025 0.070487
O O4 0.000000 0.000000 0.500000
O O5 0.352339 0.252586 0.632969
O O6 0.667507 0.847142 0.662637
O O7 0.321055 0.065755 0.050369
O O8 0.500000 0.000000 0.000000
O O9 0.614079 0.602440 0.534943
O O10 0.759490 0.461012 0.761188
O O11 0.949985 0.384154 0.256394
O O12 0.173319 0.029566 0.305376
O O13 0.146421 0.254155 0.817490
O O14 0.613075 0.273553 0.408127
O O15 0.500000 0.500000 0.000000
O O16 0.205326 0.411188 0.343644
O O17 0.470048 0.318602 0.899728
O O18 0.500000 0.000000 0.500000
#
# Coordination Sequence:
#
# PCOD8000922 Si02
#       8
#     2   2   2   2   2   2   2   2
#     4  11  25  43  66  94 127 166 219 276 326 380
#     4  11  22  39  62  94 131 171 219 254 314 392
#     4  12  23  38  66  99 133 164 214 279 320 375
#     4  11  22  40  64  96 132 168 213 267 328 371
#     4  11  24  42  66  96 125 167 225 266 319 393
#     4  11  21  41  68  89 127 178 217 253 326 386
#     4  11  21  43  68  88 126 177 213 263 326 392
#     4  10  19  40  66  89 128 174 213 255 312 402
#
# _framework density 21.701878000000001
#
# number of rings (size 3 to 8) (size 9 to 14) (size 15 to 20)
#    0.000    1.000    5.000    4.875    1.750    1.000 
#    0.000    8.125    0.000    0.000    0.000    0.000 
#    0.000    0.000    0.000    0.000    0.000    0.000 
#
# Total GULP energy -198380.252996 kJ/mol
# GULP energy per Si atom -12398.765812 kJ/mol
# Density = 2.165248 g / cm^3
# Si number density = 21.701878 Si / 1000 Ang^3
#
#
#
# Elastic Constant Matrix: (Units=GPa)
#
#
# Indices 1 2 3 4 5 6 
#
# 1 80.4005 13.9935 31.8124 5.8936 28.2403 16.6553
# 2 13.9935 78.5214 32.7608 -19.1541 8.0129 9.1062
# 3 31.8124 32.7608 125.1100 -8.2186 29.2048 4.9134
# 4 5.8936 -19.1541 -8.2186 39.6327 7.9292 0.9065
# 5 28.2403 8.0129 29.2048 7.9292 40.1996 -1.9624
# 6 16.6553 9.1062 4.9134 0.9065 -1.9624 28.9131
#
#
#
# Elastic Compliance Matrix: (Units=1/GPa)
#
#
# Indices 1 2 3 4 5 6 
#
# 1 0.020521 -0.000315 -0.001455 -0.000459 -0.013811 -0.012398
# 2 -0.000315 0.016934 -0.002924 0.008326 -0.002922 -0.005114
# 3 -0.001455 -0.002924 0.010910 0.002447 -0.006835 -0.000636
# 4 -0.000459 0.008326 0.002447 0.031856 -0.009615 -0.004425
# 5 -0.013811 -0.002922 -0.006835 -0.009615 0.042669 0.013235
# 6 -0.012398 -0.005114 -0.000636 -0.004425 0.013235 0.044484
#
#
# Mechanical properties :
#
#
# Convention : Reuss Voigt Hill
#
# Bulk Modulus (GPa) = 25.65638 49.01837 37.33737
# Shear Modulus (GPa) = 26.34995 35.44676 30.89835
#
# Velocity S-wave (km/s) = 3.48829 4.04586 3.77737
# Velocity P-wave (km/s) = 5.29831 6.66794 6.02219
#
# Compressibility (1/GPa) = 0.03897666
#
# Stress axis : x y z
#
# Youngs Moduli (GPa) = 48.73014 59.05344 91.66039
#
# Poissons Ratio (x) = 0.01859 0.13335
# Poissons Ratio (y) = 0.01534 0.26805
# Poissons Ratio (z) = 0.07089 0.17270
#
# Static dielectric constant tensor:
#      x y z
#    x 10.669710 12.737760 -2.474780 
#    y 12.737760 27.423240 -5.158450 
#    z -2.474780 -5.158450 5.378980 
# 
# 
# High freq. dielectric constant tensor:
#      x y z
#    x 1.858470 0.022960 0.011930 
#    y 0.022960 1.840960 -0.013890 
#    z 0.011930 -0.013890 1.862350 
# 
# From -- ./inp_files/355236.got.cif
#   From: 2010.06.25/outbox.cif.g09.slc.cpg/sg2_178_cif.got.tgz:355236.got - 2010.06.27 13:26:56.
