data_PCOD8000869
_publ_section_title
;
Structure prediction by ZEFSAII (Michael W. Deem and Ramdas Pophale) SiO2 
 PCOD8000869
Probable space group: P -1
;
_chemical_formula_sum "Si O2"
_cell_formula_units_Z 14
_cell_length_a 7.689295
_cell_length_b 14.250785
_cell_length_c 11.711197
_cell_angle_alpha 151.573658
_cell_angle_beta 83.959303
_cell_angle_gamma 89.731806
_cell_volume 594.541900
_symmetry_space_group_name_H-M "P -1"
_symmetry_group_IT_number 2
_symmetry_cell_setting 'triclinic'
loop_
_space_group_symop_operation_xyz
x,y,z
-x,-y,-z
loop_
_atom_site_type_symbol
_atom_site_label
_atom_site_fract_x
_atom_site_fract_y
_atom_site_fract_z
Si Si1 0.225753 0.865617 0.730770
Si Si2 0.617130 0.962594 0.298191
Si Si3 0.138338 0.793901 0.339318
Si Si4 0.853482 0.380651 0.085385
Si Si5 0.234119 0.479645 0.176978
Si Si6 0.745982 0.814600 0.484410
Si Si7 0.181398 0.916349 0.044682
O O1 0.355132 0.980110 0.774249
O O2 0.258028 0.632473 0.439704
O O3 0.271679 0.869762 0.865344
O O4 0.025994 0.981721 0.842328
O O5 0.773311 0.022298 0.428784
O O6 0.419907 0.086219 0.481022
O O7 0.615037 0.724877 0.051719
O O8 0.241297 0.586240 0.167724
O O9 0.931038 0.830120 0.428227
O O10 0.145019 0.782655 0.190299
O O11 0.728451 0.587697 0.273111
O O12 0.047556 0.415473 0.139088
O O13 0.784645 0.293132 0.111339
O O14 0.723074 0.930036 0.730285
#
# Coordination Sequence:
#
# PCOD8000869 Si02
#       7
#     2   2   2   2   2   2   2
#     4  10  22  41  64  95 126 158 218 262 304 382
#     4  11  23  42  67  93 132 167 203 263 320 361
#     4  10  23  44  63  94 132 162 214 261 303 382
#     4  11  22  41  67  92 129 170 208 260 317 365
#     4  10  19  40  64  92 124 171 202 256 318 368
#     4  11  23  42  65 100 125 164 217 252 315 386
#     4  11  22  40  67  93 122 168 212 260 313 371
#
# _framework density 23.547542
#
# number of rings (size 3 to 8) (size 9 to 14) (size 15 to 20)
#    0.000    1.429    5.714    1.714    0.000    8.571 
#    0.000    6.429    0.000    0.000    0.000    0.000 
#    0.000    0.000    0.000    0.000    0.000    0.000 
#
# Total GULP energy -173607.001628 kJ/mol
# GULP energy per Si atom -12400.500116 kJ/mol
# Density = 2.349395 g / cm^3
# Si number density = 23.547542 Si / 1000 Ang^3
#
#
#
# Elastic Constant Matrix: (Units=GPa)
#
#
# Indices 1 2 3 4 5 6 
#
# 1 55.0307 14.4663 23.7266 5.0400 -9.0661 -14.4650
# 2 14.4663 75.4517 46.2056 7.7818 2.0719 -17.4671
# 3 23.7266 46.2056 118.0686 30.9579 6.6271 -12.4834
# 4 5.0400 7.7818 30.9579 40.7012 -12.1143 -8.4638
# 5 -9.0661 2.0719 6.6271 -12.1143 27.2305 6.3607
# 6 -14.4650 -17.4671 -12.4834 -8.4638 6.3607 17.9834
#
#
#
# Elastic Compliance Matrix: (Units=1/GPa)
#
#
# Indices 1 2 3 4 5 6 
#
# 1 0.026446 0.002629 -0.007029 0.008470 0.009513 0.019568
# 2 0.002629 0.022229 -0.008525 0.005973 -0.000977 0.020945
# 3 -0.007029 -0.008525 0.017293 -0.015098 -0.011453 -0.004985
# 4 0.008470 0.005973 -0.015098 0.043471 0.021912 0.014843
# 5 0.009513 -0.000977 -0.011453 0.021912 0.054920 -0.010359
# 6 0.019568 0.020945 -0.004985 0.014843 -0.010359 0.098880
#
#
# Mechanical properties :
#
#
# Convention : Reuss Voigt Hill
#
# Bulk Modulus (GPa) = 24.92554 46.37202 35.64878
# Shear Modulus (GPa) = 16.53103 28.12652 22.32877
#
# Velocity S-wave (km/s) = 2.65246 3.45984 3.08269
# Velocity P-wave (km/s) = 4.47089 5.97464 5.27661
#
# Compressibility (1/GPa) = 0.04011950
#
# Stress axis : x y z
#
# Youngs Moduli (GPa) = 37.81269 44.98565 57.82725
#
# Poissons Ratio (x) = -0.11829 0.40648
# Poissons Ratio (y) = -0.09942 0.49295
# Poissons Ratio (z) = 0.26580 0.38348
#
# Static dielectric constant tensor:
#      x y z
#    x 4.076160 -0.068680 0.059890 
#    y -0.068680 4.459450 0.108460 
#    z 0.059890 0.108460 4.516310 
# 
# 
# High freq. dielectric constant tensor:
#      x y z
#    x 1.917460 -0.004010 0.008590 
#    y -0.004010 1.938450 0.014090 
#    z 0.008590 0.014090 1.935100 
# 
# From -- ./inp_files/400069.got.cif
#   From: 2010.06.25/outbox.cif.g09.slc.cpg/sg2_201_cif.got.tgz:400069.got - 2010.06.27 13:26:56.
