data_PCOD8000751
_publ_section_title
;
Structure prediction by ZEFSAII (Michael W. Deem and Ramdas Pophale) SiO2 
 PCOD8000751
Probable space group: P -1
;
_chemical_formula_sum "Si O2"
_cell_formula_units_Z 14
_cell_length_a 17.242044
_cell_length_b 9.202610
_cell_length_c 11.421972
_cell_angle_alpha 129.857859
_cell_angle_beta 137.217481
_cell_angle_gamma 30.523466
_cell_volume 625.005148
_symmetry_space_group_name_H-M "P -1"
_symmetry_group_IT_number 2
_symmetry_cell_setting 'triclinic'
loop_
_space_group_symop_operation_xyz
x,y,z
-x,-y,-z
loop_
_atom_site_type_symbol
_atom_site_label
_atom_site_fract_x
_atom_site_fract_y
_atom_site_fract_z
Si Si1 0.461291 0.335617 0.837071
Si Si2 0.803072 0.305984 0.466243
Si Si3 0.186055 0.050130 0.034213
Si Si4 0.568572 0.316198 0.363279
Si Si5 0.998374 0.616267 0.219569
Si Si6 0.141922 0.324221 0.667296
Si Si7 0.301456 0.512405 0.978544
O O1 0.288360 0.533366 0.673977
O O2 0.630576 0.064680 0.810720
O O3 0.500000 0.500000 0.000000
O O4 0.430526 0.272655 0.895708
O O5 0.684543 0.318678 0.419987
O O6 0.825475 0.480054 0.646193
O O7 0.000000 0.000000 0.500000
O O8 0.038993 0.348624 0.093695
O O9 0.190611 0.830873 0.975141
O O10 0.143236 0.108607 0.878667
O O11 0.500000 0.500000 0.500000
O O12 0.404924 0.444791 0.173974
O O13 0.685982 0.988521 0.355867
O O14 0.923329 0.722654 0.321885
O O15 0.000000 0.500000 0.500000
O O16 0.173979 0.493380 0.845548
#
# Coordination Sequence:
#
# PCOD8000751 Si02
#       7
#     2   2   2   2   2   2   2
#     4  10  19  39  70  96 127 183 241 281 354 422
#     4  12  22  42  73  98 138 185 241 298 350 427
#     4  10  23  43  70 106 135 185 244 303 355 428
#     4  12  28  47  72 110 149 193 242 302 368 433
#     4  11  25  42  71 106 144 183 247 296 362 430
#     4  12  28  46  72 107 149 193 239 294 375 440
#     4  11  24  47  74  99 147 192 241 299 364 435
#
# _framework density 22.399813999999999
#
# number of rings (size 3 to 8) (size 9 to 14) (size 15 to 20)
#    0.000    0.857    4.286    3.857    4.000    4.571 
#    0.000    0.000    0.000    0.000    0.000    0.000 
#    0.000    0.000    0.000    0.000    0.000    0.000 
#
# Total GULP energy -173474.786365 kJ/mol
# GULP energy per Si atom -12391.056169 kJ/mol
# Density = 2.234883 g / cm^3
# Si number density = 22.399814 Si / 1000 Ang^3
#
#
#
# Elastic Constant Matrix: (Units=GPa)
#
#
# Indices 1 2 3 4 5 6 
#
# 1 81.2085 27.2528 61.2259 -0.4464 -4.8221 1.7534
# 2 27.2528 132.4893 67.3615 -6.8334 -10.6134 10.9673
# 3 61.2259 67.3615 174.6434 -24.3507 0.5627 10.7375
# 4 -0.4464 -6.8334 -24.3507 38.4350 6.3489 -0.2244
# 5 -4.8221 -10.6134 0.5627 6.3489 44.8133 3.6229
# 6 1.7534 10.9673 10.7375 -0.2244 3.6229 29.9809
#
#
#
# Elastic Compliance Matrix: (Units=1/GPa)
#
#
# Indices 1 2 3 4 5 6 
#
# 1 0.017618 -0.000319 -0.006766 -0.004537 0.002453 0.001179
# 2 -0.000319 0.009867 -0.003689 -0.001049 0.002708 -0.002605
# 3 -0.006766 -0.003689 0.010514 0.006329 -0.002495 -0.001672
# 4 -0.004537 -0.001049 0.006329 0.030625 -0.005093 -0.000773
# 5 0.002453 0.002708 -0.002495 -0.005093 0.024232 -0.003207
# 6 0.001179 -0.002605 -0.001672 -0.000773 -0.003207 0.035219
#
#
# Mechanical properties :
#
#
# Convention : Reuss Voigt Hill
#
# Bulk Modulus (GPa) = 60.78715 77.78018 69.28366
# Shear Modulus (GPa) = 32.23559 38.14590 35.19075
#
# Velocity S-wave (km/s) = 3.79766 4.13117 3.96792
# Velocity P-wave (km/s) = 6.81366 7.58646 7.21042
#
# Compressibility (1/GPa) = 0.01645084
#
# Stress axis : x y z
#
# Youngs Moduli (GPa) = 56.76132 101.34333 95.10847
#
# Poissons Ratio (x) = 0.03231 0.64354
# Poissons Ratio (y) = 0.01810 0.35086
# Poissons Ratio (z) = 0.38407 0.37386
#
# Static dielectric constant tensor:
#      x y z
#    x 4.966560 -0.850630 0.454870 
#    y -0.850630 4.329230 -0.305900 
#    z 0.454870 -0.305900 4.414580 
# 
# 
# High freq. dielectric constant tensor:
#      x y z
#    x 1.877760 0.005490 0.003920 
#    y 0.005490 1.882980 -0.005030 
#    z 0.003920 -0.005030 1.894690 
# 
# From -- ./inp_files/462472.got.cif
#   From: 2010.06.25/outbox.cif.g09.slc.cpg/sg2_232_cif.got.tgz:462472.got - 2010.06.27 13:26:56.
