data_PCOD8000913
_publ_section_title
;
Structure prediction by ZEFSAII (Michael W. Deem and Ramdas Pophale) SiO2 
 PCOD8000913
Probable space group: P -1
;
_chemical_formula_sum "Si O2"
_cell_formula_units_Z 16
_cell_length_a 16.007296
_cell_length_b 13.551681
_cell_length_c 8.498794
_cell_angle_alpha 86.332591
_cell_angle_beta 62.794394
_cell_angle_gamma 36.313204
_cell_volume 792.362249
_symmetry_space_group_name_H-M "P -1"
_symmetry_group_IT_number 2
_symmetry_cell_setting 'triclinic'
loop_
_space_group_symop_operation_xyz
x,y,z
-x,-y,-z
loop_
_atom_site_type_symbol
_atom_site_label
_atom_site_fract_x
_atom_site_fract_y
_atom_site_fract_z
Si Si1 0.841260 0.922119 0.331410
Si Si2 0.028238 0.123767 0.086672
Si Si3 0.842069 0.137809 0.755684
Si Si4 0.787137 0.879128 0.905070
Si Si5 0.788576 0.490044 0.431448
Si Si6 0.384463 0.825680 0.211051
Si Si7 0.776139 0.422920 0.795037
Si Si8 0.432136 0.961388 0.636269
O O1 0.682988 0.123580 0.555273
O O2 0.744849 0.917413 0.328852
O O3 0.015569 0.727106 0.315478
O O4 0.939099 0.909905 0.125897
O O5 0.206404 0.024758 0.010757
O O6 0.825999 0.365066 0.287704
O O7 0.051334 0.995461 0.160773
O O8 0.680714 0.208834 0.830999
O O9 0.752325 0.327176 0.843518
O O10 0.000000 0.000000 0.500000
O O11 0.008011 0.633908 0.719159
O O12 0.696907 0.993839 0.803313
O O13 0.645411 0.942016 0.128922
O O14 0.737698 0.489206 0.642406
O O15 0.613118 0.719566 0.502981
O O16 0.616327 0.619065 0.025750
O O17 0.500000 0.000000 0.500000
#
# Coordination Sequence:
#
# PCOD8000913 Si02
#       8
#     2   2   2   2   2   2   2   2
#     4  11  23  41  58  90 130 152 198 268 306 344
#     4   8  19  35  59  84 125 162 190 244 302 345
#     4  11  18  39  60  92 123 168 211 240 280 363
#     4   8  17  38  60  85 116 158 198 235 304 366
#     4  10  19  40  66  84 116 171 198 238 313 373
#     4  11  21  37  63  92 122 166 202 245 297 359
#     4  12  22  37  68  87 122 168 212 242 292 356
#     4  11  24  41  65  92 118 155 206 253 311 379
#
# _framework density 20.192785000000001
#
# number of rings (size 3 to 8) (size 9 to 14) (size 15 to 20)
#    0.750    1.000    5.000    0.375    1.750    1.000 
#    0.000    1.875    0.000    0.000    0.000    0.000 
#    0.000    0.000    0.000    0.000    0.000    0.000 
#
# Total GULP energy -198216.432668 kJ/mol
# GULP energy per Si atom -12388.527042 kJ/mol
# Density = 2.014682 g / cm^3
# Si number density = 20.192785 Si / 1000 Ang^3
#
#
#
# Elastic Constant Matrix: (Units=GPa)
#
#
# Indices 1 2 3 4 5 6 
#
# 1 50.0911 29.6246 15.5706 -6.0185 -6.2886 -1.1131
# 2 29.6246 94.4688 47.5384 -8.5060 -3.2782 7.8197
# 3 15.5706 47.5384 154.0053 -2.2209 5.2949 -1.9218
# 4 -6.0185 -8.5060 -2.2209 37.6758 -2.3733 -3.4568
# 5 -6.2886 -3.2782 5.2949 -2.3733 25.8398 -6.0659
# 6 -1.1131 7.8197 -1.9218 -3.4568 -6.0659 13.8561
#
#
#
# Elastic Compliance Matrix: (Units=1/GPa)
#
#
# Indices 1 2 3 4 5 6 
#
# 1 0.026984 -0.008721 -0.000128 0.003964 0.008630 0.011839
# 2 -0.008721 0.016398 -0.004247 0.000940 -0.001678 -0.011044
# 3 -0.000128 -0.004247 0.007900 -0.000366 -0.001590 0.002695
# 4 0.003964 0.000940 -0.000366 0.028618 0.006021 0.009513
# 5 0.008630 -0.001678 -0.001590 0.006021 0.046980 0.023489
# 6 0.011839 -0.011044 0.002695 0.009513 0.023489 0.092384
#
#
# Mechanical properties :
#
#
# Convention : Reuss Voigt Hill
#
# Bulk Modulus (GPa) = 39.85548 53.78139 46.81843
# Shear Modulus (GPa) = 19.69912 29.19646 24.44779
#
# Velocity S-wave (km/s) = 3.12677 3.80661 3.48331
# Velocity P-wave (km/s) = 5.72852 6.78322 6.27806
#
# Compressibility (1/GPa) = 0.02509065
#
# Stress axis : x y z
#
# Youngs Moduli (GPa) = 37.05901 60.98364 126.58159
#
# Poissons Ratio (x) = 0.53185 0.01620
# Poissons Ratio (y) = 0.32320 0.53753
# Poissons Ratio (z) = 0.00474 0.25897
#
# Static dielectric constant tensor:
#      x y z
#    x 2.560920 -0.193060 0.164720 
#    y -0.193060 3.675730 -0.135040 
#    z 0.164720 -0.135040 3.805090 
# 
# 
# High freq. dielectric constant tensor:
#      x y z
#    x 1.732590 -0.013310 -0.004620 
#    y -0.013310 1.782390 -0.009680 
#    z -0.004620 -0.009680 1.810790 
# 
# From -- ./inp_files/335703.got.cif
#   From: 2010.06.25/outbox.cif.g09.slc.cpg/sg2_168_cif.got.tgz:335703.got - 2010.06.27 13:26:56.
