data_PCOD8000935
_publ_section_title
;
Structure prediction by ZEFSAII (Michael W. Deem and Ramdas Pophale) SiO2 
 PCOD8000935
Probable space group: P -1
;
_chemical_formula_sum "Si O2"
_cell_formula_units_Z 16
_cell_length_a 11.301570
_cell_length_b 20.375125
_cell_length_c 18.116302
_cell_angle_alpha 19.239636
_cell_angle_beta 41.479624
_cell_angle_gamma 32.338917
_cell_volume 706.928563
_symmetry_space_group_name_H-M "P -1"
_symmetry_group_IT_number 2
_symmetry_cell_setting 'triclinic'
loop_
_space_group_symop_operation_xyz
x,y,z
-x,-y,-z
loop_
_atom_site_type_symbol
_atom_site_label
_atom_site_fract_x
_atom_site_fract_y
_atom_site_fract_z
Si Si1 0.806546 0.588945 0.811973
Si Si2 0.415194 0.964698 0.801366
Si Si3 0.968048 0.943590 0.220736
Si Si4 0.671003 0.979132 0.051055
Si Si5 0.319774 0.860820 0.716801
Si Si6 0.258359 0.945115 0.497581
Si Si7 0.807999 0.416275 0.154055
Si Si8 0.224544 0.381490 0.744346
O O1 0.590404 0.612265 0.857955
O O2 0.033502 0.386792 0.872224
O O3 0.727262 0.871036 0.542431
O O4 0.851377 0.501399 0.967884
O O5 0.184376 0.047643 0.782164
O O6 0.505422 0.093676 0.576435
O O7 0.378927 0.059823 0.801380
O O8 0.605342 0.656642 0.040983
O O9 0.116799 0.019667 0.039499
O O10 0.142966 0.662274 0.471874
O O11 0.807758 0.146072 0.145981
O O12 0.452700 0.236764 0.841118
O O13 0.735803 0.744280 0.220435
O O14 0.226456 0.856396 0.685594
O O15 0.259262 0.769572 0.623768
O O16 0.051895 0.249537 0.259460
#
# Coordination Sequence:
#
# PCOD8000935 Si02
#       8
#     2   2   2   2   2   2   2   2
#     4  10  19  40  66  95 130 162 207 270 326 379
#     4  12  24  44  65  92 136 170 215 269 323 386
#     4  11  24  43  66  97 129 172 218 265 321 389
#     4  11  26  44  66  93 128 182 218 259 320 382
#     4  10  20  38  66  98 128 162 211 266 326 386
#     4  11  24  39  62 100 131 170 214 264 332 383
#     4  11  24  39  62 100 131 170 211 264 333 393
#     4  10  24  44  66  97 128 167 225 270 312 381
#
# _framework density 22.633122
#
# number of rings (size 3 to 8) (size 9 to 14) (size 15 to 20)
#    0.000    1.250    2.500    3.375    5.250    4.000 
#    2.250    0.000    0.000    0.000    0.000    0.000 
#    0.000    0.000    0.000    0.000    0.000    0.000 
#
# Total GULP energy -198429.647443 kJ/mol
# GULP energy per Si atom -12401.852965 kJ/mol
# Density = 2.258161 g / cm^3
# Si number density = 22.633122 Si / 1000 Ang^3
#
#
#
# Elastic Constant Matrix: (Units=GPa)
#
#
# Indices 1 2 3 4 5 6 
#
# 1 116.6542 45.8756 -1.3496 8.3790 15.4132 1.3873
# 2 45.8756 118.7700 24.7101 -1.3002 8.8844 9.9893
# 3 -1.3496 24.7101 21.2441 3.5933 11.4542 -0.4646
# 4 8.3790 -1.3002 3.5933 23.7707 -1.1480 7.0687
# 5 15.4132 8.8844 11.4542 -1.1480 32.5703 8.3379
# 6 1.3873 9.9893 -0.4646 7.0687 8.3379 40.9069
#
#
#
# Elastic Compliance Matrix: (Units=1/GPa)
#
#
# Indices 1 2 3 4 5 6 
#
# 1 0.016130 -0.011008 0.024761 -0.013151 -0.015829 0.007921
# 2 -0.011008 0.019702 -0.034297 0.013930 0.015023 -0.010296
# 3 0.024761 -0.034297 0.125527 -0.040290 -0.054866 0.027106
# 4 -0.013151 0.013930 -0.040290 0.060223 0.023478 -0.018605
# 5 -0.015829 0.015023 -0.054866 0.023478 0.059313 -0.019902
# 6 0.007921 -0.010296 0.027106 -0.018605 -0.019902 0.034271
#
#
# Mechanical properties :
#
#
# Convention : Reuss Voigt Hill
#
# Bulk Modulus (GPa) = 8.31454 43.90450 26.10952
# Shear Modulus (GPa) = 12.61534 31.94506 22.28020
#
# Velocity S-wave (km/s) = 2.36346 3.76098 3.14093
# Velocity P-wave (km/s) = 3.33609 6.18873 4.97141
#
# Compressibility (1/GPa) = 0.12027129
#
# Stress axis : x y z
#
# Youngs Moduli (GPa) = 61.99779 50.75752 7.96640
#
# Poissons Ratio (x) = 0.55872 -0.19725
# Poissons Ratio (y) = 0.68245 0.27322
# Poissons Ratio (z) = -1.53511 1.74081
#
# Static dielectric constant tensor:
#      x y z
#    x 4.074000 -0.077900 0.070940 
#    y -0.077900 4.254580 -0.125540 
#    z 0.070940 -0.125540 3.954020 
# 
# 
# High freq. dielectric constant tensor:
#      x y z
#    x 1.904390 -0.002270 0.002220 
#    y -0.002270 1.889600 -0.006650 
#    z 0.002220 -0.006650 1.892160 
# 
# From -- ./inp_files/272463.got.cif
#   From: 2010.06.25/outbox.cif.g09.slc.cpg/sg2_137_cif.got.tgz:272463.got - 2010.06.27 13:26:56.
