data_PCOD8000631
_publ_section_title
;
Structure prediction by ZEFSAII (Michael W. Deem and Ramdas Pophale) SiO2 
 PCOD8000631
Probable space group: P -1
;
_chemical_formula_sum "Si O2"
_cell_formula_units_Z 16
_cell_length_a 11.587061
_cell_length_b 11.757718
_cell_length_c 8.773092
_cell_angle_alpha 122.688884
_cell_angle_beta 97.683797
_cell_angle_gamma 55.898721
_cell_volume 808.057995
_symmetry_space_group_name_H-M "P -1"
_symmetry_group_IT_number 2
_symmetry_cell_setting 'triclinic'
loop_
_space_group_symop_operation_xyz
x,y,z
-x,-y,-z
loop_
_atom_site_type_symbol
_atom_site_label
_atom_site_fract_x
_atom_site_fract_y
_atom_site_fract_z
Si Si1 0.872283 0.201170 0.978133
Si Si2 0.379425 0.655938 0.190482
Si Si3 0.656085 0.410348 0.530218
Si Si4 0.381065 0.000984 0.066498
Si Si5 0.816101 0.067797 0.150507
Si Si6 0.151716 0.561712 0.610606
Si Si7 0.155440 0.253341 0.415145
Si Si8 0.406830 0.944460 0.364386
O O1 0.819706 0.365534 0.184371
O O2 0.852051 0.082566 0.992891
O O3 0.773628 0.247890 0.848298
O O4 0.038798 0.100601 0.880159
O O5 0.360666 0.581834 0.286332
O O6 0.420048 0.786570 0.329733
O O7 0.500000 0.500000 0.000000
O O8 0.500000 0.500000 0.500000
O O9 0.722899 0.504405 0.542615
O O10 0.771537 0.220409 0.360810
O O11 0.244151 0.185813 0.222811
O O12 0.451874 0.892900 0.156853
O O13 0.323540 0.931777 0.884194
O O14 0.500000 0.000000 0.000000
O O15 0.146306 0.416395 0.574726
O O16 0.001458 0.703191 0.605314
O O17 0.240635 0.111257 0.458502
O O18 0.500000 0.000000 0.500000
#
# Coordination Sequence:
#
# PCOD8000631 Si02
#       8
#     2   2   2   2   2   2   2   2
#     4  10  19  39  66  87 125 164 210 262 321 380
#     4  12  26  42  64  95 131 169 213 273 328 380
#     4  11  27  38  64  93 127 164 217 271 322 380
#     4  10  21  36  61  89 122 165 210 255 299 383
#     4  10  20  39  62  90 122 164 212 258 319 380
#     4  10  20  41  66  93 124 168 215 260 312 391
#     4   9  21  39  67  87 127 170 215 251 319 383
#     4  10  24  40  59  91 131 169 212 254 328 375
#
# _framework density 19.800559
#
# number of rings (size 3 to 8) (size 9 to 14) (size 15 to 20)
#    0.750    1.000    2.500    1.500   10.500    0.500 
#    0.000    0.000    0.000    1.500    0.000    0.000 
#    0.000    0.000    0.000    0.000    0.000    0.000 
#
# Total GULP energy -198277.419807 kJ/mol
# GULP energy per Si atom -12392.338738 kJ/mol
# Density = 1.975549 g / cm^3
# Si number density = 19.800559 Si / 1000 Ang^3
#
#
#
# Elastic Constant Matrix: (Units=GPa)
#
#
# Indices 1 2 3 4 5 6 
#
# 1 115.8962 22.3621 25.7335 -6.1710 2.6464 -11.9267
# 2 22.3621 75.3754 23.1348 -2.4073 0.1779 -14.1862
# 3 25.7335 23.1348 66.1340 -5.0422 -0.1598 -3.9629
# 4 -6.1710 -2.4073 -5.0422 29.3408 0.4039 5.7892
# 5 2.6464 0.1779 -0.1598 0.4039 40.7999 1.3772
# 6 -11.9267 -14.1862 -3.9629 5.7892 1.3772 29.7485
#
#
#
# Elastic Compliance Matrix: (Units=1/GPa)
#
#
# Indices 1 2 3 4 5 6 
#
# 1 0.009951 -0.001443 -0.003136 0.000905 -0.000753 0.002742
# 2 -0.001443 0.016441 -0.004867 -0.001139 -0.000217 0.006845
# 3 -0.003136 -0.004867 0.018127 0.002376 0.000327 -0.001641
# 4 0.000905 -0.001139 0.002376 0.035941 -0.000169 -0.006850
# 5 -0.000753 -0.000217 0.000327 -0.000169 0.024612 -0.001468
# 6 0.002742 0.006845 -0.001641 -0.006850 -0.001468 0.039161
#
#
# Mechanical properties :
#
#
# Convention : Reuss Voigt Hill
#
# Bulk Modulus (GPa) = 39.02030 44.42957 41.72494
# Shear Modulus (GPa) = 29.12600 32.38953 30.75777
#
# Velocity S-wave (km/s) = 3.83948 4.04888 3.94557
# Velocity P-wave (km/s) = 6.27734 6.65921 6.47109
#
# Compressibility (1/GPa) = 0.02562768
#
# Stress axis : x y z
#
# Youngs Moduli (GPa) = 100.49604 60.82237 55.16587
#
# Poissons Ratio (x) = 0.08776 0.17298
# Poissons Ratio (y) = 0.14500 0.26850
# Poissons Ratio (z) = 0.31512 0.29603
#
# Static dielectric constant tensor:
#      x y z
#    x 3.845810 -0.029390 0.187120 
#    y -0.029390 3.633530 0.166130 
#    z 0.187120 0.166130 3.563990 
# 
# 
# High freq. dielectric constant tensor:
#      x y z
#    x 1.778300 -0.016870 0.012860 
#    y -0.016870 1.759280 0.014640 
#    z 0.012860 0.014640 1.758480 
# 
# From -- ./inp_files/263096.got.cif
#   From: 2010.06.25/outbox.cif.g09.slc.cpg/sg2_132_cif.got.tgz:263096.got - 2010.06.27 13:26:56.
