data_PCOD8000730
_publ_section_title
;
Structure prediction by ZEFSAII (Michael W. Deem and Ramdas Pophale) SiO2 
 PCOD8000730
Probable space group: P -1
;
_chemical_formula_sum "Si O2"
_cell_formula_units_Z 14
_cell_length_a 11.759761
_cell_length_b 8.603059
_cell_length_c 8.562132
_cell_angle_alpha 48.216284
_cell_angle_beta 82.469226
_cell_angle_gamma 92.849070
_cell_volume 629.248533
_symmetry_space_group_name_H-M "P -1"
_symmetry_group_IT_number 2
_symmetry_cell_setting 'triclinic'
loop_
_space_group_symop_operation_xyz
x,y,z
-x,-y,-z
loop_
_atom_site_type_symbol
_atom_site_label
_atom_site_fract_x
_atom_site_fract_y
_atom_site_fract_z
Si Si1 0.289938 0.614030 0.168533
Si Si2 0.150391 0.249715 0.274318
Si Si3 0.489377 0.345793 0.341638
Si Si4 0.483207 0.922301 0.784774
Si Si5 0.671138 0.758556 0.011903
Si Si6 0.040880 0.966647 0.755936
Si Si7 0.847666 0.087681 0.907308
O O1 0.184839 0.489149 0.166668
O O2 0.380485 0.466362 0.307752
O O3 0.225125 0.723987 0.244067
O O4 0.352071 0.812537 0.920658
O O5 0.260451 0.200867 0.191253
O O6 0.131688 0.100944 0.530616
O O7 0.035575 0.224623 0.202432
O O8 0.474649 0.214597 0.271857
O O9 0.489681 0.172456 0.592633
O O10 0.612437 0.511966 0.215313
O O11 0.568370 0.896478 0.930908
O O12 0.762368 0.855195 0.066027
O O13 0.953050 0.110506 0.749065
O O14 0.107002 0.880006 0.944656
#
# Coordination Sequence:
#
# PCOD8000730 Si02
#       7
#     2   2   2   2   2   2   2
#     4  11  21  36  62  94 122 165 196 255 306 363
#     4  10  19  39  69  87 117 160 218 250 294 360
#     4  10  20  36  61  98 125 157 208 248 294 373
#     4  10  20  36  62  96 123 160 206 251 287 381
#     4  10  19  41  62  94 127 163 195 254 305 365
#     4   9  22  42  63  89 118 166 211 258 300 366
#     4  10  23  40  61  90 133 157 200 259 319 354
#
# _framework density 22.248760999999998
#
# number of rings (size 3 to 8) (size 9 to 14) (size 15 to 20)
#    0.000    2.000    2.857    0.857    2.000    3.429 
#    2.571    1.429    6.286    0.000    0.000    0.000 
#    0.000    0.000    0.000    0.000    0.000    0.000 
#
# Total GULP energy -173466.346825 kJ/mol
# GULP energy per Si atom -12390.453345 kJ/mol
# Density = 2.219812 g / cm^3
# Si number density = 22.248761 Si / 1000 Ang^3
#
#
#
# Elastic Constant Matrix: (Units=GPa)
#
#
# Indices 1 2 3 4 5 6 
#
# 1 88.3807 46.3865 43.4396 -30.2616 -13.3309 5.1623
# 2 46.3865 77.3538 32.6316 -20.0615 -5.1021 4.1888
# 3 43.4396 32.6316 110.1123 -26.1084 -11.9055 8.3160
# 4 -30.2616 -20.0615 -26.1084 19.9519 3.4122 8.0479
# 5 -13.3309 -5.1021 -11.9055 3.4122 28.5606 -7.0739
# 6 5.1623 4.1888 8.3160 8.0479 -7.0739 46.7179
#
#
#
# Elastic Compliance Matrix: (Units=1/GPa)
#
#
# Indices 1 2 3 4 5 6 
#
# 1 0.031221 -0.006548 0.002145 0.046702 0.006152 -0.010358
# 2 -0.006548 0.020005 -0.000771 0.010723 -0.001843 -0.003059
# 3 0.002145 -0.000771 0.015026 0.024386 0.002565 -0.006655
# 4 0.046702 0.010723 0.024386 0.179852 0.002210 -0.041110
# 5 0.006152 -0.001843 0.002565 0.002210 0.039508 0.004630
# 6 -0.010358 -0.003059 -0.006655 -0.041110 0.004630 0.031792
#
#
# Mechanical properties :
#
#
# Convention : Reuss Voigt Hill
#
# Bulk Modulus (GPa) = 17.88812 57.86246 37.87529
# Shear Modulus (GPa) = 14.43475 29.27201 21.85338
#
# Velocity S-wave (km/s) = 2.54990 3.63115 3.13745
# Velocity P-wave (km/s) = 4.08984 6.60635 5.49412
#
# Compressibility (1/GPa) = 0.05590304
#
# Stress axis : x y z
#
# Youngs Moduli (GPa) = 32.02944 49.98830 66.55106
#
# Poissons Ratio (x) = 0.32734 -0.14272
# Poissons Ratio (y) = 0.20974 0.05129
# Poissons Ratio (z) = -0.06869 0.03853
#
# Static dielectric constant tensor:
#      x y z
#    x 4.108440 0.129690 -0.276950 
#    y 0.129690 4.155640 -0.042120 
#    z -0.276950 -0.042120 3.699240 
# 
# 
# High freq. dielectric constant tensor:
#      x y z
#    x 1.887270 0.008640 -0.020790 
#    y 0.008640 1.883670 -0.002880 
#    z -0.020790 -0.002880 1.840260 
# 
# From -- ./inp_files/242115.got.cif
#   From: 2010.06.25/outbox.cif.g09.slc.cpg/sg2_122_cif.got.tgz:242115.got - 2010.06.27 13:26:56.
