data_PCOD8000055
_publ_section_title
;
Structure prediction by ZEFSAII (Michael W. Deem and Ramdas Pophale) SiO2 
 PCOD8000055
Probable space group: P 1
;
_chemical_formula_sum "Si O2"
_cell_formula_units_Z 8
_cell_length_a 6.350859
_cell_length_b 15.066335
_cell_length_c 5.123365
_cell_angle_alpha 90.510274
_cell_angle_beta 96.851944
_cell_angle_gamma 45.852551
_cell_volume 347.349498
_symmetry_space_group_name_H-M "P 1"
_symmetry_group_IT_number 1
_symmetry_cell_setting 'triclinic'
loop_
_space_group_symop_operation_xyz
x,y,z
loop_
_atom_site_type_symbol
_atom_site_label
_atom_site_fract_x
_atom_site_fract_y
_atom_site_fract_z
Si Si1 0.743050 0.011840 0.278710
Si Si2 0.210703 0.553560 0.104899
Si Si3 0.853688 0.406880 0.253205
Si Si4 0.677548 0.838304 0.121893
Si Si5 0.170622 0.163076 0.545169
Si Si6 0.160095 0.453099 0.600861
Si Si7 0.295311 0.932163 0.573396
Si Si8 0.366373 0.245353 0.942878
O O1 0.488322 0.081397 0.455316
O O2 0.740479 0.924729 0.093847
O O3 0.682532 0.119871 0.103066
O O4 0.059229 0.924828 0.469806
O O5 0.529709 0.503560 0.075851
O O6 0.266926 0.477753 0.368789
O O7 0.986440 0.697149 0.144508
O O8 0.082987 0.539188 0.835152
O O9 0.909775 0.289134 0.352128
O O10 0.871332 0.476312 0.488731
O O11 0.127726 0.358095 0.109833
O O12 0.549252 0.858706 0.390392
O O13 0.447223 0.869688 0.872802
O O14 0.201751 0.203113 0.827005
O O15 0.103652 0.079182 0.564955
O O16 0.416234 0.306231 0.728165
#
# Coordination Sequence:
#
# PCOD8000055 Si02
#       8
#     1   1   1   1   1   1   1   1
#     4  10  23  43  69 102 133 179 216 288 345 389
#     4  12  27  45  72  96 142 187 224 275 341 399
#     4  10  24  44  67 106 137 180 219 284 341 400
#     4  11  26  47  65 102 135 174 238 274 316 417
#     4   9  21  39  66 102 141 159 226 279 336 415
#     4  11  25  45  65 105 136 176 231 274 332 413
#     4  11  24  44  71  99 131 180 222 279 345 387
#     4  10  20  45  69 102 147 163 226 291 332 414
#
# _framework density 23.031561
#
# number of rings (size 3 to 8) (size 9 to 14) (size 15 to 20)
#    0.000    1.500    2.500    0.750    7.000    2.000 
#    0.000    0.000    0.000    0.000    0.000    0.000 
#    0.000    0.000    0.000    0.000    0.000    0.000 
#
# Total GULP energy -99156.210495 kJ/mol
# GULP energy per Si atom -12394.526312 kJ/mol
# Density = 2.297914 g / cm^3
# Si number density = 23.031561 Si / 1000 Ang^3
#
#
#
# Elastic Constant Matrix: (Units=GPa)
#
#
# Indices 1 2 3 4 5 6 
#
# 1 57.1343 46.7682 20.6735 -8.1548 17.8063 1.4223
# 2 46.7682 119.2265 36.6102 4.9698 16.4091 -6.5246
# 3 20.6735 36.6102 109.8384 3.2107 11.9545 5.2867
# 4 -8.1548 4.9698 3.2107 35.9874 3.4903 4.6558
# 5 17.8063 16.4091 11.9545 3.4903 36.1781 -6.8375
# 6 1.4223 -6.5246 5.2867 4.6558 -6.8375 22.1691
#
#
#
# Elastic Compliance Matrix: (Units=1/GPa)
#
#
# Indices 1 2 3 4 5 6 
#
# 1 0.034973 -0.012783 -0.000426 0.012899 -0.015023 -0.013247
# 2 -0.012783 0.014621 -0.002970 -0.005938 0.002710 0.007914
# 3 -0.000426 -0.002970 0.010681 0.000188 -0.002803 -0.004298
# 4 0.012899 -0.005938 0.000188 0.034065 -0.009400 -0.012673
# 5 -0.015023 0.002710 -0.002803 -0.009400 0.038729 0.016349
# 6 -0.013247 0.007914 -0.004298 -0.012673 0.016349 0.057016
#
#
# Mechanical properties :
#
#
# Convention : Reuss Voigt Hill
#
# Bulk Modulus (GPa) = 35.82001 54.92256 45.37128
# Shear Modulus (GPa) = 21.57512 31.01008 26.29260
#
# Velocity S-wave (km/s) = 3.06398 3.67334 3.38241
# Velocity P-wave (km/s) = 5.30129 6.47222 5.91579
#
# Compressibility (1/GPa) = 0.02791736
#
# Stress axis : x y z
#
# Youngs Moduli (GPa) = 28.59323 68.39377 93.62598
#
# Poissons Ratio (x) = 0.87427 0.03992
# Poissons Ratio (y) = 0.36550 0.27804
# Poissons Ratio (z) = 0.01219 0.20311
#
# Static dielectric constant tensor:
#      x y z
#    x 3.747710 0.286700 0.103700 
#    y 0.286700 4.186030 0.045300 
#    z 0.103700 0.045300 4.309560 
# 
# 
# High freq. dielectric constant tensor:
#      x y z
#    x 1.883290 0.015100 0.011650 
#    y 0.015100 1.902900 0.007530 
#    z 0.011650 0.007530 1.921930 
# 
# From -- ./inp_files/428.got.cif
#   From: 2010.03.12/outbox.cif.g09.slc.cpg/sg1_1_cif.got.tgz:428.got - 2010.03.29 11:57:58.
