data_PCOD8000627
_publ_section_title
;
Structure prediction by ZEFSAII (Michael W. Deem and Ramdas Pophale) SiO2 
 PCOD8000627
Probable space group: P -1
;
_chemical_formula_sum "Si O2"
_cell_formula_units_Z 14
_cell_length_a 9.896088
_cell_length_b 14.304403
_cell_length_c 7.466724
_cell_angle_alpha 95.089411
_cell_angle_beta 100.512410
_cell_angle_gamma 39.293711
_cell_volume 655.798218
_symmetry_space_group_name_H-M "P -1"
_symmetry_group_IT_number 2
_symmetry_cell_setting 'triclinic'
loop_
_space_group_symop_operation_xyz
x,y,z
-x,-y,-z
loop_
_atom_site_type_symbol
_atom_site_label
_atom_site_fract_x
_atom_site_fract_y
_atom_site_fract_z
Si Si1 0.046966 0.537675 0.690103
Si Si2 0.523473 0.555499 0.756253
Si Si3 0.613762 0.711973 0.755324
Si Si4 0.061699 0.747852 0.690572
Si Si5 0.489579 0.774330 0.129748
Si Si6 0.276969 0.707401 0.063738
Si Si7 0.603657 0.046542 0.553373
O O1 0.863837 0.611622 0.807348
O O2 0.019675 0.660268 0.655451
O O3 0.000000 0.500000 0.500000
O O4 0.282273 0.394594 0.798974
O O5 0.614500 0.599802 0.688653
O O6 0.690109 0.378553 0.769659
O O7 0.290390 0.649855 0.628718
O O8 0.492905 0.593453 0.967716
O O9 0.484883 0.833248 0.590212
O O10 0.489342 0.800894 0.924291
O O11 0.863920 0.903601 0.569763
O O12 0.072710 0.781393 0.906111
O O13 0.285112 0.813074 0.140486
O O14 0.458451 0.885943 0.251562
O O15 0.500000 0.000000 0.500000
#
# Coordination Sequence:
#
# PCOD8000627 Si02
#       7
#     2   2   2   2   2   2   2
#     4  12  21  40  67  95 124 167 208 261 322 363
#     4   8  16  36  64  90 121 155 209 261 299 364
#     4  11  23  40  66  96 124 165 218 252 312 376
#     4  10  19  39  66  84 133 171 197 261 318 368
#     4  11  22  42  68  92 126 164 214 264 306 377
#     4   8  16  36  65  90 121 160 209 258 316 350
#     4  12  25  42  60  93 137 168 201 261 320 371
#
# _framework density 21.348030999999999
#
# number of rings (size 3 to 8) (size 9 to 14) (size 15 to 20)
#    0.857    0.857    4.286    1.286    0.000    1.714 
#    0.000    2.857    0.000    0.000    0.000    0.000 
#    0.000    0.000    0.000    0.000    0.000    0.000 
#
# Total GULP energy -173464.735436 kJ/mol
# GULP energy per Si atom -12390.338245 kJ/mol
# Density = 2.129944 g / cm^3
# Si number density = 21.348031 Si / 1000 Ang^3
#
#
#
# Elastic Constant Matrix: (Units=GPa)
#
#
# Indices 1 2 3 4 5 6 
#
# 1 103.6566 33.4832 38.2430 0.4948 20.5738 36.2769
# 2 33.4832 57.5033 25.5148 -5.6918 13.4182 17.8557
# 3 38.2430 25.5148 85.0036 2.9536 17.9137 12.5029
# 4 0.4948 -5.6918 2.9536 36.6460 2.0475 11.0158
# 5 20.5738 13.4182 17.9137 2.0475 32.7094 -1.8206
# 6 36.2769 17.8557 12.5029 11.0158 -1.8206 33.6260
#
#
#
# Elastic Compliance Matrix: (Units=1/GPa)
#
#
# Indices 1 2 3 4 5 6 
#
# 1 0.023937 0.001583 -0.003951 0.009933 -0.015795 -0.029304
# 2 0.001583 0.028339 -0.004179 0.011272 -0.012127 -0.019552
# 3 -0.003951 -0.004179 0.015575 -0.001951 -0.004147 0.001105
# 4 0.009933 0.011272 -0.001951 0.038673 -0.013860 -0.029395
# 5 -0.015795 -0.012127 -0.004147 -0.013860 0.050418 0.032291
# 6 -0.029304 -0.019552 0.001105 -0.029395 0.032291 0.082703
#
#
# Mechanical properties :
#
#
# Convention : Reuss Voigt Hill
#
# Bulk Modulus (GPa) = 18.26196 48.96059 33.61128
# Shear Modulus (GPa) = 18.45090 30.52445 24.48768
#
# Velocity S-wave (km/s) = 2.94307 3.78544 3.39052
# Velocity P-wave (km/s) = 4.48574 6.48770 5.57728
#
# Compressibility (1/GPa) = 0.05475863
#
# Stress axis : x y z
#
# Youngs Moduli (GPa) = 41.77716 35.28683 64.20446
#
# Poissons Ratio (x) = -0.05587 0.25364
# Poissons Ratio (y) = -0.06615 0.26831
# Poissons Ratio (z) = 0.16504 0.14746
#
# Static dielectric constant tensor:
#      x y z
#    x 3.982990 0.208100 0.295230 
#    y 0.208100 3.818980 -0.039310 
#    z 0.295230 -0.039310 3.760470 
# 
# 
# High freq. dielectric constant tensor:
#      x y z
#    x 1.834700 0.021420 0.027720 
#    y 0.021420 1.822560 -0.008650 
#    z 0.027720 -0.008650 1.827660 
# 
# From -- ./inp_files/180554.got.cif
#   From: 2010.06.25/outbox.cif.g09.slc.cpg/sg2_91_cif.got.tgz:180554.got - 2010.06.27 13:26:56.
