data_PCOD8000446
_publ_section_title
;
Structure prediction by ZEFSAII (Michael W. Deem and Ramdas Pophale) SiO2 
 PCOD8000446
Probable space group: P -1
;
_chemical_formula_sum "Si O2"
_cell_formula_units_Z 16
_cell_length_a 13.798280
_cell_length_b 15.082532
_cell_length_c 11.719699
_cell_angle_alpha 29.732239
_cell_angle_beta 43.222849
_cell_angle_gamma 43.464149
_cell_volume 796.710088
_symmetry_space_group_name_H-M "P -1"
_symmetry_group_IT_number 2
_symmetry_cell_setting 'triclinic'
loop_
_space_group_symop_operation_xyz
x,y,z
-x,-y,-z
loop_
_atom_site_type_symbol
_atom_site_label
_atom_site_fract_x
_atom_site_fract_y
_atom_site_fract_z
Si Si1 0.583859 0.659928 0.128751
Si Si2 0.962868 0.301915 0.877404
Si Si3 0.747680 0.962184 0.635037
Si Si4 0.589785 0.388573 0.878527
Si Si5 0.647019 0.271169 0.204722
Si Si6 0.949430 0.092149 0.661919
Si Si7 0.668026 0.250934 0.580617
Si Si8 0.079565 0.643143 0.406947
O O1 0.478283 0.706917 0.056724
O O2 0.669331 0.441717 0.303028
O O3 0.488818 0.722909 0.253848
O O4 0.705777 0.770407 0.893670
O O5 0.985235 0.281888 0.744410
O O6 0.024923 0.466097 0.688615
O O7 0.790807 0.347638 0.006521
O O8 0.056235 0.113342 0.067738
O O9 0.924142 0.916572 0.530510
O O10 0.678419 0.068258 0.460201
O O11 0.688592 0.087446 0.655094
O O12 0.487224 0.592372 0.766579
O O13 0.744121 0.416860 0.674703
O O14 0.607485 0.256104 0.122410
O O15 0.794990 0.204287 0.617840
O O16 0.986149 0.194301 0.628600
#
# Coordination Sequence:
#
# PCOD8000446 Si02
#       8
#     2   2   2   2   2   2   2   2
#     4  11  24  41  65  84 118 161 195 247 291 349
#     4   9  21  38  61  87 122 156 190 248 291 348
#     4  11  24  40  62  89 119 156 196 245 298 345
#     4  10  19  39  62  88 121 155 193 242 296 347
#     4   9  20  38  63  89 121 151 191 248 295 351
#     4  11  23  38  61  89 117 155 199 245 289 352
#     4  11  24  44  59  85 121 155 204 245 287 345
#     4  10  20  38  60  89 120 157 197 233 300 350
#
# _framework density 20.082588000000001
#
# number of rings (size 3 to 8) (size 9 to 14) (size 15 to 20)
#    0.000    1.750    2.500    1.125    1.750    3.000 
#    0.000    0.000    0.000    0.000    0.000    0.000 
#    0.000    0.000    0.000    0.000    0.000    0.000 
#
# Total GULP energy -198477.138080 kJ/mol
# GULP energy per Si atom -12404.821130 kJ/mol
# Density = 2.003688 g / cm^3
# Si number density = 20.082588 Si / 1000 Ang^3
#
#
#
# Elastic Constant Matrix: (Units=GPa)
#
#
# Indices 1 2 3 4 5 6 
#
# 1 67.6059 10.0708 32.0237 -5.2105 3.9422 -1.9003
# 2 10.0708 65.0693 18.2786 4.9242 -1.9574 1.1332
# 3 32.0237 18.2786 118.8752 -6.5574 -9.9817 3.8656
# 4 -5.2105 4.9242 -6.5574 21.6817 2.3423 1.1337
# 5 3.9422 -1.9574 -9.9817 2.3423 23.8090 -2.9536
# 6 -1.9003 1.1332 3.8656 1.1337 -2.9536 29.3813
#
#
#
# Elastic Compliance Matrix: (Units=1/GPa)
#
#
# Indices 1 2 3 4 5 6 
#
# 1 0.018010 -0.001899 -0.004841 0.003816 -0.005396 0.001185
# 2 -0.001899 0.016710 -0.002228 -0.005050 0.001232 -0.000156
# 3 -0.004841 -0.002228 0.010610 0.002108 0.004706 -0.001231
# 4 0.003816 -0.005050 0.002108 0.049517 -0.005318 -0.002281
# 5 -0.005396 0.001232 0.004706 -0.005318 0.045965 0.003810
# 6 0.001185 -0.000156 -0.001231 -0.002281 0.003810 0.034751
#
#
# Mechanical properties :
#
#
# Convention : Reuss Voigt Hill
#
# Bulk Modulus (GPa) = 36.50407 41.36628 38.93517
# Shear Modulus (GPa) = 24.67560 27.71956 26.19758
#
# Velocity S-wave (km/s) = 3.50909 3.71924 3.61569
# Velocity P-wave (km/s) = 5.88513 6.25192 6.07129
#
# Compressibility (1/GPa) = 0.02739421
#
# Stress axis : x y z
#
# Youngs Moduli (GPa) = 55.52612 59.84457 94.24850
#
# Poissons Ratio (x) = 0.11366 0.45622
# Poissons Ratio (y) = 0.10546 0.20997
# Poissons Ratio (z) = 0.26878 0.13332
#
# Static dielectric constant tensor:
#      x y z
#    x 3.646690 -0.005930 0.173240 
#    y -0.005930 3.632920 0.136470 
#    z 0.173240 0.136470 3.636350 
# 
# 
# High freq. dielectric constant tensor:
#      x y z
#    x 1.781970 -0.000480 0.010550 
#    y -0.000480 1.790390 0.009720 
#    z 0.010550 0.009720 1.780010 
# 
# From -- ./inp_files/244514.got.cif
#   From: 2010.06.25/outbox.cif.g09.slc.cpg/sg2_123_cif.got.tgz:244514.got - 2010.06.27 13:26:56.
