data_PCOD8000906
_publ_section_title
;
Structure prediction by ZEFSAII (Michael W. Deem and Ramdas Pophale) SiO2 
 PCOD8000906
Probable space group: P -1
;
_chemical_formula_sum "Si O2"
_cell_formula_units_Z 16
_cell_length_a 6.427211
_cell_length_b 8.820601
_cell_length_c 15.745022
_cell_angle_alpha 112.386186
_cell_angle_beta 100.105580
_cell_angle_gamma 96.762718
_cell_volume 795.661176
_symmetry_space_group_name_H-M "P -1"
_symmetry_group_IT_number 2
_symmetry_cell_setting 'triclinic'
loop_
_space_group_symop_operation_xyz
x,y,z
-x,-y,-z
loop_
_atom_site_type_symbol
_atom_site_label
_atom_site_fract_x
_atom_site_fract_y
_atom_site_fract_z
Si Si1 0.762115 0.219000 0.300690
Si Si2 0.850994 0.615942 0.551118
Si Si3 0.471968 0.873092 0.158000
Si Si4 0.189924 0.068813 0.091772
Si Si5 0.485531 0.508465 0.626231
Si Si6 0.958969 0.349393 0.175006
Si Si7 0.481379 0.714721 0.951145
Si Si8 0.628094 0.431845 0.799398
O O1 0.585961 0.311129 0.351158
O O2 0.836596 0.346425 0.254396
O O3 0.975102 0.216015 0.373516
O O4 0.662761 0.030594 0.226181
O O5 0.724192 0.533859 0.608690
O O6 0.677129 0.635998 0.470072
O O7 0.000000 0.500000 0.500000
O O8 0.426179 0.758596 0.213500
O O9 0.248510 0.932137 0.131502
O O10 0.547019 0.766616 0.063592
O O11 0.411541 0.133810 0.070518
O O12 0.118456 0.218535 0.169095
O O13 0.000000 0.000000 0.000000
O O14 0.484513 0.446877 0.709641
O O15 0.777647 0.307482 0.079667
O O16 0.117278 0.523077 0.197008
O O17 0.570120 0.549740 0.896353
#
# Coordination Sequence:
#
# PCOD8000906 Si02
#       8
#     2   2   2   2   2   2   2   2
#     4  11  20  38  64  92 116 157 209 248 291 359
#     4   9  20  36  70  95 114 150 206 248 297 367
#     4  12  24  39  57  92 129 161 204 256 305 345
#     4  11  21  36  58  82 113 160 213 256 289 338
#     4  10  19  40  65  94 119 154 201 250 301 366
#     4  11  20  38  61  80 118 162 208 245 294 353
#     4  11  22  42  59  82 123 173 212 244 289 364
#     4  11  24  39  59  90 129 162 198 254 309 361
#
# _framework density 20.109062000000002
#
# number of rings (size 3 to 8) (size 9 to 14) (size 15 to 20)
#    0.000    1.250    5.000    2.250    0.000    0.500 
#    4.500    0.625    0.000    6.750    0.000    0.000 
#    0.000    0.000    0.000    0.000    0.000    0.000 
#
# Total GULP energy -198309.945194 kJ/mol
# GULP energy per Si atom -12394.371575 kJ/mol
# Density = 2.006329 g / cm^3
# Si number density = 20.109062 Si / 1000 Ang^3
#
#
#
# Elastic Constant Matrix: (Units=GPa)
#
#
# Indices 1 2 3 4 5 6 
#
# 1 115.4212 45.4386 41.2901 3.7504 14.6114 17.4049
# 2 45.4386 101.6465 43.3404 -6.5433 12.7453 12.9603
# 3 41.2901 43.3404 107.0192 8.2668 18.5873 14.1011
# 4 3.7504 -6.5433 8.2668 17.0773 6.7452 3.8734
# 5 14.6114 12.7453 18.5873 6.7452 46.4844 4.5885
# 6 17.4049 12.9603 14.1011 3.8734 4.5885 20.4418
#
#
#
# Elastic Compliance Matrix: (Units=1/GPa)
#
#
# Indices 1 2 3 4 5 6 
#
# 1 0.011905 -0.003622 -0.002048 -0.001203 -0.001169 -0.005937
# 2 -0.003622 0.014938 -0.004448 0.010656 -0.002248 -0.004833
# 3 -0.002048 -0.004448 0.013173 -0.006098 -0.002236 -0.002866
# 4 -0.001203 0.010656 -0.006098 0.072530 -0.009329 -0.013175
# 5 -0.001169 -0.002248 -0.002236 -0.009329 0.024727 0.000181
# 6 -0.005937 -0.004833 -0.002866 -0.013175 0.000181 0.061471
#
#
# Mechanical properties :
#
#
# Convention : Reuss Voigt Hill
#
# Bulk Modulus (GPa) = 50.55898 64.91392 57.73645
# Shear Modulus (GPa) = 22.16591 29.73522 25.95056
#
# Velocity S-wave (km/s) = 3.32367 3.84956 3.59624
# Velocity P-wave (km/s) = 6.31870 7.21871 6.78365
#
# Compressibility (1/GPa) = 0.01977888
#
# Stress axis : x y z
#
# Youngs Moduli (GPa) = 83.99875 66.94385 75.91553
#
# Poissons Ratio (x) = 0.24250 0.15547
# Poissons Ratio (y) = 0.30428 0.33766
# Poissons Ratio (z) = 0.17202 0.29776
#
# Static dielectric constant tensor:
#      x y z
#    x 3.961100 0.156470 0.198680 
#    y 0.156470 3.274350 0.148620 
#    z 0.198680 0.148620 4.023390 
# 
# 
# High freq. dielectric constant tensor:
#      x y z
#    x 1.803470 0.010630 0.006220 
#    y 0.010630 1.730350 0.008450 
#    z 0.006220 0.008450 1.795430 
# 
# From -- ./inp_files/55355.got.cif
#   From: 2010.06.25/outbox.cif.g09.slc.cpg/sg2_28_cif.got.tgz:55355.got - 2010.06.27 13:26:56.
