data_PCOD8000033
_publ_section_title
;
Structure prediction by ZEFSAII (Michael W. Deem and Ramdas Pophale) SiO2 
 PCOD8000033
Probable space group: P 1
;
_chemical_formula_sum "Si O2"
_cell_formula_units_Z 8
_cell_length_a 9.192209
_cell_length_b 9.116013
_cell_length_c 9.063686
_cell_angle_alpha 133.011790
_cell_angle_beta 63.909952
_cell_angle_gamma 84.112602
_cell_volume 394.063366
_symmetry_space_group_name_H-M "P 1"
_symmetry_group_IT_number 1
_symmetry_cell_setting 'triclinic'
loop_
_space_group_symop_operation_xyz
x,y,z
loop_
_atom_site_type_symbol
_atom_site_label
_atom_site_fract_x
_atom_site_fract_y
_atom_site_fract_z
Si Si1 0.111470 0.622280 0.841950
Si Si2 0.456103 0.862346 0.256544
Si Si3 0.442994 0.361399 0.274448
Si Si4 0.404947 0.218564 0.869760
Si Si5 0.617420 0.639461 0.321675
Si Si6 0.072344 0.319362 0.881034
Si Si7 0.692781 0.073879 0.214037
Si Si8 0.446410 0.521826 0.821618
O O1 0.263851 0.432861 0.515865
O O2 0.022073 0.508395 0.899028
O O3 0.225183 0.678263 0.947880
O O4 0.927950 0.868940 0.007358
O O5 0.602394 0.635422 0.148905
O O6 0.226044 0.036886 0.548947
O O7 0.536953 0.027139 0.319168
O O8 0.465504 0.736906 0.012613
O O9 0.464887 0.586588 0.417995
O O10 0.654977 0.111165 0.079240
O O11 0.393143 0.303425 0.100170
O O12 0.180372 0.332266 0.986196
O O13 0.483597 0.341012 0.817214
O O14 0.554319 0.911113 0.588962
O O15 0.853535 0.404325 0.094483
O O16 0.621640 0.340182 0.498907
#
# Coordination Sequence:
#
# PCOD8000033 Si02
#       8
#     1   1   1   1   1   1   1   1
#     4  10  21  42  62  86 127 159 194 252 299 353
#     4  11  20  38  65  90 118 157 203 247 292 356
#     4  11  24  40  59  94 127 155 194 250 313 347
#     4  10  21  40  62  88 125 156 198 253 298 351
#     4  11  22  40  64  90 122 157 202 251 293 356
#     4  10  20  41  65  89 117 160 208 243 290 360
#     4  11  22  42  61  89 125 159 198 250 298 357
#     4  10  20  39  64  92 115 159 209 244 291 358
#
# _framework density 20.301306
#
# number of rings (size 3 to 8) (size 9 to 14) (size 15 to 20)
#    0.000    1.500    7.500    0.000    0.000    6.000 
#    4.500    0.000    0.000    0.000    0.000    0.000 
#    0.000    0.000    0.000    0.000    0.000    0.000 
#
# Total GULP energy -99132.336774 kJ/mol
# GULP energy per Si atom -12391.542097 kJ/mol
# Density = 2.025510 g / cm^3
# Si number density = 20.301306 Si / 1000 Ang^3
#
#
#
# Elastic Constant Matrix: (Units=GPa)
#
#
# Indices 1 2 3 4 5 6 
#
# 1 87.9264 31.5069 61.3204 4.7627 6.0222 -22.8234
# 2 31.5069 76.2975 21.1365 -1.6885 3.7111 -28.3097
# 3 61.3204 21.1365 88.5987 5.1239 8.9762 -15.3737
# 4 4.7627 -1.6885 5.1239 30.5134 -8.9174 0.0617
# 5 6.0222 3.7111 8.9762 -8.9174 37.1178 0.3834
# 6 -22.8234 -28.3097 -15.3737 0.0617 0.3834 37.0611
#
#
#
# Elastic Compliance Matrix: (Units=1/GPa)
#
#
# Indices 1 2 3 4 5 6 
#
# 1 0.025126 -0.003865 -0.015242 -0.001730 -0.000484 0.006206
# 2 -0.003865 0.019363 0.000281 0.001250 -0.001206 0.012538
# 3 -0.015242 0.000281 0.022282 -0.002374 -0.003515 0.000112
# 4 -0.001730 0.001250 -0.002374 0.036277 0.009458 -0.001254
# 5 -0.000484 -0.001206 -0.003515 0.009458 0.030294 -0.003007
# 6 0.006206 0.012538 0.000112 -0.001254 -0.003007 0.040461
#
#
# Mechanical properties :
#
#
# Convention : Reuss Voigt Hill
#
# Bulk Modulus (GPa) = 34.34193 53.41670 43.87931
# Shear Modulus (GPa) = 22.60806 30.19572 26.40189
#
# Velocity S-wave (km/s) = 3.34072 3.86084 3.61016
# Velocity P-wave (km/s) = 5.64211 6.80028 6.24809
#
# Compressibility (1/GPa) = 0.02911892
#
# Stress axis : x y z
#
# Youngs Moduli (GPa) = 39.79984 51.64462 44.88001
#
# Poissons Ratio (x) = 0.19962 0.68405
# Poissons Ratio (y) = 0.15384 -0.01263
# Poissons Ratio (z) = 0.60662 -0.01453
#
# Static dielectric constant tensor:
#      x y z
#    x 3.639730 -0.245000 0.030280 
#    y -0.245000 3.852360 0.040280 
#    z 0.030280 0.040280 3.379360 
# 
# 
# High freq. dielectric constant tensor:
#      x y z
#    x 1.787770 -0.020380 0.001590 
#    y -0.020380 1.798470 0.002980 
#    z 0.001590 0.002980 1.772830 
# 
# From -- ./inp_files/4058.got.cif
#   From: 2010.03.12/outbox.cif.g09.slc.cpg/sg1_3_cif.got.tgz:4058.got - 2010.03.29 11:57:58.
