data_PCOD8000051
_publ_section_title
;
Structure prediction by ZEFSAII (Michael W. Deem and Ramdas Pophale) SiO2 
 PCOD8000051
Probable space group: P 1
;
_chemical_formula_sum "Si O2"
_cell_formula_units_Z 8
_cell_length_a 7.802100
_cell_length_b 8.849509
_cell_length_c 12.054555
_cell_angle_alpha 36.179248
_cell_angle_beta 110.887468
_cell_angle_gamma 127.087913
_cell_volume 376.646651
_symmetry_space_group_name_H-M "P 1"
_symmetry_group_IT_number 1
_symmetry_cell_setting 'triclinic'
loop_
_space_group_symop_operation_xyz
x,y,z
loop_
_atom_site_type_symbol
_atom_site_label
_atom_site_fract_x
_atom_site_fract_y
_atom_site_fract_z
Si Si1 0.163930 0.217580 0.685040
Si Si2 0.634016 0.420202 0.718046
Si Si3 0.720386 0.582640 0.408375
Si Si4 0.565920 0.187182 0.397413
Si Si5 0.914797 0.068142 0.501665
Si Si6 0.891014 0.523179 0.095183
Si Si7 0.193232 0.790932 0.379703
Si Si8 0.577066 0.046940 0.133741
O O1 0.424769 0.441026 0.639589
O O2 0.073784 0.418212 0.588136
O O3 0.113692 0.157097 0.578221
O O4 0.063887 0.891077 0.915111
O O5 0.700961 0.382991 0.631228
O O6 0.842017 0.749072 0.615838
O O7 0.559963 0.130192 0.953541
O O8 0.560412 0.335981 0.423113
O O9 0.982257 0.809745 0.297531
O O10 0.635719 0.796323 0.294095
O O11 0.695073 0.016406 0.543374
O O12 0.701883 0.461447 0.175444
O O13 0.318012 0.956491 0.425844
O O14 0.008195 0.352603 0.266358
O O15 0.777709 0.374040 0.039201
O O16 0.353279 0.916308 0.233127
#
# Coordination Sequence:
#
# PCOD8000051 Si02
#       8
#     1   1   1   1   1   1   1   1
#     4  12  21  38  75 100 123 184 222 268 341 394
#     4  12  25  42  70  99 140 175 227 275 338 399
#     4  12  24  45  67  99 140 178 218 284 331 394
#     4   9  21  42  64  97 134 174 221 281 320 401
#     4  10  20  43  66  96 135 177 221 281 322 405
#     4   9  20  40  71  93 133 177 220 275 337 383
#     4  11  23  46  73  93 135 183 224 271 342 388
#     4  11  24  48  66 101 138 176 225 281 325 410
#
# _framework density 21.240068000000001
#
# number of rings (size 3 to 8) (size 9 to 14) (size 15 to 20)
#    0.750    0.500    6.250    0.000    3.500    2.000 
#    2.250    0.000    0.000    0.000    0.000    0.000 
#    0.000    0.000    0.000    0.000    0.000    0.000 
#
# Total GULP energy -99119.222681 kJ/mol
# GULP energy per Si atom -12389.902835 kJ/mol
# Density = 2.119172 g / cm^3
# Si number density = 21.240068 Si / 1000 Ang^3
#
#
#
# Elastic Constant Matrix: (Units=GPa)
#
#
# Indices 1 2 3 4 5 6 
#
# 1 68.4392 23.3284 27.0979 9.4140 -6.9290 -9.4791
# 2 23.3284 151.7988 46.0955 10.8706 -8.5677 -9.7775
# 3 27.0979 46.0955 124.7153 7.7679 -4.4470 -4.1162
# 4 9.4140 10.8706 7.7679 36.3150 -0.0285 2.6124
# 5 -6.9290 -8.5677 -4.4470 -0.0285 15.9390 6.2106
# 6 -9.4791 -9.7775 -4.1162 2.6124 6.2106 30.9695
#
#
#
# Elastic Compliance Matrix: (Units=1/GPa)
#
#
# Indices 1 2 3 4 5 6 
#
# 1 0.017705 -0.001021 -0.002920 -0.003950 0.004731 0.004093
# 2 -0.001021 0.007840 -0.002434 -0.001666 0.002513 0.001476
# 3 -0.002920 -0.002434 0.009581 -0.000536 0.000248 -0.000393
# 4 -0.003950 -0.001666 -0.000536 0.029466 -0.001125 -0.004066
# 5 0.004731 0.002513 0.000248 -0.001125 0.070825 -0.011834
# 6 0.004093 0.001476 -0.000393 -0.004066 -0.011834 0.036672
#
#
# Mechanical properties :
#
#
# Convention : Reuss Voigt Hill
#
# Bulk Modulus (GPa) = 44.68762 59.77744 52.23253
# Shear Modulus (GPa) = 26.00147 33.20681 29.60414
#
# Velocity S-wave (km/s) = 3.50261 3.95828 3.73740
# Velocity P-wave (km/s) = 6.11904 7.00681 6.57792
#
# Compressibility (1/GPa) = 0.02237756
#
# Stress axis : x y z
#
# Youngs Moduli (GPa) = 56.48191 127.55484 104.36854
#
# Poissons Ratio (x) = 0.13019 0.30473
# Poissons Ratio (y) = 0.05765 0.25401
# Poissons Ratio (z) = 0.16491 0.31044
#
# Static dielectric constant tensor:
#      x y z
#    x 3.520250 0.068590 -0.054070 
#    y 0.068590 3.945930 0.130250 
#    z -0.054070 0.130250 3.673590 
# 
# 
# High freq. dielectric constant tensor:
#      x y z
#    x 1.802090 0.008360 0.001970 
#    y 0.008360 1.851830 0.005740 
#    z 0.001970 0.005740 1.817880 
# 
# From -- ./inp_files/6421.got.cif
#   From: 2010.03.12/outbox.cif.g09.slc.cpg/sg1_4_cif.got.tgz:6421.got - 2010.03.29 11:57:58.
