data_PCOD8000092
_publ_section_title
;
Structure prediction by ZEFSAII (Michael W. Deem and Ramdas Pophale) SiO2 
 PCOD8000092
Probable space group: P 1
;
_chemical_formula_sum "Si O2"
_cell_formula_units_Z 8
_cell_length_a 9.647459
_cell_length_b 8.863004
_cell_length_c 11.354867
_cell_angle_alpha 88.454589
_cell_angle_beta 52.173907
_cell_angle_gamma 45.919868
_cell_volume 391.070433
_symmetry_space_group_name_H-M "P 1"
_symmetry_group_IT_number 1
_symmetry_cell_setting 'triclinic'
loop_
_space_group_symop_operation_xyz
x,y,z
loop_
_atom_site_type_symbol
_atom_site_label
_atom_site_fract_x
_atom_site_fract_y
_atom_site_fract_z
Si Si1 0.148530 0.281510 0.139080
Si Si2 0.506839 0.737567 0.861458
Si Si3 0.202997 0.281510 0.391444
Si Si4 0.932574 0.737566 0.125122
Si Si5 0.046340 0.895050 0.250654
Si Si6 0.078108 0.895049 0.893409
Si Si7 0.323508 0.525887 0.326982
Si Si8 0.539265 0.525886 0.447918
O O1 0.197885 0.259390 0.254201
O O2 0.169072 0.426654 0.057171
O O3 0.766185 0.505303 0.303993
O O4 0.442019 0.954649 0.940005
O O5 0.240415 0.904257 0.890742
O O6 0.892166 0.426654 0.618497
O O7 0.413666 0.683421 0.012229
O O8 0.137753 0.505305 0.450326
O O9 0.563230 0.954649 0.263657
O O10 0.865620 0.904256 0.262528
O O11 0.134041 0.683419 0.920204
O O12 0.088819 0.799907 0.360061
O O13 0.788949 0.224633 0.389739
O O14 0.225915 0.799905 0.688859
O O15 0.676332 0.224632 0.083908
O O16 0.374911 0.582363 0.415688
#
# Coordination Sequence:
#
# PCOD8000092 Si02
#       8
#     1   1   1   1   1   1   1   1
#     4  11  22  40  64  92 126 160 201 256 305 356
#     4  10  22  42  62  91 128 157 203 256 302 360
#     4  11  22  40  64  92 126 160 201 256 305 356
#     4  10  22  42  62  91 128 157 203 256 302 360
#     4  10  21  43  63  89 127 162 200 253 304 365
#     4  10  21  43  63  89 127 162 200 253 304 365
#     4  11  22  42  65  89 125 164 202 250 307 363
#     4  11  22  42  65  89 125 164 202 250 307 363
#
# _framework density 20.456671
#
# number of rings (size 3 to 8) (size 9 to 14) (size 15 to 20)
#    0.000    1.500    7.500    0.000    0.000    6.000 
#    4.500    0.000    0.000    0.000    0.000    0.000 
#    0.000    0.000    0.000    0.000    0.000    0.000 
#
# Total GULP energy -99186.638038 kJ/mol
# GULP energy per Si atom -12398.329755 kJ/mol
# Density = 2.041011 g / cm^3
# Si number density = 20.456671 Si / 1000 Ang^3
#
#
#
# Elastic Constant Matrix: (Units=GPa)
#
#
# Indices 1 2 3 4 5 6 
#
# 1 97.0822 12.1730 12.6103 -1.7514 0.4563 -3.4809
# 2 12.1730 62.6512 -7.9254 -3.8684 2.8871 -7.0830
# 3 12.6103 -7.9254 60.5669 -0.9296 6.5613 -4.7898
# 4 -1.7514 -3.8684 -0.9296 14.0415 -2.7058 1.3195
# 5 0.4563 2.8871 6.5613 -2.7058 29.0684 -1.0520
# 6 -3.4809 -7.0830 -4.7898 1.3195 -1.0520 28.3591
#
#
#
# Elastic Compliance Matrix: (Units=1/GPa)
#
#
# Indices 1 2 3 4 5 6 
#
# 1 0.010967 -0.002428 -0.002648 0.000638 0.000737 0.000290
# 2 -0.002428 0.017710 0.003449 0.004008 -0.001965 0.004449
# 3 -0.002648 0.003449 0.018254 0.000690 -0.004233 0.003430
# 4 0.000638 0.004008 0.000690 0.073838 0.006237 -0.002008
# 5 0.000737 -0.001965 -0.004233 0.006237 0.036119 -0.000066
# 6 0.000290 0.004449 0.003430 -0.002008 -0.000066 0.037079
#
#
# Mechanical properties :
#
#
# Convention : Reuss Voigt Hill
#
# Bulk Modulus (GPa) = 22.89472 28.22400 25.55936
# Shear Modulus (GPa) = 23.60942 27.85662 25.73302
#
# Velocity S-wave (km/s) = 3.40092 3.69418 3.55058
# Velocity P-wave (km/s) = 5.16118 5.65887 5.41575
#
# Compressibility (1/GPa) = 0.04367819
#
# Stress axis : x y z
#
# Youngs Moduli (GPa) = 91.17941 56.46408 54.78313
#
# Poissons Ratio (x) = 0.13708 0.14508
# Poissons Ratio (y) = 0.22135 -0.18896
# Poissons Ratio (z) = 0.24146 -0.19475
#
# Static dielectric constant tensor:
#      x y z
#    x 3.821410 0.064740 -0.112830 
#    y 0.064740 3.580760 -0.196340 
#    z -0.112830 -0.196340 3.625390 
# 
# 
# High freq. dielectric constant tensor:
#      x y z
#    x 1.813780 0.000070 -0.003880 
#    y 0.000070 1.786200 -0.009600 
#    z -0.003880 -0.009600 1.787910 
# 
# From -- ./inp_files/4126.got.cif
#   From: 2010.03.12/outbox.cif.g09.slc.cpg/sg1_3_cif.got.tgz:4126.got - 2010.03.29 11:57:58.
