data_PCOD8000472
_publ_section_title
;
Structure prediction by ZEFSAII (Michael W. Deem and Ramdas Pophale) SiO2 
 PCOD8000472
Probable space group: P -1
;
_chemical_formula_sum "Si O2"
_cell_formula_units_Z 14
_cell_length_a 17.166510
_cell_length_b 20.662251
_cell_length_c 11.685923
_cell_angle_alpha 26.293950
_cell_angle_beta 23.075816
_cell_angle_gamma 26.495677
_cell_volume 658.277916
_symmetry_space_group_name_H-M "P -1"
_symmetry_group_IT_number 2
_symmetry_cell_setting 'triclinic'
loop_
_space_group_symop_operation_xyz
x,y,z
-x,-y,-z
loop_
_atom_site_type_symbol
_atom_site_label
_atom_site_fract_x
_atom_site_fract_y
_atom_site_fract_z
Si Si1 0.335920 0.353045 0.102233
Si Si2 0.129452 0.408046 0.738730
Si Si3 0.573955 0.741935 0.112078
Si Si4 0.286701 0.564510 0.465572
Si Si5 0.117039 0.165251 0.327105
Si Si6 0.135627 0.317909 0.638896
Si Si7 0.126848 0.886899 0.610156
O O1 0.293833 0.245085 0.430794
O O2 0.116375 0.483422 0.138852
O O3 0.470477 0.242735 0.988810
O O4 0.473597 0.440424 0.837626
O O5 0.245497 0.511901 0.477388
O O6 0.259904 0.322934 0.581399
O O7 0.134090 0.264038 0.038286
O O8 0.740137 0.560335 0.208592
O O9 0.360006 0.775500 0.421495
O O10 0.687410 0.859509 0.809032
O O11 0.111885 0.742125 0.446779
O O12 0.145181 0.990415 0.528449
O O13 0.000000 0.500000 0.500000
O O14 0.987339 0.221732 0.013620
O O15 0.000000 0.000000 0.500000
#
# Coordination Sequence:
#
# PCOD8000472 Si02
#       7
#     2   2   2   2   2   2   2
#     4  11  21  37  64  94 129 165 215 260 321 372
#     4  10  19  39  62  95 130 163 218 267 308 379
#     4  11  21  39  65  98 129 171 219 266 313 391
#     4  11  21  36  69 100 125 170 223 265 311 382
#     4  11  21  39  65  98 131 161 222 275 314 373
#     4  10  23  41  64  94 133 169 212 268 320 388
#     4  12  24  41  67  95 130 172 216 265 327 381
#
# _framework density 21.267613000000001
#
# number of rings (size 3 to 8) (size 9 to 14) (size 15 to 20)
#    0.000    1.143    4.286    4.286    0.000    0.571 
#    0.000    5.000    0.000    0.000    0.000    0.000 
#    0.000    0.000    0.000    0.000    0.000    0.000 
#
# Total GULP energy -173521.113663 kJ/mol
# GULP energy per Si atom -12394.365262 kJ/mol
# Density = 2.121921 g / cm^3
# Si number density = 21.267613 Si / 1000 Ang^3
#
#
#
# Elastic Constant Matrix: (Units=GPa)
#
#
# Indices 1 2 3 4 5 6 
#
# 1 162.1690 43.5986 87.5344 -0.8013 -15.2045 39.1700
# 2 43.5986 72.4995 49.7897 -4.6814 3.8373 28.9341
# 3 87.5344 49.7897 129.6551 -10.2017 -9.0596 24.7772
# 4 -0.8013 -4.6814 -10.2017 28.7446 3.9398 -0.5619
# 5 -15.2045 3.8373 -9.0596 3.9398 39.0837 2.9751
# 6 39.1700 28.9341 24.7772 -0.5619 2.9751 39.6493
#
#
#
# Elastic Compliance Matrix: (Units=1/GPa)
#
#
# Indices 1 2 3 4 5 6 
#
# 1 0.011993 0.000162 -0.006513 -0.002665 0.004036 -0.008237
# 2 0.000162 0.023890 -0.006876 0.001617 -0.003046 -0.013045
# 3 -0.006513 -0.006876 0.014690 0.003820 0.000990 0.002252
# 4 -0.002665 0.001617 0.003820 0.036883 -0.004019 -0.000111
# 5 0.004036 -0.003046 0.000990 -0.004019 0.028438 -0.004573
# 6 -0.008237 -0.013045 0.002252 -0.000111 -0.004573 0.041813
#
#
# Mechanical properties :
#
#
# Convention : Reuss Voigt Hill
#
# Bulk Modulus (GPa) = 41.46075 80.68544 61.07310
# Shear Modulus (GPa) = 26.01461 33.72225 29.86843
#
# Velocity S-wave (km/s) = 3.50123 3.98630 3.75161
# Velocity P-wave (km/s) = 5.99015 7.69467 6.89528
#
# Compressibility (1/GPa) = 0.02411920
#
# Stress axis : x y z
#
# Youngs Moduli (GPa) = 83.38237 41.85838 68.07480
#
# Poissons Ratio (x) = -0.00679 0.44335
# Poissons Ratio (y) = -0.01353 0.46810
# Poissons Ratio (z) = 0.54304 0.28783
#
# Static dielectric constant tensor:
#      x y z
#    x 5.320880 0.618960 1.351270 
#    y 0.618960 3.928510 0.500760 
#    z 1.351270 0.500760 5.845430 
# 
# 
# High freq. dielectric constant tensor:
#      x y z
#    x 1.849470 0.023630 -0.009930 
#    y 0.023630 1.813240 0.007820 
#    z -0.009930 0.007820 1.818550 
# 
# From -- ./inp_files/209434.got.cif
#   From: 2010.06.25/outbox.cif.g09.slc.cpg/sg2_105_cif.got.tgz:209434.got - 2010.06.27 13:26:56.
