data_PCOD8000862
_publ_section_title
;
Structure prediction by ZEFSAII (Michael W. Deem and Ramdas Pophale) SiO2 
 PCOD8000862
Probable space group: P -1
;
_chemical_formula_sum "Si O2"
_cell_formula_units_Z 16
_cell_length_a 11.757594
_cell_length_b 15.577455
_cell_length_c 10.003096
_cell_angle_alpha 135.907723
_cell_angle_beta 37.629330
_cell_angle_gamma 120.950934
_cell_volume 771.899497
_symmetry_space_group_name_H-M "P -1"
_symmetry_group_IT_number 2
_symmetry_cell_setting 'triclinic'
loop_
_space_group_symop_operation_xyz
x,y,z
-x,-y,-z
loop_
_atom_site_type_symbol
_atom_site_label
_atom_site_fract_x
_atom_site_fract_y
_atom_site_fract_z
Si Si1 0.762437 0.034228 0.191437
Si Si2 0.115945 0.747147 0.823410
Si Si3 0.596374 0.337406 0.118086
Si Si4 0.122428 0.234043 0.177185
Si Si5 0.013819 0.375048 0.705380
Si Si6 0.872948 0.646436 0.138639
Si Si7 0.534588 0.393701 0.532843
Si Si8 0.513617 0.148067 0.769727
O O1 0.836247 0.113608 0.091411
O O2 0.700746 0.122958 0.476490
O O3 0.570556 0.980595 0.260303
O O4 0.915732 0.913180 0.949563
O O5 0.307759 0.654697 0.560021
O O6 0.007738 0.697285 0.739903
O O7 0.972127 0.752272 0.088445
O O8 0.574372 0.316588 0.272621
O O9 0.457863 0.459034 0.333199
O O10 0.804757 0.362177 0.925959
O O11 0.558379 0.213771 0.938728
O O12 0.077355 0.293841 0.428820
O O13 0.345669 0.235735 0.944674
O O14 0.147666 0.328325 0.654229
O O15 0.019545 0.521201 0.836099
O O16 0.668096 0.634265 0.255075
#
# Coordination Sequence:
#
# PCOD8000862 Si02
#       8
#     2   2   2   2   2   2   2   2
#     4   9  22  41  60  89 122 169 206 252 312 359
#     4  12  23  39  62  95 125 162 203 262 304 356
#     4  10  19  40  64  90 120 165 206 245 312 375
#     4  10  22  38  65  86 124 160 211 253 305 362
#     4  10  20  41  63  93 118 170 205 245 314 379
#     4  10  23  39  64  90 132 156 204 257 307 370
#     4  10  23  38  63  92 127 160 198 256 311 367
#     4   9  20  39  67  87 116 172 206 251 303 376
#
# _framework density 20.728088
#
# number of rings (size 3 to 8) (size 9 to 14) (size 15 to 20)
#    0.750    1.250    1.250    1.875    5.250    0.500 
#    0.000    3.125    2.750    0.000    0.000    0.000 
#    0.000    0.000    0.000    0.000    0.000    0.000 
#
# Total GULP energy -198326.853725 kJ/mol
# GULP energy per Si atom -12395.428358 kJ/mol
# Density = 2.068091 g / cm^3
# Si number density = 20.728088 Si / 1000 Ang^3
#
#
#
# Elastic Constant Matrix: (Units=GPa)
#
#
# Indices 1 2 3 4 5 6 
#
# 1 86.3838 27.1964 50.2758 2.8838 3.7844 -11.1097
# 2 27.1964 89.9970 30.4305 -13.8510 10.0077 -9.9153
# 3 50.2758 30.4305 114.7549 2.7619 11.8912 -11.3467
# 4 2.8838 -13.8510 2.7619 22.8130 6.9358 3.2631
# 5 3.7844 10.0077 11.8912 6.9358 38.5082 10.0575
# 6 -11.1097 -9.9153 -11.3467 3.2631 10.0575 21.7737
#
#
#
# Elastic Compliance Matrix: (Units=1/GPa)
#
#
# Indices 1 2 3 4 5 6 
#
# 1 0.016775 -0.003296 -0.006034 -0.004215 0.000731 0.004208
# 2 -0.003296 0.015917 -0.001724 0.011526 -0.006965 0.006158
# 3 -0.006034 -0.001724 0.012721 -0.001321 -0.003893 0.004762
# 4 -0.004215 0.011526 -0.001321 0.055230 -0.012041 -0.000306
# 5 0.000731 -0.006965 -0.003893 -0.012041 0.036239 -0.019762
# 6 0.004208 0.006158 0.004762 -0.000306 -0.019762 0.062534
#
#
# Mechanical properties :
#
#
# Convention : Reuss Voigt Hill
#
# Bulk Modulus (GPa) = 42.90568 56.32681 49.61625
# Shear Modulus (GPa) = 21.80624 28.83452 25.32038
#
# Velocity S-wave (km/s) = 3.24700 3.73377 3.49886
# Velocity P-wave (km/s) = 5.89928 6.76914 6.34912
#
# Compressibility (1/GPa) = 0.02330694
#
# Stress axis : x y z
#
# Youngs Moduli (GPa) = 59.61088 62.82521 78.61102
#
# Poissons Ratio (x) = 0.20705 0.47433
# Poissons Ratio (y) = 0.19646 0.13551
# Poissons Ratio (z) = 0.35968 0.10830
#
# Static dielectric constant tensor:
#      x y z
#    x 3.759300 0.166570 -0.198130 
#    y 0.166570 3.635110 0.017220 
#    z -0.198130 0.017220 3.812680 
# 
# 
# High freq. dielectric constant tensor:
#      x y z
#    x 1.814570 0.021440 -0.015850 
#    y 0.021440 1.789760 -0.014840 
#    z -0.015850 -0.014840 1.807560 
# 
# From -- ./inp_files/274213.got.cif
#   From: 2010.06.25/outbox.cif.g09.slc.cpg/sg2_138_cif.got.tgz:274213.got - 2010.06.27 13:26:56.
