data_PCOD8000214
_publ_section_title
;
Structure prediction by ZEFSAII (Michael W. Deem and Ramdas Pophale) SiO2 
 PCOD8000214
Probable space group: P 1
;
_chemical_formula_sum "Si O2"
_cell_formula_units_Z 8
_cell_length_a 7.893188
_cell_length_b 11.112152
_cell_length_c 5.227426
_cell_angle_alpha 102.051749
_cell_angle_beta 74.139033
_cell_angle_gamma 137.067691
_cell_volume 300.382885
_symmetry_space_group_name_H-M "P 1"
_symmetry_group_IT_number 1
_symmetry_cell_setting 'triclinic'
loop_
_space_group_symop_operation_xyz
x,y,z
loop_
_atom_site_type_symbol
_atom_site_label
_atom_site_fract_x
_atom_site_fract_y
_atom_site_fract_z
Si Si1 0.625000 0.686880 0.479820
Si Si2 0.447960 0.235728 0.956567
Si Si3 0.024437 0.085610 0.387076
Si Si4 0.626626 0.951566 0.120726
Si Si5 0.237797 0.584003 0.206410
Si Si6 0.919949 0.610716 0.083550
Si Si7 0.251913 0.366194 0.802750
Si Si8 0.403101 0.943762 0.733269
O O1 0.359886 0.610068 0.442077
O O2 0.763305 0.654894 0.230719
O O3 0.527879 0.561873 0.706730
O O4 0.825794 0.898239 0.540149
O O5 0.740436 0.416348 0.949460
O O6 0.291907 0.150404 0.254204
O O7 0.403699 0.089674 0.752376
O O8 0.306035 0.269277 0.879770
O O9 0.071919 0.237445 0.583565
O O10 0.910881 0.067606 0.146073
O O11 0.484350 0.752853 0.013186
O O12 0.614413 0.031150 0.910942
O O13 0.473978 0.922432 0.422761
O O14 0.040438 0.600660 0.279227
O O15 0.113360 0.399742 0.049762
O O16 0.135045 0.755907 0.855509
#
# Coordination Sequence:
#
# PCOD8000214 Si02
#       8
#     1   1   1   1   1   1   1   1
#     4  11  24  50  72 109 150 203 258 320 383 461
#     4  12  27  45  72 115 151 205 252 318 391 455
#     4  11  26  46  77 109 154 202 251 323 387 461
#     4  10  27  49  81 109 153 202 264 315 390 455
#     4  10  25  46  73 110 147 202 253 317 381 457
#     4  11  24  48  76 106 155 197 256 320 383 457
#     4  12  26  45  74 113 154 201 261 310 392 461
#     4  11  27  51  75 115 150 204 259 321 383 459
#
# _framework density 26.632674999999999
#
# number of rings (size 3 to 8) (size 9 to 14) (size 15 to 20)
#    0.000    1.000    3.750    0.000   12.250    5.000 
#    0.000    0.000    0.000    0.000    0.000    0.000 
#    0.000    0.000    0.000    0.000    0.000    0.000 
#
# Total GULP energy -99104.747197 kJ/mol
# GULP energy per Si atom -12388.093400 kJ/mol
# Density = 2.657206 g / cm^3
# Si number density = 26.632675 Si / 1000 Ang^3
#
#
#
# Elastic Constant Matrix: (Units=GPa)
#
#
# Indices 1 2 3 4 5 6 
#
# 1 101.8500 40.3204 0.1149 -1.1555 3.5973 -9.0456
# 2 40.3204 185.5904 33.6896 10.5712 -8.0044 -3.1043
# 3 0.1149 33.6896 45.9903 3.0780 0.2814 -3.9362
# 4 -1.1555 10.5712 3.0780 47.9773 4.6412 -3.3362
# 5 3.5973 -8.0044 0.2814 4.6412 31.5254 4.1859
# 6 -9.0456 -3.1043 -3.9362 -3.3362 4.1859 44.7741
#
#
#
# Elastic Compliance Matrix: (Units=1/GPa)
#
#
# Indices 1 2 3 4 5 6 
#
# 1 0.011356 -0.003033 0.002352 0.001227 -0.002616 0.002627
# 2 -0.003033 0.007188 -0.005245 -0.001636 0.002583 -0.000939
# 3 0.002352 -0.005245 0.025817 -0.000055 -0.002165 0.002580
# 4 0.001227 -0.001636 -0.000055 0.021776 -0.004043 0.002130
# 5 -0.002616 0.002583 -0.002165 -0.004043 0.033821 -0.004003
# 6 0.002627 -0.000939 0.002580 0.002130 -0.004003 0.023560
#
#
# Mechanical properties :
#
#
# Convention : Reuss Voigt Hill
#
# Bulk Modulus (GPa) = 30.75927 53.52007 42.13967
# Shear Modulus (GPa) = 34.19839 42.14243 38.17041
#
# Velocity S-wave (km/s) = 3.58729 3.98220 3.78989
# Velocity P-wave (km/s) = 5.36029 6.42520 5.91675
#
# Compressibility (1/GPa) = 0.03251053
#
# Stress axis : x y z
#
# Youngs Moduli (GPa) = 88.05944 139.12012 38.73354
#
# Poissons Ratio (x) = 0.42193 -0.09110
# Poissons Ratio (y) = 0.26707 0.20314
# Poissons Ratio (z) = -0.20712 0.72963
#
# Static dielectric constant tensor:
#      x y z
#    x 4.980610 -0.061410 0.010560 
#    y -0.061410 5.229090 0.110180 
#    z 0.010560 0.110180 4.791110 
# 
# 
# High freq. dielectric constant tensor:
#      x y z
#    x 2.066240 -0.004560 -0.002310 
#    y -0.004560 2.097640 0.002080 
#    z -0.002310 0.002080 2.051370 
# 
# From -- ./inp_files/1681.got.cif
#   From: 2010.03.12/outbox.cif.g09.slc.cpg/sg1_1_cif.got.tgz:1681.got - 2010.03.29 11:57:58.
