data_PCOD8000680
_publ_section_title
;
Structure prediction by ZEFSAII (Michael W. Deem and Ramdas Pophale) SiO2 
 PCOD8000680
Probable space group: P -1
;
_chemical_formula_sum "Si O2"
_cell_formula_units_Z 14
_cell_length_a 7.563550
_cell_length_b 9.588727
_cell_length_c 25.753793
_cell_angle_alpha 39.406481
_cell_angle_beta 31.239249
_cell_angle_gamma 49.047047
_cell_volume 614.845815
_symmetry_space_group_name_H-M "P -1"
_symmetry_group_IT_number 2
_symmetry_cell_setting 'triclinic'
loop_
_space_group_symop_operation_xyz
x,y,z
-x,-y,-z
loop_
_atom_site_type_symbol
_atom_site_label
_atom_site_fract_x
_atom_site_fract_y
_atom_site_fract_z
Si Si1 0.646811 0.424760 0.225710
Si Si2 0.323115 0.263987 0.606276
Si Si3 0.617682 0.026914 0.700749
Si Si4 0.602060 0.456902 0.114798
Si Si5 0.245544 0.032207 0.477042
Si Si6 0.612003 0.704990 0.946042
Si Si7 0.575638 0.178541 0.781037
O O1 0.454851 0.478867 0.203679
O O2 0.411932 0.274362 0.364750
O O3 0.713858 0.651612 0.175428
O O4 0.977184 0.287345 0.165691
O O5 0.500000 0.500000 0.500000
O O6 0.404443 0.124355 0.678096
O O7 0.919859 0.273723 0.694624
O O8 0.468144 0.151717 0.549485
O O9 0.585312 0.178882 0.716041
O O10 0.023653 0.008968 0.591727
O O11 0.483925 0.783044 0.818187
O O12 0.463678 0.650820 0.056520
O O13 0.000000 0.500000 0.000000
O O14 0.000000 0.000000 0.500000
O O15 0.469251 0.937860 0.897548
O O16 0.500000 0.500000 0.000000
#
# Coordination Sequence:
#
# PCOD8000680 Si02
#       7
#     2   2   2   2   2   2   2
#     4  11  23  43  69  98 134 176 225 284 338 403
#     4  11  23  41  66 101 140 177 225 276 339 411
#     4  11  23  43  68  98 137 183 222 278 343 400
#     4  10  20  41  69  89 132 181 220 276 340 391
#     4  10  19  39  67  93 135 177 216 273 342 398
#     4  11  23  45  67  96 135 176 229 282 332 397
#     4  12  25  44  69 103 138 174 231 283 333 405
#
# _framework density 22.769936999999999
#
# number of rings (size 3 to 8) (size 9 to 14) (size 15 to 20)
#    0.000    1.143    5.714    2.571    0.000    4.000 
#    5.143    0.000    0.000    0.000    0.000    0.000 
#    0.000    0.000    0.000    0.000    0.000    0.000 
#
# Total GULP energy -173507.385581 kJ/mol
# GULP energy per Si atom -12393.384684 kJ/mol
# Density = 2.271811 g / cm^3
# Si number density = 22.769937 Si / 1000 Ang^3
#
#
#
# Elastic Constant Matrix: (Units=GPa)
#
#
# Indices 1 2 3 4 5 6 
#
# 1 53.7549 5.9697 13.5524 0.2480 12.0659 17.1897
# 2 5.9697 118.7495 24.6668 -13.4154 16.2754 20.7166
# 3 13.5524 24.6668 113.4245 -25.9173 6.7995 6.8433
# 4 0.2480 -13.4154 -25.9173 37.7236 8.5823 0.6496
# 5 12.0659 16.2754 6.7995 8.5823 28.5955 -0.5740
# 6 17.1897 20.7166 6.8433 0.6496 -0.5740 33.2270
#
#
#
# Elastic Compliance Matrix: (Units=1/GPa)
#
#
# Indices 1 2 3 4 5 6 
#
# 1 0.027298 0.004454 -0.001301 0.004301 -0.015375 -0.016981
# 2 0.004454 0.012348 -0.000385 0.006790 -0.011059 -0.010247
# 3 -0.001301 -0.000385 0.011452 0.008824 -0.004638 -0.001698
# 4 0.004301 0.006790 0.008824 0.039638 -0.019863 -0.009394
# 5 -0.015375 -0.011059 -0.004638 -0.019863 0.055161 0.017146
# 6 -0.016981 -0.010247 -0.001698 -0.009394 0.017146 0.046100
#
#
# Mechanical properties :
#
#
# Convention : Reuss Voigt Hill
#
# Bulk Modulus (GPa) = 17.65751 41.58964 29.62358
# Shear Modulus (GPa) = 24.34999 36.02520 30.18760
#
# Velocity S-wave (km/s) = 3.27370 3.98193 3.64506
# Velocity P-wave (km/s) = 4.69692 6.28059 5.54558
#
# Compressibility (1/GPa) = 0.05663312
#
# Stress axis : x y z
#
# Youngs Moduli (GPa) = 36.63282 80.98746 87.31816
#
# Poissons Ratio (x) = -0.36068 0.11362
# Poissons Ratio (y) = -0.16315 0.03359
# Poissons Ratio (z) = 0.04767 0.03116
#
# Static dielectric constant tensor:
#      x y z
#    x 4.301410 -0.034480 0.241440 
#    y -0.034480 4.310260 0.308350 
#    z 0.241440 0.308350 4.825750 
# 
# 
# High freq. dielectric constant tensor:
#      x y z
#    x 1.887510 0.013210 0.001000 
#    y 0.013210 1.889040 -0.011330 
#    z 0.001000 -0.011330 1.910580 
# 
# From -- ./inp_files/202742.got.cif
#   From: 2010.06.25/outbox.cif.g09.slc.cpg/sg2_102_cif.got.tgz:202742.got - 2010.06.27 13:26:56.
