data_PCOD8000332
_publ_section_title
;
Structure prediction by ZEFSAII (Michael W. Deem and Ramdas Pophale) SiO2 
 PCOD8000332
Probable space group: P -1
;
_chemical_formula_sum "Si O2"
_cell_formula_units_Z 14
_cell_length_a 9.901311
_cell_length_b 22.491597
_cell_length_c 8.958091
_cell_angle_alpha 56.920391
_cell_angle_beta 121.735169
_cell_angle_gamma 153.069634
_cell_volume 752.984431
_symmetry_space_group_name_H-M "P -1"
_symmetry_group_IT_number 2
_symmetry_cell_setting 'triclinic'
loop_
_space_group_symop_operation_xyz
x,y,z
-x,-y,-z
loop_
_atom_site_type_symbol
_atom_site_label
_atom_site_fract_x
_atom_site_fract_y
_atom_site_fract_z
Si Si1 0.583124 0.566673 0.612768
Si Si2 0.842154 0.943980 0.717263
Si Si3 0.825752 0.527193 0.978023
Si Si4 0.457806 0.707848 0.026629
Si Si5 0.211535 0.209155 0.601710
Si Si6 0.936651 0.557024 0.343692
Si Si7 0.576284 0.823773 0.419832
O O1 0.500000 0.500000 0.500000
O O2 0.835774 0.724147 0.521894
O O3 0.288039 0.493702 0.599944
O O4 0.713649 0.561264 0.814138
O O5 0.728340 0.855384 0.911026
O O6 0.596875 0.847727 0.574749
O O7 0.897110 0.046859 0.662313
O O8 0.163007 0.035108 0.715327
O O9 0.598081 0.382393 0.981735
O O10 0.807648 0.516291 0.159649
O O11 0.159199 0.642033 0.951486
O O12 0.552260 0.720547 0.227989
O O13 0.364935 0.238274 0.496472
O O14 0.000000 0.500000 0.500000
O O15 0.245515 0.719353 0.315415
#
# Coordination Sequence:
#
# PCOD8000332 Si02
#       7
#     2   2   2   2   2   2   2
#     4  12  25  40  59  91 129 154 196 253 303 356
#     4   9  19  34  62  91 112 152 206 253 284 349
#     4  11  24  37  58  95 120 160 199 245 303 358
#     4  11  20  36  63  89 120 153 207 245 294 354
#     4  10  19  39  58  87 118 154 197 243 296 353
#     4  12  21  40  65  85 121 161 201 249 297 354
#     4   9  19  35  60  91 108 151 210 237 292 351
#
# _framework density 18.592682
#
# number of rings (size 3 to 8) (size 9 to 14) (size 15 to 20)
#    0.857    0.571    4.286    1.714    4.000    0.000 
#    0.000    0.714    0.000    1.714    0.000    0.000 
#    0.000    0.000    0.000    0.000    0.000    0.000 
#
# Total GULP energy -173511.425628 kJ/mol
# GULP energy per Si atom -12393.673259 kJ/mol
# Density = 1.855036 g / cm^3
# Si number density = 18.592682 Si / 1000 Ang^3
#
#
#
# Elastic Constant Matrix: (Units=GPa)
#
#
# Indices 1 2 3 4 5 6 
#
# 1 94.0686 44.1585 50.4185 -2.5115 6.6985 -13.3828
# 2 44.1585 107.9648 51.3344 -2.7110 1.7655 -22.9405
# 3 50.4185 51.3344 118.4222 -1.3840 9.2452 -13.2611
# 4 -2.5115 -2.7110 -1.3840 35.5705 -5.7965 -6.9870
# 5 6.6985 1.7655 9.2452 -5.7965 29.7559 1.0877
# 6 -13.3828 -22.9405 -13.2611 -6.9870 1.0877 31.9752
#
#
#
# Elastic Compliance Matrix: (Units=1/GPa)
#
#
# Indices 1 2 3 4 5 6 
#
# 1 0.015177 -0.003544 -0.004541 0.000767 -0.001725 0.002153
# 2 -0.003544 0.014202 -0.003877 0.002389 0.001348 0.007575
# 3 -0.004541 -0.003877 0.012307 -0.000495 -0.002683 0.000405
# 4 0.000767 0.002389 -0.000495 0.030882 0.005549 0.008389
# 5 -0.001725 0.001348 -0.002683 0.005549 0.035862 -0.000875
# 6 0.002153 0.007575 0.000405 0.008389 -0.000875 0.039641
#
#
# Mechanical properties :
#
#
# Convention : Reuss Voigt Hill
#
# Bulk Modulus (GPa) = 56.29357 68.03092 62.16225
# Shear Modulus (GPa) = 28.10313 31.09662 29.59988
#
# Velocity S-wave (km/s) = 3.89204 4.09408 3.99434
# Velocity P-wave (km/s) = 7.10917 7.68233 7.40130
#
# Compressibility (1/GPa) = 0.01776402
#
# Stress axis : x y z
#
# Youngs Moduli (GPa) = 65.88710 70.41035 81.25223
#
# Poissons Ratio (x) = 0.24951 0.36897
# Poissons Ratio (y) = 0.23348 0.31501
# Poissons Ratio (z) = 0.29919 0.27298
#
# Static dielectric constant tensor:
#      x y z
#    x 3.379940 -0.168770 -0.108530 
#    y -0.168770 3.693740 -0.003970 
#    z -0.108530 -0.003970 3.280510 
# 
# 
# High freq. dielectric constant tensor:
#      x y z
#    x 1.700400 -0.014010 -0.024980 
#    y -0.014010 1.736070 0.002790 
#    z -0.024980 0.002790 1.711900 
# 
# From -- ./inp_files/195057.got.cif
#   From: 2010.06.25/outbox.cif.g09.slc.cpg/sg2_98_cif.got.tgz:195057.got - 2010.06.27 13:26:56.
