data_PCOD8000572
_publ_section_title
;
Structure prediction by ZEFSAII (Michael W. Deem and Ramdas Pophale) SiO2 
 PCOD8000572
Probable space group: P -1
;
_chemical_formula_sum "Si O2"
_cell_formula_units_Z 14
_cell_length_a 12.011737
_cell_length_b 8.703831
_cell_length_c 20.979667
_cell_angle_alpha 131.720135
_cell_angle_beta 153.767363
_cell_angle_gamma 64.203209
_cell_volume 630.687321
_symmetry_space_group_name_H-M "P -1"
_symmetry_group_IT_number 2
_symmetry_cell_setting 'triclinic'
loop_
_space_group_symop_operation_xyz
x,y,z
-x,-y,-z
loop_
_atom_site_type_symbol
_atom_site_label
_atom_site_fract_x
_atom_site_fract_y
_atom_site_fract_z
Si Si1 0.421044 0.609744 0.295610
Si Si2 0.984744 0.177912 0.872315
Si Si3 0.523382 0.765883 0.946061
Si Si4 0.800408 0.456312 0.165487
Si Si5 0.674878 0.834260 0.240420
Si Si6 0.696007 0.643651 0.582276
Si Si7 0.821146 0.725190 0.417241
O O1 0.259105 0.762142 0.259197
O O2 0.522729 0.586304 0.411470
O O3 0.696388 0.743892 0.426944
O O4 0.193865 0.349980 0.081819
O O5 0.831506 0.914152 0.747659
O O6 0.167151 0.185421 0.906117
O O7 0.488148 0.677034 0.975389
O O8 0.264150 0.549498 0.712868
O O9 0.500000 0.000000 0.000000
O O10 0.864080 0.724683 0.274047
O O11 0.060847 0.432340 0.321603
O O12 0.669900 0.310971 0.992662
O O13 0.683998 0.818401 0.317410
O O14 0.831400 0.102576 0.365685
O O15 0.500000 0.500000 0.500000
#
# Coordination Sequence:
#
# PCOD8000572 Si02
#       7
#     2   2   2   2   2   2   2
#     4  10  24  45  70  95 131 177 224 270 325 398
#     4  10  23  46  69  98 128 180 219 272 330 391
#     4  10  19  39  64  93 131 161 221 265 325 388
#     4  10  22  39  63  93 134 170 209 277 328 381
#     4   9  20  40  63  97 127 173 216 267 328 393
#     4  12  27  43  64 103 132 174 221 274 334 390
#     4   9  20  39  65  98 126 174 222 265 325 393
#
# _framework density 22.198004000000001
#
# number of rings (size 3 to 8) (size 9 to 14) (size 15 to 20)
#    0.000    2.000    1.429    0.429    4.000    6.286 
#    7.714    4.286    0.000    0.000    0.000    0.000 
#    0.000    0.000    0.000    0.000    0.000    0.000 
#
# Total GULP energy -173467.602886 kJ/mol
# GULP energy per Si atom -12390.543063 kJ/mol
# Density = 2.214748 g / cm^3
# Si number density = 22.198004 Si / 1000 Ang^3
#
#
#
# Elastic Constant Matrix: (Units=GPa)
#
#
# Indices 1 2 3 4 5 6 
#
# 1 120.7774 41.4539 31.8605 3.2957 7.7039 15.1376
# 2 41.4539 102.5094 44.9220 7.5309 5.2547 -10.4751
# 3 31.8605 44.9220 86.5418 6.4131 -2.3370 10.8455
# 4 3.2957 7.5309 6.4131 45.3049 8.3099 0.1081
# 5 7.7039 5.2547 -2.3370 8.3099 28.1920 0.5312
# 6 15.1376 -10.4751 10.8455 0.1081 0.5312 38.2770
#
#
#
# Elastic Compliance Matrix: (Units=1/GPa)
#
#
# Indices 1 2 3 4 5 6 
#
# 1 0.010847 -0.004284 -0.001235 0.000538 -0.002331 -0.005081
# 2 -0.004284 0.015891 -0.007709 -0.000829 -0.002342 0.008262
# 3 -0.001235 -0.007709 0.017057 -0.001729 0.003820 -0.006502
# 4 0.000538 -0.000829 -0.001729 0.023724 -0.007130 0.000082
# 5 -0.002331 -0.002342 0.003820 -0.007130 0.038988 -0.001323
# 6 -0.005081 0.008262 -0.006502 0.000082 -0.001323 0.032256
#
#
# Mechanical properties :
#
#
# Convention : Reuss Voigt Hill
#
# Bulk Modulus (GPa) = 57.67444 60.70014 59.18729
# Shear Modulus (GPa) = 29.23982 35.12757 32.18370
#
# Velocity S-wave (km/s) = 3.63330 3.98234 3.81182
# Velocity P-wave (km/s) = 6.60601 6.96775 6.78929
#
# Compressibility (1/GPa) = 0.01733870
#
# Stress axis : x y z
#
# Youngs Moduli (GPa) = 92.19215 62.92840 58.62528
#
# Poissons Ratio (x) = 0.26960 0.07243
# Poissons Ratio (y) = 0.39498 0.45192
# Poissons Ratio (z) = 0.11390 0.48510
#
# Static dielectric constant tensor:
#      x y z
#    x 4.144160 -0.077010 0.048680 
#    y -0.077010 4.215110 0.293030 
#    z 0.048680 0.293030 4.269650 
# 
# 
# High freq. dielectric constant tensor:
#      x y z
#    x 1.865070 0.006890 -0.009600 
#    y 0.006890 1.866560 0.017780 
#    z -0.009600 0.017780 1.883880 
# 
# From -- ./inp_files/593783.got.cif
#   From: 2010.06.25/outbox.cif.g09.slc.cpg/sg2_297_cif.got.tgz:593783.got - 2010.06.27 13:26:56.
