data_PCOD8000423
_publ_section_title
;
Structure prediction by ZEFSAII (Michael W. Deem and Ramdas Pophale) SiO2 
 PCOD8000423
Probable space group: P -1
;
_chemical_formula_sum "Si O2"
_cell_formula_units_Z 16
_cell_length_a 13.908699
_cell_length_b 9.211134
_cell_length_c 11.551584
_cell_angle_alpha 127.794155
_cell_angle_beta 62.178656
_cell_angle_gamma 73.873223
_cell_volume 611.226241
_symmetry_space_group_name_H-M "P -1"
_symmetry_group_IT_number 2
_symmetry_cell_setting 'triclinic'
loop_
_space_group_symop_operation_xyz
x,y,z
-x,-y,-z
loop_
_atom_site_type_symbol
_atom_site_label
_atom_site_fract_x
_atom_site_fract_y
_atom_site_fract_z
Si Si1 0.838594 0.892640 0.442830
Si Si2 0.646837 0.138213 0.903399
Si Si3 0.504490 0.740682 0.313744
Si Si4 0.196063 0.075252 0.052180
Si Si5 0.241459 0.596864 0.333225
Si Si6 0.763041 0.660874 0.993664
Si Si7 0.879878 0.298939 0.291699
Si Si8 0.599881 0.540062 0.408395
O O1 0.771244 0.919142 0.618477
O O2 0.711324 0.962406 0.453806
O O3 0.813224 0.143990 0.573815
O O4 0.054303 0.551955 0.136544
O O5 0.758376 0.907309 0.838647
O O6 0.596647 0.422595 0.072792
O O7 0.460000 0.277123 0.068340
O O8 0.502074 0.778950 0.472477
O O9 0.611359 0.759061 0.198859
O O10 0.310165 0.039323 0.871049
O O11 0.979543 0.365138 0.276291
O O12 0.233838 0.804781 0.910515
O O13 0.171601 0.530302 0.254885
O O14 0.145038 0.733883 0.578768
O O15 0.679563 0.577865 0.476410
O O16 0.000000 0.000000 0.000000
O O17 0.500000 0.500000 0.500000
#
# Coordination Sequence:
#
# PCOD8000423 Si02
#       8
#     2   2   2   2   2   2   2   2
#     4  11  21  36  63  96 130 170 217 255 331 402
#     4  10  19  39  61  93 128 167 220 264 314 403
#     4  10  21  41  64  93 127 167 221 271 315 391
#     4  10  24  40  60 100 132 161 216 272 328 390
#     4  11  21  38  68  96 126 174 220 268 328 389
#     4  12  24  39  64 100 137 168 201 276 353 377
#     4  10  22  39  64  90 124 169 224 266 307 386
#     4  10  21  45  73  89 120 177 228 267 311 383
#
# _framework density 26.176886
#
# number of rings (size 3 to 8) (size 9 to 14) (size 15 to 20)
#    0.000    1.500    2.500    4.125    5.250    2.500 
#    4.500    1.250    0.000    0.000    0.000    0.000 
#    0.000    0.000    0.000    0.000    0.000    0.000 
#
# Total GULP energy -198256.266629 kJ/mol
# GULP energy per Si atom -12391.016664 kJ/mol
# Density = 2.611731 g / cm^3
# Si number density = 26.176886 Si / 1000 Ang^3
#
#
#
# Elastic Constant Matrix: (Units=GPa)
#
#
# Indices 1 2 3 4 5 6 
#
# 1 79.3700 73.7922 41.2386 12.0625 -42.1140 -12.0694
# 2 73.7922 171.0554 45.0422 -15.4929 -19.1990 -24.7087
# 3 41.2386 45.0422 67.3562 -9.1057 -22.1502 -4.4666
# 4 12.0625 -15.4929 -9.1057 49.3035 -6.7310 -2.4694
# 5 -42.1140 -19.1990 -22.1502 -6.7310 48.1417 4.7115
# 6 -12.0694 -24.7087 -4.4666 -2.4694 4.7115 42.5078
#
#
#
# Elastic Compliance Matrix: (Units=1/GPa)
#
#
# Indices 1 2 3 4 5 6 
#
# 1 0.060566 -0.020191 -0.014478 -0.019016 0.035721 -0.001125
# 2 -0.020191 0.014629 0.000420 0.008351 -0.010910 0.004509
# 3 -0.014478 0.000420 0.024471 0.008150 -0.000019 -0.000820
# 4 -0.019016 0.008351 0.008150 0.028398 -0.005840 0.002608
# 5 0.035721 -0.010910 -0.000019 -0.005840 0.047015 -0.001752
# 6 -0.001125 0.004509 -0.000820 0.002608 -0.001752 0.026086
#
#
# Mechanical properties :
#
#
# Convention : Reuss Voigt Hill
#
# Bulk Modulus (GPa) = 32.08488 70.88084 51.48286
# Shear Modulus (GPa) = 17.85368 38.50449 28.17908
#
# Velocity S-wave (km/s) = 2.61442 3.83944 3.28455
# Velocity P-wave (km/s) = 4.62571 6.84043 5.83903
#
# Compressibility (1/GPa) = 0.03116733
#
# Stress axis : x y z
#
# Youngs Moduli (GPa) = 16.51082 68.35662 40.86450
#
# Poissons Ratio (x) = 1.38021 0.59163
# Poissons Ratio (y) = 0.33337 -0.01714
# Poissons Ratio (z) = 0.23904 -0.02868
#
# Static dielectric constant tensor:
#      x y z
#    x 5.232820 -0.182450 -0.198720 
#    y -0.182450 5.803330 1.644490 
#    z -0.198720 1.644490 6.992510 
# 
# 
# High freq. dielectric constant tensor:
#      x y z
#    x 2.054410 -0.009670 -0.015940 
#    y -0.009670 2.056620 -0.002380 
#    z -0.015940 -0.002380 2.053750 
# 
# From -- ./inp_files/447824.got.cif
#   From: 2010.06.25/outbox.cif.g09.slc.cpg/sg2_224_cif.got.tgz:447824.got - 2010.06.27 13:26:56.
