data_PCOD8000849
_publ_section_title
;
Structure prediction by ZEFSAII (Michael W. Deem and Ramdas Pophale) SiO2 
 PCOD8000849
Probable space group: P -1
;
_chemical_formula_sum "Si O2"
_cell_formula_units_Z 16
_cell_length_a 17.815173
_cell_length_b 17.212816
_cell_length_c 9.206532
_cell_angle_alpha 29.196449
_cell_angle_beta 139.692889
_cell_angle_gamma 149.125315
_cell_volume 705.702652
_symmetry_space_group_name_H-M "P -1"
_symmetry_group_IT_number 2
_symmetry_cell_setting 'triclinic'
loop_
_space_group_symop_operation_xyz
x,y,z
-x,-y,-z
loop_
_atom_site_type_symbol
_atom_site_label
_atom_site_fract_x
_atom_site_fract_y
_atom_site_fract_z
Si Si1 0.104905 0.037607 0.891165
Si Si2 0.454388 0.079223 0.039351
Si Si3 0.513526 0.631938 0.632133
Si Si4 0.978016 0.381084 0.518416
Si Si5 0.226507 0.749211 0.820133
Si Si6 0.595387 0.684173 0.231680
Si Si7 0.269011 0.639525 0.366510
Si Si8 0.184967 0.081547 0.258040
O O1 0.228666 0.206129 0.685630
O O2 0.151788 0.126763 0.977583
O O3 0.944109 0.975967 0.724805
O O4 0.106860 0.848953 0.187026
O O5 0.607799 0.116369 0.213470
O O6 0.327924 0.848799 0.189284
O O7 0.452526 0.212564 0.696664
O O8 0.427204 0.146782 0.043108
O O9 0.460777 0.415354 0.847915
O O10 0.392441 0.606905 0.600498
O O11 0.660591 0.716062 0.797857
O O12 0.883075 0.399237 0.228103
O O13 0.000000 0.500000 0.500000
O O14 0.134013 0.461176 0.551025
O O15 0.186923 0.893652 0.570733
O O16 0.211709 0.624281 0.142753
O O17 0.500000 0.500000 0.500000
#
# Coordination Sequence:
#
# PCOD8000849 Si02
#       8
#     2   2   2   2   2   2   2   2
#     4  10  24  42  60  86 134 166 204 261 323 381
#     4  10  19  40  63  95 128 159 212 274 319 364
#     4  10  20  37  64  97 120 164 219 263 311 373
#     4  11  25  42  59  95 136 172 211 260 332 385
#     4  10  20  40  67  96 122 172 217 267 314 376
#     4  10  23  41  62  90 129 166 208 266 321 378
#     4  11  20  39  71  94 125 168 226 265 307 388
#     4  10  20  40  64  92 123 165 211 263 318 371
#
# _framework density 22.672438
#
# number of rings (size 3 to 8) (size 9 to 14) (size 15 to 20)
#    0.000    1.750    2.500    1.875    5.250    1.500 
#    4.500    4.375    0.000    0.000    0.000    0.000 
#    0.000    0.000    0.000    0.000    0.000    0.000 
#
# Total GULP energy -198352.150573 kJ/mol
# GULP energy per Si atom -12397.009411 kJ/mol
# Density = 2.262083 g / cm^3
# Si number density = 22.672438 Si / 1000 Ang^3
#
#
#
# Elastic Constant Matrix: (Units=GPa)
#
#
# Indices 1 2 3 4 5 6 
#
# 1 131.8695 70.0584 37.6102 1.6332 6.0714 8.9208
# 2 70.0584 147.1736 33.7729 13.3632 -3.3627 -3.4359
# 3 37.6102 33.7729 42.2965 3.0075 2.2474 8.0853
# 4 1.6332 13.3632 3.0075 30.2184 9.5681 6.1814
# 5 6.0714 -3.3627 2.2474 9.5681 22.2285 -8.7404
# 6 8.9208 -3.4359 8.0853 6.1814 -8.7404 56.2176
#
#
#
# Elastic Compliance Matrix: (Units=1/GPa)
#
#
# Indices 1 2 3 4 5 6 
#
# 1 0.012691 -0.005245 -0.006505 0.005124 -0.007008 -0.003052
# 2 -0.005245 0.011570 -0.005358 -0.008097 0.009020 0.004603
# 3 -0.006505 -0.005358 0.034887 0.002134 -0.005610 -0.005420
# 4 0.005124 -0.008097 0.002134 0.047154 -0.027491 -0.011074
# 5 -0.007008 0.009020 -0.005610 -0.027491 0.066917 0.015897
# 6 -0.003052 0.004603 -0.005420 -0.011074 0.015897 0.023022
#
#
# Mechanical properties :
#
#
# Convention : Reuss Voigt Hill
#
# Bulk Modulus (GPa) = 40.10891 67.13585 53.62238
# Shear Modulus (GPa) = 20.94090 33.72612 27.33351
#
# Velocity S-wave (km/s) = 3.04242 3.86105 3.47592
# Velocity P-wave (km/s) = 5.48368 7.03935 6.30964
#
# Compressibility (1/GPa) = 0.02493211
#
# Stress axis : x y z
#
# Youngs Moduli (GPa) = 78.79786 86.43367 28.66357
#
# Poissons Ratio (x) = 0.45334 0.18647
# Poissons Ratio (y) = 0.41329 0.15357
# Poissons Ratio (z) = 0.51261 0.46308
#
# Static dielectric constant tensor:
#      x y z
#    x 4.521000 -0.092600 0.143120 
#    y -0.092600 4.467300 -0.008940 
#    z 0.143120 -0.008940 3.662290 
# 
# 
# High freq. dielectric constant tensor:
#      x y z
#    x 1.902080 0.007130 0.011090 
#    y 0.007130 1.907830 -0.012860 
#    z 0.011090 -0.012860 1.863730 
# 
# From -- ./inp_files/336645.got.cif
#   From: 2010.06.25/outbox.cif.g09.slc.cpg/sg2_169_cif.got.tgz:336645.got - 2010.06.27 13:26:56.
