data_PCOD8000763
_publ_section_title
;
Structure prediction by ZEFSAII (Michael W. Deem and Ramdas Pophale) SiO2 
 PCOD8000763
Probable space group: P -1
;
_chemical_formula_sum "Si O2"
_cell_formula_units_Z 16
_cell_length_a 11.609558
_cell_length_b 18.640497
_cell_length_c 8.868384
_cell_angle_alpha 48.915061
_cell_angle_beta 49.123898
_cell_angle_gamma 29.588512
_cell_volume 696.299056
_symmetry_space_group_name_H-M "P -1"
_symmetry_group_IT_number 2
_symmetry_cell_setting 'triclinic'
loop_
_space_group_symop_operation_xyz
x,y,z
-x,-y,-z
loop_
_atom_site_type_symbol
_atom_site_label
_atom_site_fract_x
_atom_site_fract_y
_atom_site_fract_z
Si Si1 0.932461 0.611834 0.288435
Si Si2 0.206609 0.726002 0.781743
Si Si3 0.433199 0.801785 0.503156
Si Si4 0.394291 0.337747 0.126483
Si Si5 0.503427 0.080378 0.264043
Si Si6 0.577158 0.429027 0.698913
Si Si7 0.297128 0.072473 0.193980
Si Si8 0.997762 0.228745 0.814025
O O1 0.664645 0.713491 0.320702
O O2 0.000000 0.500000 0.500000
O O3 0.126063 0.513467 0.123445
O O4 0.913659 0.717706 0.255091
O O5 0.254926 0.811076 0.564049
O O6 0.428676 0.556487 0.775240
O O7 0.963862 0.793136 0.840024
O O8 0.191097 0.733222 0.967066
O O9 0.501217 0.718745 0.716750
O O10 0.304419 0.964326 0.411557
O O11 0.402571 0.227868 0.206177
O O12 0.537832 0.335173 0.889343
O O13 0.317492 0.141782 0.208641
O O14 0.500000 0.000000 0.500000
O O15 0.778202 0.950927 0.150224
O O16 0.500000 0.500000 0.500000
O O17 0.857839 0.315226 0.655167
O O18 0.500000 0.000000 0.000000
#
# Coordination Sequence:
#
# PCOD8000763 Si02
#       8
#     2   2   2   2   2   2   2   2
#     4  10  19  39  74 106 131 188 253 283 340 445
#     4  12  25  47  75 102 149 193 243 298 355 438
#     4  11  22  44  75 108 138 192 249 291 358 435
#     4  11  23  44  74 106 144 191 239 295 371 428
#     4  12  25  45  76 107 146 192 237 301 362 429
#     4  12  28  46  70 110 147 188 242 310 364 422
#     4  12  25  46  72 112 145 190 248 294 353 433
#     4  12  23  48  77  97 144 202 240 290 365 437
#
# _framework density 22.978631
#
# number of rings (size 3 to 8) (size 9 to 14) (size 15 to 20)
#    0.000    0.500    6.250    3.000    1.750    1.500 
#    2.250    1.875    0.000    0.000    0.000    0.000 
#    0.000    0.000    0.000    0.000    0.000    0.000 
#
# Total GULP energy -198272.955144 kJ/mol
# GULP energy per Si atom -12392.059696 kJ/mol
# Density = 2.292633 g / cm^3
# Si number density = 22.978631 Si / 1000 Ang^3
#
#
#
# Elastic Constant Matrix: (Units=GPa)
#
#
# Indices 1 2 3 4 5 6 
#
# 1 124.0747 36.1932 30.1335 4.4361 -10.4503 -8.1084
# 2 36.1932 80.9253 5.2134 -2.4664 1.2750 5.4481
# 3 30.1335 5.2134 98.3514 -9.2133 -4.4464 3.7692
# 4 4.4361 -2.4664 -9.2133 32.9076 1.2713 -1.0650
# 5 -10.4503 1.2750 -4.4464 1.2713 37.9492 -5.6591
# 6 -8.1084 5.4481 3.7692 -1.0650 -5.6591 40.5839
#
#
#
# Elastic Compliance Matrix: (Units=1/GPa)
#
#
# Indices 1 2 3 4 5 6 
#
# 1 0.010975 -0.005075 -0.003339 -0.002811 0.003431 0.003589
# 2 -0.005075 0.014891 0.000981 0.002056 -0.002356 -0.003378
# 3 -0.003339 0.000981 0.011554 0.003701 0.000013 -0.001773
# 4 -0.002811 0.002056 0.003701 0.032000 -0.001565 -0.000560
# 5 0.003431 -0.002356 0.000013 -0.001565 0.028157 0.004886
# 6 0.003589 -0.003378 -0.001773 -0.000560 0.004886 0.026642
#
#
# Mechanical properties :
#
#
# Convention : Reuss Voigt Hill
#
# Bulk Modulus (GPa) = 44.33840 49.60352 46.97096
# Shear Modulus (GPa) = 34.10579 37.74222 35.92401
#
# Velocity S-wave (km/s) = 3.85676 4.05716 3.95823
# Velocity P-wave (km/s) = 6.25861 6.60160 6.43239
#
# Compressibility (1/GPa) = 0.02255381
#
# Stress axis : x y z
#
# Youngs Moduli (GPa) = 91.11630 67.15594 86.55053
#
# Poissons Ratio (x) = 0.34080 0.28902
# Poissons Ratio (y) = 0.46239 -0.08492
# Poissons Ratio (z) = 0.30427 -0.06589
#
# Static dielectric constant tensor:
#      x y z
#    x 4.948440 -0.692130 0.192850 
#    y -0.692130 5.224610 -0.108960 
#    z 0.192850 -0.108960 4.578160 
# 
# 
# High freq. dielectric constant tensor:
#      x y z
#    x 1.900700 -0.009040 -0.020640 
#    y -0.009040 1.910390 -0.007460 
#    z -0.020640 -0.007460 1.912150 
# 
# From -- ./inp_files/278961.got.cif
#   From: 2010.06.25/outbox.cif.g09.slc.cpg/sg2_140_cif.got.tgz:278961.got - 2010.06.27 13:26:56.
