data_PCOD8000310
_publ_section_title
;
Structure prediction by ZEFSAII (Michael W. Deem and Ramdas Pophale) SiO2 
 PCOD8000310
Probable space group: P -1
;
_chemical_formula_sum "Si O2"
_cell_formula_units_Z 16
_cell_length_a 13.975045
_cell_length_b 9.235614
_cell_length_c 10.280162
_cell_angle_alpha 56.214947
_cell_angle_beta 114.896669
_cell_angle_gamma 126.277581
_cell_volume 880.602783
_symmetry_space_group_name_H-M "P -1"
_symmetry_group_IT_number 2
_symmetry_cell_setting 'triclinic'
loop_
_space_group_symop_operation_xyz
x,y,z
-x,-y,-z
loop_
_atom_site_type_symbol
_atom_site_label
_atom_site_fract_x
_atom_site_fract_y
_atom_site_fract_z
Si Si1 0.895680 0.425144 0.667510
Si Si2 0.874035 0.250431 0.474433
Si Si3 0.303817 0.062283 0.649814
Si Si4 0.358096 0.037509 0.969307
Si Si5 0.930887 0.939694 0.786860
Si Si6 0.225486 0.360955 0.356011
Si Si7 0.553015 0.264483 0.784285
Si Si8 0.848898 0.021079 0.959419
O O1 0.842677 0.345594 0.532993
O O2 0.819789 0.522187 0.635421
O O3 0.887575 0.250200 0.841256
O O4 0.036031 0.582948 0.656327
O O5 0.749404 0.112347 0.399598
O O6 0.940711 0.126804 0.620014
O O7 0.240331 0.199450 0.530651
O O8 0.448530 0.190796 0.650494
O O9 0.276620 0.966300 0.826767
O O10 0.487333 0.223096 0.910282
O O11 0.375386 0.859494 0.126491
O O12 0.287441 0.094684 0.007780
O O13 0.867767 0.742032 0.763136
O O14 0.852876 0.907350 0.889199
O O15 0.064079 0.985794 0.876589
O O16 0.354590 0.506461 0.294762
#
# Coordination Sequence:
#
# PCOD8000310 Si02
#       8
#     2   2   2   2   2   2   2   2
#     4  10  21  33  56  75 114 132 175 220 258 318
#     4   9  20  38  50  81 105 141 172 216 265 307
#     4   9  20  34  58  73 107 138 174 217 257 310
#     4   9  19  34  59  73 105 143 172 216 257 310
#     4   9  22  34  57  77 112 133 175 217 260 321
#     4  11  20  34  55  83 102 138 175 221 263 303
#     4   9  19  36  54  79 104 139 180 219 248 312
#     4  10  19  39  52  80 106 145 169 212 269 308
#
# _framework density 18.169374000000001
#
# number of rings (size 3 to 8) (size 9 to 14) (size 15 to 20)
#    0.750    1.750    1.250    0.375    3.500    2.500 
#    0.000    1.250    2.750    0.000    0.000    0.000 
#    0.000    0.000    0.000    0.000    0.000    0.000 
#
# Total GULP energy -198309.531207 kJ/mol
# GULP energy per Si atom -12394.345700 kJ/mol
# Density = 1.812802 g / cm^3
# Si number density = 18.169374 Si / 1000 Ang^3
#
#
#
# Elastic Constant Matrix: (Units=GPa)
#
#
# Indices 1 2 3 4 5 6 
#
# 1 103.6574 26.5589 23.1282 2.4845 -9.0754 -10.9935
# 2 26.5589 78.6859 16.6695 4.6952 -5.5990 -7.8435
# 3 23.1282 16.6695 59.1367 4.6623 9.2651 -7.7114
# 4 2.4845 4.6952 4.6623 12.4545 2.8930 -3.9719
# 5 -9.0754 -5.5990 9.2651 2.8930 27.0255 -3.9481
# 6 -10.9935 -7.8435 -7.7114 -3.9719 -3.9481 22.2133
#
#
#
# Elastic Compliance Matrix: (Units=1/GPa)
#
#
# Indices 1 2 3 4 5 6 
#
# 1 0.012243 -0.002315 -0.004446 0.000266 0.005826 0.004781
# 2 -0.002315 0.015044 -0.003300 -0.004003 0.004349 0.003078
# 3 -0.004446 -0.003300 0.021481 -0.003224 -0.008914 0.001931
# 4 0.000266 -0.004003 -0.003224 0.088526 -0.007340 0.012123
# 5 0.005826 0.004349 -0.008914 -0.007340 0.044868 0.007987
# 6 0.004781 0.003078 0.001931 0.012123 0.007987 0.052729
#
#
# Mechanical properties :
#
#
# Convention : Reuss Voigt Hill
#
# Bulk Modulus (GPa) = 34.90719 41.57701 38.24210
# Shear Modulus (GPa) = 18.89914 24.01356 21.45635
#
# Velocity S-wave (km/s) = 3.22866 3.63940 3.44016
# Velocity P-wave (km/s) = 5.75785 6.37126 6.07230
#
# Compressibility (1/GPa) = 0.02864739
#
# Stress axis : x y z
#
# Youngs Moduli (GPa) = 81.67838 66.47000 46.55192
#
# Poissons Ratio (x) = 0.15390 0.20696
# Poissons Ratio (y) = 0.18911 0.15360
# Poissons Ratio (z) = 0.36313 0.21932
#
# Static dielectric constant tensor:
#      x y z
#    x 3.245170 0.014540 0.020390 
#    y 0.014540 3.243580 -0.054120 
#    z 0.020390 -0.054120 3.373150 
# 
# 
# High freq. dielectric constant tensor:
#      x y z
#    x 1.699650 0.000640 0.003740 
#    y 0.000640 1.685060 -0.009840 
#    z 0.003740 -0.009840 1.705320 
# 
# From -- ./inp_files/197824.got.cif
#   From: 2010.06.25/outbox.cif.g09.slc.cpg/sg2_99_cif.got.tgz:197824.got - 2010.06.27 13:26:56.
