data_PCOD8000929
_publ_section_title
;
Structure prediction by ZEFSAII (Michael W. Deem and Ramdas Pophale) SiO2 
 PCOD8000929
Probable space group: P -1
;
_chemical_formula_sum "Si O2"
_cell_formula_units_Z 16
_cell_length_a 9.502717
_cell_length_b 18.736174
_cell_length_c 12.917933
_cell_angle_alpha 149.664683
_cell_angle_beta 46.446982
_cell_angle_gamma 120.020485
_cell_volume 813.404888
_symmetry_space_group_name_H-M "P -1"
_symmetry_group_IT_number 2
_symmetry_cell_setting 'triclinic'
loop_
_space_group_symop_operation_xyz
x,y,z
-x,-y,-z
loop_
_atom_site_type_symbol
_atom_site_label
_atom_site_fract_x
_atom_site_fract_y
_atom_site_fract_z
Si Si1 0.179075 0.825915 0.423915
Si Si2 0.692698 0.811698 0.349257
Si Si3 0.479929 0.579086 0.718393
Si Si4 0.163010 0.592799 0.537058
Si Si5 0.637250 0.351018 0.700897
Si Si6 0.502996 0.136663 0.846966
Si Si7 0.854966 0.856811 0.105783
Si Si8 0.039788 0.642373 0.107551
O O1 0.211588 0.727350 0.385508
O O2 0.389788 0.808081 0.235620
O O3 0.024629 0.769076 0.359089
O O4 0.085216 0.994237 0.711549
O O5 0.501087 0.751481 0.395304
O O6 0.741338 0.803457 0.192182
O O7 0.882282 0.712179 0.186867
O O8 0.636648 0.981115 0.626772
O O9 0.500000 0.500000 0.500000
O O10 0.637286 0.486025 0.602575
O O11 0.518843 0.742303 0.899069
O O12 0.257457 0.590109 0.882486
O O13 0.222302 0.620391 0.425622
O O14 0.000000 0.500000 0.500000
O O15 0.065512 0.743728 0.833621
O O16 0.500000 0.500000 0.000000
O O17 0.288258 0.122153 0.896373
O O18 0.000000 0.500000 0.000000
#
# Coordination Sequence:
#
# PCOD8000929 Si02
#       8
#     2   2   2   2   2   2   2   2
#     4  10  21  38  64  92 123 161 204 260 306 362
#     4  11  21  39  69  90 120 170 203 252 318 362
#     4  11  24  42  61  89 126 163 203 257 312 366
#     4  12  25  39  62  91 125 166 209 255 309 366
#     4  12  22  38  63  91 121 163 211 253 305 366
#     4  10  19  40  66  93 126 153 211 262 301 371
#     4  11  20  40  65  95 125 156 209 262 308 365
#     4  11  24  42  60  92 129 161 211 255 302 370
#
# _framework density 19.670400999999998
#
# number of rings (size 3 to 8) (size 9 to 14) (size 15 to 20)
#    0.000    1.000    3.750    5.250    0.000    7.000 
#    0.000    0.000    0.000    3.000    0.000    0.000 
#    0.000    0.000    0.000    0.000    0.000    0.000 
#
# Total GULP energy -198433.941349 kJ/mol
# GULP energy per Si atom -12402.121334 kJ/mol
# Density = 1.962563 g / cm^3
# Si number density = 19.670401 Si / 1000 Ang^3
#
#
#
# Elastic Constant Matrix: (Units=GPa)
#
#
# Indices 1 2 3 4 5 6 
#
# 1 95.0970 35.8551 32.6676 4.3783 2.5052 -10.4142
# 2 35.8551 114.5615 49.3708 6.3881 8.2814 -3.5539
# 3 32.6676 49.3708 150.2641 15.0545 14.4279 -0.3970
# 4 4.3783 6.3881 15.0545 27.9255 1.3902 -2.9200
# 5 2.5052 8.2814 14.4279 1.3902 40.8783 8.5938
# 6 -10.4142 -3.5539 -0.3970 -2.9200 8.5938 26.2704
#
#
#
# Elastic Compliance Matrix: (Units=1/GPa)
#
#
# Indices 1 2 3 4 5 6 
#
# 1 0.012807 -0.003085 -0.001719 0.000159 -0.000576 0.004840
# 2 -0.003085 0.011024 -0.002797 -0.000414 -0.001161 0.000560
# 3 -0.001719 -0.002797 0.008510 -0.003644 -0.002069 -0.000659
# 4 0.000159 -0.000414 -0.003644 0.038360 -0.000892 0.004507
# 5 -0.000576 -0.001161 -0.002069 -0.000892 0.027493 -0.009510
# 6 0.004840 0.000560 -0.000659 0.004507 -0.009510 0.043662
#
#
# Mechanical properties :
#
#
# Convention : Reuss Voigt Hill
#
# Bulk Modulus (GPa) = 58.34318 66.18996 62.26657
# Shear Modulus (GPa) = 30.71837 35.15012 32.93424
#
# Velocity S-wave (km/s) = 3.95606 4.23182 4.09627
# Velocity P-wave (km/s) = 7.11281 7.58949 7.35501
#
# Compressibility (1/GPa) = 0.01713996
#
# Stress axis : x y z
#
# Youngs Moduli (GPa) = 78.08322 90.70994 117.51480
#
# Poissons Ratio (x) = 0.27981 0.20195
# Poissons Ratio (y) = 0.24086 0.32870
# Poissons Ratio (z) = 0.13419 0.25372
#
# Static dielectric constant tensor:
#      x y z
#    x 3.663550 0.122570 0.111340 
#    y 0.122570 3.492120 0.156500 
#    z 0.111340 0.156500 3.825330 
# 
# 
# High freq. dielectric constant tensor:
#      x y z
#    x 1.768820 0.001740 0.000460 
#    y 0.001740 1.757560 0.019440 
#    z 0.000460 0.019440 1.777810 
# 
# From -- ./inp_files/180476.got.cif
#   From: 2010.06.25/outbox.cif.g09.slc.cpg/sg2_91_cif.got.tgz:180476.got - 2010.06.27 13:26:56.
