data_PCOD8000453
_publ_section_title
;
Structure prediction by ZEFSAII (Michael W. Deem and Ramdas Pophale) SiO2 
 PCOD8000453
Probable space group: P -1
;
_chemical_formula_sum "Si O2"
_cell_formula_units_Z 14
_cell_length_a 8.191074
_cell_length_b 22.058524
_cell_length_c 8.041836
_cell_angle_alpha 143.049440
_cell_angle_beta 125.747766
_cell_angle_gamma 51.814273
_cell_volume 673.922882
_symmetry_space_group_name_H-M "P -1"
_symmetry_group_IT_number 2
_symmetry_cell_setting 'triclinic'
loop_
_space_group_symop_operation_xyz
x,y,z
-x,-y,-z
loop_
_atom_site_type_symbol
_atom_site_label
_atom_site_fract_x
_atom_site_fract_y
_atom_site_fract_z
Si Si1 0.091389 0.684455 0.985439
Si Si2 0.475709 0.426978 0.182896
Si Si3 0.652225 0.411940 0.784743
Si Si4 0.644167 0.881056 0.798080
Si Si5 0.057596 0.883221 0.208647
Si Si6 0.628998 0.735420 0.772312
Si Si7 0.471251 0.205915 0.797565
O O1 0.294069 0.612626 0.851696
O O2 0.875525 0.661768 0.750746
O O3 0.136140 0.659879 0.154663
O O4 0.063886 0.808006 0.206200
O O5 0.500000 0.500000 0.500000
O O6 0.292351 0.511725 0.151839
O O7 0.398222 0.330127 0.980642
O O8 0.525110 0.336196 0.467429
O O9 0.500000 0.500000 0.000000
O O10 0.572972 0.807937 0.731465
O O11 0.625705 0.848995 0.525201
O O12 0.887523 0.872062 0.949107
O O13 0.500000 0.000000 0.000000
O O14 0.277964 0.848882 0.168425
O O15 0.000000 0.000000 0.500000
O O16 0.606226 0.804888 0.083085
#
# Coordination Sequence:
#
# PCOD8000453 Si02
#       7
#     2   2   2   2   2   2   2
#     4   9  22  38  61  88 124 159 209 250 312 368
#     4  10  19  39  62  89 125 166 199 256 311 360
#     4  10  20  37  63  86 123 164 205 250 311 359
#     4  11  23  41  65  91 126 164 208 256 317 368
#     4  10  20  40  65  87 123 167 200 259 320 359
#     4  11  23  41  63  92 126 161 209 264 300 371
#     4  11  23  42  65  92 127 162 212 254 310 376
#
# _framework density 20.773893000000001
#
# number of rings (size 3 to 8) (size 9 to 14) (size 15 to 20)
#    0.000    1.714    2.857    2.571    0.000    4.000 
#    2.571    2.857    0.000    0.000    0.000    0.000 
#    0.000    0.000    0.000    0.000    0.000    0.000 
#
# Total GULP energy -173444.556882 kJ/mol
# GULP energy per Si atom -12388.896920 kJ/mol
# Density = 2.072661 g / cm^3
# Si number density = 20.773893 Si / 1000 Ang^3
#
#
#
# Elastic Constant Matrix: (Units=GPa)
#
#
# Indices 1 2 3 4 5 6 
#
# 1 41.9168 15.9558 6.5062 -6.0861 -2.9804 0.1396
# 2 15.9558 130.4458 34.2369 -2.1898 -2.1430 -4.9972
# 3 6.5062 34.2369 117.8564 -3.7586 -12.5179 -0.3001
# 4 -6.0861 -2.1898 -3.7586 35.7191 3.4584 1.0054
# 5 -2.9804 -2.1430 -12.5179 3.4584 28.7782 -12.9838
# 6 0.1396 -4.9972 -0.3001 1.0054 -12.9838 25.9016
#
#
#
# Elastic Compliance Matrix: (Units=1/GPa)
#
#
# Indices 1 2 3 4 5 6 
#
# 1 0.025744 -0.002989 -0.000223 0.003993 0.001903 0.000081
# 2 -0.002989 0.008715 -0.002357 -0.000286 0.000139 0.001751
# 3 -0.000223 -0.002357 0.009723 0.000301 0.004957 0.002132
# 4 0.003993 -0.000286 0.000301 0.029231 -0.004568 -0.003498
# 5 0.001903 0.000139 0.004957 -0.004568 0.048814 0.024720
# 6 0.000081 0.001751 0.002132 -0.003498 0.024720 0.051497
#
#
# Mechanical properties :
#
#
# Convention : Reuss Voigt Hill
#
# Bulk Modulus (GPa) = 30.26214 44.84630 37.55422
# Shear Modulus (GPa) = 25.52627 33.64779 29.58703
#
# Velocity S-wave (km/s) = 3.50918 4.02893 3.77801
# Velocity P-wave (km/s) = 5.56939 6.57858 6.09491
#
# Compressibility (1/GPa) = 0.03304459
#
# Stress axis : x y z
#
# Youngs Moduli (GPa) = 38.84399 114.74925 102.84605
#
# Poissons Ratio (x) = 0.34298 0.02296
# Poissons Ratio (y) = 0.11610 0.24236
# Poissons Ratio (z) = 0.00867 0.27041
#
# Static dielectric constant tensor:
#      x y z
#    x 3.697150 0.170780 -0.064660 
#    y 0.170780 4.467170 -0.129540 
#    z -0.064660 -0.129540 3.725000 
# 
# 
# High freq. dielectric constant tensor:
#      x y z
#    x 1.790200 0.004900 -0.003410 
#    y 0.004900 1.836440 -0.002380 
#    z -0.003410 -0.002380 1.811610 
# 
# From -- ./inp_files/178830.got.cif
#   From: 2010.06.25/outbox.cif.g09.slc.cpg/sg2_90_cif.got.tgz:178830.got - 2010.06.27 13:26:56.
