data_PCOD8000117
_publ_section_title
;
Structure prediction by ZEFSAII (Michael W. Deem and Ramdas Pophale) SiO2 
 PCOD8000117
Probable space group: P 1
;
_chemical_formula_sum "Si O2"
_cell_formula_units_Z 8
_cell_length_a 13.906156
_cell_length_b 10.643408
_cell_length_c 14.107079
_cell_angle_alpha 150.923410
_cell_angle_beta 159.214890
_cell_angle_gamma 32.504510
_cell_volume 355.885563
_symmetry_space_group_name_H-M "P 1"
_symmetry_group_IT_number 1
_symmetry_cell_setting 'triclinic'
loop_
_space_group_symop_operation_xyz
x,y,z
loop_
_atom_site_type_symbol
_atom_site_label
_atom_site_fract_x
_atom_site_fract_y
_atom_site_fract_z
Si Si1 0.537350 0.235350 0.259860
Si Si2 0.345595 0.587606 0.143717
Si Si3 0.476217 0.132251 0.590799
Si Si4 0.099949 0.902124 0.591273
Si Si5 0.899516 0.848480 0.042931
Si Si6 0.146753 0.552338 0.239303
Si Si7 0.337126 0.197498 0.710441
Si Si8 0.012640 0.352888 0.172169
O O1 0.510985 0.372516 0.223721
O O2 0.433228 0.443296 0.381980
O O3 0.852069 0.138460 0.509314
O O4 0.356629 0.999628 0.943027
O O5 0.049997 0.712122 0.997744
O O6 0.526652 0.819621 0.448887
O O7 0.308959 0.447211 0.917498
O O8 0.376869 0.288374 0.698596
O O9 0.258549 0.178215 0.336483
O O10 0.743828 0.237479 0.872661
O O11 0.197654 0.809675 0.514560
O O12 0.005070 0.657027 0.398749
O O13 0.913578 0.632019 0.996866
O O14 0.056520 0.078574 0.377720
O O15 0.587667 0.966127 0.811998
O O16 0.051067 0.340747 0.084812
#
# Coordination Sequence:
#
# PCOD8000117 Si02
#       8
#     1   1   1   1   1   1   1   1
#     4  11  22  41  67 101 121 156 213 263 330 365
#     4  10  24  40  69  94 127 163 207 269 312 375
#     4  11  23  45  59  94 128 172 215 248 301 383
#     4  10  23  40  64  93 130 159 207 260 309 376
#     4  10  22  40  65  98 128 153 209 266 321 374
#     4   9  23  40  66  95 127 166 200 265 322 364
#     4  11  23  40  67  91 125 170 206 261 318 359
#     4  10  24  44  65  84 136 171 205 258 303 372
#
# _framework density 22.479137000000001
#
# number of rings (size 3 to 8) (size 9 to 14) (size 15 to 20)
#    0.750    1.000    0.000    3.750    0.000   13.000 
#    6.750    0.000    0.000    0.000    0.000    0.000 
#    0.000    0.000    0.000    0.000    0.000    0.000 
#
# Total GULP energy -99166.651948 kJ/mol
# GULP energy per Si atom -12395.831493 kJ/mol
# Density = 2.242797 g / cm^3
# Si number density = 22.479137 Si / 1000 Ang^3
#
#
#
# Elastic Constant Matrix: (Units=GPa)
#
#
# Indices 1 2 3 4 5 6 
#
# 1 128.5101 24.3761 33.6269 7.7340 -16.4545 6.6537
# 2 24.3761 73.4600 23.8749 10.7503 -0.7319 0.9160
# 3 33.6269 23.8749 97.2568 13.9397 15.2379 11.8014
# 4 7.7340 10.7503 13.9397 32.4801 -1.3303 -4.9870
# 5 -16.4545 -0.7319 15.2379 -1.3303 19.5634 11.0132
# 6 6.6537 0.9160 11.8014 -4.9870 11.0132 45.3454
#
#
#
# Elastic Compliance Matrix: (Units=1/GPa)
#
#
# Indices 1 2 3 4 5 6 
#
# 1 0.012100 -0.001912 -0.005929 0.000335 0.017185 -0.004331
# 2 -0.001912 0.015687 -0.002848 -0.003462 0.000903 0.000105
# 3 -0.005929 -0.002848 0.016695 -0.005497 -0.018774 0.000538
# 4 0.000335 -0.003462 -0.005497 0.035044 0.004437 0.004228
# 5 0.017185 0.000903 -0.018774 0.004437 0.091434 -0.019373
# 6 -0.004331 0.000105 0.000538 0.004228 -0.019373 0.027716
#
#
# Mechanical properties :
#
#
# Convention : Reuss Voigt Hill
#
# Bulk Modulus (GPa) = 43.28191 51.44253 47.36222
# Shear Modulus (GPa) = 21.95325 33.96771 27.96048
#
# Velocity S-wave (km/s) = 3.12846 3.89147 3.53064
# Velocity P-wave (km/s) = 5.68733 6.56701 6.14294
#
# Compressibility (1/GPa) = 0.02310434
#
# Stress axis : x y z
#
# Youngs Moduli (GPa) = 82.64459 63.74664 59.89692
#
# Poissons Ratio (x) = 0.12188 0.35515
# Poissons Ratio (y) = 0.15801 0.17058
# Poissons Ratio (z) = 0.49002 0.18154
#
# Static dielectric constant tensor:
#      x y z
#    x 4.175630 0.102960 -0.093870 
#    y 0.102960 3.941900 0.144180 
#    z -0.093870 0.144180 3.795440 
# 
# 
# High freq. dielectric constant tensor:
#      x y z
#    x 1.885570 0.003870 -0.001760 
#    y 0.003870 1.878420 0.003900 
#    z -0.001760 0.003900 1.888440 
# 
# From -- ./inp_files/7320.got.cif
#   From: 2010.03.12/outbox.cif.g09.slc.cpg/sg1_4_cif.got.tgz:7320.got - 2010.03.29 11:57:58.
