data_PCOD8000469
_publ_section_title
;
Structure prediction by ZEFSAII (Michael W. Deem and Ramdas Pophale) SiO2 
 PCOD8000469
Probable space group: P -1
;
_chemical_formula_sum "Si O2"
_cell_formula_units_Z 16
_cell_length_a 22.604951
_cell_length_b 9.046695
_cell_length_c 9.249435
_cell_angle_alpha 112.726034
_cell_angle_beta 129.050454
_cell_angle_gamma 33.397537
_cell_volume 764.202520
_symmetry_space_group_name_H-M "P -1"
_symmetry_group_IT_number 2
_symmetry_cell_setting 'triclinic'
loop_
_space_group_symop_operation_xyz
x,y,z
-x,-y,-z
loop_
_atom_site_type_symbol
_atom_site_label
_atom_site_fract_x
_atom_site_fract_y
_atom_site_fract_z
Si Si1 0.929918 0.284570 0.954374
Si Si2 0.400506 0.903350 0.601885
Si Si3 0.654337 0.061906 0.154695
Si Si4 0.558392 0.563740 0.261389
Si Si5 0.935257 0.567733 0.274837
Si Si6 0.364414 0.723045 0.244747
Si Si7 0.354335 0.262410 0.444907
Si Si8 0.941174 0.750618 0.091030
O O1 0.766707 0.562366 0.789010
O O2 0.986518 0.220756 0.855045
O O3 0.979843 0.330325 0.165788
O O4 0.000000 0.000000 0.000000
O O5 0.338875 0.037081 0.716817
O O6 0.340992 0.847024 0.411672
O O7 0.561158 0.579864 0.740120
O O8 0.357497 0.134749 0.535544
O O9 0.656435 0.248409 0.254559
O O10 0.778814 0.802980 0.147869
O O11 0.520430 0.242136 0.930527
O O12 0.450900 0.697109 0.269681
O O13 0.659723 0.529661 0.448020
O O14 0.972128 0.661229 0.272549
O O15 0.000000 0.500000 0.500000
O O16 0.219031 0.946336 0.040567
O O17 0.500000 0.000000 0.500000
O O18 0.000000 0.500000 0.000000
#
# Coordination Sequence:
#
# PCOD8000469 Si02
#       8
#     2   2   2   2   2   2   2   2
#     4  11  28  46  67 102 135 175 226 274 330 401
#     4  10  22  34  64  97 125 166 215 275 322 397
#     4  10  22  40  63  98 129 160 225 267 335 379
#     4  10  21  40  67  92 126 172 214 278 319 392
#     4  11  24  42  71  94 132 177 221 273 330 396
#     4  10  19  39  62  94 122 168 230 264 315 387
#     4  12  24  41  68  91 134 172 220 271 334 378
#     4  10  22  41  67  89 133 176 227 266 324 396
#
# _framework density 20.936859999999999
#
# number of rings (size 3 to 8) (size 9 to 14) (size 15 to 20)
#    0.000    1.500    2.500    2.250    8.750    0.500 
#    0.000    1.875    0.000    0.000    0.000    0.000 
#    0.000    0.000    0.000    0.000    0.000    0.000 
#
# Total GULP energy -198240.118293 kJ/mol
# GULP energy per Si atom -12390.007393 kJ/mol
# Density = 2.088921 g / cm^3
# Si number density = 20.936860 Si / 1000 Ang^3
#
#
#
# Elastic Constant Matrix: (Units=GPa)
#
#
# Indices 1 2 3 4 5 6 
#
# 1 99.8120 36.1113 45.4915 -10.6362 -15.2521 1.9410
# 2 36.1113 74.6522 31.2663 -13.9910 -1.6749 8.2250
# 3 45.4915 31.2663 120.9778 -4.4249 -14.4101 11.5701
# 4 -10.6362 -13.9910 -4.4249 32.8116 2.7794 -6.1480
# 5 -15.2521 -1.6749 -14.4101 2.7794 37.6909 3.5221
# 6 1.9410 8.2250 11.5701 -6.1480 3.5221 27.9110
#
#
#
# Elastic Compliance Matrix: (Units=1/GPa)
#
#
# Indices 1 2 3 4 5 6 
#
# 1 0.014332 -0.005131 -0.003730 0.002012 0.003808 0.002024
# 2 -0.005131 0.018226 -0.002643 0.005512 -0.002460 -0.002394
# 3 -0.003730 -0.002643 0.011076 -0.001930 0.003159 -0.004377
# 4 0.002012 0.005512 -0.001930 0.034789 -0.002905 0.007066
# 5 0.003808 -0.002460 0.003159 -0.002905 0.029877 -0.005260
# 6 0.002024 -0.002394 -0.004377 0.007066 -0.005260 0.040427
#
#
# Mechanical properties :
#
#
# Convention : Reuss Voigt Hill
#
# Bulk Modulus (GPa) = 48.48329 57.90894 53.19611
# Shear Modulus (GPa) = 27.99376 31.85421 29.92398
#
# Velocity S-wave (km/s) = 3.66054 3.90480 3.78464
# Velocity P-wave (km/s) = 6.40884 6.93173 6.67541
#
# Compressibility (1/GPa) = 0.02062566
#
# Stress axis : x y z
#
# Youngs Moduli (GPa) = 69.77367 54.86574 90.28620
#
# Poissons Ratio (x) = 0.28154 0.33672
# Poissons Ratio (y) = 0.35803 0.23867
# Poissons Ratio (z) = 0.26022 0.14503
#
# Static dielectric constant tensor:
#      x y z
#    x 3.532210 0.029680 -0.206380 
#    y 0.029680 3.939490 -0.011910 
#    z -0.206380 -0.011910 3.953360 
# 
# 
# High freq. dielectric constant tensor:
#      x y z
#    x 1.812300 -0.005870 -0.023450 
#    y -0.005870 1.815110 -0.011840 
#    z -0.023450 -0.011840 1.817520 
# 
# From -- ./inp_files/338051.got.cif
#   From: 2010.06.25/outbox.cif.g09.slc.cpg/sg2_170_cif.got.tgz:338051.got - 2010.06.27 13:26:56.
