data_PCOD8000675
_publ_section_title
;
Structure prediction by ZEFSAII (Michael W. Deem and Ramdas Pophale) SiO2 
 PCOD8000675
Probable space group: P -1
;
_chemical_formula_sum "Si O2"
_cell_formula_units_Z 14
_cell_length_a 14.739170
_cell_length_b 8.654836
_cell_length_c 9.190985
_cell_angle_alpha 87.212585
_cell_angle_beta 101.625220
_cell_angle_gamma 141.601394
_cell_volume 701.698578
_symmetry_space_group_name_H-M "P -1"
_symmetry_group_IT_number 2
_symmetry_cell_setting 'triclinic'
loop_
_space_group_symop_operation_xyz
x,y,z
-x,-y,-z
loop_
_atom_site_type_symbol
_atom_site_label
_atom_site_fract_x
_atom_site_fract_y
_atom_site_fract_z
Si Si1 0.392639 0.315088 0.754123
Si Si2 0.289943 0.623112 0.856720
Si Si3 0.830820 0.734355 0.419395
Si Si4 0.723159 0.341020 0.615776
Si Si5 0.410971 0.014390 0.657577
Si Si6 0.581830 0.805857 0.935720
Si Si7 0.844004 0.379275 0.927095
O O1 0.251813 0.213514 0.639107
O O2 0.434027 0.228187 0.665994
O O3 0.532775 0.618904 0.802979
O O4 0.348088 0.192797 0.904992
O O5 0.180209 0.388779 0.720597
O O6 0.433138 0.705941 0.942778
O O7 0.351067 0.864782 0.797360
O O8 0.189772 0.532589 0.968805
O O9 0.755464 0.547166 0.540106
O O10 0.000000 0.000000 0.500000
O O11 0.569592 0.144308 0.667862
O O12 0.855258 0.472977 0.766898
O O13 0.709076 0.186356 0.498514
O O14 0.708405 0.077569 0.891620
O O15 0.000000 0.500000 0.000000
#
# Coordination Sequence:
#
# PCOD8000675 Si02
#       7
#     2   2   2   2   2   2   2
#     4  10  21  36  65  89 114 159 204 249 291 360
#     4  10  20  42  68  85 115 174 200 239 305 364
#     4  10  24  42  60  85 129 162 196 241 315 368
#     4  10  23  39  61  92 121 158 201 257 293 358
#     4  10  19  39  67  90 115 155 214 247 294 354
#     4  10  20  39  64  91 117 154 210 250 294 354
#     4  12  24  38  63  94 125 153 206 255 297 357
#
# _framework density 19.951585000000001
#
# number of rings (size 3 to 8) (size 9 to 14) (size 15 to 20)
#    0.000    1.714    2.857    1.286    4.000    1.714 
#    2.571    3.571    0.000    0.000    0.000    0.000 
#    0.000    0.000    0.000    0.000    0.000    0.000 
#
# Total GULP energy -173623.532887 kJ/mol
# GULP energy per Si atom -12401.680921 kJ/mol
# Density = 1.990617 g / cm^3
# Si number density = 19.951585 Si / 1000 Ang^3
#
#
#
# Elastic Constant Matrix: (Units=GPa)
#
#
# Indices 1 2 3 4 5 6 
#
# 1 112.9250 39.9225 58.6286 8.1848 9.7514 -17.4975
# 2 39.9225 79.0578 35.1671 15.5435 4.7314 -8.9159
# 3 58.6286 35.1671 136.6955 1.1890 23.6060 -0.0480
# 4 8.1848 15.5435 1.1890 25.5590 0.9345 -0.0955
# 5 9.7514 4.7314 23.6060 0.9345 34.7119 4.4198
# 6 -17.4975 -8.9159 -0.0480 -0.0955 4.4198 30.6641
#
#
#
# Elastic Compliance Matrix: (Units=1/GPa)
#
#
# Indices 1 2 3 4 5 6 
#
# 1 0.014000 -0.003660 -0.004877 -0.001969 -0.000962 0.007049
# 2 -0.003660 0.018092 -0.003092 -0.009694 0.000536 0.003059
# 3 -0.004877 -0.003092 0.011123 0.003115 -0.005492 -0.002863
# 4 -0.001969 -0.009694 0.003115 0.045529 -0.001004 -0.003651
# 5 -0.000962 0.000536 -0.005492 -0.001004 0.033433 -0.005224
# 6 0.007049 0.003059 -0.002863 -0.003651 -0.005224 0.038260
#
#
# Mechanical properties :
#
#
# Convention : Reuss Voigt Hill
#
# Bulk Modulus (GPa) = 50.11024 66.23496 58.17260
# Shear Modulus (GPa) = 26.26789 31.18435 28.72612
#
# Velocity S-wave (km/s) = 3.63241 3.95777 3.79857
# Velocity P-wave (km/s) = 6.53934 7.35902 6.96126
#
# Compressibility (1/GPa) = 0.01995600
#
# Stress axis : x y z
#
# Youngs Moduli (GPa) = 71.43101 55.27431 89.90409
#
# Poissons Ratio (x) = 0.20233 0.43846
# Poissons Ratio (y) = 0.26147 0.27795
# Poissons Ratio (z) = 0.34837 0.17089
#
# Static dielectric constant tensor:
#      x y z
#    x 3.503080 -0.299770 0.049470 
#    y -0.299770 3.559180 0.083370 
#    z 0.049470 0.083370 3.801420 
# 
# 
# High freq. dielectric constant tensor:
#      x y z
#    x 1.763120 -0.024840 0.005790 
#    y -0.024840 1.766120 0.006840 
#    z 0.005790 0.006840 1.795580 
# 
# From -- ./inp_files/155308.got.cif
#   From: 2010.06.25/outbox.cif.g09.slc.cpg/sg2_78_cif.got.tgz:155308.got - 2010.06.27 13:26:56.
