data_PCOD8000010
_publ_section_title
;
Structure prediction by ZEFSAII (Michael W. Deem and Ramdas Pophale) SiO2 
 PCOD8000010
Probable space group: P 1
;
_chemical_formula_sum "Si O2"
_cell_formula_units_Z 8
_cell_length_a 12.042033
_cell_length_b 9.285424
_cell_length_c 12.543224
_cell_angle_alpha 58.916079
_cell_angle_beta 144.696968
_cell_angle_gamma 143.807210
_cell_volume 434.996871
_symmetry_space_group_name_H-M "P 1"
_symmetry_group_IT_number 1
_symmetry_cell_setting 'triclinic'
loop_
_space_group_symop_operation_xyz
x,y,z
loop_
_atom_site_type_symbol
_atom_site_label
_atom_site_fract_x
_atom_site_fract_y
_atom_site_fract_z
Si Si1 0.217110 0.075650 0.546040
Si Si2 0.232207 0.632760 0.877269
Si Si3 0.253165 0.456745 0.328467
Si Si4 0.127781 0.652772 0.563987
Si Si5 0.600389 0.262707 0.443680
Si Si6 0.651414 0.210959 0.991614
Si Si7 0.548374 0.605460 0.288342
Si Si8 0.190960 0.667713 0.370287
O O1 0.276984 0.277628 0.444182
O O2 0.198101 0.900741 0.521095
O O3 0.498455 0.246961 0.783176
O O4 0.906507 0.882625 0.444790
O O5 0.320607 0.696685 0.794786
O O6 0.861419 0.395372 0.687001
O O7 0.350181 0.545203 0.058685
O O8 0.392508 0.906749 0.950843
O O9 0.457682 0.633613 0.317310
O O10 0.371863 0.651541 0.447343
O O11 0.901686 0.269895 0.099378
O O12 0.213886 0.631542 0.526196
O O13 0.766025 0.380973 0.411878
O O14 0.461062 0.350205 0.325739
O O15 0.328776 0.944544 0.351402
O O16 0.830454 0.425817 0.146665
#
# Coordination Sequence:
#
# PCOD8000010 Si02
#       8
#     1   1   1   1   1   1   1   1
#     4  10  19  41  60  84 115 156 203 231 282 349
#     4   9  19  38  62  86 108 161 195 233 286 343
#     4  10  23  33  61  86 120 147 195 236 294 336
#     4   8  19  37  62  79 119 151 192 236 288 341
#     4   9  21  37  59  87 116 151 194 241 289 334
#     4   9  20  39  59  88 116 154 192 236 295 340
#     4  11  19  37  63  90 111 150 205 240 273 355
#     4  10  20  40  58  86 123 152 184 243 303 336
#
# _framework density 18.390937000000001
#
# number of rings (size 3 to 8) (size 9 to 14) (size 15 to 20)
#    1.500    1.000    2.500    0.750    0.000    5.000 
#    2.250    2.500    0.000    0.000    0.000    0.000 
#    0.000    0.000    0.000    0.000    0.000    0.000 
#
# Total GULP energy -99110.994292 kJ/mol
# GULP energy per Si atom -12388.874287 kJ/mol
# Density = 1.834908 g / cm^3
# Si number density = 18.390937 Si / 1000 Ang^3
#
#
#
# Elastic Constant Matrix: (Units=GPa)
#
#
# Indices 1 2 3 4 5 6 
#
# 1 102.1073 25.1268 44.0196 -8.3751 -20.0122 -4.8527
# 2 25.1268 87.2529 53.0793 7.5252 -11.2687 -7.5167
# 3 44.0196 53.0793 134.8551 -12.6926 0.1752 -8.1346
# 4 -8.3751 7.5252 -12.6926 33.8780 -3.2020 -1.1302
# 5 -20.0122 -11.2687 0.1752 -3.2020 27.3039 -1.5963
# 6 -4.8527 -7.5167 -8.1346 -1.1302 -1.5963 11.5719
#
#
#
# Elastic Compliance Matrix: (Units=1/GPa)
#
#
# Indices 1 2 3 4 5 6 
#
# 1 0.014219 -0.000066 -0.004028 0.003233 0.011088 0.004934
# 2 -0.000066 0.017824 -0.007124 -0.005742 0.007087 0.006959
# 3 -0.004028 -0.007124 0.012097 0.004681 -0.005309 0.001912
# 4 0.003233 -0.005742 0.004681 0.033906 0.004228 0.004811
# 5 0.011088 0.007087 -0.005309 0.004228 0.048948 0.012686
# 6 0.004934 0.006959 0.001912 0.004811 0.012686 0.096569
#
#
# Mechanical properties :
#
#
# Convention : Reuss Voigt Hill
#
# Bulk Modulus (GPa) = 46.07459 63.18518 54.62989
# Shear Modulus (GPa) = 19.74466 28.01674 23.88070
#
# Velocity S-wave (km/s) = 3.28015 3.90731 3.60739
# Velocity P-wave (km/s) = 6.28117 7.40185 6.86442
#
# Compressibility (1/GPa) = 0.02170394
#
# Stress axis : x y z
#
# Youngs Moduli (GPa) = 70.32726 56.10529 82.66627
#
# Poissons Ratio (x) = 0.00372 0.33296
# Poissons Ratio (y) = 0.00467 0.58889
# Poissons Ratio (z) = 0.28326 0.39968
#
# Static dielectric constant tensor:
#      x y z
#    x 3.140210 0.009720 0.031320 
#    y 0.009720 3.252440 -0.017390 
#    z 0.031320 -0.017390 3.275540 
# 
# 
# High freq. dielectric constant tensor:
#      x y z
#    x 1.688180 0.006320 0.000550 
#    y 0.006320 1.711060 -0.005600 
#    z 0.000550 -0.005600 1.703420 
# 
# From -- ./inp_files/5212.got.cif
#   From: 2010.03.12/outbox.cif.g09.slc.cpg/sg1_3_cif.got.tgz:5212.got - 2010.03.29 11:57:58.
