data_PCOD8000934
_publ_section_title
;
Structure prediction by ZEFSAII (Michael W. Deem and Ramdas Pophale) SiO2 
 PCOD8000934
Probable space group: P -1
;
_chemical_formula_sum "Si O2"
_cell_formula_units_Z 12
_cell_length_a 8.490565
_cell_length_b 8.464242
_cell_length_c 13.726971
_cell_angle_alpha 45.730837
_cell_angle_beta 125.598984
_cell_angle_gamma 130.927185
_cell_volume 519.318509
_symmetry_space_group_name_H-M "P -1"
_symmetry_group_IT_number 2
_symmetry_cell_setting 'triclinic'
loop_
_space_group_symop_operation_xyz
x,y,z
-x,-y,-z
loop_
_atom_site_type_symbol
_atom_site_label
_atom_site_fract_x
_atom_site_fract_y
_atom_site_fract_z
Si Si1 0.343213 0.411668 0.892196
Si Si2 0.086179 0.866698 0.834226
Si Si3 0.963589 0.404288 0.874987
Si Si4 0.552570 0.100147 0.338921
Si Si5 0.135200 0.790303 0.432780
Si Si6 0.467009 0.999241 0.129183
O O1 0.439957 0.629353 0.753092
O O2 0.103878 0.376504 0.848565
O O3 0.500000 0.500000 0.000000
O O4 0.345802 0.157021 0.971965
O O5 0.011393 0.683106 0.794303
O O6 0.344840 0.976774 0.887247
O O7 0.979847 0.716427 0.957995
O O8 0.024322 0.090440 0.702982
O O9 0.714312 0.275175 0.811209
O O10 0.762675 0.110883 0.466341
O O11 0.334785 0.880780 0.390964
O O12 0.574525 0.079813 0.239692
O O13 0.000000 0.500000 0.500000
#
# Coordination Sequence:
#
# PCOD8000934 Si02
#       6
#     2   2   2   2   2   2
#     4  10  19  40  66  95 129 162 209 262 316 373
#     4  11  24  42  62 100 131 161 214 263 321 371
#     4  11  23  39  68  98 132 164 202 271 325 370
#     4  10  24  44  64  94 125 169 221 257 306 385
#     4  11  27  45  67  87 128 178 214 259 313 383
#     4  11  23  39  68 101 126 166 209 266 320 378
#
# _framework density 23.107208
#
# number of rings (size 3 to 8) (size 9 to 14) (size 15 to 20)
#    0.000    1.333    3.333    3.000    7.000    3.333 
#    0.000    1.667    0.000    0.000    0.000    0.000 
#    0.000    0.000    0.000    0.000    0.000    0.000 
#
# Total GULP energy -148749.622202 kJ/mol
# GULP energy per Si atom -12395.801850 kJ/mol
# Density = 2.305462 g / cm^3
# Si number density = 23.107208 Si / 1000 Ang^3
#
#
#
# Elastic Constant Matrix: (Units=GPa)
#
#
# Indices 1 2 3 4 5 6 
#
# 1 86.1630 42.0435 25.3654 -21.4464 6.9013 15.1286
# 2 42.0435 111.9680 19.2123 -26.2830 11.6621 23.3072
# 3 25.3654 19.2123 93.0043 -23.2322 5.7771 0.3981
# 4 -21.4464 -26.2830 -23.2322 33.5361 1.4309 -2.7108
# 5 6.9013 11.6621 5.7771 1.4309 35.6589 -1.5883
# 6 15.1286 23.3072 0.3981 -2.7108 -1.5883 40.6675
#
#
#
# Elastic Compliance Matrix: (Units=1/GPa)
#
#
# Indices 1 2 3 4 5 6 
#
# 1 0.016171 -0.003263 -0.002051 0.006148 -0.002146 -0.003800
# 2 -0.003263 0.013974 0.000551 0.008930 -0.004671 -0.006388
# 3 -0.002051 0.000551 0.013491 0.008629 -0.002280 0.000801
# 4 0.006148 0.008930 0.008629 0.046672 -0.007590 -0.004675
# 5 -0.002146 -0.004671 -0.002280 -0.007590 0.030847 0.004197
# 6 -0.003800 -0.006388 0.000801 -0.004675 0.004197 0.029509
#
#
# Mechanical properties :
#
#
# Convention : Reuss Voigt Hill
#
# Bulk Modulus (GPa) = 29.31532 51.59752 40.45642
# Shear Modulus (GPa) = 29.14438 35.60679 32.37558
#
# Velocity S-wave (km/s) = 3.55529 3.92974 3.74719
# Velocity P-wave (km/s) = 5.43761 6.55504 6.02230
#
# Compressibility (1/GPa) = 0.03411186
#
# Stress axis : x y z
#
# Youngs Moduli (GPa) = 61.83878 71.56165 74.12206
#
# Poissons Ratio (x) = 0.23347 0.15203
# Poissons Ratio (y) = 0.20175 -0.04087
# Poissons Ratio (z) = 0.12684 -0.03946
#
# Static dielectric constant tensor:
#      x y z
#    x 4.831050 -0.520690 0.390800 
#    y -0.520690 4.772200 -0.578150 
#    z 0.390800 -0.578150 4.697560 
# 
# 
# High freq. dielectric constant tensor:
#      x y z
#    x 1.898770 0.016660 -0.009290 
#    y 0.016660 1.933030 0.000110 
#    z -0.009290 0.000110 1.899350 
# 
# From -- ./inp_files/165243.got.cif
#   From: 2010.06.25/outbox.cif.g09.slc.cpg/sg2_83_cif.got.tgz:165243.got - 2010.06.27 13:26:56.
