data_PCOD8000437
_publ_section_title
;
Structure prediction by ZEFSAII (Michael W. Deem and Ramdas Pophale) SiO2 
 PCOD8000437
Probable space group: P -1
;
_chemical_formula_sum "Si O2"
_cell_formula_units_Z 16
_cell_length_a 14.849595
_cell_length_b 13.951233
_cell_length_c 8.733062
_cell_angle_alpha 136.363411
_cell_angle_beta 54.282197
_cell_angle_gamma 137.237763
_cell_volume 842.362444
_symmetry_space_group_name_H-M "P -1"
_symmetry_group_IT_number 2
_symmetry_cell_setting 'triclinic'
loop_
_space_group_symop_operation_xyz
x,y,z
-x,-y,-z
loop_
_atom_site_type_symbol
_atom_site_label
_atom_site_fract_x
_atom_site_fract_y
_atom_site_fract_z
Si Si1 0.992804 0.300881 0.630287
Si Si2 0.546262 0.591850 0.722355
Si Si3 0.633318 0.225394 0.218674
Si Si4 0.720505 0.598544 0.073295
Si Si5 0.625588 0.907877 0.852783
Si Si6 0.130792 0.045342 0.512166
Si Si7 0.825320 0.442951 0.007816
Si Si8 0.247233 0.444941 0.359602
O O1 0.072341 0.385439 0.806516
O O2 0.091647 0.346158 0.442401
O O3 0.902685 0.101920 0.508040
O O4 0.900147 0.368423 0.764051
O O5 0.500000 0.500000 0.500000
O O6 0.434794 0.479097 0.828955
O O7 0.569222 0.773162 0.890737
O O8 0.683624 0.615228 0.662568
O O9 0.479000 0.153493 0.255024
O O10 0.716603 0.307291 0.075818
O O11 0.684221 0.356993 0.458175
O O12 0.652459 0.080904 0.090171
O O13 0.813304 0.788496 0.253806
O O14 0.756192 0.481555 0.988232
O O15 0.739647 0.596102 0.872285
O O16 0.760738 0.931033 0.689252
O O17 0.000000 0.000000 0.500000
#
# Coordination Sequence:
#
# PCOD8000437 Si02
#       8
#     2   2   2   2   2   2   2   2
#     4  10  21  38  60  84 118 157 202 244 278 352
#     4  12  20  40  64  90 115 154 204 243 287 352
#     4  10  20  39  63  88 115 148 203 253 284 345
#     4  12  24  38  61  89 123 160 188 244 304 352
#     4  11  21  35  66  92 109 148 206 255 283 326
#     4  12  22  36  59  91 118 151 201 243 289 345
#     4  10  19  39  62  86 113 157 206 241 285 343
#     4  11  24  40  58  89 127 156 189 239 308 354
#
# _framework density 18.994198999999998
#
# number of rings (size 3 to 8) (size 9 to 14) (size 15 to 20)
#    0.000    1.000    6.250    1.875    0.000    1.000 
#    0.000    1.875    0.000    0.000    0.000    0.000 
#    0.000    0.000    0.000    0.000    0.000    0.000 
#
# Total GULP energy -198467.007623 kJ/mol
# GULP energy per Si atom -12404.187976 kJ/mol
# Density = 1.895097 g / cm^3
# Si number density = 18.994199 Si / 1000 Ang^3
#
#
#
# Elastic Constant Matrix: (Units=GPa)
#
#
# Indices 1 2 3 4 5 6 
#
# 1 66.5599 26.6143 44.1836 3.1460 -16.9902 2.1518
# 2 26.6143 113.8005 61.6660 13.9904 -8.9327 -0.9455
# 3 44.1836 61.6660 117.1540 2.0183 -10.1235 -4.7687
# 4 3.1460 13.9904 2.0183 38.0566 1.4960 -11.8046
# 5 -16.9902 -8.9327 -10.1235 1.4960 23.7316 -2.9627
# 6 2.1518 -0.9455 -4.7687 -11.8046 -2.9627 32.3115
#
#
#
# Elastic Compliance Matrix: (Units=1/GPa)
#
#
# Indices 1 2 3 4 5 6 
#
# 1 0.023990 0.000135 -0.007992 -0.002952 0.013679 -0.002598
# 2 0.000135 0.013284 -0.006857 -0.005358 0.002212 -0.002387
# 3 -0.007992 -0.006857 0.015109 0.003600 -0.001619 0.003728
# 4 -0.002952 -0.005358 0.003600 0.032155 -0.003120 0.012032
# 5 0.013679 0.002212 -0.001619 -0.003120 0.052594 0.002597
# 6 -0.002598 -0.002387 0.003728 0.012032 0.002597 0.036236
#
#
# Mechanical properties :
#
#
# Convention : Reuss Voigt Hill
#
# Bulk Modulus (GPa) = 43.56147 62.49355 53.02751
# Shear Modulus (GPa) = 23.75900 29.82329 26.79114
#
# Velocity S-wave (km/s) = 3.54058 3.96678 3.75972
# Velocity P-wave (km/s) = 6.30065 7.34529 6.84293
#
# Compressibility (1/GPa) = 0.02295607
#
# Stress axis : x y z
#
# Youngs Moduli (GPa) = 41.68346 75.27975 66.18652
#
# Poissons Ratio (x) = -0.01017 0.52894
# Poissons Ratio (y) = -0.00563 0.45383
# Poissons Ratio (z) = 0.33312 0.51618
#
# Static dielectric constant tensor:
#      x y z
#    x 3.475160 0.147100 -0.334820 
#    y 0.147100 3.815370 0.166060 
#    z -0.334820 0.166060 3.425290 
# 
# 
# High freq. dielectric constant tensor:
#      x y z
#    x 1.729580 0.009510 -0.034370 
#    y 0.009510 1.752330 0.008500 
#    z -0.034370 0.008500 1.726480 
# 
# From -- ./inp_files/175201.got.cif
#   From: 2010.06.25/outbox.cif.g09.slc.cpg/sg2_88_cif.got.tgz:175201.got - 2010.06.27 13:26:56.
