data_PCOD8000374
_publ_section_title
;
Structure prediction by ZEFSAII (Michael W. Deem and Ramdas Pophale) SiO2 
 PCOD8000374
Probable space group: P -1
;
_chemical_formula_sum "Si O2"
_cell_formula_units_Z 16
_cell_length_a 14.130343
_cell_length_b 8.949531
_cell_length_c 13.385020
_cell_angle_alpha 76.385498
_cell_angle_beta 44.191599
_cell_angle_gamma 109.196114
_cell_volume 778.233355
_symmetry_space_group_name_H-M "P -1"
_symmetry_group_IT_number 2
_symmetry_cell_setting 'triclinic'
loop_
_space_group_symop_operation_xyz
x,y,z
-x,-y,-z
loop_
_atom_site_type_symbol
_atom_site_label
_atom_site_fract_x
_atom_site_fract_y
_atom_site_fract_z
Si Si1 0.510789 0.846204 0.070889
Si Si2 0.255030 0.712017 0.868918
Si Si3 0.359040 0.485687 0.901120
Si Si4 0.723663 0.650587 0.706087
Si Si5 0.849498 0.533981 0.215873
Si Si6 0.495358 0.822609 0.321582
Si Si7 0.869025 0.932995 0.749831
Si Si8 0.653594 0.647171 0.273437
O O1 0.344993 0.584883 0.199137
O O2 0.475225 0.838026 0.216992
O O3 0.731422 0.968437 0.858961
O O4 0.500000 0.000000 0.000000
O O5 0.278037 0.591276 0.948770
O O6 0.238140 0.646517 0.777647
O O7 0.451422 0.978549 0.690844
O O8 0.069747 0.660428 0.055435
O O9 0.535285 0.602192 0.829012
O O10 0.445611 0.517869 0.721641
O O11 0.170485 0.213796 0.103936
O O12 0.809711 0.777397 0.725495
O O13 0.901740 0.820459 0.463826
O O14 0.715446 0.409436 0.436746
O O15 0.852007 0.714655 0.145413
O O16 0.673314 0.844780 0.203190
O O17 0.500000 0.500000 0.500000
#
# Coordination Sequence:
#
# PCOD8000374 Si02
#       8
#     2   2   2   2   2   2   2   2
#     4  11  24  40  62  91 128 154 191 252 306 352
#     4  10  22  36  62  88 121 155 197 244 292 356
#     4  10  19  39  60  87 120 156 197 246 293 353
#     4  10  22  41  65  86 118 159 203 249 289 359
#     4   9  21  41  57  85 122 154 201 245 288 351
#     4  11  21  37  60  90 118 159 194 240 305 352
#     4  10  22  41  64  88 116 158 209 239 297 357
#     4   9  18  37  60  83 117 156 195 241 296 349
#
# _framework density 20.559386
#
# number of rings (size 3 to 8) (size 9 to 14) (size 15 to 20)
#    0.000    2.000    2.500    1.875    3.500    3.000 
#    2.250    6.250    0.000    0.000    0.000    0.000 
#    0.000    0.000    0.000    0.000    0.000    0.000 
#
# Total GULP energy -198273.009273 kJ/mol
# GULP energy per Si atom -12392.063080 kJ/mol
# Density = 2.051259 g / cm^3
# Si number density = 20.559386 Si / 1000 Ang^3
#
#
#
# Elastic Constant Matrix: (Units=GPa)
#
#
# Indices 1 2 3 4 5 6 
#
# 1 102.2124 44.4576 34.9474 -6.9813 14.3993 -35.2604
# 2 44.4576 79.9331 23.8396 -1.2838 7.4821 -25.0211
# 3 34.9474 23.8396 99.1944 -0.3208 4.7042 -12.5255
# 4 -6.9813 -1.2838 -0.3208 28.8598 0.7371 3.8834
# 5 14.3993 7.4821 4.7042 0.7371 26.2139 3.3882
# 6 -35.2604 -25.0211 -12.5255 3.8834 3.3882 43.4910
#
#
#
# Elastic Compliance Matrix: (Units=1/GPa)
#
#
# Indices 1 2 3 4 5 6 
#
# 1 0.018760 -0.004638 -0.003489 0.002926 -0.009995 0.012054
# 2 -0.004638 0.017857 -0.001715 -0.001124 -0.003031 0.006356
# 3 -0.003489 -0.001715 0.011648 -0.000744 0.000392 -0.000425
# 4 0.002926 -0.001124 -0.000744 0.035553 -0.001957 -0.001511
# 5 -0.009995 -0.003031 0.000392 -0.001957 0.046189 -0.013159
# 6 0.012054 0.006356 -0.000425 -0.001511 -0.013159 0.037460
#
#
# Mechanical properties :
#
#
# Convention : Reuss Voigt Hill
#
# Bulk Modulus (GPa) = 34.98813 54.20324 44.59568
# Shear Modulus (GPa) = 25.42232 31.58594 28.50413
#
# Velocity S-wave (km/s) = 3.52025 3.92385 3.72752
# Velocity P-wave (km/s) = 5.79464 6.85203 6.34540
#
# Compressibility (1/GPa) = 0.02858112
#
# Stress axis : x y z
#
# Youngs Moduli (GPa) = 53.30505 56.00194 85.85145
#
# Poissons Ratio (x) = 0.25971 0.29956
# Poissons Ratio (y) = 0.24720 0.14723
# Poissons Ratio (z) = 0.18599 0.09604
#
# Static dielectric constant tensor:
#      x y z
#    x 3.796440 -0.254480 0.143310 
#    y -0.254480 3.721050 0.141980 
#    z 0.143310 0.141980 3.835010 
# 
# 
# High freq. dielectric constant tensor:
#      x y z
#    x 1.798760 -0.010450 0.016080 
#    y -0.010450 1.808120 0.014580 
#    z 0.016080 0.014580 1.796810 
# 
# From -- ./inp_files/529543.got.cif
#   From: 2010.06.25/outbox.cif.g09.slc.cpg/sg2_265_cif.got.tgz:529543.got - 2010.06.27 13:26:56.
