data_PCOD8000825
_publ_section_title
;
Structure prediction by ZEFSAII (Michael W. Deem and Ramdas Pophale) SiO2 
 PCOD8000825
Probable space group: P -1
;
_chemical_formula_sum "Si O2"
_cell_formula_units_Z 16
_cell_length_a 8.821313
_cell_length_b 8.648354
_cell_length_c 17.702931
_cell_angle_alpha 130.266108
_cell_angle_beta 125.457256
_cell_angle_gamma 44.955336
_cell_volume 709.023839
_symmetry_space_group_name_H-M "P -1"
_symmetry_group_IT_number 2
_symmetry_cell_setting 'triclinic'
loop_
_space_group_symop_operation_xyz
x,y,z
-x,-y,-z
loop_
_atom_site_type_symbol
_atom_site_label
_atom_site_fract_x
_atom_site_fract_y
_atom_site_fract_z
Si Si1 0.184645 0.733655 0.619967
Si Si2 0.204818 0.331451 0.903482
Si Si3 0.781457 0.392310 0.872027
Si Si4 0.534781 0.806558 0.818591
Si Si5 0.458702 0.191469 0.488883
Si Si6 0.147738 0.103838 0.288310
Si Si7 0.051882 0.438941 0.239260
Si Si8 0.248271 0.701332 0.465441
O O1 0.360132 0.801878 0.712581
O O2 0.297525 0.448737 0.561630
O O3 0.107905 0.833482 0.542707
O O4 0.984862 0.846612 0.656501
O O5 0.012525 0.299280 0.868953
O O6 0.164462 0.403190 0.825652
O O7 0.431192 0.078065 0.902656
O O8 0.214690 0.534763 0.017309
O O9 0.587655 0.623320 0.844927
O O10 0.744498 0.172330 0.791766
O O11 0.752434 0.743245 0.816896
O O12 0.341366 0.156629 0.371668
O O13 0.702491 0.133777 0.520862
O O14 0.500000 0.000000 0.500000
O O15 0.000931 0.287383 0.236385
O O16 0.117836 0.609724 0.352231
O O17 0.500000 0.500000 0.500000
#
# Coordination Sequence:
#
# PCOD8000825 Si02
#       8
#     2   2   2   2   2   2   2   2
#     4  11  21  39  63  91 134 173 218 256 320 396
#     4  10  23  44  68  98 124 174 221 272 333 390
#     4  10  23  42  70  96 130 165 223 279 328 380
#     4  11  20  43  69  93 127 176 217 267 328 401
#     4  11  22  37  61  94 133 172 217 267 320 385
#     4  12  23  41  61 100 134 170 219 276 319 382
#     4  11  23  42  67  93 139 169 217 271 325 389
#     4  10  19  40  62  89 132 179 211 255 322 396
#
# _framework density 22.566237000000001
#
# number of rings (size 3 to 8) (size 9 to 14) (size 15 to 20)
#    0.000    1.250    6.250    1.500    1.750    0.500 
#    6.750    1.875    0.000    0.000    0.000    0.000 
#    0.000    0.000    0.000    0.000    0.000    0.000 
#
# Total GULP energy -198370.261591 kJ/mol
# GULP energy per Si atom -12398.141349 kJ/mol
# Density = 2.251488 g / cm^3
# Si number density = 22.566237 Si / 1000 Ang^3
#
#
#
# Elastic Constant Matrix: (Units=GPa)
#
#
# Indices 1 2 3 4 5 6 
#
# 1 79.9565 47.8342 36.0284 3.0043 -10.3350 23.1750
# 2 47.8342 101.8594 47.1081 9.9861 -16.0141 19.1501
# 3 36.0284 47.1081 124.7186 6.2478 -15.6969 9.4867
# 4 3.0043 9.9861 6.2478 39.1070 11.6330 -3.5388
# 5 -10.3350 -16.0141 -15.6969 11.6330 16.3181 -8.4239
# 6 23.1750 19.1501 9.4867 -3.5388 -8.4239 39.5549
#
#
#
# Elastic Compliance Matrix: (Units=1/GPa)
#
#
# Indices 1 2 3 4 5 6 
#
# 1 0.019971 -0.006775 -0.002718 0.000156 -0.000820 -0.007930
# 2 -0.006775 0.017677 -0.002099 -0.008702 0.016550 -0.001339
# 3 -0.002718 -0.002099 0.010988 -0.003996 0.010605 0.001874
# 4 0.000156 -0.008702 -0.003996 0.040712 -0.041351 -0.000084
# 5 -0.000820 0.016550 0.010605 -0.041351 0.123107 0.012443
# 6 -0.007930 -0.001339 0.001874 -0.000084 0.012443 0.032768
#
#
# Mechanical properties :
#
#
# Convention : Reuss Voigt Hill
#
# Bulk Modulus (GPa) = 39.28915 63.16400 51.22658
# Shear Modulus (GPa) = 18.05760 30.70025 24.37893
#
# Velocity S-wave (km/s) = 2.83186 3.69243 3.29040
# Velocity P-wave (km/s) = 5.30480 6.79926 6.09799
#
# Compressibility (1/GPa) = 0.02545232
#
# Stress axis : x y z
#
# Youngs Moduli (GPa) = 50.07185 56.57225 91.00583
#
# Poissons Ratio (x) = 0.38328 0.24736
# Poissons Ratio (y) = 0.33924 0.19101
# Poissons Ratio (z) = 0.13610 0.11874
#
# Static dielectric constant tensor:
#      x y z
#    x 4.347790 0.139090 -0.206620 
#    y 0.139090 4.207250 -0.008890 
#    z -0.206620 -0.008890 4.152630 
# 
# 
# High freq. dielectric constant tensor:
#      x y z
#    x 1.871570 0.009060 -0.007810 
#    y 0.009060 1.898450 -0.001930 
#    z -0.007810 -0.001930 1.893720 
# 
# From -- ./inp_files/557610.got.cif
#   From: 2010.06.25/outbox.cif.g09.slc.cpg/sg2_279_cif.got.tgz:557610.got - 2010.06.27 13:26:56.
