data_PCOD8000037
_publ_section_title
;
Structure prediction by ZEFSAII (Michael W. Deem and Ramdas Pophale) SiO2 
 PCOD8000037
Probable space group: P 1
;
_chemical_formula_sum "Si O2"
_cell_formula_units_Z 8
_cell_length_a 9.207822
_cell_length_b 8.475647
_cell_length_c 7.514211
_cell_angle_alpha 74.074914
_cell_angle_beta 70.646496
_cell_angle_gamma 122.433775
_cell_volume 384.417419
_symmetry_space_group_name_H-M "P 1"
_symmetry_group_IT_number 1
_symmetry_cell_setting 'triclinic'
loop_
_space_group_symop_operation_xyz
x,y,z
loop_
_atom_site_type_symbol
_atom_site_label
_atom_site_fract_x
_atom_site_fract_y
_atom_site_fract_z
Si Si1 0.538690 0.393500 0.879090
Si Si2 0.847002 0.849811 0.416080
Si Si3 0.170503 0.333470 0.149157
Si Si4 0.458245 0.753549 0.472612
Si Si5 0.064911 0.258609 0.799986
Si Si6 0.155088 0.996056 0.940764
Si Si7 0.321087 0.782036 0.901817
Si Si8 0.618565 0.094696 0.000570
O O1 0.745672 0.647878 0.656903
O O2 0.393909 0.233237 0.819841
O O3 0.624006 0.293922 0.975224
O O4 0.396739 0.406338 0.061299
O O5 0.667156 0.795391 0.379376
O O6 0.978648 0.090431 0.398228
O O7 0.013788 0.877189 0.214183
O O8 0.097065 0.277855 0.991713
O O9 0.192516 0.540293 0.130382
O O10 0.261767 0.500423 0.556102
O O11 0.417867 0.788800 0.676886
O O12 0.491578 0.926429 0.270212
O O13 0.063076 0.060940 0.813502
O O14 0.852849 0.195190 0.851639
O O15 0.165001 0.820120 0.909754
O O16 0.506502 0.976150 0.896337
#
# Coordination Sequence:
#
# PCOD8000037 Si02
#       8
#     1   1   1   1   1   1   1   1
#     4   9  18  35  60  88 119 155 200 241 294 357
#     4  10  16  36  68  79 114 174 190 225 314 349
#     4   9  18  37  60  85 121 161 194 241 295 362
#     4  11  20  41  65  82 122 168 190 239 308 349
#     4   9  18  36  62  87 119 157 201 240 292 358
#     4   9  18  35  60  89 119 156 197 242 296 358
#     4  10  22  40  60  92 126 146 202 254 288 352
#     4  11  22  38  63  94 118 151 204 252 289 349
#
# _framework density 20.810711000000001
#
# number of rings (size 3 to 8) (size 9 to 14) (size 15 to 20)
#    0.000    2.500    6.250    0.000    0.000    3.000 
#    6.750    3.750    5.500    0.000    0.000    0.000 
#    0.000    0.000    0.000    0.000    0.000    0.000 
#
# Total GULP energy -99122.607231 kJ/mol
# GULP energy per Si atom -12390.325904 kJ/mol
# Density = 2.076334 g / cm^3
# Si number density = 20.810711 Si / 1000 Ang^3
#
#
#
# Elastic Constant Matrix: (Units=GPa)
#
#
# Indices 1 2 3 4 5 6 
#
# 1 136.7813 50.3022 42.4742 -28.6509 3.7115 -31.4512
# 2 50.3022 77.4717 40.5745 -30.3960 -3.1735 -30.7730
# 3 42.4742 40.5745 119.7747 -46.9690 0.9996 -6.6842
# 4 -28.6509 -30.3960 -46.9690 42.3892 -0.3933 10.9754
# 5 3.7115 -3.1735 0.9996 -0.3933 31.4778 -10.5405
# 6 -31.4512 -30.7730 -6.6842 10.9754 -10.5405 33.5130
#
#
#
# Elastic Compliance Matrix: (Units=1/GPa)
#
#
# Indices 1 2 3 4 5 6 
#
# 1 0.010798 -0.002414 -0.002070 0.001372 0.001038 0.007381
# 2 -0.002414 0.031898 -0.005174 0.008574 0.012893 0.027239
# 3 -0.002070 -0.005174 0.016438 0.015590 -0.003865 -0.009737
# 4 0.001372 0.008574 0.015590 0.048950 -0.000492 -0.003915
# 5 0.001038 0.012893 -0.003865 -0.000492 0.041522 0.025263
# 6 0.007381 0.027239 -0.009737 -0.003915 0.025263 0.069064
#
#
# Mechanical properties :
#
#
# Convention : Reuss Voigt Hill
#
# Bulk Modulus (GPa) = 25.11525 66.74771 45.93148
# Shear Modulus (GPa) = 19.89972 34.85445 27.37709
#
# Velocity S-wave (km/s) = 3.09564 4.09691 3.63096
# Velocity P-wave (km/s) = 4.98718 7.38396 6.30059
#
# Compressibility (1/GPa) = 0.03981644
#
# Stress axis : x y z
#
# Youngs Moduli (GPa) = 92.60950 31.35028 60.83332
#
# Poissons Ratio (x) = 0.07569 0.12593
# Poissons Ratio (y) = 0.22358 0.31478
# Poissons Ratio (z) = 0.19171 0.16222
#
# Static dielectric constant tensor:
#      x y z
#    x 4.032390 -0.487290 0.018000 
#    y -0.487290 3.978320 -0.621110 
#    z 0.018000 -0.621110 3.774340 
# 
# 
# High freq. dielectric constant tensor:
#      x y z
#    x 1.819060 -0.021950 -0.005580 
#    y -0.021950 1.792630 -0.037670 
#    z -0.005580 -0.037670 1.802970 
# 
# From -- ./inp_files/4130.got.cif
#   From: 2010.03.12/outbox.cif.g09.slc.cpg/sg1_3_cif.got.tgz:4130.got - 2010.03.29 11:57:58.
