data_PCOD8000590
_publ_section_title
;
Structure prediction by ZEFSAII (Michael W. Deem and Ramdas Pophale) SiO2 
 PCOD8000590
Probable space group: P -1
;
_chemical_formula_sum "Si O2"
_cell_formula_units_Z 16
_cell_length_a 7.015673
_cell_length_b 16.087119
_cell_length_c 14.961358
_cell_angle_alpha 144.841178
_cell_angle_beta 56.392413
_cell_angle_gamma 130.552597
_cell_volume 737.871393
_symmetry_space_group_name_H-M "P -1"
_symmetry_group_IT_number 2
_symmetry_cell_setting 'triclinic'
loop_
_space_group_symop_operation_xyz
x,y,z
-x,-y,-z
loop_
_atom_site_type_symbol
_atom_site_label
_atom_site_fract_x
_atom_site_fract_y
_atom_site_fract_z
Si Si1 0.850361 0.397737 0.367952
Si Si2 0.574808 0.703856 0.982553
Si Si3 0.112597 0.886098 0.971199
Si Si4 0.283810 0.587477 0.318982
Si Si5 0.550577 0.103142 0.945640
Si Si6 0.545768 0.223436 0.733646
Si Si7 0.577120 0.800428 0.589698
Si Si8 0.106059 0.954797 0.521547
O O1 0.910204 0.244352 0.211526
O O2 0.550319 0.328097 0.408560
O O3 0.000000 0.500000 0.500000
O O4 0.978339 0.510249 0.347851
O O5 0.607900 0.545398 0.810003
O O6 0.833680 0.865781 0.050968
O O7 0.397925 0.739372 0.987683
O O8 0.463646 0.685127 0.093978
O O9 0.290567 0.053941 0.027996
O O10 0.226566 0.849542 0.999957
O O11 0.319189 0.643816 0.258258
O O12 0.433654 0.733361 0.474493
O O13 0.550596 0.963709 0.759059
O O14 0.713192 0.127500 0.626105
O O15 0.265085 0.109728 0.674882
O O16 0.871092 0.836594 0.537801
O O17 0.000000 0.000000 0.500000
#
# Coordination Sequence:
#
# PCOD8000590 Si02
#       8
#     2   2   2   2   2   2   2   2
#     4   8  17  35  65  87 120 162 193 245 308 360
#     4  11  22  38  60  88 123 165 199 247 309 364
#     4   9  19  37  60  90 124 154 203 254 301 360
#     4  10  21  41  60  88 131 158 200 252 305 369
#     4  10  20  36  64  91 120 156 206 253 302 358
#     4  11  24  39  62  91 120 166 209 250 304 361
#     4  10  19  39  65  88 119 162 201 254 304 355
#     4  11  22  40  63  88 121 156 209 261 297 354
#
# _framework density 21.683996
#
# number of rings (size 3 to 8) (size 9 to 14) (size 15 to 20)
#    0.000    2.000    1.250    2.250    1.750    0.000 
#    4.500    1.250   11.000    0.000    0.000    0.000 
#    0.000    0.000    0.000    0.000    0.000    0.000 
#
# Total GULP energy -198228.895756 kJ/mol
# GULP energy per Si atom -12389.305985 kJ/mol
# Density = 2.163464 g / cm^3
# Si number density = 21.683996 Si / 1000 Ang^3
#
#
#
# Elastic Constant Matrix: (Units=GPa)
#
#
# Indices 1 2 3 4 5 6 
#
# 1 74.8874 50.8177 28.1990 -0.8282 -2.0315 -9.4095
# 2 50.8177 135.1175 25.9813 -21.6289 5.8532 6.1581
# 3 28.1990 25.9813 92.5449 -4.4470 10.0383 -13.7858
# 4 -0.8282 -21.6289 -4.4470 34.1776 0.1011 -5.2488
# 5 -2.0315 5.8532 10.0383 0.1011 16.8762 -6.7457
# 6 -9.4095 6.1581 -13.7858 -5.2488 -6.7457 42.0040
#
#
#
# Elastic Compliance Matrix: (Units=1/GPa)
#
#
# Indices 1 2 3 4 5 6 
#
# 1 0.022232 -0.008964 -0.004814 -0.004891 0.011026 0.005874
# 2 -0.008964 0.012439 -0.000294 0.006997 -0.006926 -0.004166
# 3 -0.004814 -0.000294 0.013636 0.001871 -0.007620 0.002450
# 4 -0.004891 0.006997 0.001871 0.034161 -0.003451 0.002207
# 5 0.011026 -0.006926 -0.007620 -0.003451 0.072407 0.012181
# 6 0.005874 -0.004166 0.002450 0.002207 0.012181 0.028770
#
#
# Mechanical properties :
#
#
# Convention : Reuss Voigt Hill
#
# Bulk Modulus (GPa) = 49.59334 56.94957 53.27145
# Shear Modulus (GPa) = 22.88234 31.78169 27.33202
#
# Velocity S-wave (km/s) = 3.25201 3.83257 3.55416
# Velocity P-wave (km/s) = 6.08452 6.77534 6.43920
#
# Compressibility (1/GPa) = 0.02016400
#
# Stress axis : x y z
#
# Youngs Moduli (GPa) = 44.98026 80.39360 73.33413
#
# Poissons Ratio (x) = 0.72066 0.35300
# Poissons Ratio (y) = 0.40321 0.02155
# Poissons Ratio (z) = 0.21651 0.02362
#
# Static dielectric constant tensor:
#      x y z
#    x 3.702290 0.365950 0.082070 
#    y 0.365950 4.505650 -0.278130 
#    z 0.082070 -0.278130 3.886440 
# 
# 
# High freq. dielectric constant tensor:
#      x y z
#    x 1.822190 0.013750 0.013670 
#    y 0.013750 1.867600 -0.017710 
#    z 0.013670 -0.017710 1.849060 
# 
# From -- ./inp_files/484435.got.cif
#   From: 2010.06.25/outbox.cif.g09.slc.cpg/sg2_243_cif.got.tgz:484435.got - 2010.06.27 13:26:56.
