data_PCOD8000500
_publ_section_title
;
Structure prediction by ZEFSAII (Michael W. Deem and Ramdas Pophale) SiO2 
 PCOD8000500
Probable space group: P -1
;
_chemical_formula_sum "Si O2"
_cell_formula_units_Z 14
_cell_length_a 8.008908
_cell_length_b 9.709059
_cell_length_c 18.461793
_cell_angle_alpha 99.636040
_cell_angle_beta 33.328966
_cell_angle_gamma 115.017097
_cell_volume 663.048849
_symmetry_space_group_name_H-M "P -1"
_symmetry_group_IT_number 2
_symmetry_cell_setting 'triclinic'
loop_
_space_group_symop_operation_xyz
x,y,z
-x,-y,-z
loop_
_atom_site_type_symbol
_atom_site_label
_atom_site_fract_x
_atom_site_fract_y
_atom_site_fract_z
Si Si1 0.202198 0.674838 0.226158
Si Si2 0.584728 0.719479 0.395411
Si Si3 0.075666 0.081323 0.287376
Si Si4 0.452097 0.213491 0.738384
Si Si5 0.633246 0.011343 0.034433
Si Si6 0.307363 0.010887 0.435535
Si Si7 0.076950 0.675608 0.696076
O O1 0.273769 0.687797 0.287762
O O2 0.836108 0.665703 0.337841
O O3 0.165458 0.505101 0.196757
O O4 0.529549 0.829714 0.080918
O O5 0.489570 0.666051 0.340558
O O6 0.226563 0.643764 0.564723
O O7 0.788405 0.917975 0.334302
O O8 0.887201 0.086237 0.429402
O O9 0.157353 0.241948 0.226752
O O10 0.437966 0.078348 0.163481
O O11 0.510123 0.069353 0.680519
O O12 0.048982 0.134110 0.905615
O O13 0.500000 0.000000 0.000000
O O14 0.591806 0.202554 0.362806
O O15 0.000000 0.000000 0.500000
#
# Coordination Sequence:
#
# PCOD8000500 Si02
#       7
#     2   2   2   2   2   2   2
#     4  11  25  37  61  99 125 159 207 261 313 358
#     4  10  19  39  64  86 125 164 202 242 310 372
#     4  10  19  39  63  88 120 166 204 249 310 363
#     4  12  21  41  68  89 119 171 214 242 301 387
#     4  11  21  42  66  85 122 173 215 244 299 383
#     4  11  21  38  66  95 121 163 213 247 303 379
#     4  11  20  40  59  94 134 151 197 275 312 347
#
# _framework density 21.114581999999999
#
# number of rings (size 3 to 8) (size 9 to 14) (size 15 to 20)
#    0.000    1.143    5.714    4.286    0.000    0.571 
#    2.571    3.571    0.000    0.000    0.000    0.000 
#    0.000    0.000    0.000    0.000    0.000    0.000 
#
# Total GULP energy -173530.769775 kJ/mol
# GULP energy per Si atom -12395.054984 kJ/mol
# Density = 2.106652 g / cm^3
# Si number density = 21.114582 Si / 1000 Ang^3
#
#
#
# Elastic Constant Matrix: (Units=GPa)
#
#
# Indices 1 2 3 4 5 6 
#
# 1 138.6091 39.5679 7.1187 -3.1654 -11.3146 2.0768
# 2 39.5679 124.9368 20.6645 -5.7534 -8.4824 -14.8567
# 3 7.1187 20.6645 65.8650 7.8656 -15.9289 0.6561
# 4 -3.1654 -5.7534 7.8656 18.8001 -3.1457 2.1356
# 5 -11.3146 -8.4824 -15.9289 -3.1457 20.6353 7.5845
# 6 2.0768 -14.8567 0.6561 2.1356 7.5845 27.1366
#
#
#
# Elastic Compliance Matrix: (Units=1/GPa)
#
#
# Indices 1 2 3 4 5 6 
#
# 1 0.008602 -0.002955 0.001397 0.001501 0.006354 -0.004204
# 2 -0.002955 0.010338 -0.003911 0.003207 -0.002236 0.006353
# 3 0.001397 -0.003911 0.021227 -0.006158 0.017209 -0.007087
# 4 0.001501 0.003207 -0.006158 0.058973 0.008276 -0.005165
# 5 0.006354 -0.002236 0.017209 0.008276 0.074217 -0.023521
# 6 -0.004204 0.006353 -0.007087 -0.005165 -0.023521 0.047802
#
#
# Mechanical properties :
#
#
# Convention : Reuss Voigt Hill
#
# Bulk Modulus (GPa) = 34.21312 51.56811 42.89061
# Shear Modulus (GPa) = 20.67482 30.78503 25.72993
#
# Velocity S-wave (km/s) = 3.13257 3.82252 3.49461
# Velocity P-wave (km/s) = 5.41504 6.63010 6.05314
#
# Compressibility (1/GPa) = 0.02922856
#
# Stress axis : x y z
#
# Youngs Moduli (GPa) = 116.24915 96.72994 47.11072
#
# Poissons Ratio (x) = 0.28581 -0.06580
# Poissons Ratio (y) = 0.34349 0.18425
# Poissons Ratio (z) = -0.16236 0.37832
#
# Static dielectric constant tensor:
#      x y z
#    x 6.551090 -1.254310 -0.194560 
#    y -1.254310 4.151080 0.125750 
#    z -0.194560 0.125750 3.730960 
# 
# 
# High freq. dielectric constant tensor:
#      x y z
#    x 1.837920 -0.014310 -0.005410 
#    y -0.014310 1.806960 0.006680 
#    z -0.005410 0.006680 1.814430 
# 
# From -- ./inp_files/167454.got.cif
#   From: 2010.06.25/outbox.cif.g09.slc.cpg/sg2_84_cif.got.tgz:167454.got - 2010.06.27 13:26:56.
