data_PCOD8000207
_publ_section_title
;
Structure prediction by ZEFSAII (Michael W. Deem and Ramdas Pophale) SiO2 
 PCOD8000207
Probable space group: P 1
;
_chemical_formula_sum "Si O2"
_cell_formula_units_Z 6
_cell_length_a 7.283331
_cell_length_b 4.929878
_cell_length_c 9.193151
_cell_angle_alpha 98.506142
_cell_angle_beta 134.018783
_cell_angle_gamma 91.090638
_cell_volume 231.290185
_symmetry_space_group_name_H-M "P 1"
_symmetry_group_IT_number 1
_symmetry_cell_setting 'triclinic'
loop_
_space_group_symop_operation_xyz
x,y,z
loop_
_atom_site_type_symbol
_atom_site_label
_atom_site_fract_x
_atom_site_fract_y
_atom_site_fract_z
Si Si1 0.067750 0.752360 0.863750
Si Si2 0.117080 0.551058 0.431240
Si Si3 0.822434 0.617433 0.014621
Si Si4 0.451486 0.120134 0.644361
Si Si5 0.652935 0.806079 0.214233
Si Si6 0.830609 0.171015 0.596823
O O1 0.949000 0.493555 0.677733
O O2 0.349880 0.714683 0.071007
O O3 0.056878 0.021384 0.780234
O O4 0.887609 0.765961 0.907586
O O5 0.193236 0.260682 0.498088
O O6 0.083284 0.561563 0.236972
O O7 0.835135 0.581690 0.347424
O O8 0.349223 0.807926 0.624492
O O9 0.689102 0.830441 0.059617
O O10 0.644232 0.313154 0.874668
O O11 0.578373 0.105659 0.554726
O O12 0.752033 0.083963 0.382317
#
# Coordination Sequence:
#
# PCOD8000207 Si02
#       6
#     1   1   1   1   1   1
#     4  11  25  48  66 103 138 175 228 277 336 405
#     4  10  25  39  70  98 134 171 226 269 336 392
#     4   9  24  44  70 100 131 185 216 280 336 394
#     4  11  22  45  67  98 135 178 219 274 336 401
#     4  10  26  44  71 104 133 180 225 282 332 402
#     4  11  26  44  72  99 137 179 224 282 336 392
#
# _framework density 25.941437000000001
#
# number of rings (size 3 to 8) (size 9 to 14) (size 15 to 20)
#    1.000    0.667    0.000    3.000    4.667    9.333 
#    0.000    0.000    0.000    0.000    0.000    0.000 
#    0.000    0.000    0.000    0.000    0.000    0.000 
#
# Total GULP energy -74348.408853 kJ/mol
# GULP energy per Si atom -12391.401476 kJ/mol
# Density = 2.588239 g / cm^3
# Si number density = 25.941437 Si / 1000 Ang^3
#
#
#
# Elastic Constant Matrix: (Units=GPa)
#
#
# Indices 1 2 3 4 5 6 
#
# 1 84.3096 29.2344 54.0272 14.3615 5.0604 -29.8659
# 2 29.2344 83.2650 7.8062 4.4783 -7.7070 -8.8420
# 3 54.0272 7.8062 138.1439 25.7555 -21.0042 -15.5310
# 4 14.3615 4.4783 25.7555 23.3989 -22.4042 -4.4954
# 5 5.0604 -7.7070 -21.0042 -22.4042 50.4736 -0.2198
# 6 -29.8659 -8.8420 -15.5310 -4.4954 -0.2198 42.3543
#
#
#
# Elastic Compliance Matrix: (Units=1/GPa)
#
#
# Indices 1 2 3 4 5 6 
#
# 1 0.029565 -0.008593 -0.008177 -0.021148 -0.017007 0.013722
# 2 -0.008593 0.014964 0.002235 0.006217 0.006830 -0.001421
# 3 -0.008177 0.002235 0.011620 -0.004795 0.003862 -0.001528
# 4 -0.021148 0.006217 -0.004795 0.104419 0.047406 -0.004044
# 5 -0.017007 0.006830 0.003862 0.047406 0.045193 -0.003884
# 6 0.013722 -0.001421 -0.001528 -0.004044 -0.003884 0.031980
#
#
# Mechanical properties :
#
#
# Convention : Reuss Voigt Hill
#
# Bulk Modulus (GPa) = 36.93047 54.20600 45.56823
# Shear Modulus (GPa) = 18.12644 37.55540 27.84092
#
# Velocity S-wave (km/s) = 2.64625 3.80899 3.27956
# Velocity P-wave (km/s) = 4.85838 6.34708 5.65196
#
# Compressibility (1/GPa) = 0.02707791
#
# Stress axis : x y z
#
# Youngs Moduli (GPa) = 33.82361 66.82538 86.05815
#
# Poissons Ratio (x) = 0.57425 0.70373
# Poissons Ratio (y) = 0.29065 -0.19232
# Poissons Ratio (z) = 0.27659 -0.14934
#
# Static dielectric constant tensor:
#      x y z
#    x 4.463150 -0.443060 -0.043480 
#    y -0.443060 4.319330 0.151350 
#    z -0.043480 0.151350 4.737290 
# 
# 
# High freq. dielectric constant tensor:
#      x y z
#    x 2.028130 -0.019410 -0.002840 
#    y -0.019410 2.023940 0.004660 
#    z -0.002840 0.004660 2.053890 
# 
# From -- ./inp_files/847.got.cif
#   From: 2010.03.12/outbox.cif.g09.slc.cpg/sg1_1_cif.got.tgz:847.got - 2010.03.29 11:57:58.
