data_PCOD8000860
_publ_section_title
;
Structure prediction by ZEFSAII (Michael W. Deem and Ramdas Pophale) SiO2 
 PCOD8000860
Probable space group: P -1
;
_chemical_formula_sum "Si O2"
_cell_formula_units_Z 16
_cell_length_a 8.170995
_cell_length_b 20.188759
_cell_length_c 12.406663
_cell_angle_alpha 22.809385
_cell_angle_beta 78.572390
_cell_angle_gamma 79.476650
_cell_volume 777.681737
_symmetry_space_group_name_H-M "P -1"
_symmetry_group_IT_number 2
_symmetry_cell_setting 'triclinic'
loop_
_space_group_symop_operation_xyz
x,y,z
-x,-y,-z
loop_
_atom_site_type_symbol
_atom_site_label
_atom_site_fract_x
_atom_site_fract_y
_atom_site_fract_z
Si Si1 0.392513 0.106674 0.149260
Si Si2 0.487461 0.541972 0.813230
Si Si3 0.250000 0.781978 0.577034
Si Si4 0.806130 0.757679 0.415939
Si Si5 0.250000 0.976681 0.784978
Si Si6 0.987461 0.458028 0.939146
Si Si7 0.107487 0.106675 0.030719
Si Si8 0.306130 0.242322 0.188974
O O1 0.250000 0.193576 0.959638
O O2 0.587190 0.147709 0.034731
O O3 0.351926 0.152577 0.207032
O O4 0.385921 0.900874 0.441672
O O5 0.328190 0.669146 0.639150
O O6 0.644194 0.640193 0.596770
O O7 0.500000 0.500000 0.000000
O O8 0.457136 0.368048 0.012998
O O9 0.171810 0.669146 0.853414
O O10 0.114079 0.900874 0.355706
O O11 0.957136 0.631953 0.617142
O O12 0.851926 0.847420 0.164766
O O13 0.774034 0.905521 0.284208
O O14 0.274032 0.094484 0.500766
O O15 0.087190 0.852290 0.977857
O O16 0.000000 0.500000 0.000000
O O17 0.144194 0.359808 0.017347
#
# Coordination Sequence:
#
# PCOD8000860 Si02
#       8
#     2   2   2   2   2   2   2   2
#     4  10  25  43  65  98 139 174 221 269 337 399
#     4  12  20  37  67  97 132 166 221 280 329 380
#     4  10  19  40  64  89 132 172 212 272 323 380
#     4  12  23  41  66 104 129 174 222 281 332 393
#     4  12  21  40  72  95 134 170 228 278 327 386
#     4  12  20  37  67  97 132 166 221 280 329 380
#     4  10  25  43  65  98 139 174 221 269 337 399
#     4  12  23  41  66 104 129 174 222 281 332 393
#
# _framework density 20.573969000000002
#
# number of rings (size 3 to 8) (size 9 to 14) (size 15 to 20)
#    0.750    0.000    7.500    0.750    0.000    4.000 
#    4.500    1.250    0.000    0.000    0.000    0.000 
#    0.000    0.000    0.000    0.000    0.000    0.000 
#
# Total GULP energy -198255.645413 kJ/mol
# GULP energy per Si atom -12390.977838 kJ/mol
# Density = 2.052714 g / cm^3
# Si number density = 20.573969 Si / 1000 Ang^3
#
#
#
# Elastic Constant Matrix: (Units=GPa)
#
#
# Indices 1 2 3 4 5 6 
#
# 1 146.5771 43.7808 23.4085 13.0041 -3.2794 -13.1944
# 2 43.7808 114.4338 43.7508 22.1549 0.3389 0.2013
# 3 23.4085 43.7508 58.5771 15.6595 0.2064 -1.0132
# 4 13.0041 22.1549 15.6595 23.4583 0.6642 1.1278
# 5 -3.2794 0.3389 0.2064 0.6642 21.8563 2.8286
# 6 -13.1944 0.2013 -1.0132 1.1278 2.8286 27.0408
#
#
#
# Elastic Compliance Matrix: (Units=1/GPa)
#
#
# Indices 1 2 3 4 5 6 
#
# 1 0.008244 -0.002462 -0.000891 -0.001866 0.000823 0.003999
# 2 -0.002462 0.013880 -0.007648 -0.006572 -0.000144 -0.001302
# 3 -0.000891 -0.007648 0.025691 -0.009478 -0.000098 0.000991
# 4 -0.001866 -0.006572 -0.009478 0.056400 -0.001359 -0.003427
# 5 0.000823 -0.000144 -0.000098 -0.001359 0.046492 -0.004408
# 6 0.003999 -0.001302 0.000991 -0.003427 -0.004408 0.039583
#
#
# Mechanical properties :
#
#
# Convention : Reuss Voigt Hill
#
# Bulk Modulus (GPa) = 38.73922 60.16315 49.45118
# Shear Modulus (GPa) = 22.63525 28.38093 25.50809
#
# Velocity S-wave (km/s) = 3.32051 3.71814 3.52493
# Velocity P-wave (km/s) = 5.79406 6.90931 6.37612
#
# Compressibility (1/GPa) = 0.02581363
#
# Stress axis : x y z
#
# Youngs Moduli (GPa) = 121.30308 72.04867 38.92433
#
# Poissons Ratio (x) = 0.17736 0.03467
# Poissons Ratio (y) = 0.29860 0.29769
# Poissons Ratio (z) = 0.10804 0.55103
#
# Static dielectric constant tensor:
#      x y z
#    x 4.399340 -0.136910 -0.044510 
#    y -0.136910 3.560810 -0.103620 
#    z -0.044510 -0.103620 3.701780 
# 
# 
# High freq. dielectric constant tensor:
#      x y z
#    x 1.831730 -0.002080 0.000810 
#    y -0.002080 1.777500 -0.002890 
#    z 0.000810 -0.002890 1.781640 
# 
# From -- ./inp_files/405207.got.cif
#   From: 2010.06.25/outbox.cif.g09.slc.cpg/sg2_203_cif.got.tgz:405207.got - 2010.06.27 13:26:56.
