data_PCOD8000473
_publ_section_title
;
Structure prediction by ZEFSAII (Michael W. Deem and Ramdas Pophale) SiO2 
 PCOD8000473
Probable space group: P -1
;
_chemical_formula_sum "Si O2"
_cell_formula_units_Z 14
_cell_length_a 5.344648
_cell_length_b 12.586665
_cell_length_c 8.726354
_cell_angle_alpha 88.447755
_cell_angle_beta 72.181486
_cell_angle_gamma 84.168572
_cell_volume 555.976414
_symmetry_space_group_name_H-M "P -1"
_symmetry_group_IT_number 2
_symmetry_cell_setting 'triclinic'
loop_
_space_group_symop_operation_xyz
x,y,z
-x,-y,-z
loop_
_atom_site_type_symbol
_atom_site_label
_atom_site_fract_x
_atom_site_fract_y
_atom_site_fract_z
Si Si1 0.346331 0.244385 0.234730
Si Si2 0.682506 0.588623 0.005982
Si Si3 0.187065 0.045562 0.652014
Si Si4 0.640194 0.989051 0.815604
Si Si5 0.120588 0.642847 0.489105
Si Si6 0.599146 0.172614 0.468461
Si Si7 0.889260 0.526508 0.271675
O O1 0.424181 0.298843 0.058242
O O2 0.612790 0.217669 0.289464
O O3 0.149940 0.321448 0.372490
O O4 0.228359 0.132563 0.224812
O O5 0.963674 0.554851 0.875074
O O6 0.500000 0.500000 0.000000
O O7 0.691480 0.599345 0.191173
O O8 0.404243 0.022461 0.743579
O O9 0.285537 0.151504 0.549361
O O10 0.883099 0.064512 0.761470
O O11 0.220200 0.940909 0.536285
O O12 0.500000 0.000000 0.000000
O O13 0.310441 0.738097 0.437413
O O14 0.253648 0.542551 0.570837
O O15 0.070775 0.604142 0.326585
#
# Coordination Sequence:
#
# PCOD8000473 Si02
#       7
#     2   2   2   2   2   2   2
#     4  10  22  38  64  91 128 177 222 279 343 406
#     4  10  20  40  61  90 134 172 218 268 342 408
#     4  10  23  40  69  96 134 179 229 290 342 403
#     4  11  23  45  65  97 138 182 228 284 347 415
#     4  10  19  39  62  95 132 169 228 280 337 403
#     4  10  21  37  65  95 130 172 231 281 344 399
#     4   9  21  37  63  93 130 174 217 279 334 406
#
# _framework density 25.180924999999998
#
# number of rings (size 3 to 8) (size 9 to 14) (size 15 to 20)
#    0.000    2.000    1.429    1.286    2.000    2.857 
#    5.143    4.286    0.000    0.000    0.000    0.000 
#    0.000    0.000    0.000    0.000    0.000    0.000 
#
# Total GULP energy -173445.739047 kJ/mol
# GULP energy per Si atom -12388.981360 kJ/mol
# Density = 2.512361 g / cm^3
# Si number density = 25.180925 Si / 1000 Ang^3
#
#
#
# Elastic Constant Matrix: (Units=GPa)
#
#
# Indices 1 2 3 4 5 6 
#
# 1 93.4043 38.5236 36.0220 -6.1586 10.6075 28.8758
# 2 38.5236 109.8167 44.9360 -15.5879 29.5118 34.3926
# 3 36.0220 44.9360 127.9099 -9.5314 38.1651 10.6531
# 4 -6.1586 -15.5879 -9.5314 39.8564 -9.6954 1.2900
# 5 10.6075 29.5118 38.1651 -9.6954 39.5119 -2.3080
# 6 28.8758 34.3926 10.6531 1.2900 -2.3080 46.3785
#
#
#
# Elastic Compliance Matrix: (Units=1/GPa)
#
#
# Indices 1 2 3 4 5 6 
#
# 1 0.014859 -0.001395 -0.002876 0.001233 -0.000310 -0.007606
# 2 -0.001395 0.017676 -0.000990 0.004045 -0.011621 -0.012703
# 3 -0.002876 -0.000990 0.012082 -0.000425 -0.010307 -0.000751
# 4 0.001233 0.004045 -0.000425 0.027781 0.003626 -0.004262
# 5 -0.000310 -0.011621 -0.010307 0.003626 0.045697 0.013352
# 6 -0.007606 -0.012703 -0.000751 -0.004262 0.013352 0.036673
#
#
# Mechanical properties :
#
#
# Convention : Reuss Voigt Hill
#
# Bulk Modulus (GPa) = 29.33105 63.34378 46.33742
# Shear Modulus (GPa) = 28.30375 39.25931 33.78153
#
# Velocity S-wave (km/s) = 3.35627 3.95281 3.66669
# Velocity P-wave (km/s) = 5.16651 6.78550 6.03058
#
# Compressibility (1/GPa) = 0.03409356
#
# Stress axis : x y z
#
# Youngs Moduli (GPa) = 67.30071 56.57394 82.76744
#
# Poissons Ratio (x) = 0.07892 0.23808
# Poissons Ratio (y) = 0.09388 0.08195
# Poissons Ratio (z) = 0.19359 0.05602
#
# Static dielectric constant tensor:
#      x y z
#    x 4.298390 -0.117160 0.258590 
#    y -0.117160 5.149720 -0.289260 
#    z 0.258590 -0.289260 5.105130 
# 
# 
# High freq. dielectric constant tensor:
#      x y z
#    x 1.990720 0.003540 0.023280 
#    y 0.003540 2.000780 -0.022590 
#    z 0.023280 -0.022590 2.001440 
# 
# From -- ./inp_files/131612.got.cif
#   From: 2010.06.25/outbox.cif.g09.slc.cpg/sg2_66_cif.got.tgz:131612.got - 2010.06.27 13:26:56.
