data_PCOD8000808
_publ_section_title
;
Structure prediction by ZEFSAII (Michael W. Deem and Ramdas Pophale) SiO2 
 PCOD8000808
Probable space group: P -1
;
_chemical_formula_sum "Si O2"
_cell_formula_units_Z 16
_cell_length_a 15.681622
_cell_length_b 16.615888
_cell_length_c 9.440540
_cell_angle_alpha 144.884874
_cell_angle_beta 142.319453
_cell_angle_gamma 35.582629
_cell_volume 762.597337
_symmetry_space_group_name_H-M "P -1"
_symmetry_group_IT_number 2
_symmetry_cell_setting 'triclinic'
loop_
_space_group_symop_operation_xyz
x,y,z
-x,-y,-z
loop_
_atom_site_type_symbol
_atom_site_label
_atom_site_fract_x
_atom_site_fract_y
_atom_site_fract_z
Si Si1 0.884046 0.150902 0.974050
Si Si2 0.423687 0.758605 0.731356
Si Si3 0.025792 0.498490 0.761648
Si Si4 0.728484 0.477034 0.409293
Si Si5 0.723021 0.443330 0.676121
Si Si6 0.561049 0.197286 0.509052
Si Si7 0.578457 0.963706 0.704862
Si Si8 0.090300 0.265798 0.289700
O O1 0.790479 0.320239 0.172183
O O2 0.004919 0.156038 0.025189
O O3 0.745402 0.129928 0.688387
O O4 0.000000 0.000000 0.000000
O O5 0.578768 0.606830 0.775194
O O6 0.283791 0.706704 0.473193
O O7 0.451070 0.814183 0.693075
O O8 0.390503 0.894337 0.996706
O O9 0.108735 0.316230 0.549275
O O10 0.854735 0.544547 0.669444
O O11 0.025624 0.587474 0.746215
O O12 0.118971 0.543979 0.065706
O O13 0.710620 0.423583 0.464786
O O14 0.558376 0.619856 0.338650
O O15 0.517891 0.076041 0.360824
O O16 0.746442 0.812490 0.690326
O O17 0.500000 0.000000 0.500000
#
# Coordination Sequence:
#
# PCOD8000808 Si02
#       8
#     2   2   2   2   2   2   2   2
#     4  11  24  41  62  98 135 167 216 269 329 377
#     4  10  24  42  62  96 131 168 218 262 329 385
#     4  10  19  40  61  92 124 168 213 267 319 378
#     4  10  22  40  66  95 126 171 226 259 319 398
#     4  10  21  39  65  90 130 168 214 269 320 384
#     4  11  23  45  67  93 130 178 211 273 322 387
#     4  12  24  41  68  95 128 169 217 268 322 388
#     4  10  22  38  62  90 128 162 215 262 316 390
#
# _framework density 20.980927000000001
#
# number of rings (size 3 to 8) (size 9 to 14) (size 15 to 20)
#    0.000    1.500    1.250    3.375    3.500    1.000 
#    6.750    1.250    0.000    0.000    0.000    0.000 
#    0.000    0.000    0.000    0.000    0.000    0.000 
#
# Total GULP energy -198295.240539 kJ/mol
# GULP energy per Si atom -12393.452534 kJ/mol
# Density = 2.093317 g / cm^3
# Si number density = 20.980927 Si / 1000 Ang^3
#
#
#
# Elastic Constant Matrix: (Units=GPa)
#
#
# Indices 1 2 3 4 5 6 
#
# 1 100.3383 21.8815 26.6388 -0.1905 20.4203 15.5214
# 2 21.8815 87.0465 38.1526 -3.9475 4.0501 5.6672
# 3 26.6388 38.1526 90.3282 -4.5861 12.8216 -3.8169
# 4 -0.1905 -3.9475 -4.5861 25.0009 -3.7263 4.9710
# 5 20.4203 4.0501 12.8216 -3.7263 38.6828 2.4351
# 6 15.5214 5.6672 -3.8169 4.9710 2.4351 32.6740
#
#
#
# Elastic Compliance Matrix: (Units=1/GPa)
#
#
# Indices 1 2 3 4 5 6 
#
# 1 0.013015 -0.001470 -0.002698 -0.000295 -0.005486 -0.005789
# 2 -0.001470 0.014714 -0.006034 0.002041 0.001620 -0.002990
# 3 -0.002698 -0.006034 0.015067 0.000474 -0.003160 0.004252
# 4 -0.000295 0.002041 0.000474 0.042427 0.004308 -0.006935
# 5 -0.005486 0.001620 -0.003160 0.004308 0.030099 -0.000943
# 6 -0.005789 -0.002990 0.004252 -0.006935 -0.000943 0.035496
#
#
# Mechanical properties :
#
#
# Convention : Reuss Voigt Hill
#
# Bulk Modulus (GPa) = 44.65970 50.11766 47.38868
# Shear Modulus (GPa) = 27.98193 32.00755 29.99474
#
# Velocity S-wave (km/s) = 3.65593 3.91007 3.78513
# Velocity P-wave (km/s) = 6.25725 6.65763 6.46054
#
# Compressibility (1/GPa) = 0.02239155
#
# Stress axis : x y z
#
# Youngs Moduli (GPa) = 76.83654 67.96117 66.36849
#
# Poissons Ratio (x) = 0.09992 0.17906
# Poissons Ratio (y) = 0.11297 0.40047
# Poissons Ratio (z) = 0.20731 0.41008
#
# Static dielectric constant tensor:
#      x y z
#    x 3.885130 -0.006790 0.220460 
#    y -0.006790 3.731270 0.050500 
#    z 0.220460 0.050500 3.751060 
# 
# 
# High freq. dielectric constant tensor:
#      x y z
#    x 1.835620 0.004570 0.013840 
#    y 0.004570 1.815200 0.003460 
#    z 0.013840 0.003460 1.812900 
# 
# From -- ./inp_files/224064.got.cif
#   From: 2010.06.25/outbox.cif.g09.slc.cpg/sg2_113_cif.got.tgz:224064.got - 2010.06.27 13:26:56.
