data_PCOD8000499
_publ_section_title
;
Structure prediction by ZEFSAII (Michael W. Deem and Ramdas Pophale) SiO2 
 PCOD8000499
Probable space group: P -1
;
_chemical_formula_sum "Si O2"
_cell_formula_units_Z 16
_cell_length_a 10.080887
_cell_length_b 22.692376
_cell_length_c 12.202159
_cell_angle_alpha 142.683406
_cell_angle_beta 39.005916
_cell_angle_gamma 151.796000
_cell_volume 770.931282
_symmetry_space_group_name_H-M "P -1"
_symmetry_group_IT_number 2
_symmetry_cell_setting 'triclinic'
loop_
_space_group_symop_operation_xyz
x,y,z
-x,-y,-z
loop_
_atom_site_type_symbol
_atom_site_label
_atom_site_fract_x
_atom_site_fract_y
_atom_site_fract_z
Si Si1 0.851562 0.343426 0.104504
Si Si2 0.305996 0.458008 0.799657
Si Si3 0.451157 0.957663 0.141807
Si Si4 0.354689 0.054150 0.558981
Si Si5 0.065352 0.797222 0.493413
Si Si6 0.968018 0.117705 0.888488
Si Si7 0.530335 0.619263 0.694191
Si Si8 0.740109 0.585209 0.879686
O O1 0.643216 0.368368 0.260762
O O2 0.977840 0.383443 0.208106
O O3 0.678887 0.189107 0.963043
O O4 0.109799 0.439911 0.994440
O O5 0.410538 0.583093 0.842109
O O6 0.595139 0.500778 0.734211
O O7 0.128707 0.321426 0.645531
O O8 0.251829 0.951438 0.174394
O O9 0.455212 0.023654 0.345231
O O10 0.778975 0.050092 0.021397
O O11 0.649396 0.173898 0.613903
O O12 0.183593 0.096196 0.699887
O O13 0.146274 0.926221 0.581931
O O14 0.870496 0.756006 0.666388
O O15 0.171567 0.275950 0.993209
O O16 0.500000 0.500000 0.500000
O O17 0.500000 0.500000 0.000000
#
# Coordination Sequence:
#
# PCOD8000499 Si02
#       8
#     2   2   2   2   2   2   2   2
#     4  10  19  39  63  88 120 163 206 252 318 370
#     4  10  20  40  62  86 122 163 203 252 310 372
#     4  10  21  40  65  93 125 159 207 261 310 371
#     4  11  22  41  63  89 128 161 207 261 308 363
#     4  10  23  40  56  88 122 161 208 251 311 372
#     4  10  22  39  66  96 120 160 210 256 311 370
#     4  10  22  37  59  86 126 159 204 258 301 369
#     4   9  21  38  64  90 120 159 206 250 310 380
#
# _framework density 20.754121000000001
#
# number of rings (size 3 to 8) (size 9 to 14) (size 15 to 20)
#    0.000    2.000    1.250    1.500    1.750    5.000 
#    0.000    4.375    0.000    0.000    0.000    0.000 
#    0.000    0.000    0.000    0.000    0.000    0.000 
#
# Total GULP energy -198284.883041 kJ/mol
# GULP energy per Si atom -12392.805190 kJ/mol
# Density = 2.070688 g / cm^3
# Si number density = 20.754121 Si / 1000 Ang^3
#
#
#
# Elastic Constant Matrix: (Units=GPa)
#
#
# Indices 1 2 3 4 5 6 
#
# 1 146.6118 59.1898 53.4660 9.4521 -15.3649 7.6704
# 2 59.1898 133.7650 43.3279 -11.9718 6.4055 -2.8335
# 3 53.4660 43.3279 71.7020 -1.5060 -7.8411 2.5945
# 4 9.4521 -11.9718 -1.5060 23.7278 1.5779 11.3610
# 5 -15.3649 6.4055 -7.8411 1.5779 37.1168 2.6946
# 6 7.6704 -2.8335 2.5945 11.3610 2.6946 34.3565
#
#
#
# Elastic Compliance Matrix: (Units=1/GPa)
#
#
# Indices 1 2 3 4 5 6 
#
# 1 0.011547 -0.004114 -0.005751 -0.007111 0.004613 -0.000493
# 2 -0.004114 0.011611 -0.004337 0.007497 -0.004950 0.000113
# 3 -0.005751 -0.004337 0.021271 0.002014 0.002890 -0.001573
# 4 -0.007111 0.007497 0.002014 0.057090 -0.005046 -0.016429
# 5 0.004613 -0.004950 0.002890 -0.005046 0.030705 -0.002396
# 6 -0.000493 0.000113 -0.001573 -0.016429 -0.002396 0.034965
#
#
# Mechanical properties :
#
#
# Convention : Reuss Voigt Hill
#
# Bulk Modulus (GPa) = 62.40159 73.78293 68.09226
# Shear Modulus (GPa) = 24.88383 32.11322 28.49852
#
# Velocity S-wave (km/s) = 3.46639 3.93786 3.70962
# Velocity P-wave (km/s) = 6.79364 7.50359 7.15742
#
# Compressibility (1/GPa) = 0.01602523
#
# Stress axis : x y z
#
# Youngs Moduli (GPa) = 86.60489 86.12199 47.01346
#
# Poissons Ratio (x) = 0.35434 0.27037
# Poissons Ratio (y) = 0.35632 0.20387
# Poissons Ratio (z) = 0.49805 0.37347
#
# Static dielectric constant tensor:
#      x y z
#    x 4.363140 -0.193960 0.354120 
#    y -0.193960 4.404940 -0.434420 
#    z 0.354120 -0.434420 3.495770 
# 
# 
# High freq. dielectric constant tensor:
#      x y z
#    x 1.827060 -0.002430 0.008150 
#    y -0.002430 1.835570 -0.013180 
#    z 0.008150 -0.013180 1.775040 
# 
# From -- ./inp_files/404846.got.cif
#   From: 2010.06.25/outbox.cif.g09.slc.cpg/sg2_203_cif.got.tgz:404846.got - 2010.06.27 13:26:56.
