data_PCOD8000837
_publ_section_title
;
Structure prediction by ZEFSAII (Michael W. Deem and Ramdas Pophale) SiO2 
 PCOD8000837
Probable space group: P -1
;
_chemical_formula_sum "Si O2"
_cell_formula_units_Z 14
_cell_length_a 11.345303
_cell_length_b 14.197096
_cell_length_c 9.235800
_cell_angle_alpha 112.814064
_cell_angle_beta 72.107922
_cell_angle_gamma 52.872936
_cell_volume 739.557531
_symmetry_space_group_name_H-M "P -1"
_symmetry_group_IT_number 2
_symmetry_cell_setting 'triclinic'
loop_
_space_group_symop_operation_xyz
x,y,z
-x,-y,-z
loop_
_atom_site_type_symbol
_atom_site_label
_atom_site_fract_x
_atom_site_fract_y
_atom_site_fract_z
Si Si1 0.652434 0.608350 0.859167
Si Si2 0.187821 0.151037 0.637626
Si Si3 0.434035 0.929009 0.957554
Si Si4 0.545986 0.468895 0.796069
Si Si5 0.528488 0.850349 0.547061
Si Si6 0.277201 0.462044 0.878549
Si Si7 0.005927 0.217138 0.458002
O O1 0.594166 0.753992 0.894090
O O2 0.497081 0.621433 0.861860
O O3 0.904042 0.402482 0.607579
O O4 0.629020 0.635094 0.058074
O O5 0.346231 0.128292 0.497237
O O6 0.119359 0.122727 0.515458
O O7 0.311159 0.999910 0.620561
O O8 0.980584 0.343866 0.907023
O O9 0.460323 0.875888 0.752141
O O10 0.500000 0.000000 0.000000
O O11 0.180738 0.083655 0.185820
O O12 0.397500 0.483628 0.786143
O O13 0.805946 0.271927 0.549493
O O14 0.500000 0.500000 0.000000
O O15 0.683931 0.653104 0.320128
#
# Coordination Sequence:
#
# PCOD8000837 Si02
#       7
#     2   2   2   2   2   2   2
#     4   8  20  37  61  84 110 144 195 237 274 334
#     4  10  20  39  58  85 117 145 195 243 275 338
#     4  12  23  38  56  83 122 157 185 228 291 350
#     4   8  16  38  64  87 108 141 203 239 274 329
#     4  11  24  35  55  88 121 150 187 233 292 341
#     4  10  19  40  63  86 109 151 191 245 285 321
#     4   9  19  39  61  86 111 147 196 237 276 339
#
# _framework density 18.930239
#
# number of rings (size 3 to 8) (size 9 to 14) (size 15 to 20)
#    0.857    1.429    2.857    1.286    2.000    1.714 
#    2.571    3.571    0.000    0.000    0.000    0.000 
#    0.000    0.000    0.000    0.000    0.000    0.000 
#
# Total GULP energy -173466.727424 kJ/mol
# GULP energy per Si atom -12390.480530 kJ/mol
# Density = 1.888715 g / cm^3
# Si number density = 18.930239 Si / 1000 Ang^3
#
#
#
# Elastic Constant Matrix: (Units=GPa)
#
#
# Indices 1 2 3 4 5 6 
#
# 1 26.9821 18.6544 6.9438 -4.8343 -5.7337 -0.8794
# 2 18.6544 75.7497 29.3331 2.9951 -5.7841 4.1563
# 3 6.9438 29.3331 127.5517 -8.4556 -6.1854 -14.2305
# 4 -4.8343 2.9951 -8.4556 21.7434 -4.8480 0.6101
# 5 -5.7337 -5.7841 -6.1854 -4.8480 32.6170 3.7415
# 6 -0.8794 4.1563 -14.2305 0.6101 3.7415 12.0869
#
#
#
# Elastic Compliance Matrix: (Units=1/GPa)
#
#
# Indices 1 2 3 4 5 6 
#
# 1 0.051053 -0.014164 0.002910 0.016069 0.008417 0.008594
# 2 -0.014164 0.020172 -0.006009 -0.007738 0.000496 -0.014804
# 3 0.002910 -0.006009 0.011123 0.005532 0.000670 0.014887
# 4 0.016069 -0.007738 0.005532 0.054921 0.010157 0.004427
# 5 0.008417 0.000496 0.000670 0.010157 0.035025 -0.010124
# 6 0.008594 -0.014804 0.014887 0.004427 -0.010124 0.108888
#
#
# Mechanical properties :
#
#
# Convention : Reuss Voigt Hill
#
# Bulk Modulus (GPa) = 20.90978 37.79402 29.35190
# Shear Modulus (GPa) = 15.07625 24.97960 20.02793
#
# Velocity S-wave (km/s) = 2.82514 3.63652 3.25620
# Velocity P-wave (km/s) = 4.65957 6.13519 5.44757
#
# Compressibility (1/GPa) = 0.04782451
#
# Stress axis : x y z
#
# Youngs Moduli (GPa) = 19.58762 49.57314 89.90002
#
# Poissons Ratio (x) = 0.70213 -0.26162
# Poissons Ratio (y) = 0.27743 0.54017
# Poissons Ratio (z) = -0.05700 0.29786
#
# Static dielectric constant tensor:
#      x y z
#    x 3.988840 0.254690 -0.272250 
#    y 0.254690 3.321060 -0.016410 
#    z -0.272250 -0.016410 3.543140 
# 
# 
# High freq. dielectric constant tensor:
#      x y z
#    x 1.722190 0.002630 -0.006380 
#    y 0.002630 1.709830 0.007070 
#    z -0.006380 0.007070 1.741440 
# 
# From -- ./inp_files/255558.got.cif
#   From: 2010.06.25/outbox.cif.g09.slc.cpg/sg2_128_cif.got.tgz:255558.got - 2010.06.27 13:26:56.
