data_PCOD8000308
_publ_section_title
;
Structure prediction by ZEFSAII (Michael W. Deem and Ramdas Pophale) SiO2 
 PCOD8000308
Probable space group: P -1
;
_chemical_formula_sum "Si O2"
_cell_formula_units_Z 16
_cell_length_a 18.295515
_cell_length_b 23.178958
_cell_length_c 5.423576
_cell_angle_alpha 76.246884
_cell_angle_beta 73.732248
_cell_angle_gamma 16.527499
_cell_volume 624.081400
_symmetry_space_group_name_H-M "P -1"
_symmetry_group_IT_number 2
_symmetry_cell_setting 'triclinic'
loop_
_space_group_symop_operation_xyz
x,y,z
-x,-y,-z
loop_
_atom_site_type_symbol
_atom_site_label
_atom_site_fract_x
_atom_site_fract_y
_atom_site_fract_z
Si Si1 0.260739 0.151903 0.419058
Si Si2 0.388305 0.965919 0.104976
Si Si3 0.928018 0.163345 0.929812
Si Si4 0.475217 0.313050 0.099378
Si Si5 0.886948 0.611879 0.742218
Si Si6 0.058273 0.887822 0.528540
Si Si7 0.057333 0.712967 0.137601
Si Si8 0.496033 0.761335 0.355504
O O1 0.063842 0.353488 0.335159
O O2 0.096336 0.222180 0.629360
O O3 0.500000 0.000000 0.500000
O O4 0.388714 0.028349 0.179241
O O5 0.500066 0.829561 0.309040
O O6 0.573154 0.835000 0.821691
O O7 0.097202 0.164139 0.097844
O O8 0.211174 0.920980 0.956222
O O9 0.785772 0.239395 0.749294
O O10 0.940865 0.224045 0.800135
O O11 0.783769 0.255234 0.233942
O O12 0.362465 0.366973 0.400182
O O13 0.354179 0.469907 0.050249
O O14 0.366324 0.360875 0.908257
O O15 0.000000 0.500000 0.500000
O O16 0.000000 0.500000 0.000000
O O17 0.796275 0.046022 0.568987
O O18 0.000000 0.000000 0.500000
#
# Coordination Sequence:
#
# PCOD8000308 Si02
#       8
#     2   2   2   2   2   2   2   2
#     4  12  27  47  65  97 131 176 233 286 348 408
#     4  12  26  46  72  94 137 180 231 291 339 415
#     4  10  22  43  63 102 137 173 227 278 328 403
#     4  10  23  40  66 100 134 174 223 281 336 396
#     4  12  30  47  68  95 136 177 225 286 356 405
#     4  10  19  38  71  99 135 183 221 267 339 403
#     4  12  26  41  74  95 135 180 228 284 342 401
#     4  10  23  43  67  99 139 170 232 277 336 402
#
# _framework density 25.637678999999999
#
# number of rings (size 3 to 8) (size 9 to 14) (size 15 to 20)
#    0.000    1.000    3.750    3.000    7.000    0.000 
#    0.000    0.000    0.000   18.000    0.000    0.000 
#    0.000    0.000    0.000    0.000    0.000    0.000 
#
# Total GULP energy -198270.077801 kJ/mol
# GULP energy per Si atom -12391.879863 kJ/mol
# Density = 2.557933 g / cm^3
# Si number density = 25.637679 Si / 1000 Ang^3
#
#
#
# Elastic Constant Matrix: (Units=GPa)
#
#
# Indices 1 2 3 4 5 6 
#
# 1 106.0082 15.5412 46.5253 5.2454 8.7962 46.7537
# 2 15.5412 96.8271 31.3730 6.9347 10.5755 34.5983
# 3 46.5253 31.3730 199.5912 -9.8171 35.3514 31.3838
# 4 5.2454 6.9347 -9.8171 28.2120 14.0819 -4.3575
# 5 8.7962 10.5755 35.3514 14.0819 48.9572 4.5360
# 6 46.7537 34.5983 31.3838 -4.3575 4.5360 42.1025
#
#
#
# Elastic Compliance Matrix: (Units=1/GPa)
#
#
# Indices 1 2 3 4 5 6 
#
# 1 0.027019 0.011556 -0.003443 -0.016902 0.003617 -0.039072
# 2 0.011556 0.020558 -0.002222 -0.013395 0.001687 -0.029638
# 3 -0.003443 -0.002222 0.007422 0.007252 -0.006492 0.001567
# 4 -0.016902 -0.013395 0.007252 0.059076 -0.019316 0.032567
# 5 0.003617 0.001687 -0.006492 -0.019316 0.030194 -0.005816
# 6 -0.039072 -0.029638 0.001567 0.032567 -0.005816 0.094325
#
#
# Mechanical properties :
#
#
# Convention : Reuss Voigt Hill
#
# Bulk Modulus (GPa) = 14.97456 65.47838 40.22647
# Shear Modulus (GPa) = 20.07442 44.45349 32.26396
#
# Velocity S-wave (km/s) = 2.80126 4.16854 3.55132
# Velocity P-wave (km/s) = 4.03934 6.98315 5.70441
#
# Compressibility (1/GPa) = 0.06677992
#
# Stress axis : x y z
#
# Youngs Moduli (GPa) = 37.01144 48.64216 134.72985
#
# Poissons Ratio (x) = -0.56209 0.46385
# Poissons Ratio (y) = -0.42769 0.29943
# Poissons Ratio (z) = 0.12742 0.10810
#
# Static dielectric constant tensor:
#      x y z
#    x 4.686380 0.341160 0.137150 
#    y 0.341160 4.781390 0.018850 
#    z 0.137150 0.018850 6.015790 
# 
# 
# High freq. dielectric constant tensor:
#      x y z
#    x 2.016700 0.022180 -0.001100 
#    y 0.022180 2.009660 -0.005480 
#    z -0.001100 -0.005480 2.044870 
# 
# From -- ./inp_files/112394.got.cif
#   From: 2010.06.25/outbox.cif.g09.slc.cpg/sg2_57_cif.got.tgz:112394.got - 2010.06.27 13:26:56.
