data_PCOD8000686
_publ_section_title
;
Structure prediction by ZEFSAII (Michael W. Deem and Ramdas Pophale) SiO2 
 PCOD8000686
Probable space group: P -1
;
_chemical_formula_sum "Si O2"
_cell_formula_units_Z 16
_cell_length_a 10.977890
_cell_length_b 16.369349
_cell_length_c 11.230605
_cell_angle_alpha 54.114941
_cell_angle_beta 43.384771
_cell_angle_gamma 32.522340
_cell_volume 743.350639
_symmetry_space_group_name_H-M "P -1"
_symmetry_group_IT_number 2
_symmetry_cell_setting 'triclinic'
loop_
_space_group_symop_operation_xyz
x,y,z
-x,-y,-z
loop_
_atom_site_type_symbol
_atom_site_label
_atom_site_fract_x
_atom_site_fract_y
_atom_site_fract_z
Si Si1 0.861462 0.061572 0.796791
Si Si2 0.478691 0.973168 0.376780
Si Si3 0.428757 0.763324 0.586780
Si Si4 0.392628 0.111959 0.085956
Si Si5 0.586197 0.308344 0.593696
Si Si6 0.542595 0.509051 0.823946
Si Si7 0.947705 0.835704 0.293071
Si Si8 0.202314 0.591088 0.776257
O O1 0.807946 0.152645 0.641600
O O2 0.939447 0.099808 0.820723
O O3 0.604188 0.107096 0.977152
O O4 0.109903 0.885223 0.732423
O O5 0.520393 0.836686 0.492231
O O6 0.767629 0.906404 0.240480
O O7 0.357331 0.046422 0.271834
O O8 0.257470 0.113278 0.502769
O O9 0.512650 0.711898 0.433467
O O10 0.567372 0.619650 0.694971
O O11 0.117677 0.285175 0.098083
O O12 0.500000 0.000000 0.000000
O O13 0.338449 0.435275 0.751620
O O14 0.728467 0.347458 0.412977
O O15 0.306913 0.565450 0.858600
O O16 0.815647 0.345064 0.723490
O O17 0.500000 0.500000 0.000000
#
# Coordination Sequence:
#
# PCOD8000686 Si02
#       8
#     2   2   2   2   2   2   2   2
#     4  11  22  41  66 100 132 174 216 266 334 389
#     4  10  24  45  68  96 130 171 227 273 310 401
#     4  10  22  40  70  98 123 178 219 263 336 383
#     4  12  25  39  66 102 136 170 216 278 327 380
#     4  10  19  39  67  95 127 170 212 269 319 399
#     4  11  24  43  68  95 136 173 214 274 329 393
#     4  10  23  46  67  90 132 176 221 264 328 386
#     4  10  22  39  66  97 131 173 212 266 336 380
#
# _framework density 21.524162
#
# number of rings (size 3 to 8) (size 9 to 14) (size 15 to 20)
#    0.000    1.500    1.250    4.125    7.000    1.500 
#    4.500    0.000    0.000    0.000    0.000    0.000 
#    0.000    0.000    0.000    0.000    0.000    0.000 
#
# Total GULP energy -198374.331310 kJ/mol
# GULP energy per Si atom -12398.395707 kJ/mol
# Density = 2.147517 g / cm^3
# Si number density = 21.524162 Si / 1000 Ang^3
#
#
#
# Elastic Constant Matrix: (Units=GPa)
#
#
# Indices 1 2 3 4 5 6 
#
# 1 116.1710 60.5610 54.3718 5.4332 -3.4984 -3.7934
# 2 60.5610 141.6093 46.7560 12.7330 3.0938 5.8954
# 3 54.3718 46.7560 69.4446 3.8950 -0.5893 -1.1079
# 4 5.4332 12.7330 3.8950 33.6783 -8.9194 0.3322
# 5 -3.4984 3.0938 -0.5893 -8.9194 39.0270 4.8784
# 6 -3.7934 5.8954 -1.1079 0.3322 4.8784 31.5982
#
#
#
# Elastic Compliance Matrix: (Units=1/GPa)
#
#
# Indices 1 2 3 4 5 6 
#
# 1 0.014813 -0.003403 -0.009282 0.000293 0.001289 0.001886
# 2 -0.003403 0.010307 -0.004139 -0.003288 -0.001663 -0.002185
# 3 -0.009282 -0.004139 0.024451 0.000187 -0.000159 0.000538
# 4 0.000293 -0.003288 0.000187 0.032979 0.007942 -0.000918
# 5 0.001289 -0.001663 -0.000159 0.007942 0.028180 -0.003975
# 6 0.001886 -0.002185 0.000538 -0.000918 -0.003975 0.032924
#
#
# Mechanical properties :
#
#
# Convention : Reuss Voigt Hill
#
# Bulk Modulus (GPa) = 62.80762 72.28917 67.54839
# Shear Modulus (GPa) = 27.38068 31.89643 29.63856
#
# Velocity S-wave (km/s) = 3.57051 3.85371 3.71481
# Velocity P-wave (km/s) = 6.80011 7.31160 7.06048
#
# Compressibility (1/GPa) = 0.01592163
#
# Stress axis : x y z
#
# Youngs Moduli (GPa) = 67.50755 97.02306 40.89813
#
# Poissons Ratio (x) = 0.33021 0.37962
# Poissons Ratio (y) = 0.22975 0.16929
# Poissons Ratio (z) = 0.62660 0.40161
#
# Static dielectric constant tensor:
#      x y z
#    x 4.080010 -0.042040 0.154360 
#    y -0.042040 4.222220 -0.019090 
#    z 0.154360 -0.019090 3.854430 
# 
# 
# High freq. dielectric constant tensor:
#      x y z
#    x 1.846310 0.002930 0.008080 
#    y 0.002930 1.859220 0.005090 
#    z 0.008080 0.005090 1.827020 
# 
# From -- ./inp_files/436598.got.cif
#   From: 2010.06.25/outbox.cif.g09.slc.cpg/sg2_219_cif.got.tgz:436598.got - 2010.06.27 13:26:56.
