data_PCOD8000252
_publ_section_title
;
Structure prediction by ZEFSAII (Michael W. Deem and Ramdas Pophale) SiO2 
 PCOD8000252
Probable space group: P 1
;
_chemical_formula_sum "Si O2"
_cell_formula_units_Z 8
_cell_length_a 4.938279
_cell_length_b 8.982269
_cell_length_c 9.570880
_cell_angle_alpha 97.841742
_cell_angle_beta 61.978629
_cell_angle_gamma 69.541820
_cell_volume 327.111750
_symmetry_space_group_name_H-M "P 1"
_symmetry_group_IT_number 1
_symmetry_cell_setting 'triclinic'
loop_
_space_group_symop_operation_xyz
x,y,z
loop_
_atom_site_type_symbol
_atom_site_label
_atom_site_fract_x
_atom_site_fract_y
_atom_site_fract_z
Si Si1 0.871690 0.149390 0.688520
Si Si2 0.996737 0.596582 0.310864
Si Si3 0.763616 0.353235 0.004806
Si Si4 0.974777 0.615491 0.007519
Si Si5 0.572053 0.913322 0.633288
Si Si6 0.007458 0.277581 0.396157
Si Si7 0.799727 0.120840 0.191774
Si Si8 0.420971 0.779463 0.936437
O O1 0.943358 0.262820 0.572428
O O2 0.637249 0.071979 0.671928
O O3 0.675166 0.276985 0.879572
O O4 0.223786 0.987985 0.635769
O O5 0.819551 0.646327 0.206970
O O6 0.883882 0.767618 0.449606
O O7 0.411510 0.502428 0.176012
O O8 0.879447 0.473138 0.406564
O O9 0.028085 0.430158 0.920005
O O10 0.953438 0.202474 0.051639
O O11 0.705487 0.752498 0.981272
O O12 0.346447 0.617639 0.912420
O O13 0.536404 0.826515 0.771449
O O14 0.413934 0.160790 0.246574
O O15 0.791975 0.201898 0.354525
O O16 0.047789 0.919756 0.103888
#
# Coordination Sequence:
#
# PCOD8000252 Si02
#       8
#     1   1   1   1   1   1   1   1
#     4  12  29  49  77 107 150 192 247 302 367 431
#     4  11  28  49  74 110 151 191 244 301 367 437
#     4  11  26  51  76 107 147 199 243 304 363 434
#     4  12  26  46  75 106 145 197 243 292 365 442
#     4  12  30  50  71 112 151 191 244 308 362 430
#     4  11  26  45  74 107 143 192 244 298 364 430
#     4  11  24  46  72 104 147 192 243 299 360 432
#     4  12  27  46  73 109 148 194 242 298 368 432
#
# _framework density 24.456472000000002
#
# number of rings (size 3 to 8) (size 9 to 14) (size 15 to 20)
#    0.000    0.500    3.750    2.250   14.000    0.000 
#    2.250    0.000    0.000    0.000    0.000    0.000 
#    0.000    0.000    0.000    0.000    0.000    0.000 
#
# Total GULP energy -99227.922103 kJ/mol
# GULP energy per Si atom -12403.490263 kJ/mol
# Density = 2.440081 g / cm^3
# Si number density = 24.456472 Si / 1000 Ang^3
#
#
#
# Elastic Constant Matrix: (Units=GPa)
#
#
# Indices 1 2 3 4 5 6 
#
# 1 82.1875 14.8091 14.8565 -9.0673 18.3806 10.1265
# 2 14.8091 91.3331 49.2633 -21.3901 7.6154 10.6197
# 3 14.8565 49.2633 123.1386 -13.6462 19.9529 5.2073
# 4 -9.0673 -21.3901 -13.6462 60.2189 -3.5882 12.1587
# 5 18.3806 7.6154 19.9529 -3.5882 35.1260 -5.8609
# 6 10.1265 10.6197 5.2073 12.1587 -5.8609 41.8761
#
#
#
# Elastic Compliance Matrix: (Units=1/GPa)
#
#
# Indices 1 2 3 4 5 6 
#
# 1 0.015133 -0.000648 0.000370 0.002737 -0.008634 -0.005545
# 2 -0.000648 0.015762 -0.005408 0.005213 -0.000261 -0.004718
# 3 0.000370 -0.005408 0.011242 0.000566 -0.005525 -0.001054
# 4 0.002737 0.005213 0.000566 0.020549 -0.002174 -0.008325
# 5 -0.008634 -0.000261 -0.005525 -0.002174 0.037413 0.008709
# 6 -0.005545 -0.004718 -0.001054 -0.008325 0.008709 0.030184
#
#
# Mechanical properties :
#
#
# Convention : Reuss Voigt Hill
#
# Bulk Modulus (GPa) = 32.50289 50.50190 41.50240
# Shear Modulus (GPa) = 32.91373 41.95955 37.43664
#
# Velocity S-wave (km/s) = 3.67251 4.14657 3.91672
# Velocity P-wave (km/s) = 5.59482 6.60454 6.12054
#
# Compressibility (1/GPa) = 0.03076649
#
# Stress axis : x y z
#
# Youngs Moduli (GPa) = 66.07958 63.44259 88.94829
#
# Poissons Ratio (x) = 0.04109 -0.03293
# Poissons Ratio (y) = 0.04280 0.48106
# Poissons Ratio (z) = -0.02446 0.34311
#
# Static dielectric constant tensor:
#      x y z
#    x 4.230230 0.000510 0.197860 
#    y 0.000510 4.664600 -0.224950 
#    z 0.197860 -0.224950 4.234260 
# 
# 
# High freq. dielectric constant tensor:
#      x y z
#    x 1.973420 -0.000940 0.016960 
#    y -0.000940 1.991780 -0.013420 
#    z 0.016960 -0.013420 1.963280 
# 
# From -- ./inp_files/3058.got.cif
#   From: 2010.03.12/outbox.cif.g09.slc.cpg/sg1_2_cif.got.tgz:3058.got - 2010.03.29 11:57:58.
