data_PCOD8000660
_publ_section_title
;
Structure prediction by ZEFSAII (Michael W. Deem and Ramdas Pophale) SiO2 
 PCOD8000660
Probable space group: P -1
;
_chemical_formula_sum "Si O2"
_cell_formula_units_Z 16
_cell_length_a 18.460370
_cell_length_b 9.665507
_cell_length_c 8.651253
_cell_angle_alpha 97.114754
_cell_angle_beta 138.060335
_cell_angle_gamma 59.365600
_cell_volume 795.518861
_symmetry_space_group_name_H-M "P -1"
_symmetry_group_IT_number 2
_symmetry_cell_setting 'triclinic'
loop_
_space_group_symop_operation_xyz
x,y,z
-x,-y,-z
loop_
_atom_site_type_symbol
_atom_site_label
_atom_site_fract_x
_atom_site_fract_y
_atom_site_fract_z
Si Si1 0.110025 0.514562 0.255251
Si Si2 0.856176 0.561169 0.345446
Si Si3 0.556794 0.448307 0.869774
Si Si4 0.596701 0.706573 0.450018
Si Si5 0.282928 0.526117 0.117242
Si Si6 0.392194 0.025968 0.956177
Si Si7 0.665309 0.218292 0.277988
Si Si8 0.124523 0.794441 0.180119
O O1 0.108289 0.505102 0.433495
O O2 0.265071 0.351131 0.422973
O O3 0.071966 0.703800 0.179788
O O4 0.000000 0.500000 0.000000
O O5 0.727420 0.771780 0.154823
O O6 0.000000 0.500000 0.500000
O O7 0.812802 0.459895 0.167179
O O8 0.436636 0.427362 0.663104
O O9 0.609629 0.452481 0.786714
O O10 0.492874 0.631083 0.887817
O O11 0.683040 0.283311 0.150377
O O12 0.631353 0.667686 0.683911
O O13 0.471718 0.909112 0.223868
O O14 0.183029 0.694191 0.095260
O O15 0.312438 0.963507 0.736991
O O16 0.500000 0.000000 0.000000
O O17 0.764212 0.200165 0.559020
O O18 0.000000 0.000000 0.000000
#
# Coordination Sequence:
#
# PCOD8000660 Si02
#       8
#     2   2   2   2   2   2   2   2
#     4  11  23  45  70  92 134 184 224 267 341 417
#     4  12  26  44  65  96 138 179 222 276 347 400
#     4  10  19  39  66  97 125 165 214 280 345 383
#     4  10  21  40  66  97 128 167 227 270 334 400
#     4  11  23  40  67  95 135 169 215 286 344 392
#     4  11  23  41  68  98 127 180 232 274 323 407
#     4  10  21  37  68  91 130 166 223 273 328 400
#     4  11  25  43  65  97 128 177 226 272 334 407
#
# _framework density 20.112660000000002
#
# number of rings (size 3 to 8) (size 9 to 14) (size 15 to 20)
#    0.000    1.250    3.750    3.375    5.250    0.500 
#    4.500    1.250    0.000    0.000    0.000    0.000 
#    0.000    0.000    0.000    0.000    0.000    0.000 
#
# Total GULP energy -198303.648902 kJ/mol
# GULP energy per Si atom -12393.978056 kJ/mol
# Density = 2.006688 g / cm^3
# Si number density = 20.112660 Si / 1000 Ang^3
#
#
#
# Elastic Constant Matrix: (Units=GPa)
#
#
# Indices 1 2 3 4 5 6 
#
# 1 157.3078 46.3859 61.0267 -3.5897 -10.6577 -0.0415
# 2 46.3859 106.3961 62.2241 -3.8735 0.7063 2.6836
# 3 61.0267 62.2241 130.9966 14.9794 -8.1783 -3.5199
# 4 -3.5897 -3.8735 14.9794 44.1999 -0.4054 0.2165
# 5 -10.6577 0.7063 -8.1783 -0.4054 39.2740 2.3112
# 6 -0.0415 2.6836 -3.5199 0.2165 2.3112 22.2477
#
#
#
# Elastic Compliance Matrix: (Units=1/GPa)
#
#
# Indices 1 2 3 4 5 6 
#
# 1 0.008213 -0.001706 -0.003107 0.001588 0.001656 -0.000458
# 2 -0.001706 0.014129 -0.006480 0.003291 -0.001881 -0.002569
# 3 -0.003107 -0.006480 0.012936 -0.005201 0.001755 0.002691
# 4 0.001588 0.003291 -0.005201 0.024808 -0.000372 -0.001420
# 5 0.001656 -0.001881 0.001755 -0.000372 0.026439 -0.002235
# 6 -0.000458 -0.002569 0.002691 -0.001420 -0.002235 0.045929
#
#
# Mechanical properties :
#
#
# Convention : Reuss Voigt Hill
#
# Bulk Modulus (GPa) = 78.77560 81.55265 80.16413
# Shear Modulus (GPa) = 31.39345 36.14857 33.77101
#
# Velocity S-wave (km/s) = 3.95508 4.24406 4.10212
# Velocity P-wave (km/s) = 7.75301 8.04065 7.89814
#
# Compressibility (1/GPa) = 0.01269429
#
# Stress axis : x y z
#
# Youngs Moduli (GPa) = 121.75200 70.77637 77.30642
#
# Poissons Ratio (x) = 0.12071 0.24017
# Poissons Ratio (y) = 0.20766 0.50091
# Poissons Ratio (z) = 0.37824 0.45860
#
# Static dielectric constant tensor:
#      x y z
#    x 3.603960 0.082440 -0.135510 
#    y 0.082440 3.398940 0.248020 
#    z -0.135510 0.248020 3.723720 
# 
# 
# High freq. dielectric constant tensor:
#      x y z
#    x 1.788140 0.011210 -0.009530 
#    y 0.011210 1.773600 0.009540 
#    z -0.009530 0.009540 1.800400 
# 
# From -- ./inp_files/329230.got.cif
#   From: 2010.06.25/outbox.cif.g09.slc.cpg/sg2_165_cif.got.tgz:329230.got - 2010.06.27 13:26:56.
