data_PCOD8000872
_publ_section_title
;
Structure prediction by ZEFSAII (Michael W. Deem and Ramdas Pophale) SiO2 
 PCOD8000872
Probable space group: P -1
;
_chemical_formula_sum "Si O2"
_cell_formula_units_Z 16
_cell_length_a 12.536164
_cell_length_b 8.277964
_cell_length_c 11.940155
_cell_angle_alpha 51.089843
_cell_angle_beta 118.354453
_cell_angle_gamma 131.571653
_cell_volume 717.710334
_symmetry_space_group_name_H-M "P -1"
_symmetry_group_IT_number 2
_symmetry_cell_setting 'triclinic'
loop_
_space_group_symop_operation_xyz
x,y,z
-x,-y,-z
loop_
_atom_site_type_symbol
_atom_site_label
_atom_site_fract_x
_atom_site_fract_y
_atom_site_fract_z
Si Si1 0.528407 0.385399 0.458765
Si Si2 0.308890 0.431565 0.218114
Si Si3 0.379337 0.555693 0.947082
Si Si4 0.891957 0.203394 0.893246
Si Si5 0.898887 0.781023 0.183247
Si Si6 0.047154 0.290238 0.286938
Si Si7 0.161016 0.252646 0.589102
Si Si8 0.414277 0.895102 0.224207
O O1 0.500000 0.500000 0.500000
O O2 0.394980 0.296289 0.347027
O O3 0.669264 0.599389 0.373245
O O4 0.547492 0.168300 0.607308
O O5 0.147549 0.264063 0.258026
O O6 0.385886 0.697750 0.200182
O O7 0.305294 0.448968 0.076025
O O8 0.250639 0.435804 0.847029
O O9 0.450301 0.846900 0.858426
O O10 0.500000 0.500000 0.000000
O O11 0.971269 0.485257 0.853684
O O12 0.724659 0.087502 0.836686
O O13 0.964166 0.193527 0.818931
O O14 0.907244 0.040456 0.066491
O O15 0.907853 0.720174 0.343580
O O16 0.124396 0.361356 0.416492
O O17 0.896083 0.035226 0.333254
#
# Coordination Sequence:
#
# PCOD8000872 Si02
#       8
#     2   2   2   2   2   2   2   2
#     4  10  19  40  64  93 126 157 204 265 313 360
#     4  10  22  42  67  94 126 166 210 268 311 367
#     4  12  24  42  63  95 130 172 210 253 321 378
#     4  10  22  45  59  94 128 169 206 262 315 373
#     4  11  26  41  64  90 133 170 210 254 319 383
#     4  10  23  43  68  94 124 164 215 266 314 364
#     4  11  22  42  66  95 124 164 212 262 313 375
#     4  10  21  43  65  91 129 163 216 264 308 368
#
# _framework density 22.293116000000001
#
# number of rings (size 3 to 8) (size 9 to 14) (size 15 to 20)
#    0.000    1.500    5.000    1.125    3.500    3.000 
#    4.500    3.750    0.000    0.000    0.000    0.000 
#    0.000    0.000    0.000    0.000    0.000    0.000 
#
# Total GULP energy -198398.331132 kJ/mol
# GULP energy per Si atom -12399.895696 kJ/mol
# Density = 2.224238 g / cm^3
# Si number density = 22.293116 Si / 1000 Ang^3
#
#
#
# Elastic Constant Matrix: (Units=GPa)
#
#
# Indices 1 2 3 4 5 6 
#
# 1 105.1223 -2.5715 50.3481 5.0774 -12.3804 2.9465
# 2 -2.5715 39.1418 16.0420 -8.8588 -2.5524 -0.3810
# 3 50.3481 16.0420 83.1909 0.8231 -15.7569 3.9113
# 4 5.0774 -8.8588 0.8231 29.5376 -2.0033 -6.4051
# 5 -12.3804 -2.5524 -15.7569 -2.0033 41.1991 -0.4697
# 6 2.9465 -0.3810 3.9113 -6.4051 -0.4697 19.6581
#
#
#
# Elastic Compliance Matrix: (Units=1/GPa)
#
#
# Indices 1 2 3 4 5 6 
#
# 1 0.014247 0.004617 -0.009301 -0.000836 0.000964 -0.000445
# 2 0.004617 0.032020 -0.009235 0.010199 0.000393 0.005099
# 3 -0.009301 -0.009235 0.020429 -0.002200 0.004300 -0.003464
# 4 -0.000836 0.010199 -0.002200 0.040248 0.001655 0.013914
# 5 0.000964 0.000393 0.004300 0.001655 0.026313 0.000176
# 6 -0.000445 0.005099 -0.003464 0.013914 0.000176 0.056262
#
#
# Mechanical properties :
#
#
# Convention : Reuss Voigt Hill
#
# Bulk Modulus (GPa) = 25.73427 39.45469 32.59448
# Shear Modulus (GPa) = 21.70989 28.98807 25.34898
#
# Velocity S-wave (km/s) = 3.12402 3.60990 3.37571
# Velocity P-wave (km/s) = 4.95796 5.92552 5.46320
#
# Compressibility (1/GPa) = 0.03885869
#
# Stress axis : x y z
#
# Youngs Moduli (GPa) = 70.19186 31.23055 48.94932
#
# Poissons Ratio (x) = -0.14420 0.45527
# Poissons Ratio (y) = -0.32408 0.45205
# Poissons Ratio (z) = 0.65284 0.28841
#
# Static dielectric constant tensor:
#      x y z
#    x 3.963200 0.104070 0.074630 
#    y 0.104070 3.858120 -0.151770 
#    z 0.074630 -0.151770 4.403900 
# 
# 
# High freq. dielectric constant tensor:
#      x y z
#    x 1.877070 0.014960 -0.008970 
#    y 0.014960 1.869830 -0.006330 
#    z -0.008970 -0.006330 1.879290 
# 
# From -- ./inp_files/418991.got.cif
#   From: 2010.06.25/outbox.cif.g09.slc.cpg/sg2_210_cif.got.tgz:418991.got - 2010.06.27 13:26:56.
