data_PCOD8000575
_publ_section_title
;
Structure prediction by ZEFSAII (Michael W. Deem and Ramdas Pophale) SiO2 
 PCOD8000575
Probable space group: P -1
;
_chemical_formula_sum "Si O2"
_cell_formula_units_Z 16
_cell_length_a 9.804771
_cell_length_b 9.208663
_cell_length_c 14.543278
_cell_angle_alpha 70.496592
_cell_angle_beta 45.195428
_cell_angle_gamma 98.341733
_cell_volume 722.363155
_symmetry_space_group_name_H-M "P -1"
_symmetry_group_IT_number 2
_symmetry_cell_setting 'triclinic'
loop_
_space_group_symop_operation_xyz
x,y,z
-x,-y,-z
loop_
_atom_site_type_symbol
_atom_site_label
_atom_site_fract_x
_atom_site_fract_y
_atom_site_fract_z
Si Si1 0.256560 0.971765 0.135854
Si Si2 0.952594 0.557960 0.414953
Si Si3 0.309328 0.783153 0.641468
Si Si4 0.488972 0.275565 0.604513
Si Si5 0.004659 0.861660 0.094758
Si Si6 0.588717 0.743474 0.842889
Si Si7 0.656984 0.140146 0.189271
Si Si8 0.857562 0.589680 0.786895
O O1 0.060622 0.777304 0.318995
O O2 0.164573 0.983798 0.078197
O O3 0.300986 0.139927 0.140922
O O4 0.500000 0.000000 0.000000
O O5 0.676083 0.433803 0.552191
O O6 0.000000 0.500000 0.500000
O O7 0.085107 0.529426 0.277437
O O8 0.408546 0.681454 0.557981
O O9 0.265146 0.733484 0.781795
O O10 0.077086 0.740920 0.712061
O O11 0.500000 0.000000 0.500000
O O12 0.262694 0.285273 0.712826
O O13 0.434617 0.074665 0.703752
O O14 0.119212 0.766737 0.007214
O O15 0.000000 0.000000 0.000000
O O16 0.554142 0.858698 0.757346
O O17 0.773374 0.692983 0.739172
O O18 0.341373 0.549883 0.017842
#
# Coordination Sequence:
#
# PCOD8000575 Si02
#       8
#     2   2   2   2   2   2   2   2
#     4  12  23  42  69  93 133 174 218 269 331 385
#     4  11  23  43  67  97 134 174 211 272 329 390
#     4   9  20  39  61  85 126 173 201 258 328 385
#     4   9  21  40  62  92 133 168 211 265 334 381
#     4  10  22  37  66  97 122 170 222 271 314 392
#     4  11  23  40  66  95 126 163 218 270 317 380
#     4  10  19  39  64  96 122 169 219 265 315 392
#     4  10  23  42  63  92 130 167 211 267 324 378
#
# _framework density 22.149525000000001
#
# number of rings (size 3 to 8) (size 9 to 14) (size 15 to 20)
#    0.000    1.750    2.500    0.750    7.000    1.000 
#    4.500    6.250    0.000    0.000    0.000    0.000 
#    0.000    0.000    0.000    0.000    0.000    0.000 
#
# Total GULP energy -198331.620686 kJ/mol
# GULP energy per Si atom -12395.726293 kJ/mol
# Density = 2.209911 g / cm^3
# Si number density = 22.149525 Si / 1000 Ang^3
#
#
#
# Elastic Constant Matrix: (Units=GPa)
#
#
# Indices 1 2 3 4 5 6 
#
# 1 146.7498 31.8021 44.7855 5.3649 -9.8731 19.2604
# 2 31.8021 56.5150 30.1470 -2.9883 -10.5357 12.3247
# 3 44.7855 30.1470 87.3556 5.7404 -24.3993 14.0601
# 4 5.3649 -2.9883 5.7404 35.2544 3.8167 0.7983
# 5 -9.8731 -10.5357 -24.3993 3.8167 43.6156 -1.2024
# 6 19.2604 12.3247 14.0601 0.7983 -1.2024 39.5636
#
#
#
# Elastic Compliance Matrix: (Units=1/GPa)
#
#
# Indices 1 2 3 4 5 6 
#
# 1 0.008698 -0.002850 -0.003194 -0.000943 -0.000485 -0.002207
# 2 -0.002850 0.023758 -0.005945 0.003356 0.001366 -0.003927
# 3 -0.003194 -0.005945 0.018123 -0.003799 0.008237 -0.002707
# 4 -0.000943 0.003356 -0.003799 0.029859 -0.004140 0.000035
# 5 -0.000485 0.001366 0.008237 -0.004140 0.028058 -0.002181
# 6 -0.002207 -0.003927 -0.002707 0.000035 -0.002181 0.028469
#
#
# Mechanical properties :
#
#
# Convention : Reuss Voigt Hill
#
# Bulk Modulus (GPa) = 37.59221 56.00995 46.80108
# Shear Modulus (GPa) = 29.44495 35.94579 32.69537
#
# Velocity S-wave (km/s) = 3.65001 4.03286 3.84620
# Velocity P-wave (km/s) = 5.89680 6.85765 6.39530
#
# Compressibility (1/GPa) = 0.02660125
#
# Stress axis : x y z
#
# Youngs Moduli (GPa) = 114.96616 42.09155 55.17992
#
# Poissons Ratio (x) = 0.11994 0.17625
# Poissons Ratio (y) = 0.32761 0.32804
# Poissons Ratio (z) = 0.36721 0.25023
#
# Static dielectric constant tensor:
#      x y z
#    x 4.280010 0.210850 -0.105940 
#    y 0.210850 4.391920 0.589730 
#    z -0.105940 0.589730 4.602140 
# 
# 
# High freq. dielectric constant tensor:
#      x y z
#    x 1.881380 0.006840 -0.012300 
#    y 0.006840 1.861140 0.003440 
#    z -0.012300 0.003440 1.870530 
# 
# From -- ./inp_files/273592.got.cif
#   From: 2010.06.25/outbox.cif.g09.slc.cpg/sg2_137_cif.got.tgz:273592.got - 2010.06.27 13:26:56.
