data_PCOD8000886
_publ_section_title
;
Structure prediction by ZEFSAII (Michael W. Deem and Ramdas Pophale) SiO2 
 PCOD8000886
Probable space group: P -1
;
_chemical_formula_sum "Si O2"
_cell_formula_units_Z 16
_cell_length_a 9.738107
_cell_length_b 10.462381
_cell_length_c 14.173063
_cell_angle_alpha 116.316505
_cell_angle_beta 97.682850
_cell_angle_gamma 40.758170
_cell_volume 793.034937
_symmetry_space_group_name_H-M "P -1"
_symmetry_group_IT_number 2
_symmetry_cell_setting 'triclinic'
loop_
_space_group_symop_operation_xyz
x,y,z
-x,-y,-z
loop_
_atom_site_type_symbol
_atom_site_label
_atom_site_fract_x
_atom_site_fract_y
_atom_site_fract_z
Si Si1 0.159264 0.796654 0.312550
Si Si2 0.065983 0.587969 0.137699
Si Si3 0.728567 0.866857 0.047048
Si Si4 0.313688 0.072708 0.143100
Si Si5 0.249248 0.696866 0.502517
Si Si6 0.927554 0.697198 0.503227
Si Si7 0.406968 0.844293 0.262127
Si Si8 0.140389 0.408376 0.718781
O O1 0.181275 0.619530 0.217523
O O2 0.263960 0.721620 0.401555
O O3 0.308390 0.768003 0.245165
O O4 0.902535 0.061227 0.379171
O O5 0.932299 0.763274 0.093685
O O6 0.882564 0.657276 0.207319
O O7 0.243498 0.326799 0.034269
O O8 0.492661 0.059513 0.145263
O O9 0.722797 0.958604 0.977681
O O10 0.080782 0.324084 0.242428
O O11 0.399167 0.883337 0.161775
O O12 0.500000 0.500000 0.500000
O O13 0.139647 0.630177 0.486004
O O14 0.818251 0.741386 0.407917
O O15 0.000000 0.500000 0.500000
O O16 0.734372 0.925476 0.619699
O O17 0.655716 0.647855 0.264439
#
# Coordination Sequence:
#
# PCOD8000886 Si02
#       8
#     2   2   2   2   2   2   2   2
#     4  10  23  40  58  85 124 158 192 237 291 363
#     4  10  19  40  65  88 110 157 202 241 300 344
#     4   9  20  37  66  87 114 146 203 263 286 333
#     4  10  20  38  59  86 116 146 194 250 297 335
#     4  10  23  40  58  84 124 163 194 232 290 353
#     4  11  22  37  58  92 119 152 202 240 282 355
#     4  11  23  37  58  86 126 155 188 244 297 347
#     4  11  21  36  63  85 116 156 197 242 295 341
#
# _framework density 20.175654000000002
#
# number of rings (size 3 to 8) (size 9 to 14) (size 15 to 20)
#    0.000    1.750    3.750    0.375    1.750    2.000 
#    2.250    1.250    0.000    0.000    0.000    0.000 
#    0.000    0.000    0.000    0.000    0.000    0.000 
#
# Total GULP energy -198347.453267 kJ/mol
# GULP energy per Si atom -12396.715829 kJ/mol
# Density = 2.012973 g / cm^3
# Si number density = 20.175654 Si / 1000 Ang^3
#
#
#
# Elastic Constant Matrix: (Units=GPa)
#
#
# Indices 1 2 3 4 5 6 
#
# 1 84.6748 30.3772 26.5728 0.1483 -8.1863 -3.6117
# 2 30.3772 103.3753 22.9841 -8.8879 -7.9120 -18.7458
# 3 26.5728 22.9841 61.3250 -8.2727 -8.6285 -5.8573
# 4 0.1483 -8.8879 -8.2727 31.7115 3.8115 -3.4648
# 5 -8.1863 -7.9120 -8.6285 3.8115 31.4025 -2.9865
# 6 -3.6117 -18.7458 -5.8573 -3.4648 -2.9865 29.6032
#
#
#
# Elastic Compliance Matrix: (Units=1/GPa)
#
#
# Indices 1 2 3 4 5 6 
#
# 1 0.014897 -0.003601 -0.005421 -0.002880 0.001674 -0.001703
# 2 -0.003601 0.013103 -0.001738 0.003867 0.002195 0.008188
# 3 -0.005421 -0.001738 0.020784 0.004889 0.003578 0.003283
# 4 -0.002880 0.003867 0.004889 0.034907 -0.002010 0.006947
# 5 0.001674 0.002195 0.003578 -0.002010 0.034590 0.005556
# 6 -0.001703 0.008188 0.003283 0.006947 0.005556 0.040781
#
#
# Mechanical properties :
#
#
# Convention : Reuss Voigt Hill
#
# Bulk Modulus (GPa) = 36.67889 45.47148 41.07518
# Shear Modulus (GPa) = 26.36152 29.83951 28.10052
#
# Velocity S-wave (km/s) = 3.61861 3.84993 3.73606
# Velocity P-wave (km/s) = 5.97314 6.50764 6.24611
#
# Compressibility (1/GPa) = 0.02726364
#
# Stress axis : x y z
#
# Youngs Moduli (GPa) = 67.12661 76.31680 48.11451
#
# Poissons Ratio (x) = 0.27479 0.26085
# Poissons Ratio (y) = 0.24170 0.08364
# Poissons Ratio (z) = 0.36392 0.13266
#
# Static dielectric constant tensor:
#      x y z
#    x 3.498030 0.071750 -0.171830 
#    y 0.071750 3.740260 -0.108150 
#    z -0.171830 -0.108150 3.898170 
# 
# 
# High freq. dielectric constant tensor:
#      x y z
#    x 1.759730 -0.005670 -0.020940 
#    y -0.005670 1.796130 -0.011880 
#    z -0.020940 -0.011880 1.791110 
# 
# From -- ./inp_files/345868.got.cif
#   From: 2010.06.25/outbox.cif.g09.slc.cpg/sg2_173_cif.got.tgz:345868.got - 2010.06.27 13:26:56.
