data_PCOD8000895
_publ_section_title
;
Structure prediction by ZEFSAII (Michael W. Deem and Ramdas Pophale) SiO2 
 PCOD8000895
Probable space group: P -1
;
_chemical_formula_sum "Si O2"
_cell_formula_units_Z 14
_cell_length_a 8.936480
_cell_length_b 9.113602
_cell_length_c 11.584562
_cell_angle_alpha 119.807581
_cell_angle_beta 53.086487
_cell_angle_gamma 102.342897
_cell_volume 649.649503
_symmetry_space_group_name_H-M "P -1"
_symmetry_group_IT_number 2
_symmetry_cell_setting 'triclinic'
loop_
_space_group_symop_operation_xyz
x,y,z
-x,-y,-z
loop_
_atom_site_type_symbol
_atom_site_label
_atom_site_fract_x
_atom_site_fract_y
_atom_site_fract_z
Si Si1 0.401034 0.087508 0.970338
Si Si2 0.349476 0.652075 0.093969
Si Si3 0.764175 0.689773 0.681087
Si Si4 0.847847 0.318967 0.582327
Si Si5 0.216980 0.511574 0.869958
Si Si6 0.612508 0.240233 0.266271
Si Si7 0.477893 0.802952 0.444696
O O1 0.559747 0.172963 0.860039
O O2 0.304057 0.955097 0.882810
O O3 0.251061 0.235193 0.151955
O O4 0.500000 0.000000 0.000000
O O5 0.168755 0.654761 0.261592
O O6 0.500000 0.500000 0.000000
O O7 0.298994 0.625570 0.974606
O O8 0.806485 0.488849 0.592962
O O9 0.585374 0.727747 0.696277
O O10 0.939688 0.767588 0.571227
O O11 0.693417 0.204001 0.566447
O O12 0.245749 0.623015 0.784257
O O13 0.334760 0.323059 0.731050
O O14 0.000000 0.500000 0.000000
O O15 0.579962 0.253495 0.422930
O O16 0.500000 0.000000 0.500000
#
# Coordination Sequence:
#
# PCOD8000895 Si02
#       7
#     2   2   2   2   2   2   2
#     4  10  19  40  65  91 122 165 214 261 319 372
#     4  12  20  42  68  91 130 167 215 269 317 384
#     4  10  21  40  67  96 123 166 222 266 317 389
#     4  11  23  38  66  99 127 166 217 266 325 378
#     4  12  27  44  67  98 131 178 221 265 331 399
#     4  11  23  45  69  90 134 175 216 273 328 392
#     4  12  26  46  64  98 140 173 213 274 335 391
#
# _framework density 21.550082
#
# number of rings (size 3 to 8) (size 9 to 14) (size 15 to 20)
#    0.000    0.857    7.143    1.286    2.000    2.286 
#    0.000    5.000    0.000    0.000    0.000    0.000 
#    0.000    0.000    0.000    0.000    0.000    0.000 
#
# Total GULP energy -173502.358160 kJ/mol
# GULP energy per Si atom -12393.025583 kJ/mol
# Density = 2.150103 g / cm^3
# Si number density = 21.550082 Si / 1000 Ang^3
#
#
#
# Elastic Constant Matrix: (Units=GPa)
#
#
# Indices 1 2 3 4 5 6 
#
# 1 41.0179 26.5542 37.8690 -8.6794 -5.7174 4.5334
# 2 26.5542 128.6253 40.3488 -7.5257 -11.2754 13.5192
# 3 37.8690 40.3488 132.3262 -21.7545 -4.1685 13.6830
# 4 -8.6794 -7.5257 -21.7545 42.9681 4.7603 8.3397
# 5 -5.7174 -11.2754 -4.1685 4.7603 34.7100 -10.6531
# 6 4.5334 13.5192 13.6830 8.3397 -10.6531 24.0165
#
#
#
# Elastic Compliance Matrix: (Units=1/GPa)
#
#
# Indices 1 2 3 4 5 6 
#
# 1 0.035991 -0.004466 -0.008835 0.001182 0.003889 0.002069
# 2 -0.004466 0.009568 -0.001074 0.000863 0.000957 -0.003806
# 3 -0.008835 -0.001074 0.012215 0.006300 -0.003833 -0.008575
# 4 0.001182 0.000863 0.006300 0.031591 -0.009014 -0.019267
# 5 0.003889 0.000957 -0.003833 -0.009014 0.036786 0.020358
# 6 0.002069 -0.003806 -0.008575 -0.019267 0.020358 0.063997
#
#
# Mechanical properties :
#
#
# Convention : Reuss Voigt Hill
#
# Bulk Modulus (GPa) = 34.45438 56.83481 45.64460
# Shear Modulus (GPa) = 21.87493 33.48541 27.68017
#
# Velocity S-wave (km/s) = 3.18948 3.94616 3.58782
# Velocity P-wave (km/s) = 5.43934 6.86975 6.19596
#
# Compressibility (1/GPa) = 0.02902388
#
# Stress axis : x y z
#
# Youngs Moduli (GPa) = 27.78435 104.51777 81.86864
#
# Poissons Ratio (x) = 0.46678 0.72333
# Poissons Ratio (y) = 0.12409 0.08791
# Poissons Ratio (z) = 0.24548 0.11223
#
# Static dielectric constant tensor:
#      x y z
#    x 3.528030 0.131050 -0.157660 
#    y 0.131050 4.396570 0.440120 
#    z -0.157660 0.440120 4.614190 
# 
# 
# High freq. dielectric constant tensor:
#      x y z
#    x 1.813480 0.003420 0.011860 
#    y 0.003420 1.859120 -0.005420 
#    z 0.011860 -0.005420 1.863560 
# 
# From -- ./inp_files/184881.got.cif
#   From: 2010.06.25/outbox.cif.g09.slc.cpg/sg2_93_cif.got.tgz:184881.got - 2010.06.27 13:26:56.
