data_PCOD8000270
_publ_section_title
;
Structure prediction by ZEFSAII (Michael W. Deem and Ramdas Pophale) SiO2 
 PCOD8000270
Probable space group: P 1
;
_chemical_formula_sum "Si O2"
_cell_formula_units_Z 8
_cell_length_a 5.035709
_cell_length_b 9.300028
_cell_length_c 8.266167
_cell_angle_alpha 83.829278
_cell_angle_beta 89.610429
_cell_angle_gamma 106.258858
_cell_volume 369.211265
_symmetry_space_group_name_H-M "P 1"
_symmetry_group_IT_number 1
_symmetry_cell_setting 'triclinic'
loop_
_space_group_symop_operation_xyz
x,y,z
loop_
_atom_site_type_symbol
_atom_site_label
_atom_site_fract_x
_atom_site_fract_y
_atom_site_fract_z
Si Si1 0.263170 0.621310 0.402830
Si Si2 0.401883 0.041199 0.095963
Si Si3 0.141928 0.388203 0.719987
Si Si4 0.372728 0.966282 0.456957
Si Si5 0.748214 0.585659 0.188348
Si Si6 0.629222 0.368519 0.933268
Si Si7 0.825424 0.890053 0.989904
Si Si8 0.913646 0.048260 0.641230
O O1 0.545359 0.601497 0.330913
O O2 0.159319 0.503504 0.560698
O O3 0.037929 0.587037 0.266394
O O4 0.315985 0.788781 0.450876
O O5 0.437132 0.423642 0.801289
O O6 0.477501 0.060371 0.282117
O O7 0.524058 0.189703 0.973655
O O8 0.534148 0.917039 0.035309
O O9 0.934891 0.415808 0.853211
O O10 0.070080 0.988368 0.090722
O O11 0.045169 0.219229 0.673675
O O12 0.603610 0.028504 0.583653
O O13 0.091606 0.001769 0.505911
O O14 0.626017 0.433749 0.105550
O O15 0.795172 0.715629 0.038029
O O16 0.903885 0.931655 0.800040
#
# Coordination Sequence:
#
# PCOD8000270 Si02
#       8
#     1   1   1   1   1   1   1   1
#     4  12  27  47  66 100 141 174 220 278 332 398
#     4  12  23  46  70  95 134 174 226 280 322 389
#     4  12  27  47  66 100 141 174 220 278 332 398
#     4  12  26  43  70  99 133 177 222 273 336 390
#     4  12  26  46  70 100 132 181 223 272 335 394
#     4  12  26  46  70 100 132 181 223 272 335 394
#     4  12  23  46  70  95 134 174 226 280 322 389
#     4  12  26  43  70  99 133 177 222 273 336 390
#
# _framework density 21.667814
#
# number of rings (size 3 to 8) (size 9 to 14) (size 15 to 20)
#    0.000    0.000    5.000    4.500    7.000    0.000 
#    0.000    0.000    0.000    0.000    0.000    0.000 
#    0.000    0.000    0.000    0.000    0.000    0.000 
#
# Total GULP energy -99268.926196 kJ/mol
# GULP energy per Si atom -12408.615774 kJ/mol
# Density = 2.161850 g / cm^3
# Si number density = 21.667814 Si / 1000 Ang^3
#
#
#
# Elastic Constant Matrix: (Units=GPa)
#
#
# Indices 1 2 3 4 5 6 
#
# 1 82.9832 20.4791 18.2013 2.1616 -0.4403 -6.4243
# 2 20.4791 57.7234 34.5555 -9.6815 -9.3497 -5.9956
# 3 18.2013 34.5555 83.9965 -1.0676 -6.5009 -2.3029
# 4 2.1616 -9.6815 -1.0676 42.2775 8.0274 0.1583
# 5 -0.4403 -9.3497 -6.5009 8.0274 45.5971 -0.1824
# 6 -6.4243 -5.9956 -2.3029 0.1583 -0.1824 29.5301
#
#
#
# Elastic Compliance Matrix: (Units=1/GPa)
#
#
# Indices 1 2 3 4 5 6 
#
# 1 0.013556 -0.004249 -0.001203 -0.001585 -0.000625 0.001997
# 2 -0.004249 0.026296 -0.009491 0.005404 0.003061 0.003664
# 3 -0.001203 -0.009491 0.016073 -0.001826 0.000652 -0.000922
# 4 -0.001585 0.005404 -0.001826 0.025622 -0.003677 0.000450
# 5 -0.000625 0.003061 0.000652 -0.003677 0.023296 0.000700
# 6 0.001997 0.003664 -0.000922 0.000450 0.000700 0.034972
#
#
# Mechanical properties :
#
#
# Convention : Reuss Voigt Hill
#
# Bulk Modulus (GPa) = 38.40549 41.24165 39.82357
# Shear Modulus (GPa) = 28.03004 33.57875 30.80440
#
# Velocity S-wave (km/s) = 3.60060 3.94090 3.77459
# Velocity P-wave (km/s) = 5.92021 6.30734 6.11684
#
# Compressibility (1/GPa) = 0.02603795
#
# Stress axis : x y z
#
# Youngs Moduli (GPa) = 73.77004 38.02862 62.21775
#
# Poissons Ratio (x) = 0.16157 0.07487
# Poissons Ratio (y) = 0.31342 0.59053
# Poissons Ratio (z) = 0.08877 0.36094
#
# Static dielectric constant tensor:
#      x y z
#    x 4.072310 -0.044650 0.033160 
#    y -0.044650 3.958900 -0.167680 
#    z 0.033160 -0.167680 3.921770 
# 
# 
# High freq. dielectric constant tensor:
#      x y z
#    x 1.866850 -0.005570 -0.000230 
#    y -0.005570 1.854750 -0.009160 
#    z -0.000230 -0.009160 1.864110 
# 
# From -- ./inp_files/3005.got.cif
#   From: 2010.03.12/outbox.cif.g09.slc.cpg/sg1_2_cif.got.tgz:3005.got - 2010.03.29 11:57:58.
