data_PCOD8000372
_publ_section_title
;
Structure prediction by ZEFSAII (Michael W. Deem and Ramdas Pophale) SiO2 
 PCOD8000372
Probable space group: P -1
;
_chemical_formula_sum "Si O2"
_cell_formula_units_Z 14
_cell_length_a 7.741795
_cell_length_b 20.664519
_cell_length_c 7.003442
_cell_angle_alpha 38.394449
_cell_angle_beta 97.952658
_cell_angle_gamma 89.719300
_cell_volume 677.365708
_symmetry_space_group_name_H-M "P -1"
_symmetry_group_IT_number 2
_symmetry_cell_setting 'triclinic'
loop_
_space_group_symop_operation_xyz
x,y,z
-x,-y,-z
loop_
_atom_site_type_symbol
_atom_site_label
_atom_site_fract_x
_atom_site_fract_y
_atom_site_fract_z
Si Si1 0.864851 0.733938 0.706931
Si Si2 0.252991 0.473984 0.895236
Si Si3 0.413044 0.098772 0.882232
Si Si4 0.350598 0.613200 0.909926
Si Si5 0.960445 0.904159 0.089867
Si Si6 0.838333 0.339435 0.826893
Si Si7 0.718924 0.198786 0.829844
O O1 0.669831 0.809165 0.497591
O O2 0.998181 0.792075 0.469397
O O3 0.858082 0.619733 0.877349
O O4 0.956409 0.716361 0.970827
O O5 0.272974 0.522519 0.993877
O O6 0.148853 0.561452 0.534194
O O7 0.440719 0.427097 0.934573
O O8 0.250696 0.071447 0.052237
O O9 0.556039 0.135313 0.960454
O O10 0.500000 0.000000 0.000000
O O11 0.319331 0.721656 0.536664
O O12 0.259996 0.625159 0.073555
O O13 0.095889 0.885371 0.976287
O O14 0.000000 0.000000 0.000000
O O15 0.731177 0.258800 0.891551
#
# Coordination Sequence:
#
# PCOD8000372 Si02
#       7
#     2   2   2   2   2   2   2
#     4  10  21  39  59  90 126 159 202 258 304 362
#     4  10  21  36  61  90 125 162 206 247 303 369
#     4  10  20  38  68  91 115 166 210 250 310 368
#     4  10  19  39  60  86 124 166 203 250 300 366
#     4  10  20  38  67  89 115 161 208 254 305 360
#     4  11  23  37  60  95 124 163 201 252 307 370
#     4  11  20  41  64  88 129 161 202 255 309 360
#
# _framework density 20.668305
#
# number of rings (size 3 to 8) (size 9 to 14) (size 15 to 20)
#    0.857    0.857    4.286    0.857    0.000    0.571 
#    5.143    2.857    0.000    2.571    0.000    0.000 
#    0.000    0.000    0.000    0.000    0.000    0.000 
#
# Total GULP energy -173471.144458 kJ/mol
# GULP energy per Si atom -12390.796033 kJ/mol
# Density = 2.062126 g / cm^3
# Si number density = 20.668305 Si / 1000 Ang^3
#
#
#
# Elastic Constant Matrix: (Units=GPa)
#
#
# Indices 1 2 3 4 5 6 
#
# 1 131.6823 65.2074 32.5446 -4.8175 11.1659 12.7753
# 2 65.2074 140.5944 39.3049 -4.8455 -6.4397 16.7815
# 3 32.5446 39.3049 36.2365 6.6678 4.4301 6.3612
# 4 -4.8175 -4.8455 6.6678 24.5521 6.7043 -5.9660
# 5 11.1659 -6.4397 4.4301 6.7043 31.3290 -8.5812
# 6 12.7753 16.7815 6.3612 -5.9660 -8.5812 42.7756
#
#
#
# Elastic Compliance Matrix: (Units=1/GPa)
#
#
# Indices 1 2 3 4 5 6 
#
# 1 0.011738 -0.003483 -0.006656 0.004499 -0.005358 -0.001597
# 2 -0.003483 0.012273 -0.011218 0.003397 0.004419 -0.000746
# 3 -0.006656 -0.011218 0.050191 -0.016955 -0.004597 -0.004362
# 4 0.004499 0.003397 -0.016955 0.050310 -0.007824 0.005292
# 5 -0.005358 0.004419 -0.004597 -0.007824 0.039060 0.007295
# 6 -0.001597 -0.000746 -0.004362 0.005292 0.007295 0.026998
#
#
# Mechanical properties :
#
#
# Convention : Reuss Voigt Hill
#
# Bulk Modulus (GPa) = 31.76048 64.73633 48.24840
# Shear Modulus (GPa) = 20.51039 31.16176 25.83608
#
# Velocity S-wave (km/s) = 3.15359 3.88713 3.53942
# Velocity P-wave (km/s) = 5.35353 7.17885 6.33231
#
# Compressibility (1/GPa) = 0.03148567
#
# Stress axis : x y z
#
# Youngs Moduli (GPa) = 85.19637 81.48132 19.92399
#
# Poissons Ratio (x) = 0.28378 0.13262
# Poissons Ratio (y) = 0.29672 0.22352
# Poissons Ratio (z) = 0.56711 0.91410
#
# Static dielectric constant tensor:
#      x y z
#    x 3.944340 0.191430 0.293960 
#    y 0.191430 3.678320 -0.247100 
#    z 0.293960 -0.247100 3.580770 
# 
# 
# High freq. dielectric constant tensor:
#      x y z
#    x 1.817150 0.013100 0.018620 
#    y 0.013100 1.806600 -0.026840 
#    z 0.018620 -0.026840 1.783460 
# 
# From -- ./inp_files/43089.got.cif
#   From: 2010.06.25/outbox.cif.g09.slc.cpg/sg2_22_cif.got.tgz:43089.got - 2010.06.27 13:26:56.
