data_PCOD8000391
_publ_section_title
;
Structure prediction by ZEFSAII (Michael W. Deem and Ramdas Pophale) SiO2 
 PCOD8000391
Probable space group: P -1
;
_chemical_formula_sum "Si O2"
_cell_formula_units_Z 14
_cell_length_a 8.422300
_cell_length_b 14.595325
_cell_length_c 14.776083
_cell_angle_alpha 149.994043
_cell_angle_beta 135.233034
_cell_angle_gamma 45.239312
_cell_volume 618.762472
_symmetry_space_group_name_H-M "P -1"
_symmetry_group_IT_number 2
_symmetry_cell_setting 'triclinic'
loop_
_space_group_symop_operation_xyz
x,y,z
-x,-y,-z
loop_
_atom_site_type_symbol
_atom_site_label
_atom_site_fract_x
_atom_site_fract_y
_atom_site_fract_z
Si Si1 0.778872 0.949945 0.563713
Si Si2 0.119327 0.651371 0.563506
Si Si3 0.530114 0.799582 0.886469
Si Si4 0.041284 0.281439 0.248643
Si Si5 0.664555 0.091896 0.906324
Si Si6 0.797887 0.729352 0.208277
Si Si7 0.015122 0.700302 0.076549
O O1 0.888234 0.829592 0.415629
O O2 0.902489 0.818368 0.584322
O O3 0.500000 0.000000 0.500000
O O4 0.849440 0.146857 0.767455
O O5 0.372481 0.685304 0.668301
O O6 0.100221 0.442420 0.344648
O O7 0.109355 0.631884 0.651151
O O8 0.432405 0.812681 0.958228
O O9 0.803245 0.697972 0.919700
O O10 0.500000 0.000000 0.000000
O O11 0.279367 0.134965 0.252765
O O12 0.893876 0.161048 0.028622
O O13 0.473286 0.158950 0.809394
O O14 0.936066 0.751876 0.192367
O O15 0.813707 0.508071 0.041005
#
# Coordination Sequence:
#
# PCOD8000391 Si02
#       7
#     2   2   2   2   2   2   2
#     4  12  25  40  64  99 129 162 206 264 314 374
#     4  10  21  38  60  90 123 155 203 256 311 367
#     4  10  19  39  61  83 120 158 204 258 303 357
#     4   9  19  38  60  89 118 158 201 253 314 372
#     4   9  19  37  62  84 118 161 203 248 310 371
#     4  10  23  44  64  92 123 175 209 250 312 379
#     4  10  23  45  66  88 128 170 212 254 310 374
#
# _framework density 22.625806999999998
#
# number of rings (size 3 to 8) (size 9 to 14) (size 15 to 20)
#    0.000    2.000    1.429    1.286    2.000    1.714 
#   18.000    1.429    0.000    0.000    0.000    0.000 
#    0.000    0.000    0.000    0.000    0.000    0.000 
#
# Total GULP energy -173512.048952 kJ/mol
# GULP energy per Si atom -12393.717782 kJ/mol
# Density = 2.257431 g / cm^3
# Si number density = 22.625807 Si / 1000 Ang^3
#
#
#
# Elastic Constant Matrix: (Units=GPa)
#
#
# Indices 1 2 3 4 5 6 
#
# 1 50.6790 37.8273 37.4949 -2.3054 29.0468 -4.0889
# 2 37.8273 135.8341 49.4055 22.7045 40.1884 -1.5187
# 3 37.4949 49.4055 89.9618 16.2470 39.7427 2.0569
# 4 -2.3054 22.7045 16.2470 41.4285 10.0304 2.8405
# 5 29.0468 40.1884 39.7427 10.0304 48.1734 1.5942
# 6 -4.0889 -1.5187 2.0569 2.8405 1.5942 31.7442
#
#
#
# Elastic Compliance Matrix: (Units=1/GPa)
#
#
# Indices 1 2 3 4 5 6 
#
# 1 0.040160 -0.005343 -0.009743 0.012118 -0.014415 0.005188
# 2 -0.005343 0.011416 -0.001281 -0.005074 -0.004209 0.000606
# 3 -0.009743 -0.001281 0.020984 -0.005746 -0.009115 -0.001704
# 4 0.012118 -0.005074 -0.005746 0.031060 -0.004773 -0.000849
# 5 -0.014415 -0.004209 -0.009115 -0.004773 0.041579 -0.003128
# 6 0.005188 0.000606 -0.001704 -0.000849 -0.003128 0.032543
#
#
# Mechanical properties :
#
#
# Convention : Reuss Voigt Hill
#
# Bulk Modulus (GPa) = 25.10902 58.43672 41.77287
# Shear Modulus (GPa) = 22.34643 34.38569 28.36606
#
# Velocity S-wave (km/s) = 3.14610 3.90263 3.54461
# Velocity P-wave (km/s) = 4.93142 6.79639 5.93758
#
# Compressibility (1/GPa) = 0.03982632
#
# Stress axis : x y z
#
# Youngs Moduli (GPa) = 24.90034 87.59800 47.65647
#
# Poissons Ratio (x) = 0.46802 0.46432
# Poissons Ratio (y) = 0.13304 0.06103
# Poissons Ratio (z) = 0.24261 0.11217
#
# Static dielectric constant tensor:
#      x y z
#    x 3.880860 -0.006510 0.230440 
#    y -0.006510 4.168270 -0.101350 
#    z 0.230440 -0.101350 4.236400 
# 
# 
# High freq. dielectric constant tensor:
#      x y z
#    x 1.878610 0.004070 0.005590 
#    y 0.004070 1.897740 0.003330 
#    z 0.005590 0.003330 1.892960 
# 
# From -- ./inp_files/226660.got.cif
#   From: 2010.06.25/outbox.cif.g09.slc.cpg/sg2_114_cif.got.tgz:226660.got - 2010.06.27 13:26:56.
