data_PCOD8000933
_publ_section_title
;
Structure prediction by ZEFSAII (Michael W. Deem and Ramdas Pophale) SiO2 
 PCOD8000933
Probable space group: P -1
;
_chemical_formula_sum "Si O2"
_cell_formula_units_Z 16
_cell_length_a 7.088390
_cell_length_b 14.929390
_cell_length_c 17.220546
_cell_angle_alpha 143.281095
_cell_angle_beta 143.964349
_cell_angle_gamma 51.378996
_cell_volume 639.487413
_symmetry_space_group_name_H-M "P -1"
_symmetry_group_IT_number 2
_symmetry_cell_setting 'triclinic'
loop_
_space_group_symop_operation_xyz
x,y,z
-x,-y,-z
loop_
_atom_site_type_symbol
_atom_site_label
_atom_site_fract_x
_atom_site_fract_y
_atom_site_fract_z
Si Si1 0.159427 0.767991 0.486681
Si Si2 0.269218 0.387127 0.392196
Si Si3 0.126892 0.953208 0.837003
Si Si4 0.223925 0.652446 0.189897
Si Si5 0.465785 0.326904 0.854600
Si Si6 0.817464 0.163685 0.992541
Si Si7 0.895243 0.649907 0.480648
Si Si8 0.173309 0.079767 0.777276
O O1 0.510988 0.707604 0.542589
O O2 0.915622 0.720080 0.303023
O O3 0.038194 0.695416 0.476624
O O4 0.165872 0.946893 0.619573
O O5 0.500000 0.500000 0.500000
O O6 0.101367 0.272644 0.195583
O O7 0.022066 0.483755 0.426318
O O8 0.014249 0.029842 0.772203
O O9 0.032681 0.773568 0.675861
O O10 0.954346 0.013212 0.897939
O O11 0.500000 0.000000 0.000000
O O12 0.386086 0.708920 0.203417
O O13 0.504308 0.635621 0.335658
O O14 0.001629 0.786984 0.230261
O O15 0.000000 0.500000 0.000000
O O16 0.500000 0.500000 0.000000
O O17 0.647592 0.244197 0.922926
O O18 0.555764 0.127176 0.948151
#
# Coordination Sequence:
#
# PCOD8000933 Si02
#       8
#     2   2   2   2   2   2   2   2
#     4   9  21  37  65  93 131 176 220 274 338 396
#     4  10  19  40  66  94 130 184 220 271 342 403
#     4  11  24  43  68 103 133 175 225 284 334 402
#     4  11  22  41  66  95 138 177 217 279 342 400
#     4  11  22  39  63 102 127 171 231 275 332 399
#     4  12  24  41  71  97 133 175 230 276 331 408
#     4   9  20  38  67  92 133 179 218 270 347 399
#     4  11  24  43  67  98 137 177 219 275 345 394
#
# _framework density 25.020036999999999
#
# number of rings (size 3 to 8) (size 9 to 14) (size 15 to 20)
#    0.000    1.500    1.250    6.000    1.750    4.000 
#    2.250    0.000    2.750    3.000    0.000    0.000 
#    0.000    0.000    0.000    0.000    0.000    0.000 
#
# Total GULP energy -198369.883780 kJ/mol
# GULP energy per Si atom -12398.117736 kJ/mol
# Density = 2.496309 g / cm^3
# Si number density = 25.020037 Si / 1000 Ang^3
#
#
#
# Elastic Constant Matrix: (Units=GPa)
#
#
# Indices 1 2 3 4 5 6 
#
# 1 65.1825 14.0426 12.3176 -0.1342 1.4285 -13.5207
# 2 14.0426 173.6102 82.0701 13.8980 2.4842 -52.7299
# 3 12.3176 82.0701 200.2538 3.7141 9.2178 -18.2332
# 4 -0.1342 13.8980 3.7141 48.1292 -8.1085 0.7659
# 5 1.4285 2.4842 9.2178 -8.1085 35.4122 -5.9423
# 6 -13.5207 -52.7299 -18.2332 0.7659 -5.9423 22.1233
#
#
#
# Elastic Compliance Matrix: (Units=1/GPa)
#
#
# Indices 1 2 3 4 5 6 
#
# 1 0.022078 0.013186 -0.002943 -0.003277 0.005603 0.044116
# 2 0.013186 0.038978 -0.008280 -0.009939 0.013056 0.097988
# 3 -0.002943 -0.008280 0.007193 0.001482 -0.003624 -0.016630
# 4 -0.003277 -0.009939 0.001482 0.024227 0.001826 -0.024820
# 5 0.005603 0.013056 -0.003624 0.001826 0.035336 0.040983
# 6 0.044116 0.097988 -0.016630 -0.024820 0.040983 0.303875
#
#
# Mechanical properties :
#
#
# Convention : Reuss Voigt Hill
#
# Bulk Modulus (GPa) = 13.85488 72.87858 43.36673
# Shear Modulus (GPa) = 11.06640 43.17403 27.12021
#
# Velocity S-wave (km/s) = 2.10538 4.15851 3.29590
# Velocity P-wave (km/s) = 3.38522 7.22835 5.64396
#
# Compressibility (1/GPa) = 0.07217672
#
# Stress axis : x y z
#
# Youngs Moduli (GPa) = 45.29381 25.65537 139.01805
#
# Poissons Ratio (x) = -0.33830 0.40907
# Poissons Ratio (y) = -0.59726 1.15111
# Poissons Ratio (z) = 0.13328 0.21243
#
# Static dielectric constant tensor:
#      x y z
#    x 4.701650 -0.443810 0.147630 
#    y -0.443810 5.071770 -0.034070 
#    z 0.147630 -0.034070 4.588500 
# 
# 
# High freq. dielectric constant tensor:
#      x y z
#    x 1.999980 -0.007220 0.006160 
#    y -0.007220 2.010790 0.001270 
#    z 0.006160 0.001270 2.002910 
# 
# From -- ./inp_files/591002.got.cif
#   From: 2010.06.25/outbox.cif.g09.slc.cpg/sg2_296_cif.got.tgz:591002.got - 2010.06.27 13:26:56.
