data_PCOD8000397
_publ_section_title
;
Structure prediction by ZEFSAII (Michael W. Deem and Ramdas Pophale) SiO2 
 PCOD8000397
Probable space group: P -1
;
_chemical_formula_sum "Si O2"
_cell_formula_units_Z 16
_cell_length_a 8.578456
_cell_length_b 17.494119
_cell_length_c 11.311456
_cell_angle_alpha 101.989246
_cell_angle_beta 42.752517
_cell_angle_gamma 72.513530
_cell_volume 824.151454
_symmetry_space_group_name_H-M "P -1"
_symmetry_group_IT_number 2
_symmetry_cell_setting 'triclinic'
loop_
_space_group_symop_operation_xyz
x,y,z
-x,-y,-z
loop_
_atom_site_type_symbol
_atom_site_label
_atom_site_fract_x
_atom_site_fract_y
_atom_site_fract_z
Si Si1 0.390571 0.736268 0.400134
Si Si2 0.044726 0.242501 0.181776
Si Si3 0.207030 0.539158 0.606002
Si Si4 0.273673 0.874694 0.298277
Si Si5 0.431532 0.682920 0.735431
Si Si6 0.313808 0.436544 0.002731
Si Si7 0.149148 0.324076 0.672678
Si Si8 0.228072 0.735855 0.125632
O O1 0.336813 0.822501 0.373919
O O2 0.467221 0.638788 0.253694
O O3 0.681236 0.688576 0.306721
O O4 0.072794 0.794666 0.670752
O O5 0.974324 0.344725 0.311008
O O6 0.860415 0.274038 0.171147
O O7 0.416874 0.150636 0.925603
O O8 0.500000 0.500000 0.500000
O O9 0.332725 0.445324 0.412834
O O10 0.990885 0.548127 0.827663
O O11 0.164029 0.832508 0.256574
O O12 0.000000 0.000000 0.500000
O O13 0.633006 0.705895 0.570807
O O14 0.301402 0.741019 0.951463
O O15 0.485344 0.378099 0.012031
O O16 0.193147 0.553732 0.102502
O O17 0.082264 0.246833 0.686839
#
# Coordination Sequence:
#
# PCOD8000397 Si02
#       8
#     2   2   2   2   2   2   2   2
#     4  10  21  37  63  85 112 157 200 241 278 345
#     4  10  19  39  61  86 114 156 202 238 275 346
#     4   9  17  31  54  84 118 159 191 219 268 339
#     4  11  25  45  62  82 111 149 205 255 297 343
#     4   9  21  35  57  87 125 158 187 227 283 351
#     4  10  20  35  51  89 125 163 194 219 282 346
#     4  10  21  35  55  89 125 153 191 228 284 354
#     4  11  22  36  57  85 121 157 187 242 299 336
#
# _framework density 19.413906000000001
#
# number of rings (size 3 to 8) (size 9 to 14) (size 15 to 20)
#    0.000    2.000    2.500    2.250    3.500    4.500 
#    0.000    2.500    0.000    3.000    0.000    0.000 
#    0.000    0.000    0.000    0.000    0.000    0.000 
#
# Total GULP energy -198328.231065 kJ/mol
# GULP energy per Si atom -12395.514442 kJ/mol
# Density = 1.936972 g / cm^3
# Si number density = 19.413906 Si / 1000 Ang^3
#
#
#
# Elastic Constant Matrix: (Units=GPa)
#
#
# Indices 1 2 3 4 5 6 
#
# 1 76.0850 32.8043 38.6356 -17.3301 10.0123 5.2192
# 2 32.8043 68.6539 47.5827 -10.3039 10.9593 6.5018
# 3 38.6356 47.5827 106.0650 -12.4494 -6.6847 12.4600
# 4 -17.3301 -10.3039 -12.4494 31.9584 -0.3258 4.1399
# 5 10.0123 10.9593 -6.6847 -0.3258 23.3567 -6.5939
# 6 5.2192 6.5018 12.4600 4.1399 -6.5939 19.7331
#
#
#
# Elastic Compliance Matrix: (Units=1/GPa)
#
#
# Indices 1 2 3 4 5 6 
#
# 1 0.021001 -0.002490 -0.005314 0.009319 -0.011225 -0.007084
# 2 -0.002490 0.027616 -0.011150 0.004075 -0.017293 -0.008033
# 3 -0.005314 -0.011150 0.017448 0.000715 0.011919 -0.002105
# 4 0.009319 0.004075 0.000715 0.039890 -0.009618 -0.015841
# 5 -0.011225 -0.017293 0.011919 -0.009618 0.066149 0.025262
# 6 -0.007084 -0.008033 -0.002105 -0.015841 0.025262 0.068291
#
#
# Mechanical properties :
#
#
# Convention : Reuss Voigt Hill
#
# Bulk Modulus (GPa) = 35.51516 54.31656 44.91586
# Shear Modulus (GPa) = 17.37980 23.79507 20.58743
#
# Velocity S-wave (km/s) = 2.99528 3.50476 3.25998
# Velocity P-wave (km/s) = 5.50415 6.66458 6.11197
#
# Compressibility (1/GPa) = 0.02815699
#
# Stress axis : x y z
#
# Youngs Moduli (GPa) = 47.61676 36.21045 57.31170
#
# Poissons Ratio (x) = 0.09017 0.30457
# Poissons Ratio (y) = 0.11857 0.63903
# Poissons Ratio (z) = 0.25305 0.40375
#
# Static dielectric constant tensor:
#      x y z
#    x 3.489720 0.107800 -0.099060 
#    y 0.107800 3.318930 -0.229380 
#    z -0.099060 -0.229380 3.515270 
# 
# 
# High freq. dielectric constant tensor:
#      x y z
#    x 1.754540 0.004360 -0.011370 
#    y 0.004360 1.735390 -0.028260 
#    z -0.011370 -0.028260 1.744090 
# 
# From -- ./inp_files/258538.got.cif
#   From: 2010.06.25/outbox.cif.g09.slc.cpg/sg2_130_cif.got.tgz:258538.got - 2010.06.27 13:26:56.
