data_PCOD8000858
_publ_section_title
;
Structure prediction by ZEFSAII (Michael W. Deem and Ramdas Pophale) SiO2 
 PCOD8000858
Probable space group: P -1
;
_chemical_formula_sum "Si O2"
_cell_formula_units_Z 16
_cell_length_a 13.414983
_cell_length_b 11.053572
_cell_length_c 16.920521
_cell_angle_alpha 75.407380
_cell_angle_beta 23.370232
_cell_angle_gamma 89.917635
_cell_volume 771.439661
_symmetry_space_group_name_H-M "P -1"
_symmetry_group_IT_number 2
_symmetry_cell_setting 'triclinic'
loop_
_space_group_symop_operation_xyz
x,y,z
-x,-y,-z
loop_
_atom_site_type_symbol
_atom_site_label
_atom_site_fract_x
_atom_site_fract_y
_atom_site_fract_z
Si Si1 0.167847 0.631134 0.685450
Si Si2 0.086454 0.094415 0.680133
Si Si3 0.213035 0.586240 0.489619
Si Si4 0.881734 0.854742 0.165652
Si Si5 0.772111 0.249631 0.886355
Si Si6 0.275894 0.730504 0.905932
Si Si7 0.791518 0.749605 0.948907
Si Si8 0.385382 0.576707 0.125300
O O1 0.131798 0.645551 0.615266
O O2 0.524395 0.709912 0.434370
O O3 0.954682 0.456116 0.901949
O O4 0.051269 0.727497 0.791178
O O5 0.098386 0.098046 0.765522
O O6 0.839323 0.128762 0.827465
O O7 0.427909 0.213078 0.373947
O O8 0.952871 0.923766 0.772971
O O9 0.121782 0.416797 0.609582
O O10 0.995770 0.558479 0.575685
O O11 0.578265 0.713806 0.186170
O O12 0.095033 0.799779 0.996979
O O13 0.000000 0.000000 0.000000
O O14 0.610744 0.209070 0.096708
O O15 0.552839 0.266452 0.984207
O O16 0.550843 0.617820 0.082207
O O17 0.500000 0.500000 0.000000
#
# Coordination Sequence:
#
# PCOD8000858 Si02
#       8
#     2   2   2   2   2   2   2   2
#     4  11  22  39  64  88 116 162 204 241 295 349
#     4  11  24  39  59  89 126 156 193 244 299 360
#     4   9  20  38  62  85 118 150 203 248 285 341
#     4  11  24  41  61  89 122 155 196 249 301 352
#     4   8  20  39  59  83 120 155 194 242 293 341
#     4  10  21  42  62  84 122 156 200 248 291 349
#     4  12  22  36  62  92 119 159 198 242 301 349
#     4  10  19  40  64  89 118 154 202 251 288 346
#
# _framework density 20.740442000000002
#
# number of rings (size 3 to 8) (size 9 to 14) (size 15 to 20)
#    0.750    1.000    1.250    3.000    0.000    5.000 
#    0.000    0.625    0.000    0.000    0.000    0.000 
#    0.000    0.000    0.000    0.000    0.000    0.000 
#
# Total GULP energy -198252.572931 kJ/mol
# GULP energy per Si atom -12390.785808 kJ/mol
# Density = 2.069324 g / cm^3
# Si number density = 20.740442 Si / 1000 Ang^3
#
#
#
# Elastic Constant Matrix: (Units=GPa)
#
#
# Indices 1 2 3 4 5 6 
#
# 1 54.2445 9.1298 21.7996 5.3349 0.1517 -11.7017
# 2 9.1298 107.8988 38.0445 12.8943 1.5703 -20.4545
# 3 21.7996 38.0445 102.3894 10.0278 20.6456 -4.5243
# 4 5.3349 12.8943 10.0278 32.1432 -6.0215 -8.6200
# 5 0.1517 1.5703 20.6456 -6.0215 23.4373 -3.5561
# 6 -11.7017 -20.4545 -4.5243 -8.6200 -3.5561 33.4564
#
#
#
# Elastic Compliance Matrix: (Units=1/GPa)
#
#
# Indices 1 2 3 4 5 6 
#
# 1 0.022707 0.001981 -0.006823 0.001506 0.007547 0.009420
# 2 0.001981 0.012658 -0.005812 -0.000409 0.005385 0.008113
# 3 -0.006823 -0.005812 0.017365 -0.007271 -0.017848 -0.007362
# 4 0.001506 -0.000409 -0.007271 0.039828 0.018402 0.011511
# 5 0.007547 0.005385 -0.017848 0.018402 0.065009 0.015169
# 6 0.009420 0.008113 -0.007362 0.011511 0.015169 0.041727
#
#
# Mechanical properties :
#
#
# Convention : Reuss Voigt Hill
#
# Bulk Modulus (GPa) = 31.82745 44.72006 38.27375
# Shear Modulus (GPa) = 21.63788 30.84463 26.24125
#
# Velocity S-wave (km/s) = 3.23347 3.86057 3.56085
# Velocity P-wave (km/s) = 5.41474 6.44054 5.94979
#
# Compressibility (1/GPa) = 0.03141942
#
# Stress axis : x y z
#
# Youngs Moduli (GPa) = 44.03960 79.00036 57.58819
#
# Poissons Ratio (x) = -0.15647 0.39295
# Poissons Ratio (y) = -0.08723 0.33472
# Poissons Ratio (z) = 0.30050 0.45918
#
# Static dielectric constant tensor:
#      x y z
#    x 3.644850 -0.074490 0.012670 
#    y -0.074490 3.713560 0.140720 
#    z 0.012670 0.140720 3.693720 
# 
# 
# High freq. dielectric constant tensor:
#      x y z
#    x 1.797870 -0.006180 0.004410 
#    y -0.006180 1.812760 0.014410 
#    z 0.004410 0.014410 1.811200 
# 
# From -- ./inp_files/573427.got.cif
#   From: 2010.06.25/outbox.cif.g09.slc.cpg/sg2_287_cif.got.tgz:573427.got - 2010.06.27 13:26:56.
