data_PCOD8000772
_publ_section_title
;
Structure prediction by ZEFSAII (Michael W. Deem and Ramdas Pophale) SiO2 
 PCOD8000772
Probable space group: P -1
;
_chemical_formula_sum "Si O2"
_cell_formula_units_Z 16
_cell_length_a 10.618394
_cell_length_b 14.974530
_cell_length_c 12.492168
_cell_angle_alpha 40.697052
_cell_angle_beta 106.561294
_cell_angle_gamma 75.634619
_cell_volume 831.275610
_symmetry_space_group_name_H-M "P -1"
_symmetry_group_IT_number 2
_symmetry_cell_setting 'triclinic'
loop_
_space_group_symop_operation_xyz
x,y,z
-x,-y,-z
loop_
_atom_site_type_symbol
_atom_site_label
_atom_site_fract_x
_atom_site_fract_y
_atom_site_fract_z
Si Si1 0.821019 0.540131 0.315388
Si Si2 0.047905 0.622694 0.274795
Si Si3 0.823885 0.063258 0.514715
Si Si4 0.248799 0.842886 0.820331
Si Si5 0.434705 0.213147 0.669860
Si Si6 0.739033 0.058163 0.718847
Si Si7 0.604269 0.062588 0.067639
Si Si8 0.330694 0.606343 0.681695
O O1 0.929911 0.579457 0.245223
O O2 0.613311 0.759090 0.101686
O O3 0.795777 0.433128 0.326161
O O4 0.942446 0.391694 0.581385
O O5 0.262431 0.458395 0.420789
O O6 0.935360 0.848212 0.011593
O O7 0.759786 0.067574 0.376471
O O8 0.746772 0.016675 0.629860
O O9 0.723447 0.290338 0.308348
O O10 0.059477 0.892787 0.737865
O O11 0.249654 0.951002 0.819837
O O12 0.439271 0.599761 0.090592
O O13 0.542695 0.147736 0.642198
O O14 0.598302 0.105413 0.901206
O O15 0.329612 0.146014 0.713283
O O16 0.732435 0.229580 0.571636
#
# Coordination Sequence:
#
# PCOD8000772 Si02
#       8
#     2   2   2   2   2   2   2   2
#     4   9  18  36  53  83 106 151 189 213 268 333
#     4  10  20  33  56  75 119 147 178 227 262 330
#     4   9  22  36  59  80 107 145 186 226 278 315
#     4  10  19  40  59  80 106 142 194 227 261 333
#     4  10  20  35  54  82 115 147 177 218 282 325
#     4  10  22  35  52  85 114 143 177 228 281 315
#     4   9  19  35  59  81 107 148 187 223 262 332
#     4   9  21  35  58  81 109 142 182 227 279 318
#
# _framework density 19.247527000000002
#
# number of rings (size 3 to 8) (size 9 to 14) (size 15 to 20)
#    0.750    1.750    1.250    0.375    5.250    0.500 
#    2.250    2.500    0.000    0.750    0.000    0.000 
#    0.000    0.000    0.000    0.000    0.000    0.000 
#
# Total GULP energy -198270.258555 kJ/mol
# GULP energy per Si atom -12391.891160 kJ/mol
# Density = 1.920372 g / cm^3
# Si number density = 19.247527 Si / 1000 Ang^3
#
#
#
# Elastic Constant Matrix: (Units=GPa)
#
#
# Indices 1 2 3 4 5 6 
#
# 1 61.8034 27.1970 29.3439 10.4090 0.4213 -9.5559
# 2 27.1970 62.4239 33.4693 5.4580 -2.8968 -4.9888
# 3 29.3439 33.4693 94.3886 -3.0077 1.1916 3.8451
# 4 10.4090 5.4580 -3.0077 26.3301 -6.9200 -1.6292
# 5 0.4213 -2.8968 1.1916 -6.9200 14.7442 1.4633
# 6 -9.5559 -4.9888 3.8451 -1.6292 1.4633 37.0408
#
#
#
# Elastic Compliance Matrix: (Units=1/GPa)
#
#
# Indices 1 2 3 4 5 6 
#
# 1 0.024521 -0.006515 -0.005798 -0.010486 -0.007016 0.005866
# 2 -0.006515 0.022651 -0.006183 -0.001612 0.004203 0.001775
# 3 -0.005798 -0.006183 0.014897 0.005192 0.000548 -0.003668
# 4 -0.010486 -0.001612 0.005192 0.048889 0.022728 -0.002209
# 5 -0.007016 0.004203 0.000548 0.022728 0.079815 -0.003454
# 6 0.005866 0.001775 -0.003668 -0.002209 -0.003454 0.029170
#
#
# Mechanical properties :
#
#
# Convention : Reuss Voigt Hill
#
# Bulk Modulus (GPa) = 39.87556 44.29290 42.08423
# Shear Modulus (GPa) = 18.84711 24.19675 21.52193
#
# Velocity S-wave (km/s) = 3.13261 3.54946 3.34753
# Velocity P-wave (km/s) = 5.81778 6.31351 6.07070
#
# Compressibility (1/GPa) = 0.02507802
#
# Stress axis : x y z
#
# Youngs Moduli (GPa) = 40.78162 44.14851 67.12606
#
# Poissons Ratio (x) = 0.28761 0.38917
# Poissons Ratio (y) = 0.26568 0.41505
# Poissons Ratio (z) = 0.23644 0.27298
#
# Static dielectric constant tensor:
#      x y z
#    x 3.214580 -0.077160 0.029320 
#    y -0.077160 3.581060 -0.073660 
#    z 0.029320 -0.073660 3.478150 
# 
# 
# High freq. dielectric constant tensor:
#      x y z
#    x 1.720960 -0.013530 0.008030 
#    y -0.013530 1.740520 -0.019510 
#    z 0.008030 -0.019510 1.748060 
# 
# From -- ./inp_files/309824.got.cif
#   From: 2010.06.25/outbox.cif.g09.slc.cpg/sg2_155_cif.got.tgz:309824.got - 2010.06.27 13:26:56.
