data_PCOD8000832
_publ_section_title
;
Structure prediction by ZEFSAII (Michael W. Deem and Ramdas Pophale) SiO2 
 PCOD8000832
Probable space group: P -1
;
_chemical_formula_sum "Si O2"
_cell_formula_units_Z 16
_cell_length_a 16.820174
_cell_length_b 8.366743
_cell_length_c 8.378174
_cell_angle_alpha 127.627768
_cell_angle_beta 48.335319
_cell_angle_gamma 122.273006
_cell_volume 681.055373
_symmetry_space_group_name_H-M "P -1"
_symmetry_group_IT_number 2
_symmetry_cell_setting 'triclinic'
loop_
_space_group_symop_operation_xyz
x,y,z
-x,-y,-z
loop_
_atom_site_type_symbol
_atom_site_label
_atom_site_fract_x
_atom_site_fract_y
_atom_site_fract_z
Si Si1 0.973987 0.853478 0.097301
Si Si2 0.318215 0.277997 0.857560
Si Si3 0.279601 0.835504 0.469098
Si Si4 0.947084 0.474926 0.381060
Si Si5 0.139931 0.142601 0.261228
Si Si6 0.620797 0.516825 0.405181
Si Si7 0.757878 0.905507 0.585629
Si Si8 0.545206 0.238098 0.603524
O O1 0.854386 0.853827 0.317739
O O2 0.062943 0.942289 0.166880
O O3 0.976987 0.617699 0.900616
O O4 0.000000 0.000000 0.000000
O O5 0.308016 0.442355 0.829208
O O6 0.439115 0.340624 0.816220
O O7 0.296345 0.046810 0.676193
O O8 0.224086 0.285588 0.114727
O O9 0.166380 0.688568 0.573237
O O10 0.378232 0.722424 0.315643
O O11 0.280043 0.894358 0.315897
O O12 0.932090 0.699805 0.478008
O O13 0.000000 0.500000 0.500000
O O14 0.205152 0.051688 0.256076
O O15 0.500000 0.500000 0.500000
O O16 0.656925 0.710849 0.594644
O O17 0.621547 0.316699 0.392549
O O18 0.500000 0.000000 0.500000
#
# Coordination Sequence:
#
# PCOD8000832 Si02
#       8
#     2   2   2   2   2   2   2   2
#     4  12  22  45  69  92 136 179 222 281 341 385
#     4   9  19  39  68  91 133 179 212 279 340 383
#     4  10  19  40  62  92 132 176 218 278 328 385
#     4  12  24  38  68  97 127 174 231 273 331 405
#     4  12  24  42  66 102 138 176 228 272 335 402
#     4   9  18  37  63  95 130 173 222 271 333 396
#     4  11  23  39  67  96 136 184 219 276 335 395
#     4   9  18  35  67  98 124 171 225 268 333 401
#
# _framework density 23.492951000000001
#
# number of rings (size 3 to 8) (size 9 to 14) (size 15 to 20)
#    0.000    1.500    3.750    2.625    0.000    0.500 
#    0.000    8.750    0.000    0.000    0.000    0.000 
#    0.000    0.000    0.000    0.000    0.000    0.000 
#
# Total GULP energy -198262.907952 kJ/mol
# GULP energy per Si atom -12391.431747 kJ/mol
# Density = 2.343948 g / cm^3
# Si number density = 23.492951 Si / 1000 Ang^3
#
#
#
# Elastic Constant Matrix: (Units=GPa)
#
#
# Indices 1 2 3 4 5 6 
#
# 1 184.6442 44.6819 21.1650 1.1024 13.3508 -4.0217
# 2 44.6819 82.2895 25.3066 -11.4912 6.4636 -9.2237
# 3 21.1650 25.3066 68.6891 6.6119 4.4229 -1.5258
# 4 1.1024 -11.4912 6.6119 25.7285 2.0592 -1.1128
# 5 13.3508 6.4636 4.4229 2.0592 24.3334 -4.3501
# 6 -4.0217 -9.2237 -1.5258 -1.1128 -4.3501 49.3579
#
#
#
# Elastic Compliance Matrix: (Units=1/GPa)
#
#
# Indices 1 2 3 4 5 6 
#
# 1 0.006481 -0.003447 -0.000428 -0.001523 -0.002502 -0.000384
# 2 -0.003447 0.017839 -0.006279 0.010017 -0.002035 0.002905
# 3 -0.000428 -0.006279 0.017743 -0.007316 -0.000864 -0.000901
# 4 -0.001523 0.010017 -0.007316 0.045700 -0.003969 0.002202
# 5 -0.002502 -0.002035 -0.000864 -0.003969 0.044071 0.003184
# 6 -0.000384 0.002905 -0.000901 0.002202 0.003184 0.021074
#
#
# Mechanical properties :
#
#
# Convention : Reuss Voigt Hill
#
# Bulk Modulus (GPa) = 45.96409 57.54775 51.75592
# Shear Modulus (GPa) = 27.70600 36.18194 31.94397
#
# Velocity S-wave (km/s) = 3.43787 3.92869 3.69145
# Velocity P-wave (km/s) = 5.94694 6.71777 6.34407
#
# Compressibility (1/GPa) = 0.02175611
#
# Stress axis : x y z
#
# Youngs Moduli (GPa) = 154.30847 56.05730 56.35917
#
# Poissons Ratio (x) = 0.19320 0.02411
# Poissons Ratio (y) = 0.53182 0.35388
# Poissons Ratio (z) = 0.06602 0.35198
#
# Static dielectric constant tensor:
#      x y z
#    x 5.232170 0.060510 -0.161090 
#    y 0.060510 4.489010 -0.069000 
#    z -0.161090 -0.069000 3.955870 
# 
# 
# High freq. dielectric constant tensor:
#      x y z
#    x 1.960640 0.009020 0.004520 
#    y 0.009020 1.937350 -0.008480 
#    z 0.004520 -0.008480 1.876580 
# 
# From -- ./inp_files/329523.got.cif
#   From: 2010.06.25/outbox.cif.g09.slc.cpg/sg2_165_cif.got.tgz:329523.got - 2010.06.27 13:26:56.
