data_PCOD8000215
_publ_section_title
;
Structure prediction by ZEFSAII (Michael W. Deem and Ramdas Pophale) SiO2 
 PCOD8000215
Probable space group: P 1
;
_chemical_formula_sum "Si O2"
_cell_formula_units_Z 8
_cell_length_a 8.050201
_cell_length_b 7.864324
_cell_length_c 5.113941
_cell_angle_alpha 107.210636
_cell_angle_beta 82.362116
_cell_angle_gamma 105.392633
_cell_volume 297.650037
_symmetry_space_group_name_H-M "P 1"
_symmetry_group_IT_number 1
_symmetry_cell_setting 'triclinic'
loop_
_space_group_symop_operation_xyz
x,y,z
loop_
_atom_site_type_symbol
_atom_site_label
_atom_site_fract_x
_atom_site_fract_y
_atom_site_fract_z
Si Si1 0.826420 0.417050 0.605950
Si Si2 0.631124 0.289658 0.069767
Si Si3 0.724287 0.922808 0.744847
Si Si4 0.138706 0.358412 0.762423
Si Si5 0.266571 0.107722 0.964790
Si Si6 0.354804 0.730756 0.648748
Si Si7 0.073340 0.623666 0.278617
Si Si8 0.940633 0.919852 0.199634
O O1 0.697547 0.314372 0.362535
O O2 0.972859 0.302822 0.580631
O O3 0.935747 0.609965 0.545094
O O4 0.722629 0.446187 0.908353
O O5 0.424362 0.265647 0.119670
O O6 0.661922 0.108910 0.844670
O O7 0.562374 0.757856 0.614390
O O8 0.874961 0.948743 0.514524
O O9 0.789985 0.885046 0.000387
O O10 0.279318 0.541159 0.729416
O O11 0.220322 0.184484 0.724871
O O12 0.061385 0.419251 0.078985
O O13 0.098430 0.092825 0.174472
O O14 0.311667 0.911660 0.862267
O O15 0.269649 0.713858 0.370514
O O16 0.019559 0.740857 0.109988
#
# Coordination Sequence:
#
# PCOD8000215 Si02
#       8
#     1   1   1   1   1   1   1   1
#     4  11  24  46  72 104 149 190 239 299 366 423
#     4  11  25  47  71 110 148 187 243 310 354 435
#     4  11  27  44  77 106 147 190 243 305 364 429
#     4  11  24  49  77 108 147 198 237 304 362 437
#     4  11  26  48  77 107 148 197 246 296 371 433
#     4  10  25  50  72 110 151 189 246 303 363 434
#     4  11  25  46  76 105 155 190 240 306 362 432
#     4  12  26  46  74 108 143 197 242 293 368 433
#
# _framework density 26.877202
#
# number of rings (size 3 to 8) (size 9 to 14) (size 15 to 20)
#    0.000    1.000    2.500    2.250    5.250    6.000 
#    6.750    0.000    0.000    0.000    0.000    0.000 
#    0.000    0.000    0.000    0.000    0.000    0.000 
#
# Total GULP energy -99146.271523 kJ/mol
# GULP energy per Si atom -12393.283940 kJ/mol
# Density = 2.681603 g / cm^3
# Si number density = 26.877202 Si / 1000 Ang^3
#
#
#
# Elastic Constant Matrix: (Units=GPa)
#
#
# Indices 1 2 3 4 5 6 
#
# 1 145.1634 49.1353 32.9527 -20.1394 35.2954 31.5657
# 2 49.1353 96.7411 2.7136 -34.2997 0.4383 11.3560
# 3 32.9527 2.7136 100.3027 -19.1515 21.6209 8.1640
# 4 -20.1394 -34.2997 -19.1515 33.2656 -2.3318 4.0535
# 5 35.2954 0.4383 21.6209 -2.3318 46.4866 4.6514
# 6 31.5657 11.3560 8.1640 4.0535 4.6514 42.2509
#
#
#
# Elastic Compliance Matrix: (Units=1/GPa)
#
#
# Indices 1 2 3 4 5 6 
#
# 1 0.012637 -0.004574 -0.001185 0.002575 -0.008137 -0.007333
# 2 -0.004574 0.021450 0.005297 0.023294 0.002565 -0.005888
# 3 -0.001185 0.005297 0.014012 0.012972 -0.004618 -0.003982
# 4 0.002575 0.023294 0.012972 0.064893 -0.003296 -0.016554
# 5 -0.008137 0.002565 -0.004618 -0.003296 0.029311 0.003372
# 6 -0.007333 -0.005888 -0.003982 -0.016554 0.003372 0.032716
#
#
# Mechanical properties :
#
#
# Convention : Reuss Voigt Hill
#
# Bulk Modulus (GPa) = 21.19846 56.86783 39.03315
# Shear Modulus (GPa) = 26.08663 41.56099 33.82381
#
# Velocity S-wave (km/s) = 3.11880 3.93660 3.55132
# Velocity P-wave (km/s) = 4.56875 6.47046 5.60091
#
# Compressibility (1/GPa) = 0.04717324
#
# Stress axis : x y z
#
# Youngs Moduli (GPa) = 79.13571 46.61941 71.36546
#
# Poissons Ratio (x) = 0.21325 0.08459
# Poissons Ratio (y) = 0.36200 -0.37800
# Poissons Ratio (z) = 0.09380 -0.24693
#
# Static dielectric constant tensor:
#      x y z
#    x 5.234760 0.339870 0.126830 
#    y 0.339870 5.053350 -0.328240 
#    z 0.126830 -0.328240 4.610360 
# 
# 
# High freq. dielectric constant tensor:
#      x y z
#    x 2.085590 0.012210 0.017320 
#    y 0.012210 2.084870 -0.015090 
#    z 0.017320 -0.015090 2.072770 
# 
# From -- ./inp_files/1212.got.cif
#   From: 2010.03.12/outbox.cif.g09.slc.cpg/sg1_1_cif.got.tgz:1212.got - 2010.03.29 11:57:58.
