data_PCOD8000254
_publ_section_title
;
Structure prediction by ZEFSAII (Michael W. Deem and Ramdas Pophale) SiO2 
 PCOD8000254
Probable space group: P 1
;
_chemical_formula_sum "Si O2"
_cell_formula_units_Z 6
_cell_length_a 8.612617
_cell_length_b 5.299331
_cell_length_c 9.479528
_cell_angle_alpha 103.052880
_cell_angle_beta 136.783074
_cell_angle_gamma 61.264397
_cell_volume 254.133214
_symmetry_space_group_name_H-M "P 1"
_symmetry_group_IT_number 1
_symmetry_cell_setting 'triclinic'
loop_
_space_group_symop_operation_xyz
x,y,z
loop_
_atom_site_type_symbol
_atom_site_label
_atom_site_fract_x
_atom_site_fract_y
_atom_site_fract_z
Si Si1 0.061110 0.759830 0.513660
Si Si2 0.185613 0.125694 0.416225
Si Si3 0.680928 0.566623 0.611854
Si Si4 0.144899 0.625361 0.856464
Si Si5 0.504740 0.208288 0.250853
Si Si6 0.006910 0.170478 0.008924
O O1 0.175544 0.433235 0.486396
O O2 0.189406 0.738997 0.749829
O O3 0.124169 0.973365 0.487390
O O4 0.754070 0.899230 0.346239
O O5 0.979424 0.182533 0.161751
O O6 0.473947 0.909359 0.525905
O O7 0.556797 0.391498 0.428423
O O8 0.935072 0.508658 0.683684
O O9 0.766694 0.448791 0.813869
O O10 0.418600 0.382691 0.067179
O O11 0.010970 0.878637 0.916354
O O12 0.279089 0.150403 0.149120
#
# Coordination Sequence:
#
# PCOD8000254 Si02
#       6
#     1   1   1   1   1   1
#     4  12  28  46  70 110 151 183 231 305 368 413
#     4  12  28  46  70 110 151 183 231 305 368 413
#     4  11  24  47  76 102 141 191 245 291 346 435
#     4  11  25  45  78 102 134 196 250 280 350 436
#     4  11  24  47  76 102 141 191 245 291 346 435
#     4  11  25  45  78 102 134 196 250 280 350 436
#
# _framework density 23.609663999999999
#
# number of rings (size 3 to 8) (size 9 to 14) (size 15 to 20)
#    0.000    0.667    3.333    3.000    9.333    2.667 
#    0.000    0.000    0.000    0.000    0.000    0.000 
#    0.000    0.000    0.000    0.000    0.000    0.000 
#
# Total GULP energy -74415.598154 kJ/mol
# GULP energy per Si atom -12402.599692 kJ/mol
# Density = 2.355593 g / cm^3
# Si number density = 23.609664 Si / 1000 Ang^3
#
#
#
# Elastic Constant Matrix: (Units=GPa)
#
#
# Indices 1 2 3 4 5 6 
#
# 1 58.2471 2.5542 40.3650 -3.9599 -17.2033 7.6770
# 2 2.5542 103.5530 17.8385 -19.3095 5.7285 -14.9932
# 3 40.3650 17.8385 152.5716 -30.0848 -24.8501 -0.8461
# 4 -3.9599 -19.3095 -30.0848 41.3790 5.9287 -0.5404
# 5 -17.2033 5.7285 -24.8501 5.9287 51.4545 -8.2940
# 6 7.6770 -14.9932 -0.8461 -0.5404 -8.2940 36.3216
#
#
#
# Elastic Compliance Matrix: (Units=1/GPa)
#
#
# Indices 1 2 3 4 5 6 
#
# 1 0.023024 -0.001067 -0.005886 -0.003296 0.004639 -0.004434
# 2 -0.001067 0.011494 -0.000238 0.005381 -0.001618 0.004675
# 3 -0.005886 -0.000238 0.009740 0.006092 0.002384 0.002008
# 4 -0.003296 0.005381 0.006092 0.031096 -0.001842 0.003102
# 5 0.004639 -0.001618 0.002384 -0.001842 0.023120 0.003659
# 6 -0.004434 0.004675 0.002008 0.003102 0.003659 0.031327
#
#
# Mechanical properties :
#
#
# Convention : Reuss Voigt Hill
#
# Bulk Modulus (GPa) = 33.47096 48.43189 40.95142
# Shear Modulus (GPa) = 32.43771 42.73863 37.58817
#
# Velocity S-wave (km/s) = 3.71066 4.25928 3.99440
# Velocity P-wave (km/s) = 5.70668 6.68930 6.21743
#
# Compressibility (1/GPa) = 0.02987665
#
# Stress axis : x y z
#
# Youngs Moduli (GPa) = 43.43259 87.00106 102.67043
#
# Poissons Ratio (x) = 0.09286 0.60427
# Poissons Ratio (y) = 0.04636 0.02443
# Poissons Ratio (z) = 0.25562 0.02070
#
# Static dielectric constant tensor:
#      x y z
#    x 4.115160 0.008290 -0.237550 
#    y 0.008290 4.244100 -0.275130 
#    z -0.237550 -0.275130 4.775600 
# 
# 
# High freq. dielectric constant tensor:
#      x y z
#    x 1.916250 0.011840 -0.009230 
#    y 0.011840 1.938760 -0.013140 
#    z -0.009230 -0.013140 1.960500 
# 
# From -- ./inp_files/154.got.cif
#   From: 2010.03.12/outbox.cif.g09.slc.cpg/sg1_1_cif.got.tgz:154.got - 2010.03.29 11:57:58.
