data_PCOD8000388
_publ_section_title
;
Structure prediction by ZEFSAII (Michael W. Deem and Ramdas Pophale) SiO2 
 PCOD8000388
Probable space group: P -1
;
_chemical_formula_sum "Si O2"
_cell_formula_units_Z 16
_cell_length_a 14.123235
_cell_length_b 13.850766
_cell_length_c 8.567844
_cell_angle_alpha 136.252735
_cell_angle_beta 83.811947
_cell_angle_gamma 128.246055
_cell_volume 710.523772
_symmetry_space_group_name_H-M "P -1"
_symmetry_group_IT_number 2
_symmetry_cell_setting 'triclinic'
loop_
_space_group_symop_operation_xyz
x,y,z
-x,-y,-z
loop_
_atom_site_type_symbol
_atom_site_label
_atom_site_fract_x
_atom_site_fract_y
_atom_site_fract_z
Si Si1 0.629231 0.122511 0.245230
Si Si2 0.902237 0.003357 0.105221
Si Si3 0.472130 0.737230 0.426929
Si Si4 0.905220 0.063053 0.679747
Si Si5 0.771121 0.067705 0.966432
Si Si6 0.484643 0.761421 0.113967
Si Si7 0.330123 0.286077 0.940162
Si Si8 0.131951 0.291983 0.645120
O O1 0.659960 0.310055 0.535809
O O2 0.563938 0.947232 0.186897
O O3 0.500000 0.000000 0.000000
O O4 0.775064 0.220143 0.240195
O O5 0.021544 0.229679 0.457123
O O6 0.803096 0.985678 0.989996
O O7 0.778487 0.785641 0.984862
O O8 0.000000 0.000000 0.000000
O O9 0.400931 0.508311 0.114657
O O10 0.601652 0.857413 0.674420
O O11 0.534337 0.872574 0.409159
O O12 0.884100 0.895276 0.585328
O O13 0.893967 0.184821 0.940622
O O14 0.764720 0.907125 0.399930
O O15 0.069593 0.261523 0.793626
O O16 0.539657 0.666643 0.962305
O O17 0.299214 0.548795 0.885016
#
# Coordination Sequence:
#
# PCOD8000388 Si02
#       8
#     2   2   2   2   2   2   2   2
#     4  10  25  44  61  95 134 175 207 270 326 382
#     4  11  23  36  58  97 138 171 198 263 331 382
#     4  11  23  39  68  98 129 165 216 274 322 370
#     4  10  19  39  60  98 134 163 204 270 327 376
#     4  11  21  40  62  90 134 172 213 250 327 385
#     4  12  21  41  70 100 122 163 229 272 317 372
#     4  11  22  38  67 103 124 162 221 276 317 376
#     4  10  22  35  62  97 133 163 206 269 327 380
#
# _framework density 22.518598999999998
#
# number of rings (size 3 to 8) (size 9 to 14) (size 15 to 20)
#    0.000    1.250    5.000    1.500    0.000    2.500 
#    0.000    0.000    0.000   15.750    0.000    0.000 
#    0.000    0.000    0.000    0.000    0.000    0.000 
#
# Total GULP energy -198211.448702 kJ/mol
# GULP energy per Si atom -12388.215544 kJ/mol
# Density = 2.246735 g / cm^3
# Si number density = 22.518599 Si / 1000 Ang^3
#
#
#
# Elastic Constant Matrix: (Units=GPa)
#
#
# Indices 1 2 3 4 5 6 
#
# 1 121.0254 48.4722 34.6440 -22.8407 -12.7800 11.1517
# 2 48.4722 81.3093 24.5405 -30.8032 3.7872 1.7291
# 3 34.6440 24.5405 53.6479 -15.8575 0.2176 -0.1166
# 4 -22.8407 -30.8032 -15.8575 33.9552 8.0523 -0.3885
# 5 -12.7800 3.7872 0.2176 8.0523 38.6916 -10.7049
# 6 11.1517 1.7291 -0.1166 -0.3885 -10.7049 41.9534
#
#
#
# Elastic Compliance Matrix: (Units=1/GPa)
#
#
# Indices 1 2 3 4 5 6 
#
# 1 0.013026 -0.006595 -0.005717 -0.001012 0.004628 -0.002035
# 2 -0.006595 0.024273 -0.001153 0.019141 -0.008904 -0.001345
# 3 -0.005717 -0.001153 0.025129 0.007627 -0.003262 0.000875
# 4 -0.001012 0.019141 0.007627 0.053046 -0.014302 -0.003657
# 5 0.004628 -0.008904 -0.003262 -0.014302 0.033314 0.007496
# 6 -0.002035 -0.001345 0.000875 -0.003657 0.007496 0.026314
#
#
# Mechanical properties :
#
#
# Convention : Reuss Voigt Hill
#
# Bulk Modulus (GPa) = 28.17156 52.36623 40.26889
# Shear Modulus (GPa) = 23.37909 32.80843 28.09376
#
# Velocity S-wave (km/s) = 3.22563 3.82114 3.53594
# Velocity P-wave (km/s) = 5.13910 6.54013 5.88148
#
# Compressibility (1/GPa) = 0.03549679
#
# Stress axis : x y z
#
# Youngs Moduli (GPa) = 76.76887 41.19749 39.79444
#
# Poissons Ratio (x) = 0.27172 0.22751
# Poissons Ratio (y) = 0.50633 0.04590
# Poissons Ratio (z) = 0.43889 0.04752
#
# Static dielectric constant tensor:
#      x y z
#    x 4.714700 0.318120 -0.101240 
#    y 0.318120 4.303800 -0.679290 
#    z -0.101240 -0.679290 3.920370 
# 
# 
# High freq. dielectric constant tensor:
#      x y z
#    x 1.906170 0.013480 0.013370 
#    y 0.013480 1.891290 -0.045350 
#    z 0.013370 -0.045350 1.846050 
# 
# From -- ./inp_files/217073.got.cif
#   From: 2010.06.25/outbox.cif.g09.slc.cpg/sg2_109_cif.got.tgz:217073.got - 2010.06.27 13:26:56.
