data_PCOD8000783
_publ_section_title
;
Structure prediction by ZEFSAII (Michael W. Deem and Ramdas Pophale) SiO2 
 PCOD8000783
Probable space group: P -1
;
_chemical_formula_sum "Si O2"
_cell_formula_units_Z 16
_cell_length_a 5.032449
_cell_length_b 10.410900
_cell_length_c 20.697889
_cell_angle_alpha 62.562087
_cell_angle_beta 126.171400
_cell_angle_gamma 105.786723
_cell_volume 776.923121
_symmetry_space_group_name_H-M "P -1"
_symmetry_group_IT_number 2
_symmetry_cell_setting 'triclinic'
loop_
_space_group_symop_operation_xyz
x,y,z
-x,-y,-z
loop_
_atom_site_type_symbol
_atom_site_label
_atom_site_fract_x
_atom_site_fract_y
_atom_site_fract_z
Si Si1 0.018912 0.210766 0.669952
Si Si2 0.622703 0.210709 0.317832
Si Si3 0.226225 0.018912 0.402765
Si Si4 0.059119 0.353013 0.830336
Si Si5 0.645953 0.526783 0.283812
Si Si6 0.471612 0.335564 0.021023
Si Si7 0.286968 0.889758 0.225231
Si Si8 0.185953 0.216235 0.135788
O O1 0.151740 0.379543 0.653455
O O2 0.339921 0.109126 0.747420
O O3 0.858906 0.145871 0.595956
O O4 0.749989 0.190973 0.692175
O O5 0.917090 0.099593 0.372009
O O6 0.739899 0.355416 0.340283
O O7 0.460712 0.269749 0.214238
O O8 0.351253 0.120758 0.339262
O O9 0.500000 0.000000 0.500000
O O10 0.278007 0.408260 0.790094
O O11 0.748498 0.461490 0.767189
O O12 0.932781 0.191348 0.839346
O O13 0.288331 0.325729 0.929851
O O14 0.835832 0.277288 0.088262
O O15 0.269345 0.256454 0.065692
O O16 0.500000 0.500000 0.000000
O O17 0.147133 0.046876 0.176412
#
# Coordination Sequence:
#
# PCOD8000783 Si02
#       8
#     2   2   2   2   2   2   2   2
#     4  10  19  40  60  88 118 154 194 232 298 355
#     4  12  23  41  63  93 116 152 208 237 284 364
#     4  12  24  41  65  92 122 150 186 247 302 351
#     4  10  21  38  56  85 122 155 201 242 298 334
#     4  10  21  38  65  84 118 164 198 241 282 349
#     4  12  24  36  52  81 120 157 194 249 300 331
#     4  10  20  36  61  83 110 158 200 242 283 348
#     4  12  22  36  60  80 114 154 203 242 288 340
#
# _framework density 20.594059000000001
#
# number of rings (size 3 to 8) (size 9 to 14) (size 15 to 20)
#    0.000    1.000    2.500    5.250    0.000    1.000 
#    0.000    1.250    0.000    0.000    0.000    0.000 
#    0.000    0.000    0.000    0.000    0.000    0.000 
#
# Total GULP energy -198296.857196 kJ/mol
# GULP energy per Si atom -12393.553575 kJ/mol
# Density = 2.054719 g / cm^3
# Si number density = 20.594059 Si / 1000 Ang^3
#
#
#
# Elastic Constant Matrix: (Units=GPa)
#
#
# Indices 1 2 3 4 5 6 
#
# 1 95.1860 14.1541 12.3812 0.8436 17.7071 -13.2050
# 2 14.1541 146.4448 38.7865 21.9278 11.7710 -11.8739
# 3 12.3812 38.7865 70.4984 31.1821 10.7928 -2.5619
# 4 0.8436 21.9278 31.1821 27.8264 8.3302 -0.5039
# 5 17.7071 11.7710 10.7928 8.3302 18.6422 0.2921
# 6 -13.2050 -11.8739 -2.5619 -0.5039 0.2921 28.1744
#
#
#
# Elastic Compliance Matrix: (Units=1/GPa)
#
#
# Indices 1 2 3 4 5 6 
#
# 1 0.014833 0.000129 -0.003777 0.008575 -0.015924 0.006981
# 2 0.000129 0.008478 -0.003133 -0.002310 -0.002681 0.003335
# 3 -0.003777 -0.003133 0.030443 -0.032257 0.002369 -0.000924
# 4 0.008575 -0.002310 -0.032257 0.080922 -0.024199 0.001810
# 5 -0.015924 -0.002681 0.002369 -0.024199 0.080053 -0.009641
# 6 0.006981 0.003335 -0.000924 0.001810 -0.009641 0.040219
#
#
# Mechanical properties :
#
#
# Convention : Reuss Voigt Hill
#
# Bulk Modulus (GPa) = 24.88151 49.19698 37.03925
# Shear Modulus (GPa) = 17.73635 31.38242 24.55939
#
# Velocity S-wave (km/s) = 2.93787 3.90790 3.45707
# Velocity P-wave (km/s) = 4.85965 6.65605 5.82749
#
# Compressibility (1/GPa) = 0.04019049
#
# Stress axis : x y z
#
# Youngs Moduli (GPa) = 67.41842 117.95544 32.84820
#
# Poissons Ratio (x) = -0.01519 0.12407
# Poissons Ratio (y) = -0.00868 0.10292
# Poissons Ratio (z) = 0.25464 0.36960
#
# Static dielectric constant tensor:
#      x y z
#    x 4.037610 -0.023670 -0.031920 
#    y -0.023670 4.213140 0.150790 
#    z -0.031920 0.150790 3.389560 
# 
# 
# High freq. dielectric constant tensor:
#      x y z
#    x 1.827570 -0.004920 0.004400 
#    y -0.004920 1.829130 0.012470 
#    z 0.004400 0.012470 1.768360 
# 
# From -- ./inp_files/583056.got.cif
#   From: 2010.06.25/outbox.cif.g09.slc.cpg/sg2_292_cif.got.tgz:583056.got - 2010.06.27 13:26:56.
