data_PCOD8000767
_publ_section_title
;
Structure prediction by ZEFSAII (Michael W. Deem and Ramdas Pophale) SiO2 
 PCOD8000767
Probable space group: P -1
;
_chemical_formula_sum "Si O2"
_cell_formula_units_Z 16
_cell_length_a 18.090979
_cell_length_b 6.666233
_cell_length_c 11.477935
_cell_angle_alpha 141.520263
_cell_angle_beta 65.519686
_cell_angle_gamma 105.949498
_cell_volume 780.874895
_symmetry_space_group_name_H-M "P -1"
_symmetry_group_IT_number 2
_symmetry_cell_setting 'triclinic'
loop_
_space_group_symop_operation_xyz
x,y,z
-x,-y,-z
loop_
_atom_site_type_symbol
_atom_site_label
_atom_site_fract_x
_atom_site_fract_y
_atom_site_fract_z
Si Si1 0.147558 0.855613 0.643108
Si Si2 0.972060 0.150929 0.879018
Si Si3 0.670154 0.311609 0.036564
Si Si4 0.823441 0.871359 0.762448
Si Si5 0.449222 0.108202 0.969052
Si Si6 0.598234 0.228995 0.799489
Si Si7 0.171384 0.885733 0.894596
Si Si8 0.730666 0.749988 0.377697
O O1 0.172817 0.475276 0.456307
O O2 0.174230 0.012214 0.818891
O O3 0.195307 0.027762 0.590370
O O4 0.050672 0.895544 0.707958
O O5 0.908832 0.041048 0.771319
O O6 0.923443 0.173676 0.044034
O O7 0.000000 0.500000 0.000000
O O8 0.620463 0.376866 0.978802
O O9 0.752653 0.096498 0.848012
O O10 0.691009 0.648436 0.234653
O O11 0.623601 0.125899 0.085388
O O12 0.802820 0.852246 0.907306
O O13 0.511128 0.072976 0.801811
O O14 0.410091 0.484055 0.161178
O O15 0.500000 0.000000 0.000000
O O16 0.662843 0.943815 0.587928
O O17 0.231954 0.562119 0.719585
#
# Coordination Sequence:
#
# PCOD8000767 Si02
#       8
#     2   2   2   2   2   2   2   2
#     4  12  20  37  59  80 114 159 196 235 286 339
#     4  10  19  40  57  79 121 150 191 248 283 331
#     4  10  20  40  58  85 121 147 188 239 284 335
#     4   9  21  35  58  85 113 149 195 237 282 336
#     4   9  20  40  63  85 119 149 181 237 280 339
#     4  10  21  39  63  87 112 153 189 224 291 341
#     4   9  22  38  56  82 115 152 190 239 291 323
#     4  11  23  36  59  88 116 150 194 236 279 341
#
# _framework density 20.489837999999999
#
# number of rings (size 3 to 8) (size 9 to 14) (size 15 to 20)
#    0.750    1.250    1.250    2.250    0.000    4.500 
#    0.000    7.500    0.000    0.000    0.000    0.000 
#    0.000    0.000    0.000    0.000    0.000    0.000 
#
# Total GULP energy -198213.662448 kJ/mol
# GULP energy per Si atom -12388.353903 kJ/mol
# Density = 2.044320 g / cm^3
# Si number density = 20.489838 Si / 1000 Ang^3
#
#
#
# Elastic Constant Matrix: (Units=GPa)
#
#
# Indices 1 2 3 4 5 6 
#
# 1 86.7838 21.5167 29.7016 0.4685 -13.3482 3.7644
# 2 21.5167 64.2012 15.0324 3.2690 -4.5500 3.2829
# 3 29.7016 15.0324 87.2794 -6.8984 -16.0340 8.4614
# 4 0.4685 3.2690 -6.8984 18.0909 5.4945 0.5855
# 5 -13.3482 -4.5500 -16.0340 5.4945 35.6952 -2.7107
# 6 3.7644 3.2829 8.4614 0.5855 -2.7107 25.6520
#
#
#
# Elastic Compliance Matrix: (Units=1/GPa)
#
#
# Indices 1 2 3 4 5 6 
#
# 1 0.014242 -0.003527 -0.003771 -0.002242 0.003530 0.000029
# 2 -0.003527 0.017500 -0.001929 -0.003953 0.000583 -0.000934
# 3 -0.003771 -0.001929 0.014525 0.004942 0.003827 -0.003699
# 4 -0.002242 -0.003953 0.004942 0.060675 -0.008697 -0.003099
# 5 0.003530 0.000583 0.003827 -0.008697 0.032603 0.001789
# 6 0.000029 -0.000934 -0.003699 -0.003099 0.001789 0.040579
#
#
# Mechanical properties :
#
#
# Convention : Reuss Voigt Hill
#
# Bulk Modulus (GPa) = 35.95323 41.19619 38.57471
# Shear Modulus (GPa) = 24.05609 27.35521 25.70565
#
# Velocity S-wave (km/s) = 3.43016 3.65781 3.54581
# Velocity P-wave (km/s) = 5.76827 6.16350 5.96916
#
# Compressibility (1/GPa) = 0.02781391
#
# Stress axis : x y z
#
# Youngs Moduli (GPa) = 70.21662 57.14254 68.84638
#
# Poissons Ratio (x) = 0.20156 0.25959
# Poissons Ratio (y) = 0.24768 0.13277
# Poissons Ratio (z) = 0.26476 0.11020
#
# Static dielectric constant tensor:
#      x y z
#    x 4.079770 0.232730 -0.294980 
#    y 0.232730 3.611960 -0.065160 
#    z -0.294980 -0.065160 3.598210 
# 
# 
# High freq. dielectric constant tensor:
#      x y z
#    x 1.812560 0.008230 -0.020910 
#    y 0.008230 1.783500 0.001270 
#    z -0.020910 0.001270 1.786990 
# 
# From -- ./inp_files/468240.got.cif
#   From: 2010.06.25/outbox.cif.g09.slc.cpg/sg2_235_cif.got.tgz:468240.got - 2010.06.27 13:26:56.
