data_PCOD8000223
_publ_section_title
;
Structure prediction by ZEFSAII (Michael W. Deem and Ramdas Pophale) SiO2 
 PCOD8000223
Probable space group: P 1
;
_chemical_formula_sum "Si O2"
_cell_formula_units_Z 8
_cell_length_a 16.574651
_cell_length_b 10.543013
_cell_length_c 8.500618
_cell_angle_alpha 112.870332
_cell_angle_beta 40.940594
_cell_angle_gamma 146.259337
_cell_volume 407.097779
_symmetry_space_group_name_H-M "P 1"
_symmetry_group_IT_number 1
_symmetry_cell_setting 'triclinic'
loop_
_space_group_symop_operation_xyz
x,y,z
loop_
_atom_site_type_symbol
_atom_site_label
_atom_site_fract_x
_atom_site_fract_y
_atom_site_fract_z
Si Si1 0.328770 0.606690 0.778150
Si Si2 0.281112 0.265159 0.673131
Si Si3 0.611644 0.308320 0.491697
Si Si4 0.115585 0.677373 0.063146
Si Si5 0.930270 0.493607 0.606096
Si Si6 0.841554 0.116311 0.477421
Si Si7 0.785658 0.765650 0.389342
Si Si8 0.430502 0.129862 0.311823
O O1 0.257644 0.392591 0.684437
O O2 0.639526 0.932270 0.535943
O O3 0.239308 0.649694 0.827709
O O4 0.149399 0.424022 0.111695
O O5 0.545194 0.551325 0.522657
O O6 0.324353 0.179185 0.450411
O O7 0.042923 0.988458 0.009826
O O8 0.724959 0.574317 0.498124
O O9 0.528200 0.217746 0.389368
O O10 0.852355 0.439089 0.227995
O O11 0.351691 0.022442 0.845649
O O12 0.027554 0.607137 0.338896
O O13 0.819245 0.227677 0.676838
O O14 0.680336 0.347195 0.933532
O O15 0.182723 0.777552 0.484297
O O16 0.808406 0.935919 0.529993
#
# Coordination Sequence:
#
# PCOD8000223 Si02
#       8
#     1   1   1   1   1   1   1   1
#     4   9  17  31  52  78 104 134 179 225 257 298
#     4   9  17  31  52  78 104 134 179 225 257 298
#     4  11  21  35  55  82 111 140 176 219 268 318
#     4  11  21  35  55  82 111 140 176 219 268 318
#     4  11  21  35  55  82 111 140 176 219 268 318
#     4   9  17  31  52  78 104 134 179 225 257 298
#     4   9  17  31  52  78 104 134 179 225 257 298
#     4  11  21  35  55  82 111 140 176 219 268 318
#
# _framework density 19.651298000000001
#
# number of rings (size 3 to 8) (size 9 to 14) (size 15 to 20)
#    0.000    2.000    0.000    7.500    0.000    0.000 
#    0.000    0.000    0.000    6.000    0.000    7.000 
#    0.000    0.000    0.000    0.000    0.000    0.000 
#
# Total GULP energy -99106.193231 kJ/mol
# GULP energy per Si atom -12388.274154 kJ/mol
# Density = 1.960657 g / cm^3
# Si number density = 19.651298 Si / 1000 Ang^3
#
#
#
# Elastic Constant Matrix: (Units=GPa)
#
#
# Indices 1 2 3 4 5 6 
#
# 1 61.2159 50.3638 23.0809 9.6002 -12.2519 -17.3754
# 2 50.3638 147.7355 52.5781 8.5029 -4.1702 -23.2464
# 3 23.0809 52.5781 119.1260 -1.5848 -10.7406 -13.8169
# 4 9.6002 8.5029 -1.5848 36.6425 -2.3888 -8.8259
# 5 -12.2519 -4.1702 -10.7406 -2.3888 24.5866 -5.7531
# 6 -17.3754 -23.2464 -13.8169 -8.8259 -5.7531 27.7410
#
#
#
# Elastic Compliance Matrix: (Units=1/GPa)
#
#
# Indices 1 2 3 4 5 6 
#
# 1 0.030899 -0.007646 0.000999 -0.000997 0.018405 0.016943
# 2 -0.007646 0.010792 -0.003352 -0.000406 -0.003057 0.001822
# 3 0.000999 -0.003352 0.010902 0.002691 0.006215 0.005393
# 4 -0.000997 -0.000406 0.002691 0.030952 0.006316 0.011533
# 5 0.018405 -0.003057 0.006215 0.006316 0.058800 0.026266
# 6 0.016943 0.001822 0.005393 0.011533 0.026266 0.059989
#
#
# Mechanical properties :
#
#
# Convention : Reuss Voigt Hill
#
# Bulk Modulus (GPa) = 30.67874 64.45811 47.56842
# Shear Modulus (GPa) = 21.44116 31.26431 26.35273
#
# Velocity S-wave (km/s) = 3.30673 3.99300 3.66596
# Velocity P-wave (km/s) = 5.49771 7.35737 6.49445
#
# Compressibility (1/GPa) = 0.03259587
#
# Stress axis : x y z
#
# Youngs Moduli (GPa) = 32.36379 92.66095 91.72871
#
# Poissons Ratio (x) = 0.70851 -0.09168
# Poissons Ratio (y) = 0.24746 0.30743
# Poissons Ratio (z) = -0.03235 0.31055
#
# Static dielectric constant tensor:
#      x y z
#    x 3.369980 -0.548420 -0.428210 
#    y -0.548420 4.271090 0.033950 
#    z -0.428210 0.033950 3.726050 
# 
# 
# High freq. dielectric constant tensor:
#      x y z
#    x 1.714850 -0.032200 -0.042500 
#    y -0.032200 1.782130 -0.019120 
#    z -0.042500 -0.019120 1.775960 
# 
# From -- ./inp_files/1789.got.cif
#   From: 2010.03.12/outbox.cif.g09.slc.cpg/sg1_1_cif.got.tgz:1789.got - 2010.03.29 11:57:58.
