data_PCOD8000292
_publ_section_title
;
Structure prediction by ZEFSAII (Michael W. Deem and Ramdas Pophale) SiO2 
 PCOD8000292
Probable space group: P 1
;
_chemical_formula_sum "Si O2"
_cell_formula_units_Z 8
_cell_length_a 13.995168
_cell_length_b 8.427944
_cell_length_c 12.513525
_cell_angle_alpha 146.531020
_cell_angle_beta 149.485774
_cell_angle_gamma 33.399074
_cell_volume 376.031347
_symmetry_space_group_name_H-M "P 1"
_symmetry_group_IT_number 1
_symmetry_cell_setting 'triclinic'
loop_
_space_group_symop_operation_xyz
x,y,z
loop_
_atom_site_type_symbol
_atom_site_label
_atom_site_fract_x
_atom_site_fract_y
_atom_site_fract_z
Si Si1 0.256980 0.133320 0.316550
Si Si2 0.508738 0.710004 0.991465
Si Si3 0.897260 0.048131 0.004249
Si Si4 0.705509 0.068083 0.501573
Si Si5 0.037004 0.152062 0.423250
Si Si6 0.368944 0.606168 0.572499
Si Si7 0.700482 0.690062 0.494219
Si Si8 0.149009 0.624906 0.679280
O O1 0.290945 0.324809 0.356116
O O2 0.202902 0.379177 0.497847
O O3 0.062428 0.038982 0.065268
O O4 0.458460 0.809613 0.357830
O O5 0.404685 0.757783 0.801592
O O6 0.343620 0.719124 0.930508
O O7 0.702926 0.378973 0.997650
O O8 0.584791 0.984223 0.241616
O O9 0.001166 0.000656 0.194170
O O10 0.821384 0.773684 0.754182
O O11 0.585809 0.443140 0.622977
O O12 0.702984 0.879079 0.497887
O O13 0.947536 0.948655 0.638081
O O14 0.115079 0.433354 0.639707
O O15 0.820125 0.315036 0.372723
O O16 0.202956 0.879033 0.497786
#
# Coordination Sequence:
#
# PCOD8000292 Si02
#       8
#     1   1   1   1   1   1   1   1
#     4   9  18  35  61  81 107 146 190 222 269 329
#     4  11  19  37  63  79 109 149 189 225 267 330
#     4  11  19  37  63  79 109 149 189 225 267 330
#     4  10  19  35  60  83 108 146 190 222 271 330
#     4  10  22  38  55  85 119 139 181 237 275 322
#     4  10  22  38  55  85 119 139 181 237 275 322
#     4  10  19  35  60  83 108 146 190 222 271 330
#     4   9  18  35  61  81 107 146 190 222 269 329
#
# _framework density 21.274820999999999
#
# number of rings (size 3 to 8) (size 9 to 14) (size 15 to 20)
#    0.000    2.000    7.500    0.000    0.000    5.000 
#    0.000    6.250    0.000    0.000    0.000    0.000 
#    0.000    0.000    0.000    0.000    0.000    0.000 
#
# Total GULP energy -99121.427859 kJ/mol
# GULP energy per Si atom -12390.178482 kJ/mol
# Density = 2.122640 g / cm^3
# Si number density = 21.274821 Si / 1000 Ang^3
#
#
#
# Elastic Constant Matrix: (Units=GPa)
#
#
# Indices 1 2 3 4 5 6 
#
# 1 66.3328 47.5514 31.6612 -21.1504 14.1027 -22.6593
# 2 47.5514 139.1578 28.1309 -37.0279 0.7691 -23.8869
# 3 31.6612 28.1309 96.9844 -20.1293 0.2935 3.2303
# 4 -21.1504 -37.0279 -20.1293 37.0154 -5.7249 1.6525
# 5 14.1027 0.7691 0.2935 -5.7249 39.5474 -13.6194
# 6 -22.6593 -23.8869 3.2303 1.6525 -13.6194 35.9415
#
#
#
# Elastic Compliance Matrix: (Units=1/GPa)
#
#
# Indices 1 2 3 4 5 6 
#
# 1 0.030075 -0.004160 -0.007517 0.007596 -0.004369 0.014867
# 2 -0.004160 0.012778 -0.000394 0.010686 0.005347 0.007440
# 3 -0.007517 -0.000394 0.013741 0.003203 0.000979 -0.006012
# 4 0.007596 0.010686 0.003203 0.044435 0.007803 0.012517
# 5 -0.004369 0.005347 0.000979 0.007803 0.032184 0.012548
# 6 0.014867 0.007440 -0.006012 0.012517 0.012548 0.046860
#
#
# Mechanical properties :
#
#
# Convention : Reuss Voigt Hill
#
# Bulk Modulus (GPa) = 30.81494 57.46245 44.13870
# Shear Modulus (GPa) = 23.25221 35.50964 29.38093
#
# Velocity S-wave (km/s) = 3.30956 4.08988 3.72024
# Velocity P-wave (km/s) = 5.39629 7.02646 6.26462
#
# Compressibility (1/GPa) = 0.03245179
#
# Stress axis : x y z
#
# Youngs Moduli (GPa) = 33.25046 78.25795 72.77321
#
# Poissons Ratio (x) = 0.32555 0.54702
# Poissons Ratio (y) = 0.13832 0.02871
# Poissons Ratio (z) = 0.24994 0.03087
#
# Static dielectric constant tensor:
#      x y z
#    x 4.845220 -1.297750 -0.202330 
#    y -1.297750 4.757860 0.745430 
#    z -0.202330 0.745430 5.326620 
# 
# 
# High freq. dielectric constant tensor:
#      x y z
#    x 1.816290 -0.053380 -0.003920 
#    y -0.053380 1.820310 -0.009960 
#    z -0.003920 -0.009960 1.831400 
# 
# From -- ./inp_files/3499.got.cif
#   From: 2010.03.12/outbox.cif.g09.slc.cpg/sg1_2_cif.got.tgz:3499.got - 2010.03.29 11:57:58.
