data_PCOD8000548
_publ_section_title
;
Structure prediction by ZEFSAII (Michael W. Deem and Ramdas Pophale) SiO2 
 PCOD8000548
Probable space group: P -1
;
_chemical_formula_sum "Si O2"
_cell_formula_units_Z 16
_cell_length_a 12.680924
_cell_length_b 14.045304
_cell_length_c 8.032701
_cell_angle_alpha 42.440534
_cell_angle_beta 105.918035
_cell_angle_gamma 125.245330
_cell_volume 758.059329
_symmetry_space_group_name_H-M "P -1"
_symmetry_group_IT_number 2
_symmetry_cell_setting 'triclinic'
loop_
_space_group_symop_operation_xyz
x,y,z
-x,-y,-z
loop_
_atom_site_type_symbol
_atom_site_label
_atom_site_fract_x
_atom_site_fract_y
_atom_site_fract_z
Si Si1 0.110286 0.468020 0.882777
Si Si2 0.590684 0.695559 0.723764
Si Si3 0.455298 0.117588 0.122682
Si Si4 0.001194 0.306513 0.392261
Si Si5 0.603450 0.216110 0.378655
Si Si6 0.470369 0.612582 0.450197
Si Si7 0.836896 0.649429 0.269818
Si Si8 0.215414 0.096468 0.198440
O O1 0.269560 0.590128 0.803136
O O2 0.080929 0.371082 0.816128
O O3 0.046493 0.574930 0.725591
O O4 0.062946 0.346322 0.181918
O O5 0.526602 0.799880 0.595410
O O6 0.593246 0.689925 0.533549
O O7 0.741224 0.812274 0.716420
O O8 0.500000 0.500000 0.000000
O O9 0.578547 0.167381 0.234697
O O10 0.357129 0.167928 0.079840
O O11 0.375206 0.909950 0.337690
O O12 0.519064 0.227398 0.841313
O O13 0.107687 0.342407 0.532944
O O14 0.875421 0.108911 0.579380
O O15 0.500000 0.500000 0.500000
O O16 0.322630 0.501818 0.612679
O O17 0.860929 0.834190 0.017118
#
# Coordination Sequence:
#
# PCOD8000548 Si02
#       8
#     2   2   2   2   2   2   2   2
#     4  11  23  46  67  95 132 179 225 272 323 396
#     4  11  21  40  65  94 132 168 212 274 339 395
#     4  10  21  36  63  97 128 166 212 270 340 393
#     4  11  26  44  68  95 131 182 227 264 330 387
#     4  10  19  39  64  87 130 169 208 276 334 382
#     4  12  22  39  64  99 128 169 216 269 343 397
#     4  12  24  44  68  96 133 175 222 276 324 395
#     4  11  22  44  64  94 134 170 217 275 323 391
#
# _framework density 21.106528000000001
#
# number of rings (size 3 to 8) (size 9 to 14) (size 15 to 20)
#    0.000    1.000    5.000    2.250    0.000    2.000 
#    2.250    0.000    0.000    0.000    0.000    0.000 
#    0.000    0.000    0.000    0.000    0.000    0.000 
#
# Total GULP energy -198282.519566 kJ/mol
# GULP energy per Si atom -12392.657473 kJ/mol
# Density = 2.105849 g / cm^3
# Si number density = 21.106528 Si / 1000 Ang^3
#
#
#
# Elastic Constant Matrix: (Units=GPa)
#
#
# Indices 1 2 3 4 5 6 
#
# 1 73.1961 23.5171 34.1882 7.9836 5.0905 -11.4324
# 2 23.5171 106.8958 45.7326 15.4177 1.8938 -0.0211
# 3 34.1882 45.7326 134.9622 18.3167 14.8762 -10.2547
# 4 7.9836 15.4177 18.3167 33.2403 -0.3831 -0.4845
# 5 5.0905 1.8938 14.8762 -0.3831 31.5340 2.3162
# 6 -11.4324 -0.0211 -10.2547 -0.4845 2.3162 29.9159
#
#
#
# Elastic Compliance Matrix: (Units=1/GPa)
#
#
# Indices 1 2 3 4 5 6 
#
# 1 0.016805 -0.002322 -0.002655 -0.001434 -0.001751 0.005622
# 2 -0.002322 0.011682 -0.003263 -0.003079 0.001333 -0.002151
# 3 -0.002655 -0.003263 0.010389 -0.003584 -0.004528 0.002837
# 4 -0.001434 -0.003079 -0.003584 0.033841 0.002624 -0.001434
# 5 -0.001751 0.001333 -0.004528 0.002624 0.034438 -0.004844
# 6 0.005622 -0.002151 0.002837 -0.001434 -0.004844 0.036898
#
#
# Mechanical properties :
#
#
# Convention : Reuss Voigt Hill
#
# Bulk Modulus (GPa) = 44.65262 57.99221 51.32241
# Shear Modulus (GPa) = 29.76239 33.04579 31.40409
#
# Velocity S-wave (km/s) = 3.75921 3.96114 3.86150
# Velocity P-wave (km/s) = 6.32803 6.96107 6.65208
#
# Compressibility (1/GPa) = 0.02239510
#
# Stress axis : x y z
#
# Youngs Moduli (GPa) = 59.50781 85.60466 96.25772
#
# Poissons Ratio (x) = 0.19878 0.25558
# Poissons Ratio (y) = 0.13818 0.31406
# Poissons Ratio (z) = 0.15800 0.27930
#
# Static dielectric constant tensor:
#      x y z
#    x 3.716200 -0.030450 0.161630 
#    y -0.030450 4.166280 0.238690 
#    z 0.161630 0.238690 3.971930 
# 
# 
# High freq. dielectric constant tensor:
#      x y z
#    x 1.815360 -0.007800 0.020640 
#    y -0.007800 1.827050 0.004490 
#    z 0.020640 0.004490 1.833550 
# 
# From -- ./inp_files/271604.got.cif
#   From: 2010.06.25/outbox.cif.g09.slc.cpg/sg2_136_cif.got.tgz:271604.got - 2010.06.27 13:26:56.
