data_PCOD8000568
_publ_section_title
;
Structure prediction by ZEFSAII (Michael W. Deem and Ramdas Pophale) SiO2 
 PCOD8000568
Probable space group: P -1
;
_chemical_formula_sum "Si O2"
_cell_formula_units_Z 16
_cell_length_a 10.043400
_cell_length_b 11.309996
_cell_length_c 14.039492
_cell_angle_alpha 43.488238
_cell_angle_beta 136.611522
_cell_angle_gamma 133.153563
_cell_volume 711.304109
_symmetry_space_group_name_H-M "P -1"
_symmetry_group_IT_number 2
_symmetry_cell_setting 'triclinic'
loop_
_space_group_symop_operation_xyz
x,y,z
-x,-y,-z
loop_
_atom_site_type_symbol
_atom_site_label
_atom_site_fract_x
_atom_site_fract_y
_atom_site_fract_z
Si Si1 0.279010 0.444085 0.462209
Si Si2 0.321872 0.281595 0.857017
Si Si3 0.732721 0.253202 0.033012
Si Si4 0.138063 0.937233 0.324006
Si Si5 0.166090 0.170560 0.033557
Si Si6 0.235568 0.597585 0.544171
Si Si7 0.981710 0.428936 0.886552
Si Si8 0.921671 0.965910 0.372371
O O1 0.500000 0.500000 0.500000
O O2 0.279361 0.588148 0.460298
O O3 0.122064 0.443782 0.296772
O O4 0.216517 0.244018 0.592375
O O5 0.094979 0.165752 0.771576
O O6 0.366919 0.496722 0.731651
O O7 0.487539 0.210342 0.931207
O O8 0.343925 0.256345 0.997353
O O9 0.832996 0.442779 0.029765
O O10 0.782193 0.088148 0.204948
O O11 0.816370 0.279505 0.953215
O O12 0.118872 0.011875 0.376579
O O13 0.281538 0.808608 0.474333
O O14 0.247398 0.106062 0.211166
O O15 0.065697 0.323838 0.913428
O O16 0.000000 0.000000 0.000000
O O17 0.000000 0.500000 0.500000
O O18 0.000000 0.000000 0.500000
#
# Coordination Sequence:
#
# PCOD8000568 Si02
#       8
#     2   2   2   2   2   2   2   2
#     4  12  24  39  67 100 126 169 223 275 316 386
#     4  10  21  38  64  97 121 164 219 267 317 385
#     4  11  25  41  63  92 132 174 213 269 327 390
#     4  10  21  40  66  93 127 170 214 270 321 389
#     4  10  21  38  63  93 125 165 214 265 325 381
#     4  10  19  39  64  92 125 165 215 261 327 375
#     4  11  23  42  62  89 133 174 214 266 329 387
#     4  12  24  43  65  93 132 174 215 261 338 391
#
# _framework density 22.493894999999998
#
# number of rings (size 3 to 8) (size 9 to 14) (size 15 to 20)
#    0.000    1.250    5.000    3.000    0.000    4.000 
#    0.000    0.000    0.000    2.250    0.000    0.000 
#    0.000    0.000    0.000    0.000    0.000    0.000 
#
# Total GULP energy -198410.697319 kJ/mol
# GULP energy per Si atom -12400.668582 kJ/mol
# Density = 2.244270 g / cm^3
# Si number density = 22.493895 Si / 1000 Ang^3
#
#
#
# Elastic Constant Matrix: (Units=GPa)
#
#
# Indices 1 2 3 4 5 6 
#
# 1 121.8572 2.7573 31.6828 4.2439 -9.9162 -15.0139
# 2 2.7573 26.5204 4.4317 -7.0065 2.6578 -12.5054
# 3 31.6828 4.4317 144.7583 -20.5565 -4.7585 -2.4708
# 4 4.2439 -7.0065 -20.5565 20.1461 -7.0449 -0.4834
# 5 -9.9162 2.6578 -4.7585 -7.0449 48.9559 -4.5349
# 6 -15.0139 -12.5054 -2.4708 -0.4834 -4.5349 29.4636
#
#
#
# Elastic Compliance Matrix: (Units=1/GPa)
#
#
# Indices 1 2 3 4 5 6 
#
# 1 0.009761 0.000761 -0.002538 -0.003678 0.001649 0.005278
# 2 0.000761 0.054435 0.001833 0.022221 0.002839 0.024447
# 3 -0.002538 0.001833 0.009061 0.011111 0.001933 0.000725
# 4 -0.003678 0.022221 0.011111 0.073513 0.010759 0.011351
# 5 0.001649 0.002839 0.001933 0.010759 0.022890 0.005907
# 6 0.005278 0.024447 0.000725 0.011351 0.005907 0.048162
#
#
# Mechanical properties :
#
#
# Convention : Reuss Voigt Hill
#
# Bulk Modulus (GPa) = 13.62941 41.20885 27.41913
# Shear Modulus (GPa) = 20.64691 36.66404 28.65547
#
# Velocity S-wave (km/s) = 3.03296 4.04165 3.57308
# Velocity P-wave (km/s) = 4.28222 6.33559 5.40727
#
# Compressibility (1/GPa) = 0.07337074
#
# Stress axis : x y z
#
# Youngs Moduli (GPa) = 102.44362 18.37038 110.36117
#
# Poissons Ratio (x) = -0.01398 0.28007
# Poissons Ratio (y) = -0.07796 -0.20231
# Poissons Ratio (z) = 0.25998 -0.03368
#
# Static dielectric constant tensor:
#      x y z
#    x 4.497320 -0.107890 -0.319600 
#    y -0.107890 3.701340 -0.325610 
#    z -0.319600 -0.325610 4.722670 
# 
# 
# High freq. dielectric constant tensor:
#      x y z
#    x 1.902560 -0.017020 -0.011930 
#    y -0.017020 1.847350 -0.022200 
#    z -0.011930 -0.022200 1.899870 
# 
# From -- ./inp_files/499947.got.cif
#   From: 2010.06.25/outbox.cif.g09.slc.cpg/sg2_250_cif.got.tgz:499947.got - 2010.06.27 13:26:56.
