data_PCOD8000164
_publ_section_title
;
Structure prediction by ZEFSAII (Michael W. Deem and Ramdas Pophale) SiO2 
 PCOD8000164
Probable space group: P 1
;
_chemical_formula_sum "Si O2"
_cell_formula_units_Z 8
_cell_length_a 14.604448
_cell_length_b 11.829697
_cell_length_c 8.320040
_cell_angle_alpha 145.310479
_cell_angle_beta 40.188645
_cell_angle_gamma 152.252824
_cell_volume 377.297281
_symmetry_space_group_name_H-M "P 1"
_symmetry_group_IT_number 1
_symmetry_cell_setting 'triclinic'
loop_
_space_group_symop_operation_xyz
x,y,z
loop_
_atom_site_type_symbol
_atom_site_label
_atom_site_fract_x
_atom_site_fract_y
_atom_site_fract_z
Si Si1 0.755890 0.847450 0.948730
Si Si2 0.429029 0.083215 0.035205
Si Si3 0.460212 0.220702 0.518009
Si Si4 0.773602 0.676246 0.195999
Si Si5 0.808675 0.283048 0.202342
Si Si6 0.719780 0.026942 0.543032
Si Si7 0.986540 0.586536 0.990966
Si Si8 0.018819 0.806731 0.716727
O O1 0.570304 0.532438 0.777152
O O2 0.947714 0.896726 0.781950
O O3 0.699326 0.912864 0.261800
O O4 0.799036 0.040774 0.971958
O O5 0.565822 0.360862 0.065812
O O6 0.522394 0.955303 0.768104
O O7 0.216140 0.856925 0.972956
O O8 0.410308 0.160456 0.326384
O O9 0.588410 0.155738 0.324780
O O10 0.254962 0.019803 0.655697
O O11 0.859017 0.667998 0.239612
O O12 0.942804 0.800428 0.983632
O O13 0.735942 0.874436 0.482112
O O14 0.920189 0.498031 0.451331
O O15 0.943896 0.448232 0.057881
O O16 0.911058 0.360018 0.689117
#
# Coordination Sequence:
#
# PCOD8000164 Si02
#       8
#     1   1   1   1   1   1   1   1
#     4  10  25  42  66  91 131 167 210 259 313 375
#     4  11  23  42  64  98 127 165 212 258 316 374
#     4  11  23  42  66  97 126 163 216 258 315 372
#     4  10  23  43  65  90 132 167 206 262 313 375
#     4  11  21  41  64  94 129 165 205 264 311 369
#     4  10  23  44  63  94 128 167 209 260 313 375
#     4  11  23  39  65  96 127 164 211 258 316 369
#     4  10  23  43  65  94 128 166 211 257 317 375
#
# _framework density 21.203440000000001
#
# number of rings (size 3 to 8) (size 9 to 14) (size 15 to 20)
#    0.000    1.500    3.750    1.500    1.750    8.000 
#    2.250    0.000    0.000    0.000    0.000    0.000 
#    0.000    0.000    0.000    0.000    0.000    0.000 
#
# Total GULP energy -99205.951156 kJ/mol
# GULP energy per Si atom -12400.743895 kJ/mol
# Density = 2.115518 g / cm^3
# Si number density = 21.203440 Si / 1000 Ang^3
#
#
#
# Elastic Constant Matrix: (Units=GPa)
#
#
# Indices 1 2 3 4 5 6 
#
# 1 73.0642 34.0054 13.7919 20.2548 -13.0597 5.5731
# 2 34.0054 121.8014 15.5985 2.0024 -19.5523 28.3421
# 3 13.7919 15.5985 66.7642 9.7508 -4.7050 15.2860
# 4 20.2548 2.0024 9.7508 31.9462 -8.2408 3.3750
# 5 -13.0597 -19.5523 -4.7050 -8.2408 39.7151 4.0629
# 6 5.5731 28.3421 15.2860 3.3750 4.0629 43.6069
#
#
#
# Elastic Compliance Matrix: (Units=1/GPa)
#
#
# Indices 1 2 3 4 5 6 
#
# 1 0.019805 -0.005564 -0.001575 -0.011757 0.000895 0.002464
# 2 -0.005564 0.012697 -0.000207 0.005334 0.006371 -0.008475
# 3 -0.001575 -0.000207 0.017200 -0.003316 0.001298 -0.005558
# 4 -0.011757 0.005334 -0.003316 0.041882 0.007543 -0.004746
# 5 0.000895 0.006371 0.001298 0.007543 0.031168 -0.008198
# 6 0.002464 -0.008475 -0.005558 -0.004746 -0.008198 0.031205
#
#
# Mechanical properties :
#
#
# Convention : Reuss Voigt Hill
#
# Bulk Modulus (GPa) = 28.56303 43.15794 35.86048
# Shear Modulus (GPa) = 27.72889 36.26925 31.99907
#
# Velocity S-wave (km/s) = 3.62021 4.14035 3.88899
# Velocity P-wave (km/s) = 5.56550 6.57686 6.09220
#
# Compressibility (1/GPa) = 0.03501029
#
# Stress axis : x y z
#
# Youngs Moduli (GPa) = 50.49322 78.75927 58.13905
#
# Poissons Ratio (x) = 0.43820 0.09158
# Poissons Ratio (y) = 0.28093 0.01202
# Poissons Ratio (z) = 0.07954 0.01628
#
# Static dielectric constant tensor:
#      x y z
#    x 3.920920 -0.008930 -0.105200 
#    y -0.008930 3.738780 0.168520 
#    z -0.105200 0.168520 3.928750 
# 
# 
# High freq. dielectric constant tensor:
#      x y z
#    x 1.832380 -0.001670 -0.000710 
#    y -0.001670 1.824710 0.005690 
#    z -0.000710 0.005690 1.835970 
# 
# From -- ./inp_files/4276.got.cif
#   From: 2010.03.12/outbox.cif.g09.slc.cpg/sg1_3_cif.got.tgz:4276.got - 2010.03.29 11:57:58.
