data_PCOD8000983
_publ_section_title
;
Structure prediction by ZEFSAII (Michael W. Deem and Ramdas Pophale) SiO2 
 PCOD8000983
Probable space group: P -1
;
_chemical_formula_sum "Si O2"
_cell_formula_units_Z 16
_cell_length_a 8.142825
_cell_length_b 8.553461
_cell_length_c 24.418416
_cell_angle_alpha 144.938301
_cell_angle_beta 51.316961
_cell_angle_gamma 113.819492
_cell_volume 740.320464
_symmetry_space_group_name_H-M "P -1"
_symmetry_group_IT_number 2
_symmetry_cell_setting 'triclinic'
loop_
_space_group_symop_operation_xyz
x,y,z
-x,-y,-z
loop_
_atom_site_type_symbol
_atom_site_label
_atom_site_fract_x
_atom_site_fract_y
_atom_site_fract_z
Si Si1 0.302386 0.525650 0.007499
Si Si2 0.586823 0.680749 0.907483
Si Si3 0.150838 0.707436 0.534923
Si Si4 0.633290 0.585408 0.750846
Si Si5 0.676518 0.040705 0.518031
Si Si6 0.393935 0.496323 0.579261
Si Si7 0.999140 0.887455 0.734947
Si Si8 0.217400 0.093767 0.973154
O O1 0.111953 0.799514 0.135518
O O2 0.500000 0.500000 0.000000
O O3 0.395058 0.544694 0.932349
O O4 0.209534 0.252298 0.961109
O O5 0.680783 0.514503 0.785287
O O6 0.765172 0.682249 0.918067
O O7 0.500000 0.000000 0.000000
O O8 0.119192 0.919186 0.549988
O O9 0.405454 0.527980 0.427277
O O10 0.000000 0.500000 0.500000
O O11 0.096467 0.884520 0.652628
O O12 0.598015 0.306818 0.650109
O O13 0.832195 0.688097 0.712703
O O14 0.417228 0.826679 0.856330
O O15 0.500000 0.000000 0.500000
O O16 0.725362 0.761850 0.464972
O O17 0.500000 0.500000 0.500000
O O18 0.196799 0.774254 0.704448
O O19 0.000000 0.000000 0.000000
#
# Coordination Sequence:
#
# PCOD8000983 Si02
#       8
#     2   2   2   2   2   2   2   2
#     4  10  19  40  68  92 126 170 219 257 317 394
#     4   9  18  39  63  92 125 163 214 260 316 392
#     4  10  20  40  65  93 124 167 219 263 312 390
#     4  11  21  41  67  91 129 177 210 267 337 373
#     4  10  22  43  66  93 128 166 223 267 316 392
#     4   9  22  41  60  93 128 163 212 270 318 378
#     4  11  20  39  67  90 130 173 210 271 328 375
#     4  10  22  40  65  97 131 162 221 270 310 388
#
# _framework density 21.612261
#
# number of rings (size 3 to 8) (size 9 to 14) (size 15 to 20)
#    0.000    2.000    5.000    0.000    0.000    3.500 
#    9.000    6.250    5.500    0.000    0.000    0.000 
#    0.000    0.000    0.000    0.000    0.000    0.000 
#
# Total GULP energy -198217.469388 kJ/mol
# GULP energy per Si atom -12388.591837 kJ/mol
# Density = 2.156307 g / cm^3
# Si number density = 21.612261 Si / 1000 Ang^3
#
#
#
# Elastic Constant Matrix: (Units=GPa)
#
#
# Indices 1 2 3 4 5 6 
#
# 1 71.8635 39.3062 39.9724 -0.3012 -9.4939 11.7433
# 2 39.3062 205.0566 37.1496 -2.9008 0.5953 0.6197
# 3 39.9724 37.1496 91.0366 -6.7774 -2.7908 -6.7853
# 4 -0.3012 -2.9008 -6.7774 30.5504 -4.6385 1.5827
# 5 -9.4939 0.5953 -2.7908 -4.6385 43.2136 -5.2966
# 6 11.7433 0.6197 -6.7853 1.5827 -5.2966 34.0840
#
#
#
# Elastic Compliance Matrix: (Units=1/GPa)
#
#
# Indices 1 2 3 4 5 6 
#
# 1 0.022498 -0.002592 -0.009488 -0.001185 0.003129 -0.009052
# 2 -0.002592 0.005578 -0.001113 0.000135 -0.000647 0.000463
# 3 -0.009488 -0.001113 0.016317 0.003104 0.000103 0.006409
# 4 -0.001185 0.000135 0.003104 0.033967 0.003585 0.000004
# 5 0.003129 -0.000647 0.000103 0.003585 0.024548 0.002602
# 6 -0.009052 0.000463 0.006409 0.000004 0.002602 0.034130
#
#
# Mechanical properties :
#
#
# Convention : Reuss Voigt Hill
#
# Bulk Modulus (GPa) = 55.53592 66.75699 61.14646
# Shear Modulus (GPa) = 29.51174 38.33815 33.92495
#
# Velocity S-wave (km/s) = 3.69929 4.21635 3.96625
# Velocity P-wave (km/s) = 6.63314 7.39317 7.02345
#
# Compressibility (1/GPa) = 0.01800636
#
# Stress axis : x y z
#
# Youngs Moduli (GPa) = 44.44869 179.28739 61.28715
#
# Poissons Ratio (x) = 0.46474 0.58146
# Poissons Ratio (y) = 0.11522 0.06822
# Poissons Ratio (z) = 0.42171 0.19958
#
# Static dielectric constant tensor:
#      x y z
#    x 4.056040 -0.441470 0.054090 
#    y -0.441470 5.524430 -0.258870 
#    z 0.054090 -0.258870 3.768560 
# 
# 
# High freq. dielectric constant tensor:
#      x y z
#    x 1.830780 -0.006750 -0.007800 
#    y -0.006750 1.883030 -0.006160 
#    z -0.007800 -0.006160 1.818610 
# 
# From -- ./inp_files/357357.got.cif
#   From: 2010.06.25/outbox.cif.g09.slc.cpg/sg2_179_cif.got.tgz:357357.got - 2010.06.27 13:26:56.
