data_PCOD8000986
_publ_section_title
;
Structure prediction by ZEFSAII (Michael W. Deem and Ramdas Pophale) SiO2 
 PCOD8000986
Probable space group: P -1
;
_chemical_formula_sum "Si O2"
_cell_formula_units_Z 12
_cell_length_a 11.759619
_cell_length_b 15.178117
_cell_length_c 14.334200
_cell_angle_alpha 28.818795
_cell_angle_beta 149.570267
_cell_angle_gamma 155.690385
_cell_volume 480.765042
_symmetry_space_group_name_H-M "P -1"
_symmetry_group_IT_number 2
_symmetry_cell_setting 'triclinic'
loop_
_space_group_symop_operation_xyz
x,y,z
-x,-y,-z
loop_
_atom_site_type_symbol
_atom_site_label
_atom_site_fract_x
_atom_site_fract_y
_atom_site_fract_z
Si Si1 0.582413 0.925628 0.217615
Si Si2 0.236973 0.969305 0.071100
Si Si3 0.814087 0.414373 0.159202
Si Si4 0.186554 0.507246 0.704549
Si Si5 0.183345 0.172226 0.235191
Si Si6 0.947568 0.793482 0.568137
O O1 0.345521 0.842333 0.208387
O O2 0.633776 0.735548 0.404422
O O3 0.903657 0.151175 0.275929
O O4 0.500000 0.000000 0.000000
O O5 0.970952 0.770036 0.134796
O O6 0.496928 0.195758 0.099549
O O7 0.085192 0.031820 0.833115
O O8 0.806715 0.382093 0.295246
O O9 0.070472 0.417162 0.296076
O O10 0.886814 0.653249 0.950739
O O11 0.514136 0.660474 0.760094
O O12 0.000000 0.500000 0.500000
O O13 0.181063 0.036039 0.447198
#
# Coordination Sequence:
#
# PCOD8000986 Si02
#       6
#     2   2   2   2   2   2
#     4  10  19  40  68  92 133 174 211 274 328 371
#     4  10  21  40  66  92 131 170 214 273 321 380
#     4  10  23  42  66  98 129 173 224 256 333 397
#     4  11  24  41  63  97 134 171 217 271 327 390
#     4  11  23  42  66  95 134 169 217 278 319 386
#     4  10  22  40  68  96 131 174 216 268 326 388
#
# _framework density 24.960217
#
# number of rings (size 3 to 8) (size 9 to 14) (size 15 to 20)
#    0.000    1.667    1.667    4.000    0.000    6.667 
#    0.000   10.833    0.000    0.000    0.000    0.000 
#    0.000    0.000    0.000    0.000    0.000    0.000 
#
# Total GULP energy -148657.851617 kJ/mol
# GULP energy per Si atom -12388.154301 kJ/mol
# Density = 2.490341 g / cm^3
# Si number density = 24.960217 Si / 1000 Ang^3
#
#
#
# Elastic Constant Matrix: (Units=GPa)
#
#
# Indices 1 2 3 4 5 6 
#
# 1 71.2648 29.6121 31.3198 8.0449 -9.8244 -1.2610
# 2 29.6121 87.7023 28.0674 36.6283 -4.8239 -6.6162
# 3 31.3198 28.0674 136.6385 25.5861 -2.9548 -24.2548
# 4 8.0449 36.6283 25.5861 42.5592 -4.9030 4.9567
# 5 -9.8244 -4.8239 -2.9548 -4.9030 40.0220 6.6511
# 6 -1.2610 -6.6162 -24.2548 4.9567 6.6511 49.0449
#
#
#
# Elastic Compliance Matrix: (Units=1/GPa)
#
#
# Indices 1 2 3 4 5 6 
#
# 1 0.019286 -0.008067 -0.004793 0.007268 0.005026 -0.004379
# 2 -0.008067 0.021994 0.002036 -0.019638 -0.002599 0.006104
# 3 -0.004793 0.002036 0.010668 -0.008284 -0.002250 0.006569
# 4 0.007268 -0.019638 -0.008284 0.046159 0.006471 -0.012102
# 5 0.005026 -0.002599 -0.002250 0.006471 0.027483 -0.005715
# 6 -0.004379 0.006104 0.006569 -0.012102 -0.005715 0.026347
#
#
# Mechanical properties :
#
#
# Convention : Reuss Voigt Hill
#
# Bulk Modulus (GPa) = 33.00492 52.62268 42.81380
# Shear Modulus (GPa) = 27.22061 40.09900 33.65980
#
# Velocity S-wave (km/s) = 3.30594 4.01249 3.67623
# Velocity P-wave (km/s) = 5.27485 6.52649 5.93377
#
# Compressibility (1/GPa) = 0.03029851
#
# Stress axis : x y z
#
# Youngs Moduli (GPa) = 51.85223 45.46771 93.74112
#
# Poissons Ratio (x) = 0.36679 0.44930
# Poissons Ratio (y) = 0.41829 -0.19084
# Poissons Ratio (z) = 0.24853 -0.09256
#
# Static dielectric constant tensor:
#      x y z
#    x -16.865920 -12.300450 -10.211890 
#    y -12.300450 -2.248430 -5.391400 
#    z -10.211890 -5.391400 -0.302620 
# 
# 
# High freq. dielectric constant tensor:
#      x y z
#    x 2.001610 0.000720 0.004610 
#    y 0.000720 1.995430 0.036800 
#    z 0.004610 0.036800 1.995700 
# 
# From -- ./inp_files/521384.got.cif
#   From: 2010.06.25/outbox.cif.g09.slc.cpg/sg2_261_cif.got.tgz:521384.got - 2010.06.27 13:26:56.
