data_PCOD8000571
_publ_section_title
;
Structure prediction by ZEFSAII (Michael W. Deem and Ramdas Pophale) SiO2 
 PCOD8000571
Probable space group: P -1
;
_chemical_formula_sum "Si O2"
_cell_formula_units_Z 16
_cell_length_a 9.130044
_cell_length_b 10.112100
_cell_length_c 12.797181
_cell_angle_alpha 137.208857
_cell_angle_beta 76.652387
_cell_angle_gamma 102.067293
_cell_volume 779.529288
_symmetry_space_group_name_H-M "P -1"
_symmetry_group_IT_number 2
_symmetry_cell_setting 'triclinic'
loop_
_space_group_symop_operation_xyz
x,y,z
-x,-y,-z
loop_
_atom_site_type_symbol
_atom_site_label
_atom_site_fract_x
_atom_site_fract_y
_atom_site_fract_z
Si Si1 0.981408 0.569165 0.869952
Si Si2 0.656357 0.610183 0.573880
Si Si3 0.516799 0.031671 0.206757
Si Si4 0.264051 0.663129 0.757917
Si Si5 0.438838 0.607263 0.894543
Si Si6 0.821891 0.661498 0.149682
Si Si7 0.276132 0.554769 0.314536
Si Si8 0.367324 0.984552 0.594881
O O1 0.877628 0.485152 0.745313
O O2 0.113744 0.706602 0.873118
O O3 0.050598 0.391265 0.818649
O O4 0.891793 0.694763 0.041469
O O5 0.500000 0.500000 0.500000
O O6 0.776455 0.513180 0.420814
O O7 0.711703 0.585408 0.668700
O O8 0.630287 0.838594 0.694142
O O9 0.665579 0.139389 0.192435
O O10 0.557674 0.972254 0.281381
O O11 0.470444 0.835525 0.039884
O O12 0.388056 0.581538 0.767871
O O13 0.309544 0.513163 0.937649
O O14 0.588021 0.486686 0.811792
O O15 0.754674 0.857924 0.316354
O O16 0.281414 0.774157 0.482363
O O17 0.500000 0.000000 0.500000
#
# Coordination Sequence:
#
# PCOD8000571 Si02
#       8
#     2   2   2   2   2   2   2   2
#     4  10  25  43  66  88 136 174 205 261 321 389
#     4  10  19  39  64  93 129 157 209 275 315 363
#     4  11  22  37  67 102 121 163 219 270 316 369
#     4  10  20  42  64  89 130 170 203 264 321 368
#     4  11  21  38  70  93 124 166 221 265 308 374
#     4  10  24  47  62  92 134 172 211 262 318 377
#     4  12  22  40  66  98 122 168 215 265 321 377
#     4  12  24  39  67  98 125 164 213 272 317 368
#
# _framework density 20.525206000000001
#
# number of rings (size 3 to 8) (size 9 to 14) (size 15 to 20)
#    0.000    1.250    6.250    1.125    3.500    2.000 
#    0.000    6.250    0.000    0.000    0.000    0.000 
#    0.000    0.000    0.000    0.000    0.000    0.000 
#
# Total GULP energy -198379.154460 kJ/mol
# GULP energy per Si atom -12398.697154 kJ/mol
# Density = 2.047849 g / cm^3
# Si number density = 20.525206 Si / 1000 Ang^3
#
#
#
# Elastic Constant Matrix: (Units=GPa)
#
#
# Indices 1 2 3 4 5 6 
#
# 1 94.4187 35.5612 44.6730 -6.7538 -3.0628 -4.3434
# 2 35.5612 76.5259 35.2039 -9.8223 -8.5497 1.6803
# 3 44.6730 35.2039 112.5382 6.5103 -14.3199 2.3186
# 4 -6.7538 -9.8223 6.5103 45.0746 -2.8112 -5.5998
# 5 -3.0628 -8.5497 -14.3199 -2.8112 36.2905 -7.9521
# 6 -4.3434 1.6803 2.3186 -5.5998 -7.9521 30.4093
#
#
#
# Elastic Compliance Matrix: (Units=1/GPa)
#
#
# Indices 1 2 3 4 5 6 
#
# 1 0.014831 -0.004584 -0.004755 0.002216 -0.000896 0.002908
# 2 -0.004584 0.017635 -0.003582 0.003846 0.002663 0.000048
# 3 -0.004755 -0.003582 0.012511 -0.003251 0.003176 -0.001203
# 4 0.002216 0.003846 -0.003251 0.024716 0.002969 0.005680
# 5 -0.000896 0.002663 0.003176 0.002969 0.031396 0.008240
# 6 0.002908 0.000048 -0.001203 0.005680 0.008240 0.036590
#
#
# Mechanical properties :
#
#
# Convention : Reuss Voigt Hill
#
# Bulk Modulus (GPa) = 52.25924 57.15100 54.70512
# Shear Modulus (GPa) = 29.42946 33.55788 31.49367
#
# Velocity S-wave (km/s) = 3.79069 4.04785 3.92138
# Velocity P-wave (km/s) = 6.68396 7.05348 6.87121
#
# Compressibility (1/GPa) = 0.01913537
#
# Stress axis : x y z
#
# Youngs Moduli (GPa) = 67.42813 56.70480 79.92990
#
# Poissons Ratio (x) = 0.25992 0.38009
# Poissons Ratio (y) = 0.30907 0.28628
# Poissons Ratio (z) = 0.32064 0.20310
#
# Static dielectric constant tensor:
#      x y z
#    x 3.691740 -0.035090 -0.241410 
#    y -0.035090 3.757560 -0.186740 
#    z -0.241410 -0.186740 4.024100 
# 
# 
# High freq. dielectric constant tensor:
#      x y z
#    x 1.789550 -0.011220 -0.008710 
#    y -0.011220 1.798600 -0.016680 
#    z -0.008710 -0.016680 1.808600 
# 
# From -- ./inp_files/244226.got.cif
#   From: 2010.06.25/outbox.cif.g09.slc.cpg/sg2_123_cif.got.tgz:244226.got - 2010.06.27 13:26:56.
