data_PCOD8000477
_publ_section_title
;
Structure prediction by ZEFSAII (Michael W. Deem and Ramdas Pophale) SiO2 
 PCOD8000477
Probable space group: P -1
;
_chemical_formula_sum "Si O2"
_cell_formula_units_Z 16
_cell_length_a 11.629224
_cell_length_b 12.417078
_cell_length_c 12.438372
_cell_angle_alpha 115.354629
_cell_angle_beta 144.214067
_cell_angle_gamma 90.679436
_cell_volume 696.075312
_symmetry_space_group_name_H-M "P -1"
_symmetry_group_IT_number 2
_symmetry_cell_setting 'triclinic'
loop_
_space_group_symop_operation_xyz
x,y,z
-x,-y,-z
loop_
_atom_site_type_symbol
_atom_site_label
_atom_site_fract_x
_atom_site_fract_y
_atom_site_fract_z
Si Si1 0.492242 0.783088 0.390722
Si Si2 0.786402 0.673979 0.323742
Si Si3 0.668874 0.091522 0.273111
Si Si4 0.774675 0.948784 0.468732
Si Si5 0.850084 0.707266 0.037578
Si Si6 0.709698 0.610805 0.470563
Si Si7 0.897337 0.586823 0.815190
Si Si8 0.352872 0.759942 0.498954
O O1 0.592559 0.901556 0.416306
O O2 0.646621 0.723023 0.487131
O O3 0.531417 0.862908 0.571625
O O4 0.173707 0.634324 0.072813
O O5 0.775068 0.812016 0.379243
O O6 0.859195 0.653992 0.488875
O O7 0.027437 0.740089 0.454413
O O8 0.500000 0.500000 0.000000
O O9 0.521861 0.134446 0.251002
O O10 0.666710 0.970816 0.290712
O O11 0.500000 0.000000 0.000000
O O12 0.063020 0.120537 0.797855
O O13 0.066314 0.707610 0.253621
O O14 0.566196 0.575887 0.823183
O O15 0.826334 0.666585 0.875328
O O16 0.903966 0.641869 0.723781
O O17 0.669990 0.392081 0.572753
#
# Coordination Sequence:
#
# PCOD8000477 Si02
#       8
#     2   2   2   2   2   2   2   2
#     4  10  21  41  65  99 130 167 218 272 337 393
#     4  11  25  46  67  91 130 184 231 265 320 406
#     4  11  26  44  65  98 135 174 225 275 329 387
#     4  10  24  42  71  91 131 174 212 280 339 385
#     4  10  19  39  62  98 129 168 212 265 343 396
#     4  11  22  39  67  99 128 171 228 267 323 402
#     4  11  21  35  68 100 134 166 212 272 336 395
#     4  10  20  39  66  93 132 175 214 267 331 402
#
# _framework density 22.986017
#
# number of rings (size 3 to 8) (size 9 to 14) (size 15 to 20)
#    0.000    1.500    2.500    3.000    3.500    6.500 
#    0.000    2.500    0.000    0.000    0.000    0.000 
#    0.000    0.000    0.000    0.000    0.000    0.000 
#
# Total GULP energy -198306.238618 kJ/mol
# GULP energy per Si atom -12394.139914 kJ/mol
# Density = 2.293370 g / cm^3
# Si number density = 22.986017 Si / 1000 Ang^3
#
#
#
# Elastic Constant Matrix: (Units=GPa)
#
#
# Indices 1 2 3 4 5 6 
#
# 1 135.8408 45.2586 38.4846 2.8989 -23.9633 35.1816
# 2 45.2586 98.8552 30.7390 2.2973 -22.1559 24.5760
# 3 38.4846 30.7390 72.3520 15.2478 -29.7195 1.8748
# 4 2.8989 2.2973 15.2478 36.3884 2.3916 -8.5481
# 5 -23.9633 -22.1559 -29.7195 2.3916 44.5041 0.6432
# 6 35.1816 24.5760 1.8748 -8.5481 0.6432 45.8815
#
#
#
# Elastic Compliance Matrix: (Units=1/GPa)
#
#
# Indices 1 2 3 4 5 6 
#
# 1 0.011652 -0.001299 -0.003756 -0.001465 0.003319 -0.008405
# 2 -0.001299 0.014468 -0.003060 -0.001469 0.004640 -0.006967
# 3 -0.003756 -0.003060 0.024898 -0.010519 0.013627 0.001351
# 4 -0.001465 -0.001469 -0.010519 0.034904 -0.010551 0.008991
# 5 0.003319 0.004640 0.013627 -0.010551 0.036350 -0.008062
# 6 -0.008405 -0.006967 0.001351 0.008991 -0.008062 0.033705
#
#
# Mechanical properties :
#
#
# Convention : Reuss Voigt Hill
#
# Bulk Modulus (GPa) = 28.74490 59.55692 44.15091
# Shear Modulus (GPa) = 27.20285 38.19250 32.69767
#
# Velocity S-wave (km/s) = 3.44387 4.08064 3.77570
# Velocity P-wave (km/s) = 5.32411 6.94035 6.18525
#
# Compressibility (1/GPa) = 0.03478878
#
# Stress axis : x y z
#
# Youngs Moduli (GPa) = 85.82156 69.11712 40.16322
#
# Poissons Ratio (x) = 0.08980 0.15085
# Poissons Ratio (y) = 0.11151 0.12289
# Poissons Ratio (z) = 0.32233 0.21148
#
# Static dielectric constant tensor:
#      x y z
#    x 4.593840 0.412060 -0.268460 
#    y 0.412060 4.181230 0.111060 
#    z -0.268460 0.111060 4.051430 
# 
# 
# High freq. dielectric constant tensor:
#      x y z
#    x 1.916520 0.021790 -0.017930 
#    y 0.021790 1.907830 0.002650 
#    z -0.017930 0.002650 1.887610 
# 
# From -- ./inp_files/428598.got.cif
#   From: 2010.06.25/outbox.cif.g09.slc.cpg/sg2_215_cif.got.tgz:428598.got - 2010.06.27 13:26:56.
