data_PCOD8000100
_publ_section_title
;
Structure prediction by ZEFSAII (Michael W. Deem and Ramdas Pophale) SiO2 
 PCOD8000100
Probable space group: P 1
;
_chemical_formula_sum "Si O2"
_cell_formula_units_Z 8
_cell_length_a 7.430697
_cell_length_b 10.907957
_cell_length_c 7.430829
_cell_angle_alpha 124.293935
_cell_angle_beta 62.684720
_cell_angle_gamma 115.488161
_cell_volume 429.832655
_symmetry_space_group_name_H-M "P 1"
_symmetry_group_IT_number 1
_symmetry_cell_setting 'triclinic'
loop_
_space_group_symop_operation_xyz
x,y,z
loop_
_atom_site_type_symbol
_atom_site_label
_atom_site_fract_x
_atom_site_fract_y
_atom_site_fract_z
Si Si1 0.777730 0.535200 0.410270
Si Si2 0.776094 0.902553 0.186192
Si Si3 0.601273 0.561049 0.885270
Si Si4 0.088781 0.061061 0.872847
Si Si5 0.764064 0.375128 0.941950
Si Si6 0.537937 0.035204 0.670500
Si Si7 0.846165 0.875131 0.524123
Si Si8 0.129402 0.402562 0.039474
O O1 0.633582 0.502135 0.622818
O O2 0.820754 0.710876 0.483448
O O3 0.658427 0.429373 0.214929
O O4 0.001562 0.492081 0.304581
O O5 0.908200 0.877916 0.284902
O O6 0.600457 0.992027 0.403532
O O7 0.663871 0.743210 0.015997
O O8 0.919323 0.003855 0.056324
O O9 0.753892 0.495362 0.890274
O O10 0.360594 0.503832 0.997522
O O11 0.292332 0.002171 0.781645
O O12 0.140195 0.243223 0.992409
O O13 0.018095 0.995341 0.654519
O O14 0.640490 0.210886 0.803050
O O15 0.006069 0.377911 0.882706
O O16 0.627459 0.929409 0.684022
#
# Coordination Sequence:
#
# PCOD8000100 Si02
#       8
#     1   1   1   1   1   1   1   1
#     4  10  23  42  65  91 130 166 208 263 309 376
#     4  10  24  41  66  93 126 168 211 256 315 375
#     4  12  22  44  65  93 129 171 207 257 323 368
#     4  12  22  44  65  93 129 171 207 257 323 368
#     4  10  21  45  58  93 133 157 212 264 297 383
#     4  10  23  42  65  91 130 166 208 263 309 376
#     4  10  21  45  58  93 133 157 212 264 297 383
#     4  10  24  41  66  93 126 168 211 256 315 375
#
# _framework density 18.611896000000002
#
# number of rings (size 3 to 8) (size 9 to 14) (size 15 to 20)
#    1.500    0.000    5.000    0.000    3.500    0.000 
#   13.500    0.000    0.000    0.000    0.000    0.000 
#    0.000    0.000    0.000    0.000    0.000    0.000 
#
# Total GULP energy -99131.695195 kJ/mol
# GULP energy per Si atom -12391.461899 kJ/mol
# Density = 1.856953 g / cm^3
# Si number density = 18.611896 Si / 1000 Ang^3
#
#
#
# Elastic Constant Matrix: (Units=GPa)
#
#
# Indices 1 2 3 4 5 6 
#
# 1 82.5938 33.4652 20.4601 7.3591 -9.8393 -0.7353
# 2 33.4652 82.0714 57.3883 2.9485 -10.8176 2.1547
# 3 20.4601 57.3883 106.2463 10.9527 -0.6329 -3.2535
# 4 7.3591 2.9485 10.9527 28.1207 -6.2749 -4.6979
# 5 -9.8393 -10.8176 -0.6329 -6.2749 33.6071 -2.8582
# 6 -0.7353 2.1547 -3.2535 -4.6979 -2.8582 18.8414
#
#
#
# Elastic Compliance Matrix: (Units=1/GPa)
#
#
# Indices 1 2 3 4 5 6 
#
# 1 0.014984 -0.006451 0.000954 -0.003035 0.001848 0.001011
# 2 -0.006451 0.024223 -0.012399 0.004893 0.006335 -0.002982
# 3 0.000954 -0.012399 0.016587 -0.006017 -0.004339 0.002161
# 4 -0.003035 0.004893 -0.006017 0.041949 0.009269 0.010149
# 5 0.001848 0.006335 -0.004339 0.009269 0.034507 0.006144
# 6 0.001011 -0.002982 0.002161 0.010149 0.006144 0.057291
#
#
# Mechanical properties :
#
#
# Convention : Reuss Voigt Hill
#
# Bulk Modulus (GPa) = 49.99897 54.83763 52.41830
# Shear Modulus (GPa) = 21.55164 26.75371 24.15268
#
# Velocity S-wave (km/s) = 3.40656 3.79549 3.60627
# Velocity P-wave (km/s) = 6.51116 6.98107 6.75020
#
# Compressibility (1/GPa) = 0.02000041
#
# Stress axis : x y z
#
# Youngs Moduli (GPa) = 66.73563 41.28377 60.28985
#
# Poissons Ratio (x) = 0.26631 -0.05749
# Poissons Ratio (y) = 0.43049 0.74756
# Poissons Ratio (z) = -0.06364 0.51190
#
# Static dielectric constant tensor:
#      x y z
#    x 3.465300 -0.127990 0.009520 
#    y -0.127990 3.213980 0.188680 
#    z 0.009520 0.188680 3.540620 
# 
# 
# High freq. dielectric constant tensor:
#      x y z
#    x 1.717950 -0.010290 0.002950 
#    y -0.010290 1.718400 0.022580 
#    z 0.002950 0.022580 1.722710 
# 
# From -- ./inp_files/4739.got.cif
#   From: 2010.03.12/outbox.cif.g09.slc.cpg/sg1_3_cif.got.tgz:4739.got - 2010.03.29 11:57:58.
