data_PCOD8000969
_publ_section_title
;
Structure prediction by ZEFSAII (Michael W. Deem and Ramdas Pophale) SiO2 
 PCOD8000969
Probable space group: P -1
;
_chemical_formula_sum "Si O2"
_cell_formula_units_Z 14
_cell_length_a 8.614267
_cell_length_b 13.574008
_cell_length_c 13.559590
_cell_angle_alpha 36.050088
_cell_angle_beta 102.995487
_cell_angle_gamma 126.691716
_cell_volume 626.243178
_symmetry_space_group_name_H-M "P -1"
_symmetry_group_IT_number 2
_symmetry_cell_setting 'triclinic'
loop_
_space_group_symop_operation_xyz
x,y,z
-x,-y,-z
loop_
_atom_site_type_symbol
_atom_site_label
_atom_site_fract_x
_atom_site_fract_y
_atom_site_fract_z
Si Si1 0.928047 0.634965 0.367174
Si Si2 0.219244 0.091937 0.170222
Si Si3 0.945005 0.868751 0.497073
Si Si4 0.866073 0.337668 0.297349
Si Si5 0.396412 0.191313 0.624273
Si Si6 0.017180 0.795171 0.033304
Si Si7 0.546127 0.079062 0.281697
O O1 0.652352 0.443069 0.485394
O O2 0.000000 0.500000 0.500000
O O3 0.042513 0.790298 0.157210
O O4 0.028168 0.817164 0.323618
O O5 0.471218 0.195630 0.121984
O O6 0.152576 0.081290 0.282103
O O7 0.210036 0.260280 0.973170
O O8 0.701741 0.745783 0.517184
O O9 0.946680 0.669131 0.672146
O O10 0.000000 0.000000 0.500000
O O11 0.762956 0.280313 0.219657
O O12 0.996830 0.605285 0.127773
O O13 0.667884 0.155266 0.496794
O O14 0.388546 0.003973 0.724387
O O15 0.241750 0.062769 0.805669
#
# Coordination Sequence:
#
# PCOD8000969 Si02
#       7
#     2   2   2   2   2   2   2
#     4  12  23  46  71  90 131 175 215 271 322 379
#     4  10  23  41  64  97 134 171 217 268 319 383
#     4  10  20  39  65  94 131 168 213 267 317 381
#     4  10  20  39  68  93 134 173 211 266 325 382
#     4  11  23  42  68  98 130 171 218 264 326 380
#     4  11  25  42  64 100 131 167 220 267 320 388
#     4  10  19  40  67  94 129 177 214 259 328 384
#
# _framework density 22.355533999999999
#
# number of rings (size 3 to 8) (size 9 to 14) (size 15 to 20)
#    0.000    1.429    4.286    1.286    0.000    4.000 
#    2.571    0.000    0.000    0.000    0.000    0.000 
#    0.000    0.000    0.000    0.000    0.000    0.000 
#
# Total GULP energy -173610.678905 kJ/mol
# GULP energy per Si atom -12400.762779 kJ/mol
# Density = 2.230465 g / cm^3
# Si number density = 22.355534 Si / 1000 Ang^3
#
#
#
# Elastic Constant Matrix: (Units=GPa)
#
#
# Indices 1 2 3 4 5 6 
#
# 1 131.2177 30.3448 36.9144 20.7393 29.6815 24.8561
# 2 30.3448 89.3516 35.8962 23.9025 -2.5374 11.0093
# 3 36.9144 35.8962 70.5120 15.2273 7.8319 4.9270
# 4 20.7393 23.9025 15.2273 30.6229 3.7046 6.0600
# 5 29.6815 -2.5374 7.8319 3.7046 48.4876 6.6972
# 6 24.8561 11.0093 4.9270 6.0600 6.6972 48.1235
#
#
#
# Elastic Compliance Matrix: (Units=1/GPa)
#
#
# Indices 1 2 3 4 5 6 
#
# 1 0.011576 -0.001098 -0.003808 -0.003591 -0.005689 -0.004094
# 2 -0.001098 0.016948 -0.006280 -0.009402 0.003565 -0.001979
# 3 -0.003808 -0.006280 0.019958 -0.002659 -0.001277 0.001873
# 4 -0.003591 -0.009402 -0.002659 0.044101 -0.001078 -0.001126
# 5 -0.005689 0.003565 -0.001277 -0.001078 0.024727 -0.001052
# 6 -0.004094 -0.001979 0.001873 -0.001126 -0.001052 0.023444
#
#
# Mechanical properties :
#
#
# Convention : Reuss Voigt Hill
#
# Bulk Modulus (GPa) = 38.30062 55.26580 46.78321
# Shear Modulus (GPa) = 29.09873 37.97520 33.53696
#
# Velocity S-wave (km/s) = 3.61173 4.12599 3.87740
# Velocity P-wave (km/s) = 5.87899 6.89009 6.40452
#
# Compressibility (1/GPa) = 0.02610924
#
# Stress axis : x y z
#
# Youngs Moduli (GPa) = 86.38591 59.00442 50.10546
#
# Poissons Ratio (x) = 0.06479 0.19079
# Poissons Ratio (y) = 0.09486 0.31468
# Poissons Ratio (z) = 0.32895 0.37057
#
# Static dielectric constant tensor:
#      x y z
#    x 4.442230 0.136470 0.278290 
#    y 0.136470 4.150580 0.280640 
#    z 0.278290 0.280640 3.722220 
# 
# 
# High freq. dielectric constant tensor:
#      x y z
#    x 1.902950 -0.001810 0.019370 
#    y -0.001810 1.884590 0.019390 
#    z 0.019370 0.019390 1.853660 
# 
# From -- ./inp_files/180863.got.cif
#   From: 2010.06.25/outbox.cif.g09.slc.cpg/sg2_91_cif.got.tgz:180863.got - 2010.06.27 13:26:56.
