data_PCOD8000313
_publ_section_title
;
Structure prediction by ZEFSAII (Michael W. Deem and Ramdas Pophale) SiO2 
 PCOD8000313
Probable space group: P -1
;
_chemical_formula_sum "Si O2"
_cell_formula_units_Z 16
_cell_length_a 8.443697
_cell_length_b 22.278628
_cell_length_c 11.755262
_cell_angle_alpha 40.044098
_cell_angle_beta 38.517655
_cell_angle_gamma 44.871967
_cell_volume 852.146166
_symmetry_space_group_name_H-M "P -1"
_symmetry_group_IT_number 2
_symmetry_cell_setting 'triclinic'
loop_
_space_group_symop_operation_xyz
x,y,z
-x,-y,-z
loop_
_atom_site_type_symbol
_atom_site_label
_atom_site_fract_x
_atom_site_fract_y
_atom_site_fract_z
Si Si1 0.399702 0.291398 0.751659
Si Si2 0.106327 0.578054 0.049171
Si Si3 0.292079 0.084725 0.710830
Si Si4 0.866012 0.285575 0.357293
Si Si5 0.580556 0.800509 0.726323
Si Si6 0.577279 0.773972 0.404709
Si Si7 0.680962 0.132852 0.997225
Si Si8 0.405065 0.365532 0.207035
O O1 0.662573 0.323748 0.521689
O O2 0.286340 0.250802 0.760428
O O3 0.179856 0.383628 0.787843
O O4 0.472598 0.208912 0.926526
O O5 0.172618 0.462298 0.171187
O O6 0.097488 0.621087 0.864983
O O7 0.321988 0.609015 0.959716
O O8 0.448389 0.116302 0.472865
O O9 0.378666 0.126207 0.719304
O O10 0.379498 0.969649 0.839228
O O11 0.979340 0.127345 0.802707
O O12 0.736043 0.219455 0.443220
O O13 0.138418 0.216399 0.346647
O O14 0.353492 0.837033 0.894756
O O15 0.550836 0.701654 0.831603
O O16 0.695779 0.687615 0.553845
#
# Coordination Sequence:
#
# PCOD8000313 Si02
#       8
#     2   2   2   2   2   2   2   2
#     4  10  20  36  57  77 112 147 177 218 278 314
#     4  10  19  39  56  82 109 144 186 220 264 327
#     4  10  21  39  55  83 111 134 195 222 263 329
#     4   9  19  36  54  78 115 144 170 227 268 316
#     4  11  20  38  58  79 115 141 178 227 278 315
#     4   8  19  37  57  76 111 146 172 231 268 307
#     4  11  22  35  60  81 106 152 175 225 276 320
#     4   9  21  36  59  83 108 142 184 226 267 318
#
# _framework density 18.776122000000001
#
# number of rings (size 3 to 8) (size 9 to 14) (size 15 to 20)
#    0.750    1.500    2.500    0.375    1.750    1.500 
#    0.000    1.250    0.000    0.000    0.000    0.000 
#    0.000    0.000    0.000    0.000    0.000    0.000 
#
# Total GULP energy -198344.110935 kJ/mol
# GULP energy per Si atom -12396.506933 kJ/mol
# Density = 1.873339 g / cm^3
# Si number density = 18.776122 Si / 1000 Ang^3
#
#
#
# Elastic Constant Matrix: (Units=GPa)
#
#
# Indices 1 2 3 4 5 6 
#
# 1 38.3130 8.9915 15.3669 -7.5521 6.0760 6.4856
# 2 8.9915 79.5179 31.4318 5.1114 4.4701 8.8703
# 3 15.3669 31.4318 64.7398 7.8498 16.1787 17.1683
# 4 -7.5521 5.1114 7.8498 24.8974 7.6896 -2.6528
# 5 6.0760 4.4701 16.1787 7.6896 23.9611 1.1941
# 6 6.4856 8.8703 17.1683 -2.6528 1.1941 28.9818
#
#
#
# Elastic Compliance Matrix: (Units=1/GPa)
#
#
# Indices 1 2 3 4 5 6 
#
# 1 0.033672 -0.001549 -0.006534 0.015096 -0.008610 -0.001454
# 2 -0.001549 0.015833 -0.007857 -0.002348 0.003508 -0.000204
# 3 -0.006534 -0.007857 0.028377 -0.006602 -0.013271 -0.013000
# 4 0.015096 -0.002348 -0.006602 0.053064 -0.016299 0.006780
# 5 -0.008610 0.003508 -0.013271 -0.016299 0.057212 0.004865
# 6 -0.001454 -0.000204 -0.013000 0.006780 0.004865 0.043014
#
#
# Mechanical properties :
#
#
# Convention : Reuss Voigt Hill
#
# Bulk Modulus (GPa) = 21.73806 32.68347 27.21076
# Shear Modulus (GPa) = 17.96070 24.02010 20.99040
#
# Velocity S-wave (km/s) = 3.09620 3.58060 3.34717
# Velocity P-wave (km/s) = 4.93808 5.87698 5.42787
#
# Compressibility (1/GPa) = 0.04600226
#
# Stress axis : x y z
#
# Youngs Moduli (GPa) = 29.69817 63.15800 35.24032
#
# Poissons Ratio (x) = 0.09783 0.23024
# Poissons Ratio (y) = 0.04600 0.27689
# Poissons Ratio (z) = 0.19403 0.49625
#
# Static dielectric constant tensor:
#      x y z
#    x 3.382170 0.051950 0.126820 
#    y 0.051950 3.240880 0.013720 
#    z 0.126820 0.013720 3.420040 
# 
# 
# High freq. dielectric constant tensor:
#      x y z
#    x 1.726840 0.000460 0.011850 
#    y 0.000460 1.711720 0.001010 
#    z 0.011850 0.001010 1.729020 
# 
# From -- ./inp_files/268442.got.cif
#   From: 2010.06.25/outbox.cif.g09.slc.cpg/sg2_135_cif.got.tgz:268442.got - 2010.06.27 13:26:56.
