data_PCOD8000191
_publ_section_title
;
Structure prediction by ZEFSAII (Michael W. Deem and Ramdas Pophale) SiO2 
 PCOD8000191
Probable space group: P 1
;
_chemical_formula_sum "Si O2"
_cell_formula_units_Z 8
_cell_length_a 7.901010
_cell_length_b 8.961640
_cell_length_c 11.971698
_cell_angle_alpha 25.986780
_cell_angle_beta 106.168352
_cell_angle_gamma 110.766372
_cell_volume 345.607894
_symmetry_space_group_name_H-M "P 1"
_symmetry_group_IT_number 1
_symmetry_cell_setting 'triclinic'
loop_
_space_group_symop_operation_xyz
x,y,z
loop_
_atom_site_type_symbol
_atom_site_label
_atom_site_fract_x
_atom_site_fract_y
_atom_site_fract_z
Si Si1 0.698870 0.567730 0.070110
Si Si2 0.314107 0.290036 0.236354
Si Si3 0.016185 0.392996 0.970269
Si Si4 0.499675 0.397633 0.759592
Si Si5 0.779610 0.645394 0.450205
Si Si6 0.564158 0.696114 0.177334
Si Si7 0.772850 0.868103 0.642200
Si Si8 0.136193 0.499058 0.690829
O O1 0.491793 0.358523 0.142130
O O2 0.684224 0.829056 0.996690
O O3 0.799197 0.273311 0.335773
O O4 0.791606 0.797717 0.826783
O O5 0.380065 0.415588 0.290485
O O6 0.213560 0.888348 0.488343
O O7 0.172815 0.500391 0.020415
O O8 0.095903 0.273556 0.949575
O O9 0.932570 0.727761 0.706490
O O10 0.853206 0.065607 0.195873
O O11 0.617899 0.558030 0.567764
O O12 0.577748 0.626373 0.729262
O O13 0.284961 0.383949 0.717733
O O14 0.512539 0.996890 0.039121
O O15 0.687345 0.518513 0.398998
O O16 0.946292 0.459683 0.617681
#
# Coordination Sequence:
#
# PCOD8000191 Si02
#       8
#     1   1   1   1   1   1   1   1
#     4  10  25  43  68 102 137 192 233 291 355 431
#     4   9  23  40  64  96 140 186 227 294 351 420
#     4  11  23  41  70 101 143 179 251 296 347 429
#     4  12  23  41  75 100 140 188 240 292 364 423
#     4  11  23  43  67 105 142 183 238 296 359 423
#     4  10  24  43  66 101 146 183 229 300 369 420
#     4  12  22  43  72 104 134 191 246 284 357 426
#     4  11  23  42  70 101 136 188 242 297 346 436
#
# _framework density 23.147618000000001
#
# number of rings (size 3 to 8) (size 9 to 14) (size 15 to 20)
#    0.750    0.500    3.750    1.500    3.500    3.000 
#    2.250    1.250    0.000    0.000    0.000    0.000 
#    0.000    0.000    0.000    0.000    0.000    0.000 
#
# Total GULP energy -99109.318843 kJ/mol
# GULP energy per Si atom -12388.664855 kJ/mol
# Density = 2.309493 g / cm^3
# Si number density = 23.147618 Si / 1000 Ang^3
#
#
#
# Elastic Constant Matrix: (Units=GPa)
#
#
# Indices 1 2 3 4 5 6 
#
# 1 151.0953 36.1138 39.5421 23.4454 17.3439 -3.0579
# 2 36.1138 99.5478 24.5368 31.7130 14.4597 15.8695
# 3 39.5421 24.5368 75.5768 22.1861 13.5075 2.0952
# 4 23.4454 31.7130 22.1861 37.1903 -1.8752 6.9614
# 5 17.3439 14.4597 13.5075 -1.8752 39.9714 5.8504
# 6 -3.0579 15.8695 2.0952 6.9614 5.8504 40.8888
#
#
#
# Elastic Compliance Matrix: (Units=1/GPa)
#
#
# Indices 1 2 3 4 5 6 
#
# 1 0.008492 -0.001377 -0.002632 -0.003168 -0.002774 0.002241
# 2 -0.001377 0.015703 0.000273 -0.012321 -0.005261 -0.003361
# 3 -0.002632 0.000273 0.018519 -0.010165 -0.005885 0.001321
# 4 -0.003168 -0.012321 -0.010165 0.046942 0.012152 -0.004665
# 5 -0.002774 -0.005261 -0.005885 0.012152 0.031330 -0.004415
# 6 0.002241 -0.003361 0.001321 -0.004665 -0.004415 0.027287
#
#
# Mechanical properties :
#
#
# Convention : Reuss Voigt Hill
#
# Bulk Modulus (GPa) = 28.37588 58.51172 43.44380
# Shear Modulus (GPa) = 29.85211 38.67856 34.26534
#
# Velocity S-wave (km/s) = 3.59505 4.09216 3.85164
# Velocity P-wave (km/s) = 5.43303 6.90364 6.21201
#
# Compressibility (1/GPa) = 0.03524120
#
# Stress axis : x y z
#
# Youngs Moduli (GPa) = 117.76366 63.68282 53.99745
#
# Poissons Ratio (x) = 0.08768 0.14213
# Poissons Ratio (y) = 0.16213 -0.01472
# Poissons Ratio (z) = 0.30998 -0.01737
#
# Static dielectric constant tensor:
#      x y z
#    x 4.266820 0.125430 0.253870 
#    y 0.125430 4.066450 0.206190 
#    z 0.253870 0.206190 4.074360 
# 
# 
# High freq. dielectric constant tensor:
#      x y z
#    x 1.912200 0.004380 0.010300 
#    y 0.004380 1.898310 0.013260 
#    z 0.010300 0.013260 1.908840 
# 
# From -- ./inp_files/6411.got.cif
#   From: 2010.03.12/outbox.cif.g09.slc.cpg/sg1_4_cif.got.tgz:6411.got - 2010.03.29 11:57:58.
