data_PCOD8000318
_publ_section_title
;
Structure prediction by ZEFSAII (Michael W. Deem and Ramdas Pophale) SiO2 
 PCOD8000318
Probable space group: P -1
;
_chemical_formula_sum "Si O2"
_cell_formula_units_Z 14
_cell_length_a 5.148836
_cell_length_b 6.881279
_cell_length_c 25.462234
_cell_angle_alpha 63.855471
_cell_angle_beta 116.845133
_cell_angle_gamma 106.663064
_cell_volume 718.212728
_symmetry_space_group_name_H-M "P -1"
_symmetry_group_IT_number 2
_symmetry_cell_setting 'triclinic'
loop_
_space_group_symop_operation_xyz
x,y,z
-x,-y,-z
loop_
_atom_site_type_symbol
_atom_site_label
_atom_site_fract_x
_atom_site_fract_y
_atom_site_fract_z
Si Si1 0.648641 0.188642 0.423955
Si Si2 0.679858 0.713185 0.515063
Si Si3 0.147493 0.892952 0.877595
Si Si4 0.986763 0.690012 0.234482
Si Si5 0.064965 0.503266 0.160346
Si Si6 0.510893 0.471443 0.284705
Si Si7 0.810884 0.029626 0.928403
O O1 0.426339 0.259017 0.438758
O O2 0.543035 0.265188 0.348834
O O3 0.973491 0.306462 0.451594
O O4 0.630584 0.926754 0.450933
O O5 0.500000 0.500000 0.500000
O O6 0.479889 0.936289 0.921842
O O7 0.115856 0.655065 0.877467
O O8 0.933325 0.898355 0.906912
O O9 0.061385 0.057335 0.804651
O O10 0.863439 0.573612 0.182215
O O11 0.329732 0.650391 0.276023
O O12 0.827118 0.588778 0.283717
O O13 0.336780 0.392564 0.224738
O O14 0.191192 0.717901 0.115063
O O15 0.000000 0.000000 0.000000
#
# Coordination Sequence:
#
# PCOD8000318 Si02
#       7
#     2   2   2   2   2   2   2
#     4  10  21  38  60  84 117 149 186 238 278 329
#     4  10  21  40  60  82 116 152 192 229 279 330
#     4  11  21  39  62  80 112 157 180 233 293 326
#     4   9  19  37  55  81 119 142 182 230 281 333
#     4   9  23  37  61  81 120 142 189 233 280 341
#     4  10  19  39  57  84 119 145 182 239 281 327
#     4  11  24  40  58  85 114 147 194 235 277 339
#
# _framework density 19.492830999999999
#
# number of rings (size 3 to 8) (size 9 to 14) (size 15 to 20)
#    0.857    1.143    1.429    1.714    2.000    1.143 
#    5.143    0.000    0.000    0.000    0.000    0.000 
#    0.000    0.000    0.000    0.000    0.000    0.000 
#
# Total GULP energy -173521.460599 kJ/mol
# GULP energy per Si atom -12394.390043 kJ/mol
# Density = 1.944846 g / cm^3
# Si number density = 19.492831 Si / 1000 Ang^3
#
#
#
# Elastic Constant Matrix: (Units=GPa)
#
#
# Indices 1 2 3 4 5 6 
#
# 1 100.1422 12.6146 9.3423 -2.9881 -5.1875 2.7787
# 2 12.6146 101.9174 21.1037 8.3123 4.9016 7.8376
# 3 9.3423 21.1037 111.4664 -9.6651 1.7439 3.4662
# 4 -2.9881 8.3123 -9.6651 6.2912 1.3783 0.5429
# 5 -5.1875 4.9016 1.7439 1.3783 29.2962 0.0886
# 6 2.7787 7.8376 3.4662 0.5429 0.0886 21.3578
#
#
#
# Elastic Compliance Matrix: (Units=1/GPa)
#
#
# Indices 1 2 3 4 5 6 
#
# 1 0.010565 -0.001969 0.000136 0.007500 0.001842 -0.000872
# 2 -0.001969 0.013277 -0.004367 -0.024654 -0.001140 -0.003276
# 3 0.000136 -0.004367 0.011962 0.024539 -0.001109 -0.000976
# 4 0.007500 -0.024654 0.024539 0.234489 -0.007034 -0.001843
# 5 0.001842 -0.001140 -0.001109 -0.007034 0.035047 0.000392
# 6 -0.000872 -0.003276 -0.000976 -0.001843 0.000392 0.048341
#
#
# Mechanical properties :
#
#
# Convention : Reuss Voigt Hill
#
# Bulk Modulus (GPa) = 42.72691 44.40524 43.56608
# Shear Modulus (GPa) = 13.37324 29.42006 21.39665
#
# Velocity S-wave (km/s) = 2.62212 3.88915 3.31670
# Velocity P-wave (km/s) = 5.57980 6.55722 6.08816
#
# Compressibility (1/GPa) = 0.02340445
#
# Stress axis : x y z
#
# Youngs Moduli (GPa) = 94.65629 75.31638 83.59739
#
# Poissons Ratio (x) = 0.14829 -0.01137
# Poissons Ratio (y) = 0.18637 0.36505
# Poissons Ratio (z) = -0.01287 0.32889
#
# Static dielectric constant tensor:
#      x y z
#    x 3.689900 0.035550 -0.002350 
#    y 0.035550 3.554370 0.040200 
#    z -0.002350 0.040200 3.619840 
# 
# 
# High freq. dielectric constant tensor:
#      x y z
#    x 1.773130 -0.002790 -0.005600 
#    y -0.002790 1.731530 -0.018070 
#    z -0.005600 -0.018070 1.754100 
# 
# From -- ./inp_files/603177.got.cif
#   From: 2010.06.25/outbox.cif.g09.slc.cpg/sg2_302_cif.got.tgz:603177.got - 2010.06.27 13:26:56.
