data_PCOD8000229
_publ_section_title
;
Structure prediction by ZEFSAII (Michael W. Deem and Ramdas Pophale) SiO2 
 PCOD8000229
Probable space group: P 1
;
_chemical_formula_sum "Si O2"
_cell_formula_units_Z 8
_cell_length_a 10.079658
_cell_length_b 11.581162
_cell_length_c 14.916968
_cell_angle_alpha 28.244684
_cell_angle_beta 152.809911
_cell_angle_gamma 143.214501
_cell_volume 375.342292
_symmetry_space_group_name_H-M "P 1"
_symmetry_group_IT_number 1
_symmetry_cell_setting 'triclinic'
loop_
_space_group_symop_operation_xyz
x,y,z
loop_
_atom_site_type_symbol
_atom_site_label
_atom_site_fract_x
_atom_site_fract_y
_atom_site_fract_z
Si Si1 0.872580 0.733760 0.313200
Si Si2 0.263548 0.798900 0.188033
Si Si3 0.873033 0.949454 0.362458
Si Si4 0.436969 0.818094 0.478920
Si Si5 0.485782 0.837640 0.853808
Si Si6 0.463021 0.342028 0.083008
Si Si7 0.824777 0.463235 0.046787
Si Si8 0.897638 0.208180 0.744676
O O1 0.793911 0.440858 0.470097
O O2 0.193161 0.788025 0.429058
O O3 0.873334 0.861402 0.321691
O O4 0.627589 0.854965 0.025207
O O5 0.292779 0.731704 0.356616
O O6 0.107454 0.571086 0.197097
O O7 0.579863 0.848513 0.302972
O O8 0.069237 0.031692 0.903240
O O9 0.913574 0.243562 0.187671
O O10 0.140190 0.845707 0.648273
O O11 0.567881 0.101278 0.359327
O O12 0.703032 0.662778 0.771407
O O13 0.614499 0.058873 0.717298
O O14 0.572053 0.582995 0.037370
O O15 0.582649 0.356006 0.044356
O O16 0.111385 0.308491 0.885453
#
# Coordination Sequence:
#
# PCOD8000229 Si02
#       8
#     1   1   1   1   1   1   1   1
#     4  12  25  44  73 107 139 187 232 284 354 415
#     4  11  25  48  71 101 138 183 238 289 334 412
#     4  12  28  47  64 109 153 173 227 298 348 415
#     4  11  23  47  76 103 132 190 242 282 338 421
#     4  12  26  45  73 104 141 190 228 288 356 405
#     4  11  21  46  74 104 138 177 243 291 328 419
#     4  12  24  46  73 101 144 187 225 289 358 404
#     4  11  22  47  74 101 137 181 243 287 328 421
#
# _framework density 21.313877999999999
#
# number of rings (size 3 to 8) (size 9 to 14) (size 15 to 20)
#    0.000    0.500    8.750    0.000    3.500    2.000 
#    4.500    0.000    0.000    0.000    0.000    0.000 
#    0.000    0.000    0.000    0.000    0.000    0.000 
#
# Total GULP energy -99231.484981 kJ/mol
# GULP energy per Si atom -12403.935623 kJ/mol
# Density = 2.126537 g / cm^3
# Si number density = 21.313878 Si / 1000 Ang^3
#
#
#
# Elastic Constant Matrix: (Units=GPa)
#
#
# Indices 1 2 3 4 5 6 
#
# 1 98.0275 41.1045 46.7864 -6.1422 10.0407 -0.5036
# 2 41.1045 116.6094 36.3603 -11.9286 3.9557 4.4590
# 3 46.7864 36.3603 119.7466 -12.0927 0.2043 7.2818
# 4 -6.1422 -11.9286 -12.0927 41.2884 9.1621 -2.4583
# 5 10.0407 3.9557 0.2043 9.1621 24.2698 -4.0833
# 6 -0.5036 4.4590 7.2818 -2.4583 -4.0833 33.2571
#
#
#
# Elastic Compliance Matrix: (Units=1/GPa)
#
#
# Indices 1 2 3 4 5 6 
#
# 1 0.014459 -0.003409 -0.004554 0.001148 -0.005642 0.001065
# 2 -0.003409 0.010598 -0.001580 0.002329 -0.001372 -0.001123
# 3 -0.004554 -0.001580 0.010901 0.001702 0.001073 -0.001986
# 4 0.001148 0.002329 0.001702 0.028110 -0.011481 0.000001
# 5 -0.005642 -0.001372 0.001073 -0.011481 0.048931 0.005023
# 6 0.001065 -0.001123 -0.001986 0.000001 0.005023 0.031287
#
#
# Mechanical properties :
#
#
# Convention : Reuss Voigt Hill
#
# Bulk Modulus (GPa) = 59.26789 64.76512 62.01650
# Shear Modulus (GPa) = 29.58661 33.77189 31.67925
#
# Velocity S-wave (km/s) = 3.72981 3.98490 3.85946
# Velocity P-wave (km/s) = 6.81295 7.18505 7.00147
#
# Compressibility (1/GPa) = 0.01687254
#
# Stress axis : x y z
#
# Youngs Moduli (GPa) = 69.16000 94.35957 91.73660
#
# Poissons Ratio (x) = 0.32166 0.41772
# Poissons Ratio (y) = 0.23576 0.14496
# Poissons Ratio (z) = 0.31492 0.14911
#
# Static dielectric constant tensor:
#      x y z
#    x 3.760330 -0.009460 0.034950 
#    y -0.009460 4.030070 -0.144760 
#    z 0.034950 -0.144760 3.924030 
# 
# 
# High freq. dielectric constant tensor:
#      x y z
#    x 1.823580 -0.000010 -0.001180 
#    y -0.000010 1.852860 -0.003070 
#    z -0.001180 -0.003070 1.835490 
# 
# From -- ./inp_files/5593.got.cif
#   From: 2010.03.12/outbox.cif.g09.slc.cpg/sg1_3_cif.got.tgz:5593.got - 2010.03.29 11:57:58.
