data_PCOD8000910
_publ_section_title
;
Structure prediction by ZEFSAII (Michael W. Deem and Ramdas Pophale) SiO2 
 PCOD8000910
Probable space group: P -1
;
_chemical_formula_sum "Si O2"
_cell_formula_units_Z 14
_cell_length_a 16.002263
_cell_length_b 11.791657
_cell_length_c 8.468607
_cell_angle_alpha 42.955275
_cell_angle_beta 34.372059
_cell_angle_gamma 52.067874
_cell_volume 614.518925
_symmetry_space_group_name_H-M "P -1"
_symmetry_group_IT_number 2
_symmetry_cell_setting 'triclinic'
loop_
_space_group_symop_operation_xyz
x,y,z
-x,-y,-z
loop_
_atom_site_type_symbol
_atom_site_label
_atom_site_fract_x
_atom_site_fract_y
_atom_site_fract_z
Si Si1 0.792550 0.117412 0.089099
Si Si2 0.509383 0.963113 0.837928
Si Si3 0.595561 0.620604 0.122565
Si Si4 0.242801 0.149093 0.120442
Si Si5 0.917942 0.638217 0.086035
Si Si6 0.664725 0.467353 0.845621
Si Si7 0.047600 0.886337 0.844778
O O1 0.910756 0.170075 0.984907
O O2 0.658552 0.014670 0.470475
O O3 0.725025 0.275356 0.936713
O O4 0.891744 0.990085 0.957751
O O5 0.493393 0.763358 0.048462
O O6 0.500000 0.000000 0.000000
O O7 0.372769 0.078162 0.870837
O O8 0.500000 0.500000 0.500000
O O9 0.710313 0.712346 0.965054
O O10 0.674565 0.515278 0.967049
O O11 0.183661 0.991192 0.465740
O O12 0.118607 0.221271 0.127802
O O13 0.771918 0.577354 0.462593
O O14 0.000000 0.500000 0.000000
O O15 0.034173 0.713106 0.950395
O O16 0.500000 0.500000 0.000000
#
# Coordination Sequence:
#
# PCOD8000910 Si02
#       7
#     2   2   2   2   2   2   2
#     4  11  23  44  71 101 138 186 239 283 354 425
#     4  10  19  40  65  99 128 174 236 278 334 414
#     4  11  23  40  72 105 138 179 229 300 353 410
#     4  11  24  45  71 100 138 189 242 280 351 424
#     4  12  28  46  67 107 148 186 233 296 359 412
#     4  12  27  46  69 105 144 182 238 303 358 406
#     4  11  25  44  72  99 141 188 238 285 352 432
#
# _framework density 22.782049000000001
#
# number of rings (size 3 to 8) (size 9 to 14) (size 15 to 20)
#    0.000    0.857    2.857    5.571    4.000    2.857 
#    0.000    2.857    0.000    0.000    0.000    0.000 
#    0.000    0.000    0.000    0.000    0.000    0.000 
#
# Total GULP energy -173524.652482 kJ/mol
# GULP energy per Si atom -12394.618034 kJ/mol
# Density = 2.273020 g / cm^3
# Si number density = 22.782049 Si / 1000 Ang^3
#
#
#
# Elastic Constant Matrix: (Units=GPa)
#
#
# Indices 1 2 3 4 5 6 
#
# 1 75.1254 27.9276 24.8007 -7.3479 -7.3136 -7.7130
# 2 27.9276 117.0576 24.4442 0.8159 -9.2848 -2.8565
# 3 24.8007 24.4442 121.0162 -2.0855 -16.8181 16.7123
# 4 -7.3479 0.8159 -2.0855 43.5710 -2.2704 2.4291
# 5 -7.3136 -9.2848 -16.8181 -2.2704 31.8186 -2.8611
# 6 -7.7130 -2.8565 16.7123 2.4291 -2.8611 46.0522
#
#
#
# Elastic Compliance Matrix: (Units=1/GPa)
#
#
# Indices 1 2 3 4 5 6 
#
# 1 0.016189 -0.003045 -0.002899 0.002544 0.001801 0.003552
# 2 -0.003045 0.009664 -0.001226 -0.000713 0.001481 0.000664
# 3 -0.002899 -0.001226 0.010236 0.000461 0.004055 -0.004049
# 4 0.002544 -0.000713 0.000461 0.023581 0.002223 -0.000891
# 5 0.001801 0.001481 0.004055 0.002223 0.034662 0.000958
# 6 0.003552 0.000664 -0.004049 -0.000891 0.000958 0.023926
#
#
# Mechanical properties :
#
#
# Convention : Reuss Voigt Hill
#
# Bulk Modulus (GPa) = 45.98130 51.94936 48.96533
# Shear Modulus (GPa) = 35.75296 40.02348 37.88822
#
# Velocity S-wave (km/s) = 3.96580 4.19597 4.08250
# Velocity P-wave (km/s) = 6.41849 6.80640 6.61529
#
# Compressibility (1/GPa) = 0.02174797
#
# Stress axis : x y z
#
# Youngs Moduli (GPa) = 61.77017 103.47680 97.69695
#
# Poissons Ratio (x) = 0.31511 0.28323
# Poissons Ratio (y) = 0.18810 0.11979
# Poissons Ratio (z) = 0.17907 0.12688
#
# Static dielectric constant tensor:
#      x y z
#    x 4.191620 -0.375180 -0.146970 
#    y -0.375180 5.251600 0.373220 
#    z -0.146970 0.373220 4.214900 
# 
# 
# High freq. dielectric constant tensor:
#      x y z
#    x 1.890450 -0.007290 0.002300 
#    y -0.007290 1.914630 0.001730 
#    z 0.002300 0.001730 1.904650 
# 
# From -- ./inp_files/332671.got.cif
#   From: 2010.06.25/outbox.cif.g09.slc.cpg/sg2_167_cif.got.tgz:332671.got - 2010.06.27 13:26:56.
