data_PCOD8000153
_publ_section_title
;
Structure prediction by ZEFSAII (Michael W. Deem and Ramdas Pophale) SiO2 
 PCOD8000153
Probable space group: P 1
;
_chemical_formula_sum "Si O2"
_cell_formula_units_Z 8
_cell_length_a 8.742812
_cell_length_b 7.883851
_cell_length_c 8.718043
_cell_angle_alpha 47.691508
_cell_angle_beta 103.889936
_cell_angle_gamma 72.097445
_cell_volume 326.620754
_symmetry_space_group_name_H-M "P 1"
_symmetry_group_IT_number 1
_symmetry_cell_setting 'triclinic'
loop_
_space_group_symop_operation_xyz
x,y,z
loop_
_atom_site_type_symbol
_atom_site_label
_atom_site_fract_x
_atom_site_fract_y
_atom_site_fract_z
Si Si1 0.763160 0.229840 0.306260
Si Si2 0.209793 0.901681 0.244673
Si Si3 0.301004 0.247497 0.188449
Si Si4 0.769185 0.739792 0.537722
Si Si5 0.137049 0.210256 0.466366
Si Si6 0.339217 0.691461 0.057398
Si Si7 0.913992 0.783417 0.244371
Si Si8 0.629620 0.419913 0.817059
O O1 0.591863 0.441515 0.269216
O O2 0.952827 0.222020 0.360608
O O3 0.857312 0.880950 0.562950
O O4 0.633511 0.378509 0.025859
O O5 0.264051 0.778946 0.160185
O O6 0.041568 0.883169 0.282019
O O7 0.404868 0.692461 0.533203
O O8 0.149254 0.236404 0.044817
O O9 0.301492 0.107145 0.435441
O O10 0.238044 0.569406 0.016479
O O11 0.523118 0.031260 0.292326
O O12 0.796364 0.464383 0.788129
O O13 0.868227 0.639184 0.452673
O O14 0.031224 0.553187 0.274291
O O15 0.261927 0.994188 0.771773
O O16 0.701261 0.112566 0.939248
#
# Coordination Sequence:
#
# PCOD8000153 Si02
#       8
#     1   1   1   1   1   1   1   1
#     4  10  24  44  69 102 136 182 228 281 346 404
#     4  11  24  46  73 100 139 182 228 285 343 403
#     4  10  22  47  68 101 135 181 227 276 347 400
#     4   9  21  42  69  97 129 177 231 270 343 400
#     4  12  26  45  68 104 143 177 233 280 341 414
#     4  11  25  46  68 105 141 178 228 286 343 404
#     4  11  25  43  66 107 134 182 231 275 344 404
#     4  10  23  47  69  98 139 179 228 287 339 407
#
# _framework density 24.493238000000002
#
# number of rings (size 3 to 8) (size 9 to 14) (size 15 to 20)
#    0.000    1.500    1.250    3.000    5.250    3.000 
#   18.000    0.000    0.000    0.000    0.000    0.000 
#    0.000    0.000    0.000    0.000    0.000    0.000 
#
# Total GULP energy -99124.328384 kJ/mol
# GULP energy per Si atom -12390.541048 kJ/mol
# Density = 2.443749 g / cm^3
# Si number density = 24.493238 Si / 1000 Ang^3
#
#
#
# Elastic Constant Matrix: (Units=GPa)
#
#
# Indices 1 2 3 4 5 6 
#
# 1 111.8999 10.4449 -2.3334 8.5644 -21.1380 2.1318
# 2 10.4449 113.7559 5.8186 -6.8753 -18.6743 4.7772
# 3 -2.3334 5.8186 33.9133 1.9523 -22.7676 3.2365
# 4 8.5644 -6.8753 1.9523 29.8861 7.6978 -11.9081
# 5 -21.1380 -18.6743 -22.7676 7.6978 36.7321 1.2820
# 6 2.1318 4.7772 3.2365 -11.9081 1.2820 46.1526
#
#
#
# Elastic Compliance Matrix: (Units=1/GPa)
#
#
# Indices 1 2 3 4 5 6 
#
# 1 0.014665 0.000945 0.017510 -0.013433 0.022801 -0.006103
# 2 0.000945 0.009905 0.004456 -0.001300 0.008682 -0.001958
# 3 0.017510 0.004456 0.080759 -0.034440 0.070236 -0.017770
# 4 -0.013433 -0.001300 -0.034440 0.057907 -0.042547 0.019293
# 5 0.022801 0.008682 0.070236 -0.042547 0.097929 -0.020575
# 6 -0.006103 -0.001958 -0.017770 0.019293 -0.020575 0.028947
#
#
# Mechanical properties :
#
#
# Convention : Reuss Voigt Hill
#
# Bulk Modulus (GPa) = 6.61585 31.93659 19.27622
# Shear Modulus (GPa) = 16.96801 38.93008 27.94905
#
# Velocity S-wave (km/s) = 2.63489 3.99108 3.38167
# Velocity P-wave (km/s) = 3.45888 5.85709 4.80985
#
# Compressibility (1/GPa) = 0.15115214
#
# Stress axis : x y z
#
# Youngs Moduli (GPa) = 68.18937 100.95899 12.38257
#
# Poissons Ratio (x) = -0.09544 -0.21682
# Poissons Ratio (y) = -0.06446 -0.05518
# Poissons Ratio (z) = -1.19401 -0.44990
#
# Static dielectric constant tensor:
#      x y z
#    x 4.817680 0.189020 -0.261600 
#    y 0.189020 4.546640 -0.385290 
#    z -0.261600 -0.385290 4.015700 
# 
# 
# High freq. dielectric constant tensor:
#      x y z
#    x 1.999520 -0.004730 -0.014730 
#    y -0.004730 1.985480 -0.025610 
#    z -0.014730 -0.025610 1.946280 
# 
# From -- ./inp_files/4088.got.cif
#   From: 2010.03.12/outbox.cif.g09.slc.cpg/sg1_3_cif.got.tgz:4088.got - 2010.03.29 11:57:58.
