data_PCOD8000097
_publ_section_title
;
Structure prediction by ZEFSAII (Michael W. Deem and Ramdas Pophale) SiO2 
 PCOD8000097
Probable space group: P 1
;
_chemical_formula_sum "Si O2"
_cell_formula_units_Z 8
_cell_length_a 8.414123
_cell_length_b 6.891184
_cell_length_c 8.081314
_cell_angle_alpha 99.320014
_cell_angle_beta 71.801219
_cell_angle_gamma 58.550884
_cell_volume 347.900555
_symmetry_space_group_name_H-M "P 1"
_symmetry_group_IT_number 1
_symmetry_cell_setting 'triclinic'
loop_
_space_group_symop_operation_xyz
x,y,z
loop_
_atom_site_type_symbol
_atom_site_label
_atom_site_fract_x
_atom_site_fract_y
_atom_site_fract_z
Si Si1 0.323370 0.427580 0.576520
Si Si2 0.596993 0.906814 0.546567
Si Si3 0.834947 0.706463 0.106404
Si Si4 0.969078 0.880109 0.562906
Si Si5 0.362196 0.776703 0.816685
Si Si6 0.220003 0.653417 0.127820
Si Si7 0.931975 0.225411 0.887888
Si Si8 0.573648 0.232019 0.147090
O O1 0.373507 0.547880 0.716140
O O2 0.489682 0.352283 0.369142
O O3 0.086006 0.635252 0.611018
O O4 0.376082 0.170631 0.595852
O O5 0.724761 0.729262 0.321242
O O6 0.740302 0.963355 0.601317
O O7 0.553116 0.765799 0.674728
O O8 0.049356 0.676856 0.064085
O O9 0.675533 0.943836 0.076626
O O10 0.890732 0.487614 0.936280
O O11 0.106772 0.826098 0.348665
O O12 0.937675 0.115049 0.691962
O O13 0.351976 0.740456 0.012852
O O14 0.151357 0.042144 0.881314
O O15 0.386748 0.366435 0.090428
O O16 0.747977 0.268696 0.063207
#
# Coordination Sequence:
#
# PCOD8000097 Si02
#       8
#     1   1   1   1   1   1   1   1
#     4   9  21  42  68  90 134 170 213 267 320 381
#     4  10  22  43  70  94 128 173 217 262 324 382
#     4  10  22  45  69  95 128 173 217 265 321 385
#     4   9  22  44  67  95 130 172 216 266 320 380
#     4  11  23  40  68  98 130 171 214 266 326 381
#     4  10  22  45  69  92 133 171 216 268 319 383
#     4  11  23  40  68  96 134 166 216 267 323 382
#     4  10  21  43  67  96 129 172 213 269 321 380
#
# _framework density 22.995073999999999
#
# number of rings (size 3 to 8) (size 9 to 14) (size 15 to 20)
#    0.000    2.000    1.250    0.750    3.500    0.000 
#    6.750    0.000   11.000    0.000    0.000    0.000 
#    0.000    0.000    0.000    0.000    0.000    0.000 
#
# Total GULP energy -99145.729618 kJ/mol
# GULP energy per Si atom -12393.216202 kJ/mol
# Density = 2.294274 g / cm^3
# Si number density = 22.995074 Si / 1000 Ang^3
#
#
#
# Elastic Constant Matrix: (Units=GPa)
#
#
# Indices 1 2 3 4 5 6 
#
# 1 66.4739 45.0429 44.1358 -2.1681 -0.2684 -11.1840
# 2 45.0429 107.6123 70.9685 1.8517 -0.6037 2.9280
# 3 44.1358 70.9685 101.6869 -4.5820 -3.5263 3.8906
# 4 -2.1681 1.8517 -4.5820 47.2875 7.2659 -3.0234
# 5 -0.2684 -0.6037 -3.5263 7.2659 32.3492 0.5678
# 6 -11.1840 2.9280 3.8906 -3.0234 0.5678 25.9320
#
#
#
# Elastic Compliance Matrix: (Units=1/GPa)
#
#
# Indices 1 2 3 4 5 6 
#
# 1 0.026962 -0.006779 -0.007461 0.001870 -0.001378 0.013761
# 2 -0.006779 0.019098 -0.010352 -0.002265 -0.000253 -0.003785
# 3 -0.007461 -0.010352 0.020616 0.001472 0.001749 -0.005009
# 4 0.001870 -0.002265 0.001472 0.022457 -0.004973 0.003569
# 5 -0.001378 -0.000253 0.001749 -0.004973 0.032241 -0.002114
# 6 0.013761 -0.003785 -0.005009 0.003569 -0.002114 0.046139
#
#
# Mechanical properties :
#
#
# Convention : Reuss Voigt Hill
#
# Bulk Modulus (GPa) = 57.17351 66.22973 61.70162
# Shear Modulus (GPa) = 22.46923 28.82215 25.64569
#
# Velocity S-wave (km/s) = 3.12930 3.54419 3.34319
# Velocity P-wave (km/s) = 6.16231 6.75371 6.46478
#
# Compressibility (1/GPa) = 0.01749062
#
# Stress axis : x y z
#
# Youngs Moduli (GPa) = 37.08985 52.36234 48.50590
#
# Poissons Ratio (x) = 0.35496 0.36191
# Poissons Ratio (y) = 0.25143 0.50214
# Poissons Ratio (z) = 0.27673 0.54206
#
# Static dielectric constant tensor:
#      x y z
#    x 3.975990 -0.302180 -0.247490 
#    y -0.302180 4.237990 -0.035500 
#    z -0.247490 -0.035500 4.425970 
# 
# 
# High freq. dielectric constant tensor:
#      x y z
#    x 1.888660 -0.018840 -0.016010 
#    y -0.018840 1.903260 0.000890 
#    z -0.016010 0.000890 1.929470 
# 
# From -- ./inp_files/3455.got.cif
#   From: 2010.03.12/outbox.cif.g09.slc.cpg/sg1_2_cif.got.tgz:3455.got - 2010.03.29 11:57:58.
