data_PCOD8000017
_publ_section_title
;
Structure prediction by ZEFSAII (Michael W. Deem and Ramdas Pophale) SiO2 
 PCOD8000017
Probable space group: P 1
;
_chemical_formula_sum "Si O2"
_cell_formula_units_Z 8
_cell_length_a 7.632002
_cell_length_b 10.128566
_cell_length_c 10.171307
_cell_angle_alpha 136.153465
_cell_angle_beta 67.970607
_cell_angle_gamma 89.950452
_cell_volume 457.596409
_symmetry_space_group_name_H-M "P 1"
_symmetry_group_IT_number 1
_symmetry_cell_setting 'triclinic'
loop_
_space_group_symop_operation_xyz
x,y,z
loop_
_atom_site_type_symbol
_atom_site_label
_atom_site_fract_x
_atom_site_fract_y
_atom_site_fract_z
Si Si1 0.930850 0.665610 0.637010
Si Si2 0.125683 0.237886 0.856996
Si Si3 0.567680 0.933942 0.592860
Si Si4 0.077739 0.819228 0.951182
Si Si5 0.965041 0.702227 0.173218
Si Si6 0.539542 0.673515 0.645492
Si Si7 0.959093 0.924831 0.582818
Si Si8 0.932675 0.289908 0.234855
O O1 0.678456 0.755861 0.757604
O O2 0.992006 0.694002 0.787397
O O3 0.030387 0.417427 0.390212
O O4 0.019124 0.789622 0.602990
O O5 0.040076 0.104231 0.695235
O O6 0.374489 0.121448 0.715849
O O7 0.017636 0.281912 0.059754
O O8 0.074490 0.452030 0.947299
O O9 0.716690 0.780900 0.327401
O O10 0.484418 0.801096 0.615440
O O11 0.707372 0.025604 0.703356
O O12 0.328167 0.707343 0.802027
O O13 0.995376 0.810919 0.112272
O O14 0.990842 0.061805 0.111279
O O15 0.067587 0.772148 0.318330
O O16 0.680227 0.424714 0.397839
#
# Coordination Sequence:
#
# PCOD8000017 Si02
#       8
#     1   1   1   1   1   1   1   1
#     4   9  19  39  59  88 113 143 208 228 265 374
#     4  12  18  40  64  78 119 162 179 241 294 321
#     4   9  19  39  59  88 113 145 203 233 267 364
#     4  12  22  40  60  83 125 154 172 257 299 301
#     4  10  24  40  54  93 121 138 204 241 271 353
#     4   9  19  39  59  88 113 143 208 228 265 374
#     4   9  19  39  59  88 113 145 203 233 267 364
#     4  10  20  36  62  84 111 150 197 227 278 349
#
# _framework density 17.482655000000001
#
# number of rings (size 3 to 8) (size 9 to 14) (size 15 to 20)
#    1.500    0.500    5.000    0.000    0.000    2.000 
#    9.000    0.000    0.000    0.000    0.000    0.000 
#    0.000    0.000    0.000    0.000    0.000    0.000 
#
# Total GULP energy -99131.304973 kJ/mol
# GULP energy per Si atom -12391.413122 kJ/mol
# Density = 1.744286 g / cm^3
# Si number density = 17.482655 Si / 1000 Ang^3
#
#
#
# Elastic Constant Matrix: (Units=GPa)
#
#
# Indices 1 2 3 4 5 6 
#
# 1 55.2904 16.1975 13.2395 -5.6396 15.5142 6.0782
# 2 16.1975 71.9992 20.8692 -5.5371 1.7449 -1.8121
# 3 13.2395 20.8692 61.1218 6.6972 15.4425 5.0094
# 4 -5.6396 -5.5371 6.6972 33.2859 1.8946 2.5446
# 5 15.5142 1.7449 15.4425 1.8946 25.2270 3.3867
# 6 6.0782 -1.8121 5.0094 2.5446 3.3867 14.2119
#
#
#
# Elastic Compliance Matrix: (Units=1/GPa)
#
#
# Indices 1 2 3 4 5 6 
#
# 1 0.025057 -0.005187 0.000159 0.004845 -0.014319 -0.008889
# 2 -0.005187 0.017233 -0.006803 0.002668 0.005280 0.005078
# 3 0.000159 -0.006803 0.022732 -0.004573 -0.012508 -0.005148
# 4 0.004845 0.002668 -0.004573 0.032766 -0.002089 -0.005489
# 5 -0.014319 0.005280 -0.012508 -0.002089 0.056135 -0.001797
# 6 -0.008889 0.005078 -0.005148 -0.005489 -0.001797 0.078039
#
#
# Mechanical properties :
#
#
# Convention : Reuss Voigt Hill
#
# Bulk Modulus (GPa) = 24.17819 32.11375 28.14597
# Shear Modulus (GPa) = 18.55901 23.75198 21.15549
#
# Velocity S-wave (km/s) = 3.26170 3.68992 3.48240
# Velocity P-wave (km/s) = 5.29573 6.04672 5.68364
#
# Compressibility (1/GPa) = 0.04135960
#
# Stress axis : x y z
#
# Youngs Moduli (GPa) = 39.90904 58.02887 43.99038
#
# Poissons Ratio (x) = 0.30100 -0.00698
# Poissons Ratio (y) = 0.20701 0.29926
# Poissons Ratio (z) = -0.00634 0.39476
#
# Static dielectric constant tensor:
#      x y z
#    x 3.195520 0.061950 0.030440 
#    y 0.061950 3.052320 0.069290 
#    z 0.030440 0.069290 3.197270 
# 
# 
# High freq. dielectric constant tensor:
#      x y z
#    x 1.661980 0.000010 -0.000250 
#    y 0.000010 1.663350 0.004510 
#    z -0.000250 0.004510 1.670290 
# 
# From -- ./inp_files/3831.got.cif
#   From: 2010.03.12/outbox.cif.g09.slc.cpg/sg1_2_cif.got.tgz:3831.got - 2010.03.29 11:57:58.
