data_PCOD8000791
_publ_section_title
;
Structure prediction by ZEFSAII (Michael W. Deem and Ramdas Pophale) SiO2 
 PCOD8000791
Probable space group: P -1
;
_chemical_formula_sum "Si O2"
_cell_formula_units_Z 16
_cell_length_a 9.176541
_cell_length_b 9.117038
_cell_length_c 14.916493
_cell_angle_alpha 89.755475
_cell_angle_beta 106.804367
_cell_angle_gamma 132.318025
_cell_volume 850.812250
_symmetry_space_group_name_H-M "P -1"
_symmetry_group_IT_number 2
_symmetry_cell_setting 'triclinic'
loop_
_space_group_symop_operation_xyz
x,y,z
-x,-y,-z
loop_
_atom_site_type_symbol
_atom_site_label
_atom_site_fract_x
_atom_site_fract_y
_atom_site_fract_z
Si Si1 0.590818 0.067331 0.271247
Si Si2 0.031144 0.561546 0.758161
Si Si3 0.146068 0.876562 0.248329
Si Si4 0.994828 0.034016 0.103448
Si Si5 0.301187 0.144917 0.622552
Si Si6 0.705857 0.584835 0.721140
Si Si7 0.835766 0.898071 0.599670
Si Si8 0.668349 0.044995 0.095316
O O1 0.801633 0.313992 0.296609
O O2 0.560695 0.951629 0.174530
O O3 0.385343 0.028899 0.251223
O O4 0.618640 0.968872 0.356121
O O5 0.143249 0.706413 0.865741
O O6 0.972055 0.357274 0.771221
O O7 0.823108 0.519524 0.703084
O O8 0.157120 0.938252 0.352640
O O9 0.008052 0.892727 0.162111
O O10 0.765677 0.955870 0.080788
O O11 0.186491 0.271913 0.170686
O O12 0.000000 0.000000 0.000000
O O13 0.462962 0.370176 0.697502
O O14 0.284191 0.172452 0.515198
O O15 0.076084 0.001445 0.633064
O O16 0.704505 0.702259 0.641318
O O17 0.500000 0.000000 0.000000
#
# Coordination Sequence:
#
# PCOD8000791 Si02
#       8
#     2   2   2   2   2   2   2   2
#     4  10  20  36  62  80 120 153 192 239 289 346
#     4   9  20  37  59  83 116 153 195 233 283 356
#     4  11  21  39  59  88 118 152 188 249 292 330
#     4  10  21  38  60  91 120 146 196 251 281 338
#     4  11  20  39  63  85 111 165 195 231 304 348
#     4  10  19  40  61  83 116 159 195 235 292 354
#     4  10  23  37  60  88 121 144 201 252 280 348
#     4   9  19  40  60  80 117 158 190 233 287 351
#
# _framework density 18.805561000000001
#
# number of rings (size 3 to 8) (size 9 to 14) (size 15 to 20)
#    0.750    1.250    2.500    1.875    0.000    2.500 
#    2.250    3.125    0.000    0.000    0.000    0.000 
#    0.000    0.000    0.000    0.000    0.000    0.000 
#
# Total GULP energy -198301.038501 kJ/mol
# GULP energy per Si atom -12393.814906 kJ/mol
# Density = 1.876276 g / cm^3
# Si number density = 18.805561 Si / 1000 Ang^3
#
#
#
# Elastic Constant Matrix: (Units=GPa)
#
#
# Indices 1 2 3 4 5 6 
#
# 1 107.4840 21.6101 35.4090 -2.3611 4.5033 -15.1369
# 2 21.6101 94.5463 21.3914 6.0470 8.4127 -14.4960
# 3 35.4090 21.3914 79.9824 0.4388 2.3139 -2.8356
# 4 -2.3611 6.0470 0.4388 16.8728 -1.0561 -0.1331
# 5 4.5033 8.4127 2.3139 -1.0561 33.6364 -0.9640
# 6 -15.1369 -14.4960 -2.8356 -0.1331 -0.9640 30.5536
#
#
#
# Elastic Compliance Matrix: (Units=1/GPa)
#
#
# Indices 1 2 3 4 5 6 
#
# 1 0.011855 -0.000920 -0.004814 0.002102 -0.000817 0.004974
# 2 -0.000920 0.012765 -0.002712 -0.004772 -0.002883 0.005237
# 3 -0.004814 -0.002712 0.015274 -0.000104 0.000204 -0.002248
# 4 0.002102 -0.004772 -0.000104 0.061444 0.002823 -0.000876
# 5 -0.000817 -0.002883 0.000204 0.002823 0.030613 -0.000776
# 6 0.004974 0.005237 -0.002248 -0.000876 -0.000776 0.037441
#
#
# Mechanical properties :
#
#
# Convention : Reuss Voigt Hill
#
# Bulk Modulus (GPa) = 43.47067 48.75932 46.11500
# Shear Modulus (GPa) = 25.77962 29.78603 27.78283
#
# Velocity S-wave (km/s) = 3.70652 3.98414 3.84783
# Velocity P-wave (km/s) = 6.44079 6.86650 6.65705
#
# Compressibility (1/GPa) = 0.02300401
#
# Stress axis : x y z
#
# Youngs Moduli (GPa) = 84.34968 78.33726 65.46987
#
# Poissons Ratio (x) = 0.07204 0.31518
# Poissons Ratio (y) = 0.07757 0.17753
# Poissons Ratio (z) = 0.40607 0.21243
#
# Static dielectric constant tensor:
#      x y z
#    x 3.532410 0.020460 0.015280 
#    y 0.020460 3.291560 0.030120 
#    z 0.015280 0.030120 3.343350 
# 
# 
# High freq. dielectric constant tensor:
#      x y z
#    x 1.740040 -0.003240 0.009640 
#    y -0.003240 1.721320 -0.003600 
#    z 0.009640 -0.003600 1.717440 
# 
# From -- ./inp_files/493203.got.cif
#   From: 2010.06.25/outbox.cif.g09.slc.cpg/sg2_247_cif.got.tgz:493203.got - 2010.06.27 13:26:56.
