data_PCOD8000421
_publ_section_title
;
Structure prediction by ZEFSAII (Michael W. Deem and Ramdas Pophale) SiO2 
 PCOD8000421
Probable space group: P -1
;
_chemical_formula_sum "Si O2"
_cell_formula_units_Z 14
_cell_length_a 15.231558
_cell_length_b 7.318328
_cell_length_c 11.774527
_cell_angle_alpha 81.978639
_cell_angle_beta 26.843326
_cell_angle_gamma 91.913440
_cell_volume 549.055800
_symmetry_space_group_name_H-M "P -1"
_symmetry_group_IT_number 2
_symmetry_cell_setting 'triclinic'
loop_
_space_group_symop_operation_xyz
x,y,z
-x,-y,-z
loop_
_atom_site_type_symbol
_atom_site_label
_atom_site_fract_x
_atom_site_fract_y
_atom_site_fract_z
Si Si1 0.818968 0.954724 0.572560
Si Si2 0.848079 0.483317 0.855688
Si Si3 0.898745 0.235725 0.646271
Si Si4 0.577812 0.036751 0.655041
Si Si5 0.248474 0.195373 0.961491
Si Si6 0.125120 0.511497 0.741019
Si Si7 0.769797 0.840723 0.275633
O O1 0.780823 0.029769 0.735143
O O2 0.615939 0.918110 0.731902
O O3 0.892656 0.769889 0.527974
O O4 0.001077 0.113137 0.273848
O O5 0.745175 0.284665 0.913628
O O6 0.033162 0.604860 0.546306
O O7 0.953695 0.432854 0.848349
O O8 0.684382 0.588411 0.072747
O O9 0.345325 0.046153 0.921527
O O10 0.719182 0.267826 0.476870
O O11 0.614082 0.931976 0.507622
O O12 0.305885 0.216872 0.760948
O O13 0.246160 0.357997 0.622356
O O14 0.000000 0.500000 0.000000
O O15 0.000000 0.000000 0.000000
#
# Coordination Sequence:
#
# PCOD8000421 Si02
#       7
#     2   2   2   2   2   2   2
#     4  10  19  42  62  89 121 162 210 250 314 360
#     4  10  19  39  61  93 122 157 214 250 306 368
#     4   9  19  35  70  86 117 172 201 255 308 362
#     4  12  24  41  63  91 132 160 208 260 304 373
#     4  11  23  40  60  93 127 161 206 257 307 371
#     4  12  21  40  68  89 123 170 200 256 314 364
#     4  12  22  41  64  92 123 169 207 250 314 369
#
# _framework density 25.498318000000001
#
# number of rings (size 3 to 8) (size 9 to 14) (size 15 to 20)
#    0.000    1.143    7.143    1.286    0.000    0.571 
#    2.571    7.143    0.000    0.000    0.000    0.000 
#    0.000    0.000    0.000    0.000    0.000    0.000 
#
# Total GULP energy -173492.472125 kJ/mol
# GULP energy per Si atom -12392.319437 kJ/mol
# Density = 2.544028 g / cm^3
# Si number density = 25.498318 Si / 1000 Ang^3
#
#
#
# Elastic Constant Matrix: (Units=GPa)
#
#
# Indices 1 2 3 4 5 6 
#
# 1 168.1340 54.6695 52.5922 44.6114 19.3077 -8.9646
# 2 54.6695 117.7304 34.0682 51.6690 8.2468 0.7054
# 3 52.5922 34.0682 88.1639 47.9335 11.7824 11.3527
# 4 44.6114 51.6690 47.9335 53.1856 2.7665 11.2859
# 5 19.3077 8.2468 11.7824 2.7665 39.8979 14.5340
# 6 -8.9646 0.7054 11.3527 11.2859 14.5340 47.3883
#
#
#
# Elastic Compliance Matrix: (Units=1/GPa)
#
#
# Indices 1 2 3 4 5 6 
#
# 1 0.009332 -0.000633 -0.001778 -0.006475 -0.005375 0.005391
# 2 -0.000633 0.017236 0.005933 -0.022380 -0.005340 0.005170
# 3 -0.001778 0.005933 0.025731 -0.027545 -0.006804 0.002058
# 4 -0.006475 -0.022380 -0.027545 0.073527 0.016994 -0.017016
# 5 -0.005375 -0.005340 -0.006804 0.016994 0.034699 -0.013997
# 6 0.005391 0.005170 0.002058 -0.017016 -0.013997 0.029897
#
#
# Mechanical properties :
#
#
# Convention : Reuss Voigt Hill
#
# Bulk Modulus (GPa) = 16.85125 72.96536 44.90831
# Shear Modulus (GPa) = 24.61118 43.60759 34.10939
#
# Velocity S-wave (km/s) = 3.11015 4.13996 3.66144
# Velocity P-wave (km/s) = 4.41820 7.17846 5.96032
#
# Compressibility (1/GPa) = 0.05934279
#
# Stress axis : x y z
#
# Youngs Moduli (GPa) = 107.15375 58.01701 38.86405
#
# Poissons Ratio (x) = 0.03674 0.06910
# Poissons Ratio (y) = 0.06786 -0.23058
# Poissons Ratio (z) = 0.19052 -0.34421
#
# Static dielectric constant tensor:
#      x y z
#    x 5.018470 0.245090 0.295160 
#    y 0.245090 5.561470 0.474690 
#    z 0.295160 0.474690 4.389980 
# 
# 
# High freq. dielectric constant tensor:
#      x y z
#    x 2.023000 -0.011060 0.027530 
#    y -0.011060 2.038460 0.027030 
#    z 0.027530 0.027030 2.000040 
# 
# From -- ./inp_files/444538.got.cif
#   From: 2010.06.25/outbox.cif.g09.slc.cpg/sg2_223_cif.got.tgz:444538.got - 2010.06.27 13:26:56.
