data_PCOD8000227
_publ_section_title
;
Structure prediction by ZEFSAII (Michael W. Deem and Ramdas Pophale) SiO2 
 PCOD8000227
Probable space group: P 1
;
_chemical_formula_sum "Si O2"
_cell_formula_units_Z 8
_cell_length_a 6.532848
_cell_length_b 11.206458
_cell_length_c 11.861110
_cell_angle_alpha 37.445165
_cell_angle_beta 135.360608
_cell_angle_gamma 116.623754
_cell_volume 356.835744
_symmetry_space_group_name_H-M "P 1"
_symmetry_group_IT_number 1
_symmetry_cell_setting 'triclinic'
loop_
_space_group_symop_operation_xyz
x,y,z
loop_
_atom_site_type_symbol
_atom_site_label
_atom_site_fract_x
_atom_site_fract_y
_atom_site_fract_z
Si Si1 0.758410 0.376470 0.040750
Si Si2 0.338176 0.891650 0.787268
Si Si3 0.886625 0.656518 0.702912
Si Si4 0.382771 0.081213 0.442333
Si Si5 0.274431 0.907497 0.296186
Si Si6 0.880040 0.283084 0.406629
Si Si7 0.102287 0.348940 0.821455
Si Si8 0.874395 0.600099 0.341360
O O1 0.777418 0.405590 0.159738
O O2 0.031155 0.189742 0.246348
O O3 0.781928 0.581007 0.836589
O O4 0.437427 0.335561 0.916388
O O5 0.126629 0.778869 0.725469
O O6 0.517128 0.961721 0.700627
O O7 0.548786 0.738684 0.072236
O O8 0.146578 0.078169 0.647244
O O9 0.581879 0.812856 0.415464
O O10 0.031565 0.464918 0.824769
O O11 0.582948 0.237044 0.379315
O O12 0.385654 0.937517 0.443965
O O13 0.083198 0.745467 0.342046
O O14 0.081078 0.118712 0.005723
O O15 0.008567 0.433775 0.421960
O O16 0.853732 0.468236 0.544152
#
# Coordination Sequence:
#
# PCOD8000227 Si02
#       8
#     1   1   1   1   1   1   1   1
#     4  11  21  45  78 102 143 186 245 302 347 421
#     4  11  26  44  75 107 144 194 240 294 364 428
#     4  12  24  47  76 107 137 198 250 294 351 431
#     4  11  22  47  79 101 141 189 250 297 346 426
#     4  12  25  47  75 106 139 195 243 297 355 421
#     4  11  25  47  70 109 147 187 242 302 354 429
#     4  12  26  48  70 107 154 184 243 298 358 433
#     4  12  29  45  69 111 153 189 229 298 375 427
#
# _framework density 22.419280000000001
#
# number of rings (size 3 to 8) (size 9 to 14) (size 15 to 20)
#    0.000    0.500    5.000    3.000    3.500    3.000 
#    4.500    0.000    0.000    0.000    0.000    0.000 
#    0.000    0.000    0.000    0.000    0.000    0.000 
#
# Total GULP energy -99202.075701 kJ/mol
# GULP energy per Si atom -12400.259463 kJ/mol
# Density = 2.236825 g / cm^3
# Si number density = 22.419280 Si / 1000 Ang^3
#
#
#
# Elastic Constant Matrix: (Units=GPa)
#
#
# Indices 1 2 3 4 5 6 
#
# 1 137.5176 55.4043 30.5799 105.8990 13.3723 -11.2562
# 2 55.4043 143.9584 21.8733 94.0160 19.1163 -12.8031
# 3 30.5799 21.8733 159.4086 -44.3176 -22.4814 -6.5380
# 4 105.8990 94.0160 -44.3176 405.1666 81.3707 -26.7570
# 5 13.3723 19.1163 -22.4814 81.3707 58.2769 -6.0211
# 6 -11.2562 -12.8031 -6.5380 -26.7570 -6.0211 19.4794
#
#
#
# Elastic Compliance Matrix: (Units=1/GPa)
#
#
# Indices 1 2 3 4 5 6 
#
# 1 0.010694 -0.002053 -0.002341 -0.002791 0.001276 0.000605
# 2 -0.002053 0.009164 -0.001284 -0.001420 -0.000820 0.002202
# 3 -0.002341 -0.001284 0.007757 0.001541 0.002128 0.003182
# 4 -0.002791 -0.001420 0.001541 0.004861 -0.004759 0.003177
# 5 0.001276 -0.000820 0.002128 -0.004759 0.024812 0.002046
# 6 0.000605 0.002202 0.003182 0.003177 0.002046 0.059198
#
#
# Mechanical properties :
#
#
# Convention : Reuss Voigt Hill
#
# Bulk Modulus (GPa) = 61.49981 72.95552 67.22767
# Shear Modulus (GPa) = 37.51997 118.78639 78.15318
#
# Velocity S-wave (km/s) = 4.09535 7.28691 5.91062
# Velocity P-wave (km/s) = 7.06072 10.16911 8.75399
#
# Compressibility (1/GPa) = 0.01626021
#
# Stress axis : x y z
#
# Youngs Moduli (GPa) = 93.50703 109.12563 128.90853
#
# Poissons Ratio (x) = 0.22403 0.30178
# Poissons Ratio (y) = 0.19196 0.16548
# Poissons Ratio (z) = 0.21890 0.14009
#
# Static dielectric constant tensor:
#      x y z
#    x 4.026240 -0.204240 -1.379030 
#    y -0.204240 3.836950 -0.866200 
#    z -1.379030 -0.866200 -4.238130 
# 
# 
# High freq. dielectric constant tensor:
#      x y z
#    x 1.883150 -0.003610 -0.003900 
#    y -0.003610 1.876220 -0.016830 
#    z -0.003900 -0.016830 1.901170 
# 
# From -- ./inp_files/2426.got.cif
#   From: 2010.03.12/outbox.cif.g09.slc.cpg/sg1_2_cif.got.tgz:2426.got - 2010.03.29 11:57:58.
