data_PCOD8000567
_publ_section_title
;
Structure prediction by ZEFSAII (Michael W. Deem and Ramdas Pophale) SiO2 
 PCOD8000567
Probable space group: P -1
;
_chemical_formula_sum "Si O2"
_cell_formula_units_Z 16
_cell_length_a 8.311038
_cell_length_b 20.886833
_cell_length_c 10.751733
_cell_angle_alpha 134.929449
_cell_angle_beta 104.710998
_cell_angle_gamma 112.262671
_cell_volume 740.293402
_symmetry_space_group_name_H-M "P -1"
_symmetry_group_IT_number 2
_symmetry_cell_setting 'triclinic'
loop_
_space_group_symop_operation_xyz
x,y,z
-x,-y,-z
loop_
_atom_site_type_symbol
_atom_site_label
_atom_site_fract_x
_atom_site_fract_y
_atom_site_fract_z
Si Si1 0.820976 0.161083 0.624412
Si Si2 0.041388 0.262399 0.280597
Si Si3 0.607050 0.910638 0.399474
Si Si4 0.678741 0.503424 0.717975
Si Si5 0.475174 0.227464 0.373648
Si Si6 0.067896 0.983936 0.164780
Si Si7 0.237187 0.831964 0.659892
Si Si8 0.085811 0.630889 0.759071
O O1 0.566731 0.108908 0.558911
O O2 0.811679 0.147240 0.455744
O O3 0.793384 0.051281 0.532265
O O4 0.130964 0.340319 0.957580
O O5 0.370556 0.411793 0.507771
O O6 0.864730 0.266915 0.190542
O O7 0.028336 0.266924 0.434468
O O8 0.894025 0.104181 0.989390
O O9 0.840021 0.958963 0.594716
O O10 0.379098 0.747534 0.056314
O O11 0.650700 0.398705 0.648309
O O12 0.818779 0.542844 0.668274
O O13 0.705178 0.249546 0.446778
O O14 0.276875 0.137635 0.333330
O O15 0.263126 0.131908 0.079710
O O16 0.500000 0.000000 0.000000
O O17 0.000000 0.500000 0.500000
#
# Coordination Sequence:
#
# PCOD8000567 Si02
#       8
#     2   2   2   2   2   2   2   2
#     4  10  21  37  62  92 121 163 208 254 309 370
#     4  11  22  39  64  88 125 169 206 256 306 372
#     4  10  19  39  65  90 122 158 209 257 306 375
#     4  10  23  40  61  91 122 167 206 256 311 366
#     4  10  21  36  61  93 124 157 207 254 302 370
#     4  10  19  39  64  92 118 167 208 251 309 361
#     4  12  21  37  61  92 123 163 212 254 308 362
#     4  11  23  41  64  94 125 160 206 258 314 368
#
# _framework density 21.613052
#
# number of rings (size 3 to 8) (size 9 to 14) (size 15 to 20)
#    0.000    1.500    2.500    4.125    0.000    2.000 
#    2.250    1.250    0.000    9.750    0.000    0.000 
#    0.000    0.000    0.000    0.000    0.000    0.000 
#
# Total GULP energy -198399.654759 kJ/mol
# GULP energy per Si atom -12399.978422 kJ/mol
# Density = 2.156386 g / cm^3
# Si number density = 21.613052 Si / 1000 Ang^3
#
#
#
# Elastic Constant Matrix: (Units=GPa)
#
#
# Indices 1 2 3 4 5 6 
#
# 1 33.1074 19.3085 21.0761 -5.1948 2.7567 -2.1799
# 2 19.3085 134.1361 69.7928 -10.9666 1.3315 -3.8357
# 3 21.0761 69.7928 138.6444 -11.3535 1.6549 4.0393
# 4 -5.1948 -10.9666 -11.3535 44.7257 -3.8554 0.6352
# 5 2.7567 1.3315 1.6549 -3.8554 28.1406 -0.8342
# 6 -2.1799 -3.8357 4.0393 0.6352 -0.8342 33.5662
#
#
#
# Elastic Compliance Matrix: (Units=1/GPa)
#
#
# Indices 1 2 3 4 5 6 
#
# 1 0.034948 -0.002807 -0.003758 0.002151 -0.002707 0.002293
# 2 -0.002807 0.010494 -0.004821 0.001022 0.000249 0.001584
# 3 -0.003758 -0.004821 0.010356 0.001045 0.000069 -0.002059
# 4 0.002151 0.001022 0.001045 0.023376 0.002875 -0.000240
# 5 -0.002707 0.000249 0.000069 0.002875 0.036199 0.000689
# 6 0.002293 0.001584 -0.002059 -0.000240 0.000689 0.030391
#
#
# Mechanical properties :
#
#
# Convention : Reuss Voigt Hill
#
# Bulk Modulus (GPa) = 30.27994 58.47142 44.37568
# Shear Modulus (GPa) = 27.84809 34.33387 31.09098
#
# Velocity S-wave (km/s) = 3.59344 3.99001 3.79691
# Velocity P-wave (km/s) = 5.59084 6.95266 6.30860
#
# Compressibility (1/GPa) = 0.03302517
#
# Stress axis : x y z
#
# Youngs Moduli (GPa) = 28.61397 95.29047 96.56416
#
# Poissons Ratio (x) = 0.26749 0.36288
# Poissons Ratio (y) = 0.08032 0.46558
# Poissons Ratio (z) = 0.10753 0.45944
#
# Static dielectric constant tensor:
#      x y z
#    x 3.761390 -0.017870 0.106560 
#    y -0.017870 4.172270 0.067580 
#    z 0.106560 0.067580 3.755300 
# 
# 
# High freq. dielectric constant tensor:
#      x y z
#    x 1.821060 -0.004750 0.006390 
#    y -0.004750 1.865420 0.004130 
#    z 0.006390 0.004130 1.843660 
# 
# From -- ./inp_files/224093.got.cif
#   From: 2010.06.25/outbox.cif.g09.slc.cpg/sg2_113_cif.got.tgz:224093.got - 2010.06.27 13:26:56.
