data_PCOD8000267
_publ_section_title
;
Structure prediction by ZEFSAII (Michael W. Deem and Ramdas Pophale) SiO2 
 PCOD8000267
Probable space group: P 1
;
_chemical_formula_sum "Si O2"
_cell_formula_units_Z 6
_cell_length_a 4.775835
_cell_length_b 8.919811
_cell_length_c 7.278917
_cell_angle_alpha 133.110307
_cell_angle_beta 109.151799
_cell_angle_gamma 74.471277
_cell_volume 213.414476
_symmetry_space_group_name_H-M "P 1"
_symmetry_group_IT_number 1
_symmetry_cell_setting 'triclinic'
loop_
_space_group_symop_operation_xyz
x,y,z
loop_
_atom_site_type_symbol
_atom_site_label
_atom_site_fract_x
_atom_site_fract_y
_atom_site_fract_z
Si Si1 0.311310 0.064820 0.031680
Si Si2 0.901268 0.272428 0.388982
Si Si3 0.032948 0.042704 0.576830
Si Si4 0.147636 0.574900 0.214418
Si Si5 0.587912 0.367293 0.857119
Si Si6 0.301988 0.597014 0.669266
O O1 0.563153 0.209941 0.279794
O O2 0.008950 0.164031 0.133380
O O3 0.284181 0.072234 0.811051
O O4 0.338713 0.833782 0.923577
O O5 0.103407 0.176709 0.522943
O O6 0.979467 0.514664 0.593763
O O7 0.052127 0.805932 0.322517
O O8 0.703583 0.125061 0.652345
O O9 0.296504 0.429771 0.966311
O O10 0.348534 0.567474 0.435042
O O11 0.842783 0.475708 0.112721
O O12 0.560351 0.463004 0.723148
#
# Coordination Sequence:
#
# PCOD8000267 Si02
#       6
#     1   1   1   1   1   1
#     4  11  28  49  73 108 151 195 246 307 371 442
#     4  12  26  46  75 110 146 194 249 305 369 442
#     4  11  27  48  76 109 149 196 248 306 372 442
#     4  11  28  49  73 108 151 195 246 307 371 442
#     4  12  26  46  75 110 146 194 249 305 369 442
#     4  11  27  48  76 109 149 196 248 306 372 442
#
# _framework density 28.114305999999999
#
# number of rings (size 3 to 8) (size 9 to 14) (size 15 to 20)
#    0.000    0.667    0.000    5.000    0.000   24.000 
#    0.000    0.000    0.000    0.000    0.000    0.000 
#    0.000    0.000    0.000    0.000    0.000    0.000 
#
# Total GULP energy -74352.343628 kJ/mol
# GULP energy per Si atom -12392.057271 kJ/mol
# Density = 2.805032 g / cm^3
# Si number density = 28.114306 Si / 1000 Ang^3
#
#
#
# Elastic Constant Matrix: (Units=GPa)
#
#
# Indices 1 2 3 4 5 6 
#
# 1 84.1620 36.3222 32.0514 21.3812 -1.8600 -0.7995
# 2 36.3222 180.7179 47.4982 36.3873 -1.0477 -3.7539
# 3 32.0514 47.4982 115.6437 22.4430 -1.5966 -3.9987
# 4 21.3812 36.3873 22.4430 67.8628 -0.7379 -3.8846
# 5 -1.8600 -1.0477 -1.5966 -0.7379 34.3554 -6.5849
# 6 -0.7995 -3.7539 -3.9987 -3.8846 -6.5849 33.0547
#
#
#
# Elastic Compliance Matrix: (Units=1/GPa)
#
#
# Indices 1 2 3 4 5 6 
#
# 1 0.014342 -0.001600 -0.002790 -0.002756 0.000461 -0.000404
# 2 -0.001600 0.006865 -0.001874 -0.002544 0.000023 0.000220
# 3 -0.002790 -0.001874 0.010526 -0.001541 0.000419 0.000895
# 4 -0.002756 -0.002544 -0.001541 0.017573 0.000386 0.001600
# 5 0.000461 0.000023 0.000419 0.000386 0.030340 0.006154
# 6 -0.000404 0.000220 0.000895 0.001600 0.006154 0.031790
#
#
# Mechanical properties :
#
#
# Convention : Reuss Voigt Hill
#
# Bulk Modulus (GPa) = 52.07553 68.02968 60.05261
# Shear Modulus (GPa) = 38.35313 44.69804 41.52559
#
# Velocity S-wave (km/s) = 3.69750 3.99164 3.84738
# Velocity P-wave (km/s) = 6.06561 6.74495 6.41428
#
# Compressibility (1/GPa) = 0.01920288
#
# Stress axis : x y z
#
# Youngs Moduli (GPa) = 69.72767 145.67441 94.99932
#
# Poissons Ratio (x) = 0.23306 0.26510
# Poissons Ratio (y) = 0.11155 0.17807
# Poissons Ratio (z) = 0.19458 0.27306
#
# Static dielectric constant tensor:
#      x y z
#    x 4.677990 0.001860 -0.066920 
#    y 0.001860 5.621650 0.021640 
#    z -0.066920 0.021640 5.261630 
# 
# 
# High freq. dielectric constant tensor:
#      x y z
#    x 2.121680 0.001000 -0.005290 
#    y 0.001000 2.156850 -0.007370 
#    z -0.005290 -0.007370 2.167440 
# 
# From -- ./inp_files/3032.got.cif
#   From: 2010.03.12/outbox.cif.g09.slc.cpg/sg1_2_cif.got.tgz:3032.got - 2010.03.29 11:57:58.
