data_PCOD8000835
_publ_section_title
;
Structure prediction by ZEFSAII (Michael W. Deem and Ramdas Pophale) SiO2 
 PCOD8000835
Probable space group: P -1
;
_chemical_formula_sum "Si O2"
_cell_formula_units_Z 14
_cell_length_a 16.419356
_cell_length_b 12.192209
_cell_length_c 7.748993
_cell_angle_alpha 89.328390
_cell_angle_beta 52.163944
_cell_angle_gamma 48.185912
_cell_volume 673.816275
_symmetry_space_group_name_H-M "P -1"
_symmetry_group_IT_number 2
_symmetry_cell_setting 'triclinic'
loop_
_space_group_symop_operation_xyz
x,y,z
-x,-y,-z
loop_
_atom_site_type_symbol
_atom_site_label
_atom_site_fract_x
_atom_site_fract_y
_atom_site_fract_z
Si Si1 0.495368 0.152389 0.669970
Si Si2 0.754459 0.443962 0.888714
Si Si3 0.813864 0.033954 0.197975
Si Si4 0.316368 0.447696 0.381393
Si Si5 0.770724 0.316736 0.215449
Si Si6 0.069163 0.203262 0.255466
Si Si7 0.460037 0.945775 0.773061
O O1 0.676841 0.067780 0.464792
O O2 0.461838 0.153326 0.514470
O O3 0.522234 0.014018 0.742006
O O4 0.307803 0.380026 0.970764
O O5 0.644583 0.517815 0.848015
O O6 0.978440 0.247013 0.556171
O O7 0.710638 0.394848 0.094888
O O8 0.716104 0.240041 0.328661
O O9 0.847048 0.975785 0.954017
O O10 0.007045 0.862721 0.055039
O O11 0.344353 0.501557 0.509393
O O12 0.453464 0.221311 0.207609
O O13 0.099427 0.597015 0.648919
O O14 0.233543 0.144676 0.072168
#
# Coordination Sequence:
#
# PCOD8000835 Si02
#       7
#     2   2   2   2   2   2   2
#     4  10  21  37  60  92 113 162 205 236 301 359
#     4  10  21  37  59  91 122 150 204 242 298 360
#     4   9  20  39  61  85 120 160 201 241 301 353
#     4   9  20  39  60  92 120 151 200 246 295 354
#     4  10  19  40  64  83 124 158 192 255 296 349
#     4   8  20  38  56  91 122 150 202 242 293 359
#     4  10  19  40  63  83 128 157 193 254 293 351
#
# _framework density 20.777176999999998
#
# number of rings (size 3 to 8) (size 9 to 14) (size 15 to 20)
#    0.857    1.714    1.429    0.000    0.000    3.429 
#    2.571    3.571    0.000    0.000    0.000    0.000 
#    0.000    0.000    0.000    0.000    0.000    0.000 
#
# Total GULP energy -173460.168878 kJ/mol
# GULP energy per Si atom -12390.012063 kJ/mol
# Density = 2.072989 g / cm^3
# Si number density = 20.777177 Si / 1000 Ang^3
#
#
#
# Elastic Constant Matrix: (Units=GPa)
#
#
# Indices 1 2 3 4 5 6 
#
# 1 72.8032 44.2058 31.3062 -6.8374 -11.9337 15.0905
# 2 44.2058 99.6203 4.8419 2.4980 1.1813 1.9607
# 3 31.3062 4.8419 64.3216 7.1701 7.2502 0.1480
# 4 -6.8374 2.4980 7.1701 27.1650 -3.6315 10.0259
# 5 -11.9337 1.1813 7.2502 -3.6315 27.0805 -6.1288
# 6 15.0905 1.9607 0.1480 10.0259 -6.1288 30.9147
#
#
#
# Elastic Compliance Matrix: (Units=1/GPa)
#
#
# Indices 1 2 3 4 5 6 
#
# 1 0.070938 -0.030406 -0.042730 0.052764 0.041749 -0.041329
# 2 -0.030406 0.023134 0.017680 -0.023246 -0.018369 0.017188
# 3 -0.042730 0.017680 0.042486 -0.037066 -0.030158 0.025575
# 4 0.052764 -0.023246 -0.037066 0.082982 0.035358 -0.044006
# 5 0.041749 -0.018369 -0.030158 0.035358 0.064945 -0.017661
# 6 -0.041329 0.017188 0.025575 -0.044006 -0.017661 0.062079
#
#
# Mechanical properties :
#
#
# Convention : Reuss Voigt Hill
#
# Bulk Modulus (GPa) = 38.99431 44.16146 41.57789
# Shear Modulus (GPa) = 10.72903 27.45813 19.09358
#
# Velocity S-wave (km/s) = 2.27488 3.63926 3.03474
# Velocity P-wave (km/s) = 5.07037 6.24179 5.68632
#
# Compressibility (1/GPa) = 0.02564476
#
# Stress axis : x y z
#
# Youngs Moduli (GPa) = 14.09675 43.22675 23.53727
#
# Poissons Ratio (x) = 1.31436 1.00576
# Poissons Ratio (y) = 0.42863 -0.41614
# Poissons Ratio (z) = 0.60236 -0.76425
#
# Static dielectric constant tensor:
#      x y z
#    x 3.601360 0.043170 0.142950 
#    y 0.043170 3.604840 0.110710 
#    z 0.142950 0.110710 3.774560 
# 
# 
# High freq. dielectric constant tensor:
#      x y z
#    x 1.794310 -0.001040 0.013310 
#    y -0.001040 1.794020 0.011340 
#    z 0.013310 0.011340 1.815350 
# 
# From -- ./inp_files/221494.got.cif
#   From: 2010.06.25/outbox.cif.g09.slc.cpg/sg2_111_cif.got.tgz:221494.got - 2010.06.27 13:26:56.
