data_PCOD8000303
_publ_section_title
;
Structure prediction by ZEFSAII (Michael W. Deem and Ramdas Pophale) SiO2 
 PCOD8000303
Probable space group: P -1
;
_chemical_formula_sum "Si O2"
_cell_formula_units_Z 16
_cell_length_a 8.862927
_cell_length_b 18.433215
_cell_length_c 5.854339
_cell_angle_alpha 87.497842
_cell_angle_beta 97.651803
_cell_angle_gamma 131.498928
_cell_volume 708.680846
_symmetry_space_group_name_H-M "P -1"
_symmetry_group_IT_number 2
_symmetry_cell_setting 'triclinic'
loop_
_space_group_symop_operation_xyz
x,y,z
-x,-y,-z
loop_
_atom_site_type_symbol
_atom_site_label
_atom_site_fract_x
_atom_site_fract_y
_atom_site_fract_z
Si Si1 0.653276 0.457816 0.362971
Si Si2 0.917057 0.004467 0.733254
Si Si3 0.703920 0.337168 0.662173
Si Si4 0.125230 0.719911 0.993743
Si Si5 0.978785 0.795011 0.244705
Si Si6 0.557049 0.689437 0.008395
Si Si7 0.201323 0.357671 0.420626
Si Si8 0.513945 0.191289 0.274122
O O1 0.772684 0.429235 0.517936
O O2 0.615149 0.422831 0.096402
O O3 0.426437 0.398553 0.423832
O O4 0.787069 0.572372 0.401678
O O5 0.957442 0.102367 0.730316
O O6 0.673799 0.920783 0.696328
O O7 0.000000 0.000000 0.500000
O O8 0.000000 0.000000 0.000000
O O9 0.645049 0.247565 0.517814
O O10 0.875243 0.358528 0.863082
O O11 0.502859 0.297849 0.762097
O O12 0.332621 0.793364 0.881565
O O13 0.914148 0.648948 0.823096
O O14 0.140645 0.795907 0.146878
O O15 0.939939 0.750794 0.494688
O O16 0.773810 0.719939 0.065180
O O17 0.579972 0.760883 0.820820
#
# Coordination Sequence:
#
# PCOD8000303 Si02
#       8
#     2   2   2   2   2   2   2   2
#     4  10  22  39  69  98 138 182 242 294 351 429
#     4  12  28  46  80 117 141 188 251 305 359 438
#     4  10  21  43  68  96 133 194 227 295 350 435
#     4  11  25  43  68  97 148 186 229 291 373 426
#     4  12  24  42  70 102 143 179 234 300 364 426
#     4  10  19  38  70  96 132 177 236 288 350 419
#     4  11  24  41  63 107 139 181 237 300 357 427
#     4  10  23  45  68 101 140 182 238 287 363 428
#
# _framework density 22.577157
#
# number of rings (size 3 to 8) (size 9 to 14) (size 15 to 20)
#    0.000    1.250    3.750    1.500    5.250    2.500 
#    0.000   11.250    0.000    0.000    0.000    0.000 
#    0.000    0.000    0.000    0.000    0.000    0.000 
#
# Total GULP energy -198236.053984 kJ/mol
# GULP energy per Si atom -12389.753374 kJ/mol
# Density = 2.252577 g / cm^3
# Si number density = 22.577157 Si / 1000 Ang^3
#
#
#
# Elastic Constant Matrix: (Units=GPa)
#
#
# Indices 1 2 3 4 5 6 
#
# 1 109.8518 16.9113 33.2881 2.3532 0.3409 -15.3511
# 2 16.9113 76.4430 4.9815 2.5212 14.0899 -23.5446
# 3 33.2881 4.9815 82.2125 3.3653 8.4987 -10.7993
# 4 2.3532 2.5212 3.3653 19.8754 -3.4176 -0.7697
# 5 0.3409 14.0899 8.4987 -3.4176 45.4980 0.7844
# 6 -15.3511 -23.5446 -10.7993 -0.7697 0.7844 29.7421
#
#
#
# Elastic Compliance Matrix: (Units=1/GPa)
#
#
# Indices 1 2 3 4 5 6 
#
# 1 0.010977 -0.001418 -0.004063 -0.000133 0.001054 0.003036
# 2 -0.001418 0.019436 0.002297 -0.003278 -0.006952 0.015587
# 3 -0.004063 0.002297 0.014846 -0.002770 -0.003751 0.005139
# 4 -0.000133 -0.003278 -0.002770 0.052062 0.005487 -0.002467
# 5 0.001054 -0.006952 -0.003751 0.005487 0.025355 -0.006848
# 6 0.003036 0.015587 0.005139 -0.002467 -0.006848 0.049511
#
#
# Mechanical properties :
#
#
# Convention : Reuss Voigt Hill
#
# Bulk Modulus (GPa) = 25.71396 42.09656 33.90526
# Shear Modulus (GPa) = 26.10716 33.24485 29.67601
#
# Velocity S-wave (km/s) = 3.40421 3.84148 3.62944
# Velocity P-wave (km/s) = 5.18320 6.19371 5.71085
#
# Compressibility (1/GPa) = 0.03888938
#
# Stress axis : x y z
#
# Youngs Moduli (GPa) = 91.10269 51.45099 67.35941
#
# Poissons Ratio (x) = 0.07297 0.27369
# Poissons Ratio (y) = 0.12920 -0.15472
# Poissons Ratio (z) = 0.37017 -0.11818
#
# Static dielectric constant tensor:
#      x y z
#    x 4.210400 -0.196670 0.011360 
#    y -0.196670 3.848070 0.111830 
#    z 0.011360 0.111830 4.554770 
# 
# 
# High freq. dielectric constant tensor:
#      x y z
#    x 1.903610 -0.012330 0.000940 
#    y -0.012330 1.863380 0.005780 
#    z 0.000940 0.005780 1.904530 
# 
# From -- ./inp_files/37896.got.cif
#   From: 2010.06.25/outbox.cif.g09.slc.cpg/sg2_19_cif.got.tgz:37896.got - 2010.06.27 13:26:56.
