data_PCOD8000134
_publ_section_title
;
Structure prediction by ZEFSAII (Michael W. Deem and Ramdas Pophale) SiO2 
 PCOD8000134
Probable space group: P 1
;
_chemical_formula_sum "Si O2"
_cell_formula_units_Z 8
_cell_length_a 7.830975
_cell_length_b 9.213737
_cell_length_c 8.982439
_cell_angle_alpha 133.533148
_cell_angle_beta 93.596719
_cell_angle_gamma 112.636164
_cell_volume 378.053643
_symmetry_space_group_name_H-M "P 1"
_symmetry_group_IT_number 1
_symmetry_cell_setting 'triclinic'
loop_
_space_group_symop_operation_xyz
x,y,z
loop_
_atom_site_type_symbol
_atom_site_label
_atom_site_fract_x
_atom_site_fract_y
_atom_site_fract_z
Si Si1 0.358720 0.201740 0.546400
Si Si2 0.509020 0.738321 0.278012
Si Si3 0.774933 0.245121 0.526141
Si Si4 0.386131 0.959887 0.655429
Si Si5 0.233411 0.975842 0.073986
Si Si6 0.583037 0.384981 0.181427
Si Si7 0.970914 0.626673 0.572550
Si Si8 0.228828 0.548283 0.870966
O O1 0.600308 0.295779 0.591300
O O2 0.335622 0.424628 0.717444
O O3 0.292852 0.050693 0.591435
O O4 0.200492 0.028157 0.279268
O O5 0.506924 0.859820 0.516292
O O6 0.553485 0.541381 0.173585
O O7 0.678691 0.955209 0.326168
O O8 0.284180 0.598793 0.084089
O O9 0.869119 0.353160 0.442685
O O10 0.974103 0.383568 0.746324
O O11 0.192714 0.737214 0.582680
O O12 0.562913 0.176730 0.928106
O O13 0.403155 0.243595 0.198456
O O14 0.318934 0.804571 0.967136
O O15 0.019102 0.818645 0.847518
O O16 0.806855 0.588750 0.413757
#
# Coordination Sequence:
#
# PCOD8000134 Si02
#       8
#     1   1   1   1   1   1   1   1
#     4  11  21  44  68 100 130 173 219 271 326 385
#     4  11  23  42  66  96 132 171 216 274 322 388
#     4  10  23  43  65 100 129 170 222 264 323 396
#     4  10  23  40  65  95 130 167 215 274 321 377
#     4  10  22  43  65  92 139 163 216 278 312 390
#     4  11  22  41  65  94 133 166 212 270 325 386
#     4  10  22  43  65  92 134 171 206 272 328 380
#     4  11  22  42  69  95 133 173 218 269 327 386
#
# _framework density 21.161017000000001
#
# number of rings (size 3 to 8) (size 9 to 14) (size 15 to 20)
#    0.000    1.500    5.000    0.000    1.750    5.000 
#    4.500    2.500    2.750    0.000    0.000    0.000 
#    0.000    0.000    0.000    0.000    0.000    0.000 
#
# Total GULP energy -99109.250905 kJ/mol
# GULP energy per Si atom -12388.656363 kJ/mol
# Density = 2.111285 g / cm^3
# Si number density = 21.161017 Si / 1000 Ang^3
#
#
#
# Elastic Constant Matrix: (Units=GPa)
#
#
# Indices 1 2 3 4 5 6 
#
# 1 70.1256 34.0696 40.4561 8.7868 13.1117 -5.8652
# 2 34.0696 112.2456 31.2559 8.3218 1.5127 3.6446
# 3 40.4561 31.2559 131.7578 -18.2449 18.0140 -2.9161
# 4 8.7868 8.3218 -18.2449 40.7435 -10.2270 -0.7628
# 5 13.1117 1.5127 18.0140 -10.2270 41.1045 -3.6264
# 6 -5.8652 3.6446 -2.9161 -0.7628 -3.6264 23.4130
#
#
#
# Elastic Compliance Matrix: (Units=1/GPa)
#
#
# Indices 1 2 3 4 5 6 
#
# 1 0.022444 -0.004614 -0.005991 -0.007995 -0.005964 0.004410
# 2 -0.004614 0.010981 -0.001647 -0.001767 0.001089 -0.002959
# 3 -0.005991 -0.001647 0.010847 0.006178 -0.001235 0.000117
# 4 -0.007995 -0.001767 0.006178 0.031385 0.007829 0.001277
# 5 -0.005964 0.001089 -0.001235 0.007829 0.028937 0.002920
# 6 0.004410 -0.002959 0.000117 0.001277 0.002920 0.044785
#
#
# Mechanical properties :
#
#
# Convention : Reuss Voigt Hill
#
# Bulk Modulus (GPa) = 50.58971 58.41025 54.49998
# Shear Modulus (GPa) = 27.70519 34.94202 31.32361
#
# Velocity S-wave (km/s) = 3.62229 4.06796 3.85158
# Velocity P-wave (km/s) = 6.43845 7.05174 6.75206
#
# Compressibility (1/GPa) = 0.01976686
#
# Stress axis : x y z
#
# Youngs Moduli (GPa) = 44.55571 91.06896 92.19347
#
# Poissons Ratio (x) = 0.42021 0.55232
# Poissons Ratio (y) = 0.20559 0.15186
# Poissons Ratio (z) = 0.26693 0.15001
#
# Static dielectric constant tensor:
#      x y z
#    x 3.428920 -0.121110 0.232920 
#    y -0.121110 4.082050 -0.070300 
#    z 0.232920 -0.070300 4.143280 
# 
# 
# High freq. dielectric constant tensor:
#      x y z
#    x 1.781870 -0.009800 0.018970 
#    y -0.009800 1.845450 -0.006350 
#    z 0.018970 -0.006350 1.844890 
# 
# From -- ./inp_files/4036.got.cif
#   From: 2010.03.12/outbox.cif.g09.slc.cpg/sg1_3_cif.got.tgz:4036.got - 2010.03.29 11:57:58.
