data_PCOD8000147
_publ_section_title
;
Structure prediction by ZEFSAII (Michael W. Deem and Ramdas Pophale) SiO2 
 PCOD8000147
Probable space group: P 1
;
_chemical_formula_sum "Si O2"
_cell_formula_units_Z 8
_cell_length_a 11.426470
_cell_length_b 5.356609
_cell_length_c 14.296657
_cell_angle_alpha 64.496551
_cell_angle_beta 150.624081
_cell_angle_gamma 123.210486
_cell_volume 356.801693
_symmetry_space_group_name_H-M "P 1"
_symmetry_group_IT_number 1
_symmetry_cell_setting 'triclinic'
loop_
_space_group_symop_operation_xyz
x,y,z
loop_
_atom_site_type_symbol
_atom_site_label
_atom_site_fract_x
_atom_site_fract_y
_atom_site_fract_z
Si Si1 0.586880 0.370910 0.698340
Si Si2 0.125770 0.675563 0.800387
Si Si3 0.557705 0.410037 0.373207
Si Si4 0.175082 0.698018 0.049992
Si Si5 0.393480 0.903185 0.474712
Si Si6 0.794127 0.621953 0.135082
Si Si7 0.470952 0.347040 0.121335
Si Si8 0.541951 0.112153 0.899511
O O1 0.473605 0.622623 0.562873
O O2 0.448795 0.167105 0.723681
O O3 0.561645 0.156789 0.626064
O O4 0.885135 0.538770 0.910307
O O5 0.825607 0.572942 0.587480
O O6 0.283331 0.974761 0.803603
O O7 0.177438 0.739452 0.934011
O O8 0.248388 0.430438 0.902841
O O9 0.334585 0.518174 0.234244
O O10 0.617945 0.521213 0.288886
O O11 0.443369 0.059466 0.381922
O O12 0.326482 0.040745 0.128223
O O13 0.101280 0.782840 0.326539
O O14 0.688671 0.389115 0.187228
O O15 0.717990 0.431204 0.017429
O O16 0.688374 0.885659 0.029162
#
# Coordination Sequence:
#
# PCOD8000147 Si02
#       8
#     1   1   1   1   1   1   1   1
#     4  12  27  44  69  99 138 179 228 278 333 400
#     4  10  22  45  65  99 136 171 229 274 338 400
#     4  11  25  41  70 100 133 182 221 279 338 398
#     4  11  23  43  68  97 137 174 227 277 337 398
#     4  12  27  45  67 101 138 178 228 280 328 406
#     4  11  24  46  69  98 137 174 229 274 339 402
#     4  10  24  41  69  98 134 179 219 284 333 402
#     4  11  24  45  71  96 135 183 217 282 338 396
#
# _framework density 22.421419
#
# number of rings (size 3 to 8) (size 9 to 14) (size 15 to 20)
#    0.000    1.000    2.500    3.000    7.000    2.000 
#    0.000    0.000    0.000    0.000    0.000    0.000 
#    0.000    0.000    0.000    0.000    0.000    0.000 
#
# Total GULP energy -99132.535762 kJ/mol
# GULP energy per Si atom -12391.566970 kJ/mol
# Density = 2.237039 g / cm^3
# Si number density = 22.421419 Si / 1000 Ang^3
#
#
#
# Elastic Constant Matrix: (Units=GPa)
#
#
# Indices 1 2 3 4 5 6 
#
# 1 80.1991 20.0872 27.8025 -7.3013 -2.2698 8.7197
# 2 20.0872 90.9085 28.7815 -8.8411 1.7449 4.6502
# 3 27.8025 28.7815 102.2142 -11.4495 12.1291 18.1240
# 4 -7.3013 -8.8411 -11.4495 34.2004 4.9792 -0.0571
# 5 -2.2698 1.7449 12.1291 4.9792 36.6160 1.2784
# 6 8.7197 4.6502 18.1240 -0.0571 1.2784 43.6508
#
#
#
# Elastic Compliance Matrix: (Units=1/GPa)
#
#
# Indices 1 2 3 4 5 6 
#
# 1 0.014398 -0.002019 -0.003197 0.001198 0.001933 -0.001389
# 2 -0.002019 0.012503 -0.002797 0.001874 -0.000058 0.000237
# 3 -0.003197 -0.002797 0.013204 0.003705 -0.004789 -0.004401
# 4 0.001198 0.001874 0.003705 0.032023 -0.005535 -0.001773
# 5 0.001933 -0.000058 -0.004789 -0.005535 0.029747 0.000730
# 6 -0.001389 0.000237 -0.004401 -0.001773 0.000730 0.024965
#
#
# Mechanical properties :
#
#
# Convention : Reuss Voigt Hill
#
# Bulk Modulus (GPa) = 41.52836 47.40717 44.46776
# Shear Modulus (GPa) = 33.13689 36.00348 34.57019
#
# Velocity S-wave (km/s) = 3.84853 4.01154 3.93088
# Velocity P-wave (km/s) = 6.18953 6.53041 6.36225
#
# Compressibility (1/GPa) = 0.02407993
#
# Stress axis : x y z
#
# Youngs Moduli (GPa) = 69.45623 79.98221 75.73492
#
# Poissons Ratio (x) = 0.16147 0.24210
# Poissons Ratio (y) = 0.14022 0.21181
# Poissons Ratio (z) = 0.22203 0.22369
#
# Static dielectric constant tensor:
#      x y z
#    x 4.137430 0.123920 0.091210 
#    y 0.123920 4.184000 -0.037300 
#    z 0.091210 -0.037300 3.933650 
# 
# 
# High freq. dielectric constant tensor:
#      x y z
#    x 1.894330 0.013070 -0.005680 
#    y 0.013070 1.891650 -0.001380 
#    z -0.005680 -0.001380 1.879660 
# 
# From -- ./inp_files/421.got.cif
#   From: 2010.03.12/outbox.cif.g09.slc.cpg/sg1_1_cif.got.tgz:421.got - 2010.03.29 11:57:58.
