data_PCOD8000173
_publ_section_title
;
Structure prediction by ZEFSAII (Michael W. Deem and Ramdas Pophale) SiO2 
 PCOD8000173
Probable space group: P 1
;
_chemical_formula_sum "Si O2"
_cell_formula_units_Z 8
_cell_length_a 12.066870
_cell_length_b 8.774033
_cell_length_c 5.140316
_cell_angle_alpha 93.614601
_cell_angle_beta 88.579960
_cell_angle_gamma 39.666959
_cell_volume 344.401594
_symmetry_space_group_name_H-M "P 1"
_symmetry_group_IT_number 1
_symmetry_cell_setting 'triclinic'
loop_
_space_group_symop_operation_xyz
x,y,z
loop_
_atom_site_type_symbol
_atom_site_label
_atom_site_fract_x
_atom_site_fract_y
_atom_site_fract_z
Si Si1 0.954080 0.387090 0.877790
Si Si2 0.289553 0.705503 0.146496
Si Si3 0.923580 0.218436 0.361096
Si Si4 0.633515 0.274079 0.404681
Si Si5 0.336227 0.970377 0.951195
Si Si6 0.426025 0.305501 0.795998
Si Si7 0.696639 0.902582 0.112481
Si Si8 0.454885 0.997621 0.468372
O O1 0.924950 0.344995 0.594535
O O2 0.853057 0.655927 0.924065
O O3 0.153066 0.227191 0.881853
O O4 0.896415 0.326648 0.094722
O O5 0.451986 0.519261 0.311522
O O6 0.271452 0.567555 0.966738
O O7 0.107665 0.930543 0.329647
O O8 0.333080 0.791515 0.946709
O O9 0.762497 0.277957 0.433711
O O10 0.576834 0.261536 0.681767
O O11 0.737661 0.032851 0.208644
O O12 0.476549 0.867703 0.710252
O O13 0.360445 0.007858 0.244672
O O14 0.352973 0.267022 0.574601
O O15 0.518446 0.093859 0.973949
O O16 0.649460 0.842638 0.354448
#
# Coordination Sequence:
#
# PCOD8000173 Si02
#       8
#     1   1   1   1   1   1   1   1
#     4  11  27  46  66 101 141 173 228 286 335 411
#     4  10  25  45  69 103 142 175 232 284 333 417
#     4  11  27  47  70 103 137 181 228 282 346 400
#     4  10  25  44  72 100 139 185 226 280 346 399
#     4  11  24  43  68 102 136 177 226 280 344 401
#     4  10  23  44  70 102 137 179 233 278 335 415
#     4  10  24  46  66 102 138 175 231 280 333 414
#     4  11  23  43  69  99 132 179 226 272 342 403
#
# _framework density 23.2287
#
# number of rings (size 3 to 8) (size 9 to 14) (size 15 to 20)
#    0.000    1.500    1.250    1.500   14.000    1.000 
#    0.000    0.000    0.000    0.000    0.000    0.000 
#    0.000    0.000    0.000    0.000    0.000    0.000 
#
# Total GULP energy -99159.073982 kJ/mol
# GULP energy per Si atom -12394.884248 kJ/mol
# Density = 2.317583 g / cm^3
# Si number density = 23.228700 Si / 1000 Ang^3
#
#
#
# Elastic Constant Matrix: (Units=GPa)
#
#
# Indices 1 2 3 4 5 6 
#
# 1 33.6387 0.7464 3.5440 -3.9173 -0.4728 -1.8694
# 2 0.7464 116.7681 24.6657 26.9787 11.4475 8.7566
# 3 3.5440 24.6657 110.8822 3.6788 8.1247 8.0782
# 4 -3.9173 26.9787 3.6788 31.9910 12.2850 0.1467
# 5 -0.4728 11.4475 8.1247 12.2850 47.6984 -2.3333
# 6 -1.8694 8.7566 8.0782 0.1467 -2.3333 19.7783
#
#
#
# Elastic Compliance Matrix: (Units=1/GPa)
#
#
# Indices 1 2 3 4 5 6 
#
# 1 0.030692 -0.001425 -0.001098 0.005188 -0.000312 0.003905
# 2 -0.001425 0.011535 -0.001864 -0.009586 -0.000213 -0.004435
# 3 -0.001098 -0.001864 0.009812 0.000960 -0.001653 -0.003488
# 4 0.005188 -0.009586 0.000960 0.043233 -0.008801 0.002984
# 5 -0.000312 -0.000213 -0.001653 -0.008801 0.023738 0.003606
# 6 0.003905 -0.004435 -0.003488 0.002984 0.003606 0.054721
#
#
# Mechanical properties :
#
#
# Convention : Reuss Voigt Hill
#
# Bulk Modulus (GPa) = 23.11335 35.46679 29.29007
# Shear Modulus (GPa) = 25.39035 35.38240 30.38638
#
# Velocity S-wave (km/s) = 3.30973 3.90708 3.62074
# Velocity P-wave (km/s) = 4.95759 5.97121 5.48785
#
# Compressibility (1/GPa) = 0.04326503
#
# Stress axis : x y z
#
# Youngs Moduli (GPa) = 32.58204 86.69302 101.92006
#
# Poissons Ratio (x) = 0.12356 0.11187
# Poissons Ratio (y) = 0.04644 0.18995
# Poissons Ratio (z) = 0.03576 0.16157
#
# Static dielectric constant tensor:
#      x y z
#    x 4.104300 0.283350 -0.006760 
#    y 0.283350 4.136990 0.100260 
#    z -0.006760 0.100260 4.425820 
# 
# 
# High freq. dielectric constant tensor:
#      x y z
#    x 1.909540 0.027810 0.002700 
#    y 0.027810 1.906920 0.007300 
#    z 0.002700 0.007300 1.936500 
# 
# From -- ./inp_files/2222.got.cif
#   From: 2010.03.12/outbox.cif.g09.slc.cpg/sg1_2_cif.got.tgz:2222.got - 2010.03.29 11:57:58.
