data_PCOD8000673
_publ_section_title
;
Structure prediction by ZEFSAII (Michael W. Deem and Ramdas Pophale) SiO2 
 PCOD8000673
Probable space group: P -1
;
_chemical_formula_sum "Si O2"
_cell_formula_units_Z 16
_cell_length_a 9.018435
_cell_length_b 14.702417
_cell_length_c 20.945855
_cell_angle_alpha 158.448708
_cell_angle_beta 123.071682
_cell_angle_gamma 52.233298
_cell_volume 803.721801
_symmetry_space_group_name_H-M "P -1"
_symmetry_group_IT_number 2
_symmetry_cell_setting 'triclinic'
loop_
_space_group_symop_operation_xyz
x,y,z
-x,-y,-z
loop_
_atom_site_type_symbol
_atom_site_label
_atom_site_fract_x
_atom_site_fract_y
_atom_site_fract_z
Si Si1 0.854493 0.960163 0.705433
Si Si2 0.514492 0.087702 0.245294
Si Si3 0.093541 0.706634 0.182891
Si Si4 0.325734 0.544178 0.941887
Si Si5 0.487734 0.575422 0.867314
Si Si6 0.268843 0.622973 0.592037
Si Si7 0.426724 0.354242 0.578048
Si Si8 0.744093 0.920585 0.315098
O O1 0.685687 0.849132 0.583920
O O2 0.044203 0.717338 0.604187
O O3 0.866693 0.122390 0.752161
O O4 0.814358 0.155893 0.884881
O O5 0.340480 0.349954 0.391534
O O6 0.670148 0.155552 0.284392
O O7 0.609578 0.931366 0.229404
O O8 0.435678 0.891563 0.059595
O O9 0.287289 0.556420 0.165855
O O10 0.950298 0.904154 0.328379
O O11 0.000000 0.500000 0.000000
O O12 0.389835 0.489924 0.848552
O O13 0.225803 0.337323 0.803388
O O14 0.500000 0.500000 0.000000
O O15 0.400964 0.491162 0.729622
O O16 0.353801 0.580857 0.655607
O O17 0.646859 0.185565 0.506281
#
# Coordination Sequence:
#
# PCOD8000673 Si02
#       8
#     2   2   2   2   2   2   2   2
#     4  12  21  39  66  92 120 157 209 250 293 363
#     4  10  19  39  67  89 115 155 211 253 295 350
#     4  12  20  36  68  95 115 151 210 254 299 360
#     4  12  19  37  64  91 119 158 200 246 301 363
#     4  12  24  40  61  91 127 163 193 251 313 360
#     4  10  22  40  66  90 113 162 213 253 286 352
#     4  11  26  40  57  89 133 163 196 245 311 358
#     4  11  20  38  62  94 118 154 204 250 299 360
#
# _framework density 19.907385000000001
#
# number of rings (size 3 to 8) (size 9 to 14) (size 15 to 20)
#    0.000    0.750    7.500    1.125    0.000    3.000 
#    0.000    2.500    0.000    0.000    0.000    0.000 
#    0.000    0.000    0.000    0.000    0.000    0.000 
#
# Total GULP energy -198447.174339 kJ/mol
# GULP energy per Si atom -12402.948396 kJ/mol
# Density = 1.986207 g / cm^3
# Si number density = 19.907385 Si / 1000 Ang^3
#
#
#
# Elastic Constant Matrix: (Units=GPa)
#
#
# Indices 1 2 3 4 5 6 
#
# 1 117.5563 38.8495 36.9546 2.7109 -17.0121 8.6302
# 2 38.8495 69.4021 44.7956 4.2687 -9.9955 5.6315
# 3 36.9546 44.7956 86.2487 2.4768 -11.8065 19.9783
# 4 2.7109 4.2687 2.4768 26.1739 6.0239 -8.2255
# 5 -17.0121 -9.9955 -11.8065 6.0239 32.1174 5.5974
# 6 8.6302 5.6315 19.9783 -8.2255 5.5974 36.0108
#
#
#
# Elastic Compliance Matrix: (Units=1/GPa)
#
#
# Indices 1 2 3 4 5 6 
#
# 1 0.011348 -0.004535 -0.001106 -0.002366 0.005113 -0.002732
# 2 -0.004535 0.024088 -0.011097 -0.001661 0.000809 0.002971
# 3 -0.001106 -0.011097 0.021922 -0.005798 0.007306 -0.012622
# 4 -0.002366 -0.001661 -0.005798 0.048507 -0.016071 0.017621
# 5 0.005113 0.000809 0.007306 -0.016071 0.042529 -0.015687
# 6 -0.002732 0.002971 -0.012622 0.017621 -0.015687 0.041425
#
#
# Mechanical properties :
#
#
# Convention : Reuss Voigt Hill
#
# Bulk Modulus (GPa) = 41.87428 57.15627 49.51528
# Shear Modulus (GPa) = 21.62099 29.03426 25.32763
#
# Velocity S-wave (km/s) = 3.29915 3.82313 3.57076
# Velocity P-wave (km/s) = 5.96596 6.94708 6.47513
#
# Compressibility (1/GPa) = 0.02388101
#
# Stress axis : x y z
#
# Youngs Moduli (GPa) = 88.12145 41.51525 45.61531
#
# Poissons Ratio (x) = 0.18826 0.05047
# Poissons Ratio (y) = 0.39960 0.50622
# Poissons Ratio (z) = 0.09750 0.46071
#
# Static dielectric constant tensor:
#      x y z
#    x 4.129650 0.075410 -0.227830 
#    y 0.075410 3.465810 0.338180 
#    z -0.227830 0.338180 3.561080 
# 
# 
# High freq. dielectric constant tensor:
#      x y z
#    x 1.801280 0.008150 -0.009140 
#    y 0.008150 1.753110 0.030860 
#    z -0.009140 0.030860 1.760580 
# 
# From -- ./inp_files/176123.got.cif
#   From: 2010.06.25/outbox.cif.g09.slc.cpg/sg2_89_cif.got.tgz:176123.got - 2010.06.27 13:26:56.
