data_PCOD8000169
_publ_section_title
;
Structure prediction by ZEFSAII (Michael W. Deem and Ramdas Pophale) SiO2 
 PCOD8000169
Probable space group: P 1
;
_chemical_formula_sum "Si O2"
_cell_formula_units_Z 8
_cell_length_a 10.692044
_cell_length_b 7.544803
_cell_length_c 9.356010
_cell_angle_alpha 129.356157
_cell_angle_beta 137.141182
_cell_angle_gamma 47.952311
_cell_volume 365.584156
_symmetry_space_group_name_H-M "P 1"
_symmetry_group_IT_number 1
_symmetry_cell_setting 'triclinic'
loop_
_space_group_symop_operation_xyz
x,y,z
loop_
_atom_site_type_symbol
_atom_site_label
_atom_site_fract_x
_atom_site_fract_y
_atom_site_fract_z
Si Si1 0.631870 0.464350 0.895340
Si Si2 0.911469 0.585615 0.404847
Si Si3 0.325000 0.272275 0.646516
Si Si4 0.402826 0.808724 0.304170
Si Si5 0.770162 0.379343 0.434960
Si Si6 0.330195 0.950582 0.999570
Si Si7 0.877891 0.114848 0.678082
Si Si8 0.390486 0.317889 0.036329
O O1 0.539587 0.286093 0.805010
O O2 0.719132 0.335930 0.751839
O O3 0.814843 0.495045 0.146521
O O4 0.447514 0.735780 0.871021
O O5 0.915076 0.408067 0.450893
O O6 0.149867 0.515697 0.554853
O O7 0.804714 0.885767 0.485931
O O8 0.288561 0.050010 0.423418
O O9 0.309744 0.234464 0.783890
O O10 0.618958 0.665157 0.486731
O O11 0.285065 0.621712 0.111809
O O12 0.442765 0.866698 0.202666
O O13 0.893733 0.235764 0.601290
O O14 0.631618 0.235767 0.188752
O O15 0.335926 0.206390 0.076648
O O16 0.101170 0.999959 0.868190
#
# Coordination Sequence:
#
# PCOD8000169 Si02
#       8
#     1   1   1   1   1   1   1   1
#     4  12  25  45  71 105 140 183 234 290 344 417
#     4  12  23  48  70 103 148 180 236 292 345 420
#     4  12  23  43  77 103 138 193 232 283 360 413
#     4  10  23  44  68 100 139 186 228 287 351 402
#     4  10  23  44  66  98 141 182 222 291 346 399
#     4  12  23  49  71 102 147 184 236 288 346 424
#     4  12  27  44  72 106 141 188 232 287 356 412
#     4  10  23  43  69  99 146 180 230 296 340 411
#
# _framework density 21.882787
#
# number of rings (size 3 to 8) (size 9 to 14) (size 15 to 20)
#    0.750    0.000    5.000    3.000    3.500    0.000 
#    0.000    3.750    0.000    0.000    0.000    0.000 
#    0.000    0.000    0.000    0.000    0.000    0.000 
#
# Total GULP energy -99111.602810 kJ/mol
# GULP energy per Si atom -12388.950351 kJ/mol
# Density = 2.183298 g / cm^3
# Si number density = 21.882787 Si / 1000 Ang^3
#
#
#
# Elastic Constant Matrix: (Units=GPa)
#
#
# Indices 1 2 3 4 5 6 
#
# 1 68.1421 41.7514 34.6706 13.1706 2.8236 20.2823
# 2 41.7514 106.9712 49.7840 13.8107 -14.4278 9.8826
# 3 34.6706 49.7840 91.3632 13.0749 -9.0008 5.6954
# 4 13.1706 13.8107 13.0749 41.9040 -7.9470 0.8899
# 5 2.8236 -14.4278 -9.0008 -7.9470 28.5048 -4.3464
# 6 20.2823 9.8826 5.6954 0.8899 -4.3464 49.4222
#
#
#
# Elastic Compliance Matrix: (Units=1/GPa)
#
#
# Indices 1 2 3 4 5 6 
#
# 1 0.026816 -0.007715 -0.005627 -0.006109 -0.011523 -0.009717
# 2 -0.007715 0.015479 -0.004896 0.000210 0.007306 0.001274
# 3 -0.005627 -0.004896 0.016105 -0.001087 0.003125 0.001727
# 4 -0.006109 0.000210 -0.001087 0.027605 0.008497 0.002841
# 5 -0.011523 0.007306 0.003125 0.008497 0.044291 0.006650
# 6 -0.009717 0.001274 0.001727 0.002841 0.006650 0.024302
#
#
# Mechanical properties :
#
#
# Convention : Reuss Voigt Hill
#
# Bulk Modulus (GPa) = 45.61737 57.65429 51.63583
# Shear Modulus (GPa) = 25.20382 33.31758 29.26070
#
# Velocity S-wave (km/s) = 3.39745 3.90622 3.66068
# Velocity P-wave (km/s) = 6.02343 6.83731 6.44323
#
# Compressibility (1/GPa) = 0.02192147
#
# Stress axis : x y z
#
# Youngs Moduli (GPa) = 37.29095 64.60372 62.09422
#
# Poissons Ratio (x) = 0.49844 0.34943
# Poissons Ratio (y) = 0.28771 0.30404
# Poissons Ratio (z) = 0.20985 0.31633
#
# Static dielectric constant tensor:
#      x y z
#    x 3.685850 0.043960 0.167750 
#    y 0.043960 3.859590 0.020220 
#    z 0.167750 0.020220 3.806860 
# 
# 
# High freq. dielectric constant tensor:
#      x y z
#    x 1.847270 0.007960 0.016190 
#    y 0.007960 1.858890 -0.004430 
#    z 0.016190 -0.004430 1.856640 
# 
# From -- ./inp_files/5435.got.cif
#   From: 2010.03.12/outbox.cif.g09.slc.cpg/sg1_3_cif.got.tgz:5435.got - 2010.03.29 11:57:58.
