data_PCOD8000322
_publ_section_title
;
Structure prediction by ZEFSAII (Michael W. Deem and Ramdas Pophale) SiO2 
 PCOD8000322
Probable space group: P -1
;
_chemical_formula_sum "Si O2"
_cell_formula_units_Z 14
_cell_length_a 10.383196
_cell_length_b 12.313205
_cell_length_c 13.371563
_cell_angle_alpha 123.626052
_cell_angle_beta 48.724407
_cell_angle_gamma 147.413861
_cell_volume 691.948069
_symmetry_space_group_name_H-M "P -1"
_symmetry_group_IT_number 2
_symmetry_cell_setting 'triclinic'
loop_
_space_group_symop_operation_xyz
x,y,z
-x,-y,-z
loop_
_atom_site_type_symbol
_atom_site_label
_atom_site_fract_x
_atom_site_fract_y
_atom_site_fract_z
Si Si1 0.873353 0.803072 0.406090
Si Si2 0.274780 0.007455 0.903222
Si Si3 0.384398 0.851967 0.632423
Si Si4 0.307345 0.285839 0.943975
Si Si5 0.742030 0.507006 0.466441
Si Si6 0.099943 0.847809 0.605273
Si Si7 0.007883 0.924280 0.183808
O O1 0.899537 0.682598 0.391598
O O2 0.568229 0.648506 0.459524
O O3 0.019795 0.866825 0.257712
O O4 0.000000 0.000000 0.500000
O O5 0.411989 0.951763 0.771714
O O6 0.430647 0.218366 0.880484
O O7 0.977565 0.848726 0.927994
O O8 0.256206 0.011526 0.036138
O O9 0.220618 0.627001 0.630832
O O10 0.221524 0.844228 0.634590
O O11 0.674079 0.988070 0.509609
O O12 0.267375 0.267404 0.833687
O O13 0.500000 0.500000 0.000000
O O14 0.865773 0.621662 0.567015
O O15 0.965090 0.904367 0.734678
#
# Coordination Sequence:
#
# PCOD8000322 Si02
#       7
#     2   2   2   2   2   2   2
#     4  11  22  41  61  86 117 156 209 259 279 343
#     4   9  20  35  53  84 122 150 185 245 298 344
#     4  11  21  38  56  92 128 154 187 244 311 360
#     4   9  18  35  57  84 118 157 194 236 292 359
#     4  11  23  37  62  88 114 161 204 245 299 350
#     4  11  21  37  62  88 126 152 196 249 300 355
#     4  10  19  39  57  88 115 155 204 240 292 344
#
# _framework density 20.232731000000001
#
# number of rings (size 3 to 8) (size 9 to 14) (size 15 to 20)
#    0.857    0.857    4.286    0.429    0.000    3.429 
#    0.000    0.714    0.000    3.429    0.000    0.000 
#    0.000    0.000    0.000    0.000    0.000    0.000 
#
# Total GULP energy -173448.667450 kJ/mol
# GULP energy per Si atom -12389.190532 kJ/mol
# Density = 2.018668 g / cm^3
# Si number density = 20.232731 Si / 1000 Ang^3
#
#
#
# Elastic Constant Matrix: (Units=GPa)
#
#
# Indices 1 2 3 4 5 6 
#
# 1 55.1832 28.4100 35.0396 1.2526 12.7057 -23.9531
# 2 28.4100 94.9685 40.5354 29.8803 2.8160 -14.8504
# 3 35.0396 40.5354 140.6347 19.7529 14.3865 -20.4393
# 4 1.2526 29.8803 19.7529 32.3523 -6.9852 -1.6783
# 5 12.7057 2.8160 14.3865 -6.9852 32.3859 6.3872
# 6 -23.9531 -14.8504 -20.4393 -1.6783 6.3872 38.7496
#
#
#
# Elastic Compliance Matrix: (Units=1/GPa)
#
#
# Indices 1 2 3 4 5 6 
#
# 1 0.036259 -0.007493 -0.003044 0.005169 -0.015182 0.020663
# 2 -0.007493 0.018799 -0.000609 -0.017141 -0.002500 0.001921
# 3 -0.003044 -0.000609 0.010041 -0.006407 -0.005341 0.003784
# 4 0.005169 -0.017141 -0.006407 0.053372 0.015190 -0.006945
# 5 -0.015182 -0.002500 -0.005341 0.015190 0.046683 -0.020197
# 6 0.020663 0.001921 0.003784 -0.006945 -0.020197 0.044340
#
#
# Mechanical properties :
#
#
# Convention : Reuss Voigt Hill
#
# Bulk Modulus (GPa) = 23.36093 55.41739 39.38916
# Shear Modulus (GPa) = 20.32062 33.15098 26.73580
#
# Velocity S-wave (km/s) = 3.17258 4.05221 3.63907
# Velocity P-wave (km/s) = 4.99915 7.02448 6.09651
#
# Compressibility (1/GPa) = 0.04280651
#
# Stress axis : x y z
#
# Youngs Moduli (GPa) = 27.57928 53.19465 99.59224
#
# Poissons Ratio (x) = 0.39857 0.30320
# Poissons Ratio (y) = 0.20664 0.06066
# Poissons Ratio (z) = 0.08396 0.03240
#
# Static dielectric constant tensor:
#      x y z
#    x 3.942540 -0.563320 0.446420 
#    y -0.563320 4.069240 -0.212060 
#    z 0.446420 -0.212060 3.934490 
# 
# 
# High freq. dielectric constant tensor:
#      x y z
#    x 1.775970 -0.013650 0.012170 
#    y -0.013650 1.781170 0.018660 
#    z 0.012170 0.018660 1.783120 
# 
# From -- ./inp_files/521731.got.cif
#   From: 2010.06.25/outbox.cif.g09.slc.cpg/sg2_261_cif.got.tgz:521731.got - 2010.06.27 13:26:56.
