data_PCOD8000031
_publ_section_title
;
Structure prediction by ZEFSAII (Michael W. Deem and Ramdas Pophale) SiO2 
 PCOD8000031
Probable space group: P 1
;
_chemical_formula_sum "Si O2"
_cell_formula_units_Z 8
_cell_length_a 12.093680
_cell_length_b 6.422271
_cell_length_c 13.923516
_cell_angle_alpha 44.005400
_cell_angle_beta 30.669886
_cell_angle_gamma 55.280994
_cell_volume 379.530159
_symmetry_space_group_name_H-M "P 1"
_symmetry_group_IT_number 1
_symmetry_cell_setting 'triclinic'
loop_
_space_group_symop_operation_xyz
x,y,z
loop_
_atom_site_type_symbol
_atom_site_label
_atom_site_fract_x
_atom_site_fract_y
_atom_site_fract_z
Si Si1 0.161300 0.632470 0.036960
Si Si2 0.214997 0.846065 0.459057
Si Si3 0.029962 0.419522 0.410938
Si Si4 0.496469 0.112364 0.337092
Si Si5 0.681504 0.538907 0.385212
Si Si6 0.550166 0.325959 0.759189
Si Si7 0.312441 0.235586 0.630375
Si Si8 0.399025 0.722844 0.165774
O O1 0.150544 0.587370 0.173697
O O2 0.932873 0.480249 0.209550
O O3 0.355733 0.479215 0.898075
O O4 0.199258 0.991628 0.870574
O O5 0.148416 0.486372 0.648822
O O6 0.356086 0.889999 0.241304
O O7 0.020583 0.052899 0.528190
O O8 0.355733 0.979215 0.398075
O O9 0.164542 0.555298 0.357994
O O10 0.778593 0.478180 0.586599
O O11 0.355381 0.068430 0.554845
O O12 0.563051 0.472057 0.147327
O O13 0.690883 0.905530 0.267959
O O14 0.560922 0.371059 0.622453
O O15 0.546924 0.403131 0.438156
O O16 0.512208 0.966801 0.925576
#
# Coordination Sequence:
#
# PCOD8000031 Si02
#       8
#     1   1   1   1   1   1   1   1
#     4  11  22  39  61  88 120 155 193 240 289 347
#     4   9  19  39  62  86 118 150 198 244 282 349
#     4  10  22  40  60  89 119 150 198 239 286 353
#     4   9  19  39  62  86 118 150 198 244 282 349
#     4  10  22  40  60  89 119 150 198 239 286 353
#     4  11  22  39  61  88 120 155 193 240 289 347
#     4  10  20  39  63  85 119 156 189 244 294 336
#     4  10  20  39  63  85 119 156 189 244 294 336
#
# _framework density 21.078693000000001
#
# number of rings (size 3 to 8) (size 9 to 14) (size 15 to 20)
#    0.000    2.000    2.500    0.750    0.000    2.000 
#    4.500   11.250    0.000    0.000    0.000    0.000 
#    0.000    0.000    0.000    0.000    0.000    0.000 
#
# Total GULP energy -99145.952938 kJ/mol
# GULP energy per Si atom -12393.244117 kJ/mol
# Density = 2.103072 g / cm^3
# Si number density = 21.078693 Si / 1000 Ang^3
#
#
#
# Elastic Constant Matrix: (Units=GPa)
#
#
# Indices 1 2 3 4 5 6 
#
# 1 106.9705 48.4804 38.9173 3.3730 7.4997 0.7714
# 2 48.4804 101.5017 57.2723 3.0317 17.7356 -6.5119
# 3 38.9173 57.2723 94.3785 5.4371 4.3008 -13.3959
# 4 3.3730 3.0317 5.4371 33.3161 -8.9043 5.0950
# 5 7.4997 17.7356 4.3008 -8.9043 23.2143 -12.7557
# 6 0.7714 -6.5119 -13.3959 5.0950 -12.7557 38.6489
#
#
#
# Elastic Compliance Matrix: (Units=1/GPa)
#
#
# Indices 1 2 3 4 5 6 
#
# 1 0.012430 -0.004142 -0.002847 -0.000544 -0.001900 -0.002488
# 2 -0.004142 0.020330 -0.010411 -0.003319 -0.016311 -0.005046
# 3 -0.002847 -0.010411 0.018823 -0.000496 0.009631 0.008071
# 4 -0.000544 -0.003319 -0.000496 0.034767 0.016155 0.000028
# 5 -0.001900 -0.016311 0.009631 0.016155 0.072973 0.022582
# 6 -0.002488 -0.005046 0.008071 0.000028 0.022582 0.035320
#
#
# Mechanical properties :
#
#
# Convention : Reuss Voigt Hill
#
# Bulk Modulus (GPa) = 59.58530 65.79897 62.69213
# Shear Modulus (GPa) = 21.27330 29.58123 25.42726
#
# Velocity S-wave (km/s) = 3.18029 3.75022 3.47695
# Velocity P-wave (km/s) = 6.46645 7.07360 6.77683
#
# Compressibility (1/GPa) = 0.01678266
#
# Stress axis : x y z
#
# Youngs Moduli (GPa) = 80.45322 49.18820 53.12720
#
# Poissons Ratio (x) = 0.20372 0.15127
# Poissons Ratio (y) = 0.33320 0.55310
# Poissons Ratio (z) = 0.22908 0.51210
#
# Static dielectric constant tensor:
#      x y z
#    x 4.087770 -0.511450 0.245700 
#    y -0.511450 4.380400 -0.215210 
#    z 0.245700 -0.215210 3.470640 
# 
# 
# High freq. dielectric constant tensor:
#      x y z
#    x 1.843410 -0.017630 0.017640 
#    y -0.017630 1.834590 -0.010710 
#    z 0.017640 -0.010710 1.791110 
# 
# From -- ./inp_files/2459.got.cif
#   From: 2010.03.12/outbox.cif.g09.slc.cpg/sg1_2_cif.got.tgz:2459.got - 2010.03.29 11:57:58.
