data_PCOD8000617
_publ_section_title
;
Structure prediction by ZEFSAII (Michael W. Deem and Ramdas Pophale) SiO2 
 PCOD8000617
Probable space group: P -1
;
_chemical_formula_sum "Si O2"
_cell_formula_units_Z 16
_cell_length_a 13.039679
_cell_length_b 7.744512
_cell_length_c 12.468744
_cell_angle_alpha 145.306891
_cell_angle_beta 102.847049
_cell_angle_gamma 79.826017
_cell_volume 698.709758
_symmetry_space_group_name_H-M "P -1"
_symmetry_group_IT_number 2
_symmetry_cell_setting 'triclinic'
loop_
_space_group_symop_operation_xyz
x,y,z
-x,-y,-z
loop_
_atom_site_type_symbol
_atom_site_label
_atom_site_fract_x
_atom_site_fract_y
_atom_site_fract_z
Si Si1 0.399507 0.296156 0.386041
Si Si2 0.041689 0.017083 0.140010
Si Si3 0.874149 0.969596 0.467372
Si Si4 0.810747 0.527962 0.047462
Si Si5 0.816850 0.991470 0.113293
Si Si6 0.707289 0.592911 0.367323
Si Si7 0.599438 0.359809 0.011209
Si Si8 0.199239 0.404037 0.285558
O O1 0.500000 0.500000 0.500000
O O2 0.361430 0.236299 0.470369
O O3 0.310934 0.487031 0.402617
O O4 0.425507 0.996936 0.170467
O O5 0.119929 0.308604 0.316174
O O6 0.937681 0.076287 0.216056
O O7 0.094277 0.708515 0.038913
O O8 0.000000 0.000000 0.000000
O O9 0.831830 0.823898 0.274990
O O10 0.815345 0.778670 0.452681
O O11 0.837919 0.313388 0.648052
O O12 0.000000 0.000000 0.500000
O O13 0.790755 0.671841 0.000446
O O14 0.702497 0.362894 0.963813
O O15 0.742890 0.274340 0.265717
O O16 0.798721 0.909469 0.942225
O O17 0.627177 0.526209 0.215325
O O18 0.500000 0.500000 0.000000
#
# Coordination Sequence:
#
# PCOD8000617 Si02
#       8
#     2   2   2   2   2   2   2   2
#     4  12  28  47  72 101 136 181 239 293 351 407
#     4  10  19  39  65  96 139 186 223 279 348 415
#     4  11  23  41  66 104 142 182 231 282 339 419
#     4  11  23  41  65 100 139 179 234 279 347 418
#     4  11  22  40  69  99 136 188 223 276 352 421
#     4  11  26  48  71 103 143 183 231 286 352 416
#     4  11  26  49  72  98 138 180 234 298 348 408
#     4  11  22  41  66  98 141 179 228 292 339 411
#
# _framework density 22.899352
#
# number of rings (size 3 to 8) (size 9 to 14) (size 15 to 20)
#    0.000    1.000    2.500    5.625    7.000    3.000 
#    0.000    2.500    0.000    0.000    0.000    0.000 
#    0.000    0.000    0.000    0.000    0.000    0.000 
#
# Total GULP energy -198216.990845 kJ/mol
# GULP energy per Si atom -12388.561928 kJ/mol
# Density = 2.284723 g / cm^3
# Si number density = 22.899352 Si / 1000 Ang^3
#
#
#
# Elastic Constant Matrix: (Units=GPa)
#
#
# Indices 1 2 3 4 5 6 
#
# 1 118.6435 31.0523 30.2682 -11.3033 25.7505 -9.0020
# 2 31.0523 111.5040 10.8263 18.7853 3.6455 -12.1902
# 3 30.2682 10.8263 80.6883 11.4799 9.4118 -1.6286
# 4 -11.3033 18.7853 11.4799 30.7469 3.3869 -0.1211
# 5 25.7505 3.6455 9.4118 3.3869 38.9229 3.0073
# 6 -9.0020 -12.1902 -1.6286 -0.1211 3.0073 42.0000
#
#
#
# Elastic Compliance Matrix: (Units=1/GPa)
#
#
# Indices 1 2 3 4 5 6 
#
# 1 0.014092 -0.004760 -0.005147 0.010982 -0.008750 0.002098
# 2 -0.004760 0.011995 0.001344 -0.009833 0.002377 0.002315
# 3 -0.005147 0.001344 0.015307 -0.008465 0.000328 -0.000167
# 4 0.010982 -0.009833 -0.008465 0.046649 -0.008350 -0.000096
# 5 -0.008750 0.002377 0.000328 -0.008350 0.032176 -0.003501
# 6 0.002098 0.002315 -0.000167 -0.000096 -0.003501 0.025175
#
#
# Mechanical properties :
#
#
# Convention : Reuss Voigt Hill
#
# Bulk Modulus (GPa) = 41.20427 50.56991 45.88709
# Shear Modulus (GPa) = 29.30698 38.24656 33.77677
#
# Velocity S-wave (km/s) = 3.58133 4.09124 3.84475
# Velocity P-wave (km/s) = 5.92739 6.66702 6.30806
#
# Compressibility (1/GPa) = 0.02426933
#
# Stress axis : x y z
#
# Youngs Moduli (GPa) = 70.96183 83.36688 65.33108
#
# Poissons Ratio (x) = 0.39679 0.33627
# Poissons Ratio (y) = 0.33774 -0.08783
# Poissons Ratio (z) = 0.36525 -0.11208
#
# Static dielectric constant tensor:
#      x y z
#    x 4.505720 0.061740 0.110110 
#    y 0.061740 4.102160 -0.038760 
#    z 0.110110 -0.038760 4.081840 
# 
# 
# High freq. dielectric constant tensor:
#      x y z
#    x 1.906760 -0.002970 0.012430 
#    y -0.002970 1.902410 0.005160 
#    z 0.012430 0.005160 1.904620 
# 
# From -- ./inp_files/516488.got.cif
#   From: 2010.06.25/outbox.cif.g09.slc.cpg/sg2_259_cif.got.tgz:516488.got - 2010.06.27 13:26:56.
