data_PCOD8000096
_publ_section_title
;
Structure prediction by ZEFSAII (Michael W. Deem and Ramdas Pophale) SiO2 
 PCOD8000096
Probable space group: P 1
;
_chemical_formula_sum "Si O2"
_cell_formula_units_Z 8
_cell_length_a 8.878487
_cell_length_b 9.546610
_cell_length_c 8.417899
_cell_angle_alpha 97.440212
_cell_angle_beta 71.604630
_cell_angle_gamma 44.369473
_cell_volume 399.952394
_symmetry_space_group_name_H-M "P 1"
_symmetry_group_IT_number 1
_symmetry_cell_setting 'triclinic'
loop_
_space_group_symop_operation_xyz
x,y,z
loop_
_atom_site_type_symbol
_atom_site_label
_atom_site_fract_x
_atom_site_fract_y
_atom_site_fract_z
Si Si1 0.423550 0.286280 0.464300
Si Si2 0.039164 0.100556 0.822983
Si Si3 0.672337 0.542849 0.799794
Si Si4 0.363962 0.618367 0.653625
Si Si5 0.020218 0.443682 0.406556
Si Si6 0.328314 0.957842 0.202750
Si Si7 0.842916 0.196793 0.249206
Si Si8 0.506066 0.912532 0.481670
O O1 0.312873 0.485562 0.654137
O O2 0.210391 0.428959 0.413488
O O3 0.706806 0.138528 0.275707
O O4 0.468178 0.107712 0.512512
O O5 0.103733 0.891015 0.722709
O O6 0.314560 0.992533 0.697096
O O7 0.811737 0.318054 0.816270
O O8 0.940734 0.185660 0.047776
O O9 0.427161 0.640426 0.808301
O O10 0.885405 0.459148 0.600411
O O11 0.572616 0.738168 0.977541
O O12 0.618144 0.467486 0.430765
O O13 0.812032 0.661418 0.386450
O O14 0.211791 0.193009 0.218418
O O15 0.429184 0.890639 0.339953
O O16 0.087138 0.017445 0.267994
#
# Coordination Sequence:
#
# PCOD8000096 Si02
#       8
#     1   1   1   1   1   1   1   1
#     4   9  23  43  64  94 137 164 202 277 325 373
#     4  12  22  39  71  95 120 175 217 255 314 389
#     4  12  23  37  69  98 126 166 225 258 312 379
#     4  10  22  43  63  92 133 169 206 272 314 375
#     4  11  21  45  62  94 135 166 210 270 318 381
#     4  11  22  39  66  97 128 164 219 265 306 383
#     4  10  21  43  65  91 135 161 212 264 321 370
#     4  11  22  43  72  93 126 173 215 263 326 368
#
# _framework density 20.002381
#
# number of rings (size 3 to 8) (size 9 to 14) (size 15 to 20)
#    0.750    0.500    6.250    0.000    3.500    1.000 
#    6.750    0.000    5.500    0.000    0.000    0.000 
#    0.000    0.000    0.000    0.000    0.000    0.000 
#
# Total GULP energy -99149.232499 kJ/mol
# GULP energy per Si atom -12393.654062 kJ/mol
# Density = 1.995685 g / cm^3
# Si number density = 20.002381 Si / 1000 Ang^3
#
#
#
# Elastic Constant Matrix: (Units=GPa)
#
#
# Indices 1 2 3 4 5 6 
#
# 1 135.3420 53.2739 29.6770 -5.5479 12.0076 -1.7798
# 2 53.2739 146.5535 46.6662 15.7957 14.9942 -4.2467
# 3 29.6770 46.6662 95.8304 10.2533 21.2830 9.4578
# 4 -5.5479 15.7957 10.2533 31.8883 4.0366 1.3704
# 5 12.0076 14.9942 21.2830 4.0366 20.2211 3.1861
# 6 -1.7798 -4.2467 9.4578 1.3704 3.1861 28.6499
#
#
#
# Elastic Compliance Matrix: (Units=1/GPa)
#
#
# Indices 1 2 3 4 5 6 
#
# 1 0.009294 -0.003100 -0.001223 0.003873 -0.002808 0.000649
# 2 -0.003100 0.009663 -0.003223 -0.004213 -0.001513 0.002673
# 3 -0.001223 -0.003223 0.015772 -0.001931 -0.012423 -0.004286
# 4 0.003873 -0.004213 -0.001931 0.035294 -0.004034 -0.000986
# 5 -0.002808 -0.001513 -0.012423 -0.004034 0.066678 -0.003520
# 6 0.000649 0.002673 -0.004286 -0.000986 -0.003520 0.037194
#
#
# Mechanical properties :
#
#
# Convention : Reuss Voigt Hill
#
# Bulk Modulus (GPa) = 50.92569 70.77334 60.84951
# Shear Modulus (GPa) = 25.57125 32.69246 29.13186
#
# Velocity S-wave (km/s) = 3.57937 4.04719 3.82045
# Velocity P-wave (km/s) = 6.52668 7.56961 7.06741
#
# Compressibility (1/GPa) = 0.01963645
#
# Stress axis : x y z
#
# Youngs Moduli (GPa) = 107.60015 103.48887 63.40374
#
# Poissons Ratio (x) = 0.32084 0.07756
# Poissons Ratio (y) = 0.33359 0.20432
# Poissons Ratio (z) = 0.13162 0.33350
#
# Static dielectric constant tensor:
#      x y z
#    x 3.698060 -0.146460 0.083200 
#    y -0.146460 3.676850 0.231170 
#    z 0.083200 0.231170 3.550520 
# 
# 
# High freq. dielectric constant tensor:
#      x y z
#    x 1.773580 -0.012290 0.010470 
#    y -0.012290 1.782270 0.021230 
#    z 0.010470 0.021230 1.770220 
# 
# From -- ./inp_files/4312.got.cif
#   From: 2010.03.12/outbox.cif.g09.slc.cpg/sg1_3_cif.got.tgz:4312.got - 2010.03.29 11:57:58.
