data_PCOD8000278
_publ_section_title
;
Structure prediction by ZEFSAII (Michael W. Deem and Ramdas Pophale) SiO2 
 PCOD8000278
Probable space group: P 1
;
_chemical_formula_sum "Si O2"
_cell_formula_units_Z 6
_cell_length_a 4.928058
_cell_length_b 8.093724
_cell_length_c 8.201265
_cell_angle_alpha 125.326040
_cell_angle_beta 92.545041
_cell_angle_gamma 62.937591
_cell_volume 226.647055
_symmetry_space_group_name_H-M "P 1"
_symmetry_group_IT_number 1
_symmetry_cell_setting 'triclinic'
loop_
_space_group_symop_operation_xyz
x,y,z
loop_
_atom_site_type_symbol
_atom_site_label
_atom_site_fract_x
_atom_site_fract_y
_atom_site_fract_z
Si Si1 0.434780 0.321270 0.902130
Si Si2 0.307353 0.592860 0.622232
Si Si3 0.652380 0.874505 0.872609
Si Si4 0.002439 0.212470 0.646344
Si Si5 0.081632 0.746009 0.364020
Si Si6 0.480616 0.096959 0.341811
O O1 0.626240 0.328536 0.750550
O O2 0.111472 0.339056 0.849160
O O3 0.637550 0.071621 0.861323
O O4 0.347565 0.544325 0.139301
O O5 0.496715 0.728793 0.718779
O O6 0.564522 0.306046 0.463983
O O7 0.031519 0.689427 0.810227
O O8 0.095705 0.633282 0.475252
O O9 0.484028 0.996857 0.107459
O O10 0.114505 0.228897 0.475137
O O11 0.193526 0.928776 0.514983
O O12 0.732479 0.888832 0.351481
#
# Coordination Sequence:
#
# PCOD8000278 Si02
#       6
#     1   1   1   1   1   1
#     4  12  26  49  82 112 154 209 254 316 392 462
#     4  12  29  52  80 113 163 203 258 327 384 466
#     4  12  27  51  80 118 154 206 265 318 389 461
#     4  12  27  49  75 118 155 200 260 313 390 460
#     4  12  28  51  81 114 158 207 255 320 394 460
#     4  12  31  50  82 121 152 207 266 320 389 463
#
# _framework density 26.47288
#
# number of rings (size 3 to 8) (size 9 to 14) (size 15 to 20)
#    0.000    0.000    6.667    0.000    9.333    0.000 
#    0.000    0.000    0.000    0.000    0.000    0.000 
#    0.000    0.000    0.000    0.000    0.000    0.000 
#
# Total GULP energy -74329.821370 kJ/mol
# GULP energy per Si atom -12388.303562 kJ/mol
# Density = 2.641263 g / cm^3
# Si number density = 26.472880 Si / 1000 Ang^3
#
#
#
# Elastic Constant Matrix: (Units=GPa)
#
#
# Indices 1 2 3 4 5 6 
#
# 1 149.2088 27.3635 57.1138 8.7693 -6.0101 -0.4148
# 2 27.3635 59.3046 33.8390 9.9344 -6.0416 -6.4942
# 3 57.1138 33.8390 170.0898 15.7396 -12.0877 5.9150
# 4 8.7693 9.9344 15.7396 52.2488 -2.0791 -1.3514
# 5 -6.0101 -6.0416 -12.0877 -2.0791 34.0018 -1.0762
# 6 -0.4148 -6.4942 5.9150 -1.3514 -1.0762 33.6346
#
#
#
# Elastic Compliance Matrix: (Units=1/GPa)
#
#
# Indices 1 2 3 4 5 6 
#
# 1 0.007994 -0.002387 -0.002175 -0.000224 0.000202 0.000018
# 2 -0.002387 0.020871 -0.003130 -0.002422 0.002169 0.004523
# 3 -0.002175 -0.003130 0.007534 -0.001296 0.001597 -0.001957
# 4 -0.000224 -0.002422 -0.001296 0.020055 0.000314 0.000574
# 5 0.000202 0.002169 0.001597 0.000314 0.030454 0.001128
# 6 0.000018 0.004523 -0.001957 0.000574 0.001128 0.031008
#
#
# Mechanical properties :
#
#
# Convention : Reuss Voigt Hill
#
# Bulk Modulus (GPa) = 47.58485 68.35952 57.97218
# Shear Modulus (GPa) = 35.63686 41.32949 38.48318
#
# Velocity S-wave (km/s) = 3.67299 3.95549 3.81686
# Velocity P-wave (km/s) = 6.00015 6.83665 6.43201
#
# Compressibility (1/GPa) = 0.02101509
#
# Stress axis : x y z
#
# Youngs Moduli (GPa) = 125.09965 47.91254 132.73858
#
# Poissons Ratio (x) = 0.11438 0.28866
# Poissons Ratio (y) = 0.29866 0.41543
# Poissons Ratio (z) = 0.27205 0.14995
#
# Static dielectric constant tensor:
#      x y z
#    x 4.527130 0.245330 0.002200 
#    y 0.245330 5.043410 0.188730 
#    z 0.002200 0.188730 4.988310 
# 
# 
# High freq. dielectric constant tensor:
#      x y z
#    x 2.055950 0.004600 -0.000810 
#    y 0.004600 2.072840 0.006070 
#    z -0.000810 0.006070 2.084700 
# 
# From -- ./inp_files/3027.got.cif
#   From: 2010.03.12/outbox.cif.g09.slc.cpg/sg1_2_cif.got.tgz:3027.got - 2010.03.29 11:57:58.
