data_PCOD8000871
_publ_section_title
;
Structure prediction by ZEFSAII (Michael W. Deem and Ramdas Pophale) SiO2 
 PCOD8000871
Probable space group: P -1
;
_chemical_formula_sum "Si O2"
_cell_formula_units_Z 16
_cell_length_a 10.055322
_cell_length_b 15.304777
_cell_length_c 12.448129
_cell_angle_alpha 75.285187
_cell_angle_beta 132.581171
_cell_angle_gamma 65.816327
_cell_volume 787.546474
_symmetry_space_group_name_H-M "P -1"
_symmetry_group_IT_number 2
_symmetry_cell_setting 'triclinic'
loop_
_space_group_symop_operation_xyz
x,y,z
-x,-y,-z
loop_
_atom_site_type_symbol
_atom_site_label
_atom_site_fract_x
_atom_site_fract_y
_atom_site_fract_z
Si Si1 0.147029 0.110575 0.793052
Si Si2 0.645484 0.581502 0.104774
Si Si3 0.653447 0.687082 0.453154
Si Si4 0.212528 0.673043 0.674342
Si Si5 0.735008 0.323921 0.699060
Si Si6 0.282217 0.851124 0.984785
Si Si7 0.087823 0.162999 0.149740
Si Si8 0.266925 0.157794 0.460262
O O1 0.897344 0.246081 0.525990
O O2 0.018267 0.202632 0.806491
O O3 0.500000 0.000000 0.000000
O O4 0.148305 0.001913 0.828713
O O5 0.682440 0.474870 0.229411
O O6 0.439434 0.738915 0.003910
O O7 0.982600 0.489316 0.298196
O O8 0.493632 0.618353 0.894655
O O9 0.453289 0.692505 0.400041
O O10 0.535336 0.758959 0.246545
O O11 0.613140 0.790167 0.474232
O O12 0.914818 0.804026 0.548216
O O13 0.500000 0.500000 0.500000
O O14 0.865293 0.293251 0.897107
O O15 0.993082 0.908735 0.848726
O O16 0.041019 0.243199 0.205678
O O17 0.441470 0.026898 0.343133
#
# Coordination Sequence:
#
# PCOD8000871 Si02
#       8
#     2   2   2   2   2   2   2   2
#     4  12  26  41  64  95 132 165 207 263 318 369
#     4  10  21  39  64  93 122 169 207 257 311 372
#     4  10  22  39  65  88 123 162 221 252 306 375
#     4  10  22  39  64  94 131 159 209 259 315 371
#     4  11  26  42  62  92 127 169 207 260 313 370
#     4  11  22  39  65  93 123 166 210 259 309 372
#     4  10  21  39  66  88 124 159 213 255 310 378
#     4  10  19  40  64  93 116 165 204 264 308 369
#
# _framework density 20.316261999999998
#
# number of rings (size 3 to 8) (size 9 to 14) (size 15 to 20)
#    0.000    1.500    1.250    4.125    5.250    2.500 
#    0.000    3.750    0.000    0.000    0.000    0.000 
#    0.000    0.000    0.000    0.000    0.000    0.000 
#
# Total GULP energy -198409.914599 kJ/mol
# GULP energy per Si atom -12400.619662 kJ/mol
# Density = 2.027002 g / cm^3
# Si number density = 20.316262 Si / 1000 Ang^3
#
#
#
# Elastic Constant Matrix: (Units=GPa)
#
#
# Indices 1 2 3 4 5 6 
#
# 1 68.3703 16.4907 30.4539 9.1227 -4.3383 -6.2848
# 2 16.4907 95.3685 21.4709 7.7644 -9.9660 -1.4459
# 3 30.4539 21.4709 98.3407 18.5759 -7.3544 7.9855
# 4 9.1227 7.7644 18.5759 41.4794 -2.6535 5.4927
# 5 -4.3383 -9.9660 -7.3544 -2.6535 36.8140 -6.9451
# 6 -6.2848 -1.4459 7.9855 5.4927 -6.9451 20.2942
#
#
#
# Elastic Compliance Matrix: (Units=1/GPa)
#
#
# Indices 1 2 3 4 5 6 
#
# 1 0.018818 -0.001399 -0.005651 -0.002443 0.002308 0.009403
# 2 -0.001399 0.011589 -0.001853 -0.001166 0.002982 0.002458
# 3 -0.005651 -0.001853 0.013521 -0.003640 0.000105 -0.006181
# 4 -0.002443 -0.001166 -0.003640 0.027384 -0.000688 -0.007055
# 5 0.002308 0.002982 0.000105 -0.000688 0.030377 0.011468
# 6 0.009403 0.002458 -0.006181 -0.007055 0.011468 0.060628
#
#
# Mechanical properties :
#
#
# Convention : Reuss Voigt Hill
#
# Bulk Modulus (GPa) = 38.28483 44.32340 41.30411
# Shear Modulus (GPa) = 26.47871 32.62845 29.55358
#
# Velocity S-wave (km/s) = 3.61408 4.01187 3.81816
# Velocity P-wave (km/s) = 6.02501 6.58212 6.30971
#
# Compressibility (1/GPa) = 0.02612001
#
# Stress axis : x y z
#
# Youngs Moduli (GPa) = 53.14147 86.29200 73.95995
#
# Poissons Ratio (x) = 0.12071 0.41798
# Poissons Ratio (y) = 0.07434 0.13706
# Poissons Ratio (z) = 0.30032 0.15992
#
# Static dielectric constant tensor:
#      x y z
#    x 3.676650 -0.203880 0.174570 
#    y -0.203880 4.166020 0.107660 
#    z 0.174570 0.107660 3.903290 
# 
# 
# High freq. dielectric constant tensor:
#      x y z
#    x 1.780240 -0.011670 0.016120 
#    y -0.011670 1.801040 0.007480 
#    z 0.016120 0.007480 1.806020 
# 
# From -- ./inp_files/205607.got.cif
#   From: 2010.06.25/outbox.cif.g09.slc.cpg/sg2_103_cif.got.tgz:205607.got - 2010.06.27 13:26:56.
