data_PCOD8000070
_publ_section_title
;
Structure prediction by ZEFSAII (Michael W. Deem and Ramdas Pophale) SiO2 
 PCOD8000070
Probable space group: P 1
;
_chemical_formula_sum "Si O2"
_cell_formula_units_Z 8
_cell_length_a 5.515327
_cell_length_b 10.512661
_cell_length_c 9.918525
_cell_angle_alpha 142.803041
_cell_angle_beta 99.339474
_cell_angle_gamma 104.399163
_cell_volume 265.425384
_symmetry_space_group_name_H-M "P 1"
_symmetry_group_IT_number 1
_symmetry_cell_setting 'triclinic'
loop_
_space_group_symop_operation_xyz
x,y,z
loop_
_atom_site_type_symbol
_atom_site_label
_atom_site_fract_x
_atom_site_fract_y
_atom_site_fract_z
Si Si1 0.220500 0.450990 0.940460
Si Si2 0.372460 0.933295 0.923889
Si Si3 0.590173 0.252838 0.806146
Si Si4 0.384719 0.699960 0.443401
Si Si5 0.602802 0.019034 0.320203
Si Si6 0.756684 0.504308 0.313924
Si Si7 0.768978 0.778510 0.827546
Si Si8 0.245678 0.227066 0.461154
O O1 0.311876 0.263100 0.735790
O O2 0.851566 0.326155 0.775012
O O3 0.227746 0.464827 0.116227
O O4 0.485726 0.746760 0.152572
O O5 0.567982 0.853246 0.791971
O O6 0.976898 0.719386 0.707990
O O7 0.499551 0.955801 0.102967
O O8 0.489137 0.218316 0.119681
O O9 0.474728 0.971096 0.617013
O O10 0.744529 0.479799 0.129253
O O11 0.674802 0.701997 0.521209
O O12 0.123947 0.623918 0.473510
O O13 0.416694 0.116718 0.455156
O O14 0.996768 0.229209 0.532798
O O15 0.528322 0.530304 0.694786
O O16 0.054782 0.040377 0.157167
#
# Coordination Sequence:
#
# PCOD8000070 Si02
#       8
#     1   1   1   1   1   1   1   1
#     4  10  21  40  63  87 126 159 206 264 313 379
#     4  10  21  40  61  91 128 165 205 257 321 389
#     4  10  21  40  63  90 118 160 214 261 317 368
#     4  10  21  40  63  90 118 160 214 261 317 368
#     4  10  21  40  61  91 128 165 205 257 321 389
#     4  10  21  40  63  87 126 159 206 264 313 379
#     4  10  21  40  61  86 130 171 210 256 309 383
#     4  10  21  40  61  86 130 171 210 256 309 383
#
# _framework density 30.140297
#
# number of rings (size 3 to 8) (size 9 to 14) (size 15 to 20)
#    0.000    2.000    0.000    3.000    0.000    0.000 
#   27.000    0.000    0.000    0.000    0.000    0.000 
#    0.000    0.000    0.000    0.000    0.000    0.000 
#
# Total GULP energy -99215.136737 kJ/mol
# GULP energy per Si atom -12401.892092 kJ/mol
# Density = 3.007170 g / cm^3
# Si number density = 30.140297 Si / 1000 Ang^3
#
#
#
# Elastic Constant Matrix: (Units=GPa)
#
#
# Indices 1 2 3 4 5 6 
#
# 1 373.5946 123.2476 108.0085 -11.4227 -12.7223 10.6667
# 2 123.2476 120.5807 47.1652 -5.7633 -4.5892 0.0714
# 3 108.0085 47.1652 114.8549 24.0461 1.0242 -0.9146
# 4 -11.4227 -5.7633 24.0461 78.3872 4.1304 -6.9376
# 5 -12.7223 -4.5892 1.0242 4.1304 77.2870 -10.5311
# 6 10.6667 0.0714 -0.9146 -6.9376 -10.5311 87.1286
#
#
#
# Elastic Compliance Matrix: (Units=1/GPa)
#
#
# Indices 1 2 3 4 5 6 
#
# 1 0.004949 -0.003606 -0.003487 0.001458 0.000506 -0.000462
# 2 -0.003606 0.012870 -0.002124 0.001107 0.000211 0.000522
# 3 -0.003487 -0.002124 0.013887 -0.004882 -0.000608 0.000112
# 4 0.001458 0.001107 -0.004882 0.014644 -0.000289 0.000900
# 5 0.000506 0.000211 -0.000608 -0.000289 0.013264 0.001512
# 6 -0.000462 0.000522 0.000112 0.000900 0.001512 0.011789
#
#
# Mechanical properties :
#
#
# Convention : Reuss Voigt Hill
#
# Bulk Modulus (GPa) = 75.34412 129.54142 102.44277
# Shear Modulus (GPa) = 53.04451 70.60116 61.82283
#
# Velocity S-wave (km/s) = 4.19969 4.84510 4.53390
# Velocity P-wave (km/s) = 6.96912 8.62397 7.84033
#
# Compressibility (1/GPa) = 0.01327244
#
# Stress axis : x y z
#
# Youngs Moduli (GPa) = 202.04681 77.70033 72.01161
#
# Poissons Ratio (x) = 0.28015 0.25112
# Poissons Ratio (y) = 0.72849 0.15295
# Poissons Ratio (z) = 0.70458 0.16504
#
# Static dielectric constant tensor:
#      x y z
#    x 7.792940 0.284670 -0.314420 
#    y 0.284670 6.221590 -1.108580 
#    z -0.314420 -1.108580 5.496400 
# 
# 
# High freq. dielectric constant tensor:
#      x y z
#    x 2.321980 0.008520 -0.008930 
#    y 0.008520 2.300650 -0.087180 
#    z -0.008930 -0.087180 2.231570 
# 
# From -- ./inp_files/355.got.cif
#   From: 2010.03.12/outbox.cif.g09.slc.cpg/sg1_1_cif.got.tgz:355.got - 2010.03.29 11:57:58.
