data_PCOD8000143
_publ_section_title
;
Structure prediction by ZEFSAII (Michael W. Deem and Ramdas Pophale) SiO2 
 PCOD8000143
Probable space group: P 1
;
_chemical_formula_sum "Si O2"
_cell_formula_units_Z 8
_cell_length_a 5.254232
_cell_length_b 13.491378
_cell_length_c 11.400612
_cell_angle_alpha 31.511298
_cell_angle_beta 67.409296
_cell_angle_gamma 56.570786
_cell_volume 345.674912
_symmetry_space_group_name_H-M "P 1"
_symmetry_group_IT_number 1
_symmetry_cell_setting 'triclinic'
loop_
_space_group_symop_operation_xyz
x,y,z
loop_
_atom_site_type_symbol
_atom_site_label
_atom_site_fract_x
_atom_site_fract_y
_atom_site_fract_z
Si Si1 0.443860 0.458820 0.018680
Si Si2 0.307550 0.796595 0.874814
Si Si3 0.617941 0.890309 0.944067
Si Si4 0.228526 0.320136 0.691042
Si Si5 0.405388 0.057837 0.401817
Si Si6 0.531806 0.604139 0.440267
Si Si7 0.102588 0.703431 0.625990
Si Si8 0.100570 0.260085 0.022721
O O1 0.296644 0.298689 0.227426
O O2 0.746884 0.305593 0.044966
O O3 0.495445 0.552635 0.037594
O O4 0.246484 0.673497 0.760732
O O5 0.239938 0.966712 0.611440
O O6 0.530590 0.819050 0.909131
O O7 0.980024 0.828709 0.950248
O O8 0.536590 0.777202 0.177623
O O9 0.417430 0.145752 0.734797
O O10 0.391496 0.470183 0.530253
O O11 0.874740 0.452485 0.579653
O O12 0.241191 0.189908 0.939239
O O13 0.287207 0.073954 0.272169
O O14 0.772658 0.908287 0.482431
O O15 0.313414 0.733381 0.458096
O O16 0.092266 0.484289 0.825434
#
# Coordination Sequence:
#
# PCOD8000143 Si02
#       8
#     1   1   1   1   1   1   1   1
#     4  11  24  44  71 104 143 181 234 298 359 423
#     4  12  28  50  67 103 149 189 246 286 335 433
#     4  12  29  48  72 100 143 198 243 283 341 429
#     4  11  25  48  74 107 143 178 241 297 359 426
#     4  11  26  42  73 106 142 195 224 299 367 418
#     4  11  25  46  75 105 142 188 229 304 357 414
#     4  10  22  44  70 110 147 173 236 297 371 425
#     4  10  23  42  72 109 139 176 233 302 363 424
#
# _framework density 23.143131
#
# number of rings (size 3 to 8) (size 9 to 14) (size 15 to 20)
#    0.000    1.000    2.500    2.250    7.000    6.000 
#    0.000    0.000    0.000    0.000    0.000    0.000 
#    0.000    0.000    0.000    0.000    0.000    0.000 
#
# Total GULP energy -99197.484637 kJ/mol
# GULP energy per Si atom -12399.685580 kJ/mol
# Density = 2.309046 g / cm^3
# Si number density = 23.143131 Si / 1000 Ang^3
#
#
#
# Elastic Constant Matrix: (Units=GPa)
#
#
# Indices 1 2 3 4 5 6 
#
# 1 93.7499 23.0604 10.7865 1.5441 7.8846 -13.1423
# 2 23.0604 89.7875 26.9213 0.8354 -6.7653 4.3475
# 3 10.7865 26.9213 108.3015 13.1444 1.8526 -13.8405
# 4 1.5441 0.8354 13.1444 14.8943 -11.2535 -0.1530
# 5 7.8846 -6.7653 1.8526 -11.2535 41.0958 1.0551
# 6 -13.1423 4.3475 -13.8405 -0.1530 1.0551 39.6731
#
#
#
# Elastic Compliance Matrix: (Units=1/GPa)
#
#
# Indices 1 2 3 4 5 6 
#
# 1 0.012817 -0.004239 0.001248 -0.005886 -0.004960 0.005255
# 2 -0.004239 0.014260 -0.004824 0.008187 0.005743 -0.004771
# 3 0.001248 -0.004824 0.013068 -0.015974 -0.006141 0.005603
# 4 -0.005886 0.008187 -0.015974 0.105768 0.032388 -0.008873
# 5 -0.004960 0.005743 -0.006141 0.032388 0.035511 -0.005234
# 6 0.005255 -0.004771 0.005603 -0.008873 -0.005234 0.029529
#
#
# Mechanical properties :
#
#
# Convention : Reuss Voigt Hill
#
# Bulk Modulus (GPa) = 40.79296 45.93060 43.36178
# Shear Modulus (GPa) = 21.29883 34.53735 27.91809
#
# Velocity S-wave (km/s) = 3.03695 3.86727 3.47698
# Velocity P-wave (km/s) = 5.47376 6.31114 5.90730
#
# Compressibility (1/GPa) = 0.02451404
#
# Stress axis : x y z
#
# Youngs Moduli (GPa) = 78.02402 70.12531 76.52202
#
# Poissons Ratio (x) = 0.29728 -0.09550
# Poissons Ratio (y) = 0.33077 0.36915
# Poissons Ratio (z) = -0.09738 0.33830
#
# Static dielectric constant tensor:
#      x y z
#    x 4.346440 0.161390 -0.066830 
#    y 0.161390 4.264690 0.241130 
#    z -0.066830 0.241130 4.338940 
# 
# 
# High freq. dielectric constant tensor:
#      x y z
#    x 1.924800 0.005420 -0.010530 
#    y 0.005420 1.914600 -0.001730 
#    z -0.010530 -0.001730 1.926440 
# 
# From -- ./inp_files/437.got.cif
#   From: 2010.03.12/outbox.cif.g09.slc.cpg/sg1_1_cif.got.tgz:437.got - 2010.03.29 11:57:58.
