data_PCOD8000476
_publ_section_title
;
Structure prediction by ZEFSAII (Michael W. Deem and Ramdas Pophale) SiO2 
 PCOD8000476
Probable space group: P -1
;
_chemical_formula_sum "Si O2"
_cell_formula_units_Z 16
_cell_length_a 9.366947
_cell_length_b 11.587074
_cell_length_c 13.120521
_cell_angle_alpha 86.151104
_cell_angle_beta 59.740402
_cell_angle_gamma 127.889959
_cell_volume 809.121525
_symmetry_space_group_name_H-M "P -1"
_symmetry_group_IT_number 2
_symmetry_cell_setting 'triclinic'
loop_
_space_group_symop_operation_xyz
x,y,z
-x,-y,-z
loop_
_atom_site_type_symbol
_atom_site_label
_atom_site_fract_x
_atom_site_fract_y
_atom_site_fract_z
Si Si1 0.188924 0.900264 0.695231
Si Si2 0.840829 0.761855 0.650204
Si Si3 0.584194 0.075272 0.852181
Si Si4 0.477333 0.431703 0.673403
Si Si5 0.599903 0.223986 0.390753
Si Si6 0.269746 0.047343 0.335984
Si Si7 0.239724 0.073942 0.855974
Si Si8 0.161223 0.419543 0.650526
O O1 0.246680 0.799998 0.713160
O O2 0.968544 0.768841 0.700320
O O3 0.437550 0.093147 0.551566
O O4 0.115764 0.932822 0.819375
O O5 0.587812 0.560404 0.722981
O O6 0.798363 0.869897 0.701877
O O7 0.022394 0.854140 0.480178
O O8 0.408541 0.083001 0.868658
O O9 0.869111 0.265834 0.741759
O O10 0.572051 0.954313 0.793045
O O11 0.500000 0.000000 0.000000
O O12 0.409449 0.266984 0.741203
O O13 0.233724 0.369963 0.719499
O O14 0.690089 0.539357 0.505215
O O15 0.422511 0.178563 0.369074
O O16 0.781863 0.419447 0.350175
O O17 0.000000 0.000000 0.000000
#
# Coordination Sequence:
#
# PCOD8000476 Si02
#       8
#     2   2   2   2   2   2   2   2
#     4  10  22  37  65  94 129 168 207 266 323 379
#     4  10  21  35  66  99 130 161 209 269 318 376
#     4  12  27  45  66  92 130 179 218 260 322 394
#     4  11  23  40  64 103 133 166 212 268 322 378
#     4  10  19  39  62  98 127 162 214 267 319 372
#     4  10  20  39  63  94 130 168 215 257 317 379
#     4  12  27  46  64  92 134 175 215 266 326 387
#     4  11  23  39  68  98 134 167 215 265 320 381
#
# _framework density 19.774533000000002
#
# number of rings (size 3 to 8) (size 9 to 14) (size 15 to 20)
#    0.000    1.250    5.000    0.750    5.250    0.500 
#    0.000    2.500    0.000    0.000    0.000    0.000 
#    0.000    0.000    0.000    0.000    0.000    0.000 
#
# Total GULP energy -198380.164801 kJ/mol
# GULP energy per Si atom -12398.760300 kJ/mol
# Density = 1.972953 g / cm^3
# Si number density = 19.774533 Si / 1000 Ang^3
#
#
#
# Elastic Constant Matrix: (Units=GPa)
#
#
# Indices 1 2 3 4 5 6 
#
# 1 112.4985 35.7705 45.1181 2.1566 -6.3562 -6.3438
# 2 35.7705 108.2482 29.1268 13.3590 -3.7210 5.3782
# 3 45.1181 29.1268 64.7197 15.8370 -12.7230 -0.4594
# 4 2.1566 13.3590 15.8370 24.7941 -3.6508 -10.8001
# 5 -6.3562 -3.7210 -12.7230 -3.6508 30.6791 -1.0999
# 6 -6.3438 5.3782 -0.4594 -10.8001 -1.0999 22.4082
#
#
#
# Elastic Compliance Matrix: (Units=1/GPa)
#
#
# Indices 1 2 3 4 5 6 
#
# 1 0.015525 -0.004114 -0.012337 0.013828 -0.000331 0.011778
# 2 -0.004114 0.012397 -0.000518 -0.010104 -0.001091 -0.009074
# 3 -0.012337 -0.000518 0.031363 -0.023636 0.007081 -0.013770
# 4 0.013828 -0.010104 -0.023636 0.079368 0.002869 0.044249
# 5 -0.000331 -0.001091 0.007081 0.002869 0.035797 0.003453
# 6 0.011778 -0.009074 -0.013770 0.044249 0.003453 0.071353
#
#
# Mechanical properties :
#
#
# Convention : Reuss Voigt Hill
#
# Bulk Modulus (GPa) = 39.45058 56.16635 47.80847
# Shear Modulus (GPa) = 17.34978 27.27301 22.31139
#
# Velocity S-wave (km/s) = 2.96527 3.71779 3.36265
# Velocity P-wave (km/s) = 5.63181 6.84794 6.26943
#
# Compressibility (1/GPa) = 0.02534817
#
# Stress axis : x y z
#
# Youngs Moduli (GPa) = 64.41145 80.66425 31.88500
#
# Poissons Ratio (x) = 0.33184 0.39336
# Poissons Ratio (y) = 0.26498 0.01651
# Poissons Ratio (z) = 0.79463 0.04177
#
# Static dielectric constant tensor:
#      x y z
#    x 3.763560 0.011550 -0.074260 
#    y 0.011550 3.395100 0.305910 
#    z -0.074260 0.305910 3.140530 
# 
# 
# High freq. dielectric constant tensor:
#      x y z
#    x 1.788350 -0.000180 -0.005000 
#    y -0.000180 1.781970 0.014450 
#    z -0.005000 0.014450 1.736920 
# 
# From -- ./inp_files/185978.got.cif
#   From: 2010.06.25/outbox.cif.g09.slc.cpg/sg2_93_cif.got.tgz:185978.got - 2010.06.27 13:26:56.
