data_PCOD8000042
_publ_section_title
;
Structure prediction by ZEFSAII (Michael W. Deem and Ramdas Pophale) SiO2 
 PCOD8000042
Probable space group: P 1
;
_chemical_formula_sum "Si O2"
_cell_formula_units_Z 8
_cell_length_a 8.661591
_cell_length_b 8.521906
_cell_length_c 11.538998
_cell_angle_alpha 144.643486
_cell_angle_beta 57.502909
_cell_angle_gamma 131.516886
_cell_volume 369.026659
_symmetry_space_group_name_H-M "P 1"
_symmetry_group_IT_number 1
_symmetry_cell_setting 'triclinic'
loop_
_space_group_symop_operation_xyz
x,y,z
loop_
_atom_site_type_symbol
_atom_site_label
_atom_site_fract_x
_atom_site_fract_y
_atom_site_fract_z
Si Si1 0.695940 0.862190 0.051390
Si Si2 0.713966 0.166279 0.555188
Si Si3 0.068047 0.778369 0.852823
Si Si4 0.480022 0.462873 0.707678
Si Si5 0.738436 0.569141 0.196170
Si Si6 0.170569 0.685486 0.011719
Si Si7 0.495617 0.244785 0.889610
Si Si8 0.522724 0.285707 0.341064
O O1 0.660962 0.151000 0.268303
O O2 0.657775 0.784818 0.881254
O O3 0.532034 0.560540 0.003937
O O4 0.928744 0.945430 0.040567
O O5 0.534724 0.195228 0.569143
O O6 0.631174 0.111711 0.687998
O O7 0.933231 0.472049 0.648292
O O8 0.752935 0.885941 0.330122
O O9 0.257294 0.001280 0.831802
O O10 0.143103 0.711031 0.902436
O O11 0.469220 0.462689 0.571409
O O12 0.266693 0.446013 0.835925
O O13 0.662215 0.525677 0.332699
O O14 0.956215 0.562898 0.093872
O O15 0.569246 0.297067 0.024400
O O16 0.318580 0.014965 0.205909
#
# Coordination Sequence:
#
# PCOD8000042 Si02
#       8
#     1   1   1   1   1   1   1   1
#     4   9  21  42  63  94 129 168 211 263 319 378
#     4  10  24  42  67  94 129 168 217 261 315 384
#     4  10  20  41  69  91 127 167 213 265 315 373
#     4   9  22  43  61  88 133 169 200 265 317 372
#     4  12  24  39  68 100 127 169 215 262 322 378
#     4  11  23  40  65  95 128 168 215 262 319 375
#     4  10  20  41  66  94 124 170 214 263 315 377
#     4  11  24  40  65  96 135 165 209 267 322 377
#
# _framework density 21.678652
#
# number of rings (size 3 to 8) (size 9 to 14) (size 15 to 20)
#    0.000    2.000    3.750    0.750    3.500    3.000 
#    0.000    5.000    0.000    0.000    0.000    0.000 
#    0.000    0.000    0.000    0.000    0.000    0.000 
#
# Total GULP energy -99134.086122 kJ/mol
# GULP energy per Si atom -12391.760765 kJ/mol
# Density = 2.162931 g / cm^3
# Si number density = 21.678652 Si / 1000 Ang^3
#
#
#
# Elastic Constant Matrix: (Units=GPa)
#
#
# Indices 1 2 3 4 5 6 
#
# 1 113.5584 38.5289 44.7251 -1.8984 -12.2329 12.1509
# 2 38.5289 113.4610 35.8730 -16.2993 -5.6666 28.1868
# 3 44.7251 35.8730 111.0073 -17.1792 -3.9802 6.2840
# 4 -1.8984 -16.2993 -17.1792 21.6490 -6.2629 4.0443
# 5 -12.2329 -5.6666 -3.9802 -6.2629 37.2545 -6.1404
# 6 12.1509 28.1868 6.2840 4.0443 -6.1404 29.9729
#
#
#
# Elastic Compliance Matrix: (Units=1/GPa)
#
#
# Indices 1 2 3 4 5 6 
#
# 1 0.011709 -0.003126 -0.004264 -0.004079 0.002244 0.000097
# 2 -0.003126 0.016083 -0.000788 0.014439 0.001226 -0.015389
# 3 -0.004264 -0.000788 0.012579 0.009599 0.001238 -0.001209
# 4 -0.004079 0.014439 0.009599 0.071318 0.010337 -0.021442
# 5 0.002244 0.001226 0.001238 0.010337 0.030037 0.002436
# 6 0.000097 -0.015389 -0.001209 -0.021442 0.002436 0.051442
#
#
# Mechanical properties :
#
#
# Convention : Reuss Voigt Hill
#
# Bulk Modulus (GPa) = 41.64015 64.03118 52.83567
# Shear Modulus (GPa) = 22.98537 32.36859 27.67698
#
# Velocity S-wave (km/s) = 3.25972 3.86827 3.57696
# Velocity P-wave (km/s) = 5.78077 7.03932 6.44086
#
# Compressibility (1/GPa) = 0.02401528
#
# Stress axis : x y z
#
# Youngs Moduli (GPa) = 85.40348 62.17797 79.49536
#
# Poissons Ratio (x) = 0.19438 0.33895
# Poissons Ratio (y) = 0.26699 0.06265
# Poissons Ratio (z) = 0.36414 0.04901
#
# Static dielectric constant tensor:
#      x y z
#    x 4.151050 0.028510 -0.053860 
#    y 0.028510 3.541220 -0.109570 
#    z -0.053860 -0.109570 3.986280 
# 
# 
# High freq. dielectric constant tensor:
#      x y z
#    x 1.862900 -0.004780 -0.000870 
#    y -0.004780 1.818790 -0.010700 
#    z -0.000870 -0.010700 1.855330 
# 
# From -- ./inp_files/6489.got.cif
#   From: 2010.03.12/outbox.cif.g09.slc.cpg/sg1_4_cif.got.tgz:6489.got - 2010.03.29 11:57:58.
