data_PCOD8000034
_publ_section_title
;
Structure prediction by ZEFSAII (Michael W. Deem and Ramdas Pophale) SiO2 
 PCOD8000034
Probable space group: P 1
;
_chemical_formula_sum "Si O2"
_cell_formula_units_Z 8
_cell_length_a 8.046815
_cell_length_b 10.690309
_cell_length_c 13.176043
_cell_angle_alpha 145.560447
_cell_angle_beta 30.409463
_cell_angle_gamma 137.702086
_cell_volume 322.860816
_symmetry_space_group_name_H-M "P 1"
_symmetry_group_IT_number 1
_symmetry_cell_setting 'triclinic'
loop_
_space_group_symop_operation_xyz
x,y,z
loop_
_atom_site_type_symbol
_atom_site_label
_atom_site_fract_x
_atom_site_fract_y
_atom_site_fract_z
Si Si1 0.735470 0.855770 0.786990
Si Si2 0.361252 0.120521 0.999732
Si Si3 0.931555 0.270486 0.490299
Si Si4 0.105300 0.855551 0.233107
Si Si5 0.194078 0.672433 0.268481
Si Si6 0.186133 0.256960 0.856754
Si Si7 0.964478 0.698557 0.878825
Si Si8 0.919673 0.475859 0.951992
O O1 0.965649 0.684829 0.497283
O O2 0.450870 0.752746 0.946043
O O3 0.962116 0.033295 0.852903
O O4 0.559356 0.990801 0.887220
O O5 0.611226 0.322433 0.957934
O O6 0.080856 0.245616 0.284857
O O7 0.176766 0.934260 0.896836
O O8 0.551262 0.192210 0.631390
O O9 0.003547 0.530134 0.653882
O O10 0.090618 0.110601 0.380498
O O11 0.085360 0.851005 0.362315
O O12 0.821978 0.683715 0.213523
O O13 0.582158 0.729628 0.126342
O O14 0.112299 0.433085 0.099628
O O15 0.125194 0.329363 0.820438
O O16 0.117033 0.592180 0.829548
#
# Coordination Sequence:
#
# PCOD8000034 Si02
#       8
#     1   1   1   1   1   1   1   1
#     4  10  20  39  66  89 128 166 210 265 314 377
#     4  10  22  41  63  94 125 166 214 264 318 378
#     4  10  21  41  65  91 130 163 212 273 311 384
#     4  10  22  43  66  95 129 172 214 262 329 376
#     4  10  23  42  63  92 132 168 212 267 315 384
#     4   9  21  40  63  94 128 164 216 263 315 386
#     4  11  22  43  63  95 129 165 216 261 321 386
#     4  10  21  43  63  90 131 166 212 261 321 377
#
# _framework density 24.778478
#
# number of rings (size 3 to 8) (size 9 to 14) (size 15 to 20)
#    0.000    2.000    2.500    0.750    3.500    4.000 
#   11.250    0.000    0.000    0.000    0.000    0.000 
#    0.000    0.000    0.000    0.000    0.000    0.000 
#
# Total GULP energy -99107.095504 kJ/mol
# GULP energy per Si atom -12388.386938 kJ/mol
# Density = 2.472208 g / cm^3
# Si number density = 24.778478 Si / 1000 Ang^3
#
#
#
# Elastic Constant Matrix: (Units=GPa)
#
#
# Indices 1 2 3 4 5 6 
#
# 1 58.3063 23.6710 18.9021 5.6720 8.0163 21.7143
# 2 23.6710 125.1436 37.1053 16.4046 11.3565 36.1138
# 3 18.9021 37.1053 123.2790 1.2768 5.3349 21.4371
# 4 5.6720 16.4046 1.2768 26.2605 5.8586 7.6284
# 5 8.0163 11.3565 5.3349 5.8586 21.4971 4.3110
# 6 21.7143 36.1138 21.4371 7.6284 4.3110 41.0103
#
#
#
# Elastic Compliance Matrix: (Units=1/GPa)
#
#
# Indices 1 2 3 4 5 6 
#
# 1 0.022314 -0.000340 -0.001299 -0.000318 -0.005691 -0.010179
# 2 -0.000340 0.011770 -0.001915 -0.004197 -0.002847 -0.008104
# 3 -0.001299 -0.001915 0.009393 0.002024 -0.000820 -0.002826
# 4 -0.000318 -0.004197 0.002024 0.044023 -0.009280 -0.004407
# 5 -0.005691 -0.002847 -0.000820 -0.009280 0.052443 0.002163
# 6 -0.010179 -0.008104 -0.002826 -0.004407 0.002163 0.038980
#
#
# Mechanical properties :
#
#
# Convention : Reuss Voigt Hill
#
# Bulk Modulus (GPa) = 27.49559 51.78729 39.64144
# Shear Modulus (GPa) = 25.23288 32.89028 29.06158
#
# Velocity S-wave (km/s) = 3.19460 3.64727 3.42841
# Velocity P-wave (km/s) = 4.97272 6.21950 5.63073
#
# Compressibility (1/GPa) = 0.03636948
#
# Stress axis : x y z
#
# Youngs Moduli (GPa) = 44.81433 84.96240 106.46029
#
# Poissons Ratio (x) = 0.02888 0.13834
# Poissons Ratio (y) = 0.01523 0.20383
# Poissons Ratio (z) = 0.05823 0.16267
#
# Static dielectric constant tensor:
#      x y z
#    x 4.452870 0.389490 0.017460 
#    y 0.389490 5.005720 -0.025090 
#    z 0.017460 -0.025090 4.442580 
# 
# 
# High freq. dielectric constant tensor:
#      x y z
#    x 1.980960 0.018080 0.001110 
#    y 0.018080 1.987620 0.015060 
#    z 0.001110 0.015060 1.971420 
# 
# From -- ./inp_files/4033.got.cif
#   From: 2010.03.12/outbox.cif.g09.slc.cpg/sg1_3_cif.got.tgz:4033.got - 2010.03.29 11:57:58.
