data_PCOD8000539
_publ_section_title
;
Structure prediction by ZEFSAII (Michael W. Deem and Ramdas Pophale) SiO2 
 PCOD8000539
Probable space group: P -1
;
_chemical_formula_sum "Si O2"
_cell_formula_units_Z 16
_cell_length_a 21.576844
_cell_length_b 18.302711
_cell_length_c 8.833248
_cell_angle_alpha 56.361710
_cell_angle_beta 45.856349
_cell_angle_gamma 19.528881
_cell_volume 756.639415
_symmetry_space_group_name_H-M "P -1"
_symmetry_group_IT_number 2
_symmetry_cell_setting 'triclinic'
loop_
_space_group_symop_operation_xyz
x,y,z
-x,-y,-z
loop_
_atom_site_type_symbol
_atom_site_label
_atom_site_fract_x
_atom_site_fract_y
_atom_site_fract_z
Si Si1 0.854360 0.876609 0.904581
Si Si2 0.141619 0.977440 0.894988
Si Si3 0.882210 0.524724 0.242721
Si Si4 0.372295 0.611248 0.747886
Si Si5 0.798581 0.122399 0.746445
Si Si6 0.664963 0.698606 0.729197
Si Si7 0.581232 0.959560 0.574450
Si Si8 0.969209 0.732429 0.196896
O O1 0.974535 0.698861 0.782835
O O2 0.856533 0.975327 0.731113
O O3 0.017331 0.716532 0.961052
O O4 0.580789 0.108530 0.140621
O O5 0.312982 0.765180 0.730918
O O6 0.174479 0.050973 0.729171
O O7 0.214022 0.879397 0.051589
O O8 0.866280 0.218260 0.056834
O O9 0.851943 0.547226 0.450668
O O10 0.617350 0.783715 0.323378
O O11 0.000000 0.500000 0.000000
O O12 0.500000 0.500000 0.500000
O O13 0.541250 0.400888 0.818040
O O14 0.000000 0.000000 0.500000
O O15 0.606495 0.843937 0.756221
O O16 0.783215 0.517644 0.850211
O O17 0.830092 0.772843 0.378028
O O18 0.500000 0.000000 0.500000
#
# Coordination Sequence:
#
# PCOD8000539 Si02
#       8
#     2   2   2   2   2   2   2   2
#     4  11  23  43  64  90 131 166 210 267 311 375
#     4  10  24  42  65  93 127 169 208 267 324 372
#     4  11  21  40  66  89 127 166 206 258 319 371
#     4  11  22  43  66  90 128 164 210 268 316 378
#     4  11  23  42  64  95 128 170 215 259 324 383
#     4  11  22  42  65  90 126 170 209 261 317 368
#     4  10  19  39  64  85 126 167 198 256 313 363
#     4  11  22  42  64  94 125 164 217 257 312 381
#
# _framework density 21.146137
#
# number of rings (size 3 to 8) (size 9 to 14) (size 15 to 20)
#    0.000    1.250    5.000    2.250    0.000    2.000 
#    4.500    1.250    0.000    0.000    0.000    0.000 
#    0.000    0.000    0.000    0.000    0.000    0.000 
#
# Total GULP energy -198255.575405 kJ/mol
# GULP energy per Si atom -12390.973463 kJ/mol
# Density = 2.109801 g / cm^3
# Si number density = 21.146137 Si / 1000 Ang^3
#
#
#
# Elastic Constant Matrix: (Units=GPa)
#
#
# Indices 1 2 3 4 5 6 
#
# 1 109.3567 64.4931 34.1216 0.3318 -7.6437 23.4146
# 2 64.4931 171.7121 43.5354 -3.0032 3.3242 4.4041
# 3 34.1216 43.5354 71.8257 3.0992 -4.2421 10.9955
# 4 0.3318 -3.0032 3.0992 29.3006 9.3816 0.9583
# 5 -7.6437 3.3242 -4.2421 9.3816 25.7663 -10.0683
# 6 23.4146 4.4041 10.9955 0.9583 -10.0683 45.6345
#
#
#
# Elastic Compliance Matrix: (Units=1/GPa)
#
#
# Indices 1 2 3 4 5 6 
#
# 1 0.014039 -0.004447 -0.002948 -0.000900 0.002428 -0.005509
# 2 -0.004447 0.008452 -0.003537 0.002266 -0.003206 0.001563
# 3 -0.002948 -0.003537 0.018051 -0.003144 0.003008 -0.001765
# 4 -0.000900 0.002266 -0.003144 0.040324 -0.017180 -0.003637
# 5 0.002428 -0.003206 0.003008 -0.017180 0.050544 0.009851
# 6 -0.005509 0.001563 -0.001765 -0.003637 0.009851 0.027264
#
#
# Mechanical properties :
#
#
# Convention : Reuss Voigt Hill
#
# Bulk Modulus (GPa) = 53.54081 70.79940 62.17010
# Shear Modulus (GPa) = 26.77167 34.18989 30.48078
#
# Velocity S-wave (km/s) = 3.56199 4.02536 3.80074
# Velocity P-wave (km/s) = 6.50319 7.42687 6.98032
#
# Compressibility (1/GPa) = 0.01867734
#
# Stress axis : x y z
#
# Youngs Moduli (GPa) = 71.23109 118.31176 55.39920
#
# Poissons Ratio (x) = 0.52610 0.16334
# Poissons Ratio (y) = 0.31675 0.19595
# Poissons Ratio (z) = 0.21002 0.41848
#
# Static dielectric constant tensor:
#      x y z
#    x 3.968290 0.237880 -0.115190 
#    y 0.237880 4.432160 -0.019180 
#    z -0.115190 -0.019180 3.536340 
# 
# 
# High freq. dielectric constant tensor:
#      x y z
#    x 1.825920 0.011350 -0.015440 
#    y 0.011350 1.855260 -0.003130 
#    z -0.015440 -0.003130 1.801060 
# 
# From -- ./inp_files/348414.got.cif
#   From: 2010.06.25/outbox.cif.g09.slc.cpg/sg2_175_cif.got.tgz:348414.got - 2010.06.27 13:26:56.
