data_PCOD8000956
_publ_section_title
;
Structure prediction by ZEFSAII (Michael W. Deem and Ramdas Pophale) SiO2 
 PCOD8000956
Probable space group: P -1
;
_chemical_formula_sum "Si O2"
_cell_formula_units_Z 16
_cell_length_a 10.823883
_cell_length_b 9.499713
_cell_length_c 7.421072
_cell_angle_alpha 78.405702
_cell_angle_beta 92.078423
_cell_angle_gamma 76.619365
_cell_volume 724.452818
_symmetry_space_group_name_H-M "P -1"
_symmetry_group_IT_number 2
_symmetry_cell_setting 'triclinic'
loop_
_space_group_symop_operation_xyz
x,y,z
-x,-y,-z
loop_
_atom_site_type_symbol
_atom_site_label
_atom_site_fract_x
_atom_site_fract_y
_atom_site_fract_z
Si Si1 0.766955 0.305171 0.671766
Si Si2 0.994726 0.670937 0.464918
Si Si3 0.044280 0.879906 0.690317
Si Si4 0.612144 0.569540 0.424325
Si Si5 0.218555 0.022158 0.207731
Si Si6 0.550645 0.356362 0.925002
Si Si7 0.302051 0.935066 0.845098
Si Si8 0.712871 0.826560 0.488954
O O1 0.731854 0.425627 0.473985
O O2 0.681661 0.366639 0.826191
O O3 0.919242 0.290692 0.707675
O O4 0.744921 0.144499 0.663060
O O5 0.849937 0.765162 0.415892
O O6 0.000000 0.500000 0.500000
O O7 0.054191 0.718733 0.641993
O O8 0.176967 0.886053 0.784435
O O9 0.933997 0.912793 0.827671
O O10 0.000000 0.000000 0.500000
O O11 0.500000 0.500000 0.500000
O O12 0.569092 0.646687 0.210721
O O13 0.635501 0.699738 0.521249
O O14 0.278997 0.123592 0.317595
O O15 0.274753 0.022052 0.011083
O O16 0.500000 0.500000 0.000000
O O17 0.582434 0.210280 0.087327
O O18 0.353393 0.034506 0.676099
#
# Coordination Sequence:
#
# PCOD8000956 Si02
#       8
#     2   2   2   2   2   2   2   2
#     4  10  19  40  67  90 131 168 221 264 328 400
#     4  11  20  34  65 105 128 168 213 263 337 405
#     4  11  19  35  64  94 134 174 208 258 341 401
#     4  10  23  44  65  88 127 180 224 269 323 389
#     4  10  21  38  66 102 128 171 217 265 341 401
#     4  10  25  41  62  94 125 181 229 267 325 380
#     4  11  22  40  66  96 133 168 224 280 323 395
#     4  11  22  41  69  98 135 169 215 279 336 390
#
# _framework density 22.085633000000001
#
# number of rings (size 3 to 8) (size 9 to 14) (size 15 to 20)
#    0.000    1.500    5.000    0.375    3.500    1.500 
#    4.500    5.625    0.000    5.250    0.000    0.000 
#    0.000    0.000    0.000    0.000    0.000    0.000 
#
# Total GULP energy -198247.065501 kJ/mol
# GULP energy per Si atom -12390.441594 kJ/mol
# Density = 2.203536 g / cm^3
# Si number density = 22.085633 Si / 1000 Ang^3
#
#
#
# Elastic Constant Matrix: (Units=GPa)
#
#
# Indices 1 2 3 4 5 6 
#
# 1 67.0767 40.8843 21.1351 14.5738 0.3983 8.4488
# 2 40.8843 140.0068 44.2736 20.8905 12.8698 9.0482
# 3 21.1351 44.2736 80.0792 8.0924 20.6088 2.1636
# 4 14.5738 20.8905 8.0924 41.5079 -6.6770 2.3519
# 5 0.3983 12.8698 20.6088 -6.6770 33.1128 7.8082
# 6 8.4488 9.0482 2.1636 2.3519 7.8082 43.2683
#
#
#
# Elastic Compliance Matrix: (Units=1/GPa)
#
#
# Indices 1 2 3 4 5 6 
#
# 1 0.019701 -0.004332 -0.003307 -0.003330 0.003598 -0.003244
# 2 -0.004332 0.010281 -0.003624 -0.003273 -0.002220 -0.000544
# 3 -0.003307 -0.003624 0.018420 -0.002549 -0.011151 0.002633
# 4 -0.003330 -0.003273 -0.002549 0.028979 0.009159 -0.001766
# 5 0.003598 -0.002220 -0.011151 0.009159 0.041620 -0.007689
# 6 -0.003244 -0.000544 0.002633 -0.001766 -0.007689 0.025211
#
#
# Mechanical properties :
#
#
# Convention : Reuss Voigt Hill
#
# Bulk Modulus (GPa) = 38.64338 55.52764 47.08551
# Shear Modulus (GPa) = 28.51239 35.63577 32.07408
#
# Velocity S-wave (km/s) = 3.59694 4.02123 3.81499
# Velocity P-wave (km/s) = 5.89794 6.83791 6.38524
#
# Compressibility (1/GPa) = 0.02587765
#
# Stress axis : x y z
#
# Youngs Moduli (GPa) = 50.75849 97.26589 54.28789
#
# Poissons Ratio (x) = 0.42132 0.17951
# Poissons Ratio (y) = 0.21987 0.19675
# Poissons Ratio (z) = 0.16784 0.35250
#
# Static dielectric constant tensor:
#      x y z
#    x 4.620480 -0.546320 0.498940 
#    y -0.546320 4.672360 -0.209820 
#    z 0.498940 -0.209820 4.268210 
# 
# 
# High freq. dielectric constant tensor:
#      x y z
#    x 1.866120 -0.013280 0.005570 
#    y -0.013280 1.884050 0.004380 
#    z 0.005570 0.004380 1.840130 
# 
# From -- ./inp_files/234792.got.cif
#   From: 2010.06.25/outbox.cif.g09.slc.cpg/sg2_118_cif.got.tgz:234792.got - 2010.06.27 13:26:56.
