data_PCOD8000903
_publ_section_title
;
Structure prediction by ZEFSAII (Michael W. Deem and Ramdas Pophale) SiO2 
 PCOD8000903
Probable space group: P -1
;
_chemical_formula_sum "Si O2"
_cell_formula_units_Z 16
_cell_length_a 21.077116
_cell_length_b 9.335639
_cell_length_c 17.181156
_cell_angle_alpha 137.770198
_cell_angle_beta 18.901776
_cell_angle_gamma 137.630037
_cell_volume 724.602305
_symmetry_space_group_name_H-M "P -1"
_symmetry_group_IT_number 2
_symmetry_cell_setting 'triclinic'
loop_
_space_group_symop_operation_xyz
x,y,z
-x,-y,-z
loop_
_atom_site_type_symbol
_atom_site_label
_atom_site_fract_x
_atom_site_fract_y
_atom_site_fract_z
Si Si1 0.594908 0.601392 0.771268
Si Si2 0.115249 0.210086 0.908523
Si Si3 0.827318 0.659831 0.680477
Si Si4 0.755032 0.232180 0.695054
Si Si5 0.081897 0.077033 0.720213
Si Si6 0.337709 0.147590 0.916849
Si Si7 0.479237 0.825514 0.522565
Si Si8 0.154779 0.466077 0.686692
O O1 0.759158 0.617801 0.654908
O O2 0.465295 0.362485 0.817965
O O3 0.716333 0.648665 0.569685
O O4 0.450589 0.778230 0.022454
O O5 0.157166 0.154299 0.748589
O O6 0.324614 0.280264 0.737914
O O7 0.998500 0.410608 0.131577
O O8 0.000000 0.000000 0.000000
O O9 0.778068 0.441675 0.698632
O O10 0.062543 0.755248 0.450246
O O11 0.697540 0.824449 0.938387
O O12 0.748177 0.027473 0.563312
O O13 0.037357 0.282194 0.804831
O O14 0.881093 0.897450 0.887849
O O15 0.447406 0.947573 0.689735
O O16 0.292575 0.639309 0.650369
O O17 0.500000 0.000000 0.500000
#
# Coordination Sequence:
#
# PCOD8000903 Si02
#       8
#     2   2   2   2   2   2   2   2
#     4  11  22  39  69  94 132 171 230 266 317 397
#     4  12  25  42  72  95 126 183 219 266 331 390
#     4   9  20  36  63 102 124 165 229 275 315 383
#     4   9  20  38  63  96 130 174 213 276 329 375
#     4  11  25  44  68  96 144 170 215 277 340 389
#     4  10  19  40  65  92 133 169 215 280 312 381
#     4  12  23  42  68 100 129 168 227 271 321 396
#     4  12  27  46  61 104 142 170 213 283 331 392
#
# _framework density 22.081075999999999
#
# number of rings (size 3 to 8) (size 9 to 14) (size 15 to 20)
#    0.000    1.250    3.750    2.625    5.250    2.000 
#    0.000    2.500    0.000    0.000    0.000    0.000 
#    0.000    0.000    0.000    0.000    0.000    0.000 
#
# Total GULP energy -198394.164849 kJ/mol
# GULP energy per Si atom -12399.635303 kJ/mol
# Density = 2.203082 g / cm^3
# Si number density = 22.081076 Si / 1000 Ang^3
#
#
#
# Elastic Constant Matrix: (Units=GPa)
#
#
# Indices 1 2 3 4 5 6 
#
# 1 92.8125 33.9776 40.4533 -3.1242 3.1948 -5.1627
# 2 33.9776 47.7167 25.8402 4.4170 5.7296 -1.5914
# 3 40.4533 25.8402 133.0666 18.8314 -2.4747 -4.7533
# 4 -3.1242 4.4170 18.8314 29.2581 10.8372 0.3779
# 5 3.1948 5.7296 -2.4747 10.8372 35.7593 3.7563
# 6 -5.1627 -1.5914 -4.7533 0.3779 3.7563 22.7612
#
#
#
# Elastic Compliance Matrix: (Units=1/GPa)
#
#
# Indices 1 2 3 4 5 6 
#
# 1 0.016607 -0.009877 -0.004043 0.006758 -0.002495 0.002531
# 2 -0.009877 0.029982 -0.002490 -0.002776 -0.003244 -0.000083
# 3 -0.004043 -0.002490 0.010493 -0.008273 0.003932 0.000589
# 4 0.006758 -0.002776 -0.008273 0.046126 -0.014847 0.001295
# 5 -0.002495 -0.003244 0.003932 -0.014847 0.034040 -0.005343
# 6 0.002531 -0.000083 0.000589 0.001295 -0.005343 0.045486
#
#
# Mechanical properties :
#
#
# Convention : Reuss Voigt Hill
#
# Bulk Modulus (GPa) = 41.21768 52.68202 46.94985
# Shear Modulus (GPa) = 22.35720 29.11070 25.73395
#
# Velocity S-wave (km/s) = 3.18544 3.63486 3.41754
# Velocity P-wave (km/s) = 5.67771 6.44410 6.07301
#
# Compressibility (1/GPa) = 0.02426143
#
# Stress axis : x y z
#
# Youngs Moduli (GPa) = 60.21677 33.35280 95.30582
#
# Poissons Ratio (x) = 0.32944 0.38530
# Poissons Ratio (y) = 0.59478 0.23731
# Poissons Ratio (z) = 0.24344 0.08305
#
# Static dielectric constant tensor:
#      x y z
#    x 3.874910 0.287540 0.139860 
#    y 0.287540 3.903660 0.257030 
#    z 0.139860 0.257030 4.468670 
# 
# 
# High freq. dielectric constant tensor:
#      x y z
#    x 1.855600 0.020180 0.009350 
#    y 0.020180 1.847360 0.006140 
#    z 0.009350 0.006140 1.883910 
# 
# From -- ./inp_files/577616.got.cif
#   From: 2010.06.25/outbox.cif.g09.slc.cpg/sg2_289_cif.got.tgz:577616.got - 2010.06.27 13:26:56.
