data_PCOD8000279
_publ_section_title
;
Structure prediction by ZEFSAII (Michael W. Deem and Ramdas Pophale) SiO2 
 PCOD8000279
Probable space group: P 1
;
_chemical_formula_sum "Si O2"
_cell_formula_units_Z 6
_cell_length_a 8.993700
_cell_length_b 4.946362
_cell_length_c 11.521270
_cell_angle_alpha 89.004828
_cell_angle_beta 25.079253
_cell_angle_gamma 89.575052
_cell_volume 217.174961
_symmetry_space_group_name_H-M "P 1"
_symmetry_group_IT_number 1
_symmetry_cell_setting 'triclinic'
loop_
_space_group_symop_operation_xyz
x,y,z
loop_
_atom_site_type_symbol
_atom_site_label
_atom_site_fract_x
_atom_site_fract_y
_atom_site_fract_z
Si Si1 0.802440 0.449690 0.828860
Si Si2 0.728428 0.949692 0.520199
Si Si3 0.276719 0.608494 0.005322
Si Si4 0.479736 0.709502 0.356457
Si Si5 0.791046 0.209502 0.252688
Si Si6 0.250490 0.108494 0.347397
O O1 0.076899 0.669585 0.690163
O O2 0.030888 0.212417 0.611277
O O3 0.588863 0.590539 0.876162
O O4 0.559690 0.326381 0.101610
O O5 0.924281 0.712415 0.313483
O O6 0.595602 0.169586 0.517262
O O7 0.395676 0.826387 0.822951
O O8 0.013676 0.090541 0.401226
O O9 0.185527 0.317520 0.009850
O O10 0.639894 0.415315 0.264209
O O11 0.747474 0.915315 0.228350
O O12 0.419287 0.817519 0.265263
#
# Coordination Sequence:
#
# PCOD8000279 Si02
#       6
#     1   1   1   1   1   1
#     4  12  27  49  83 116 155 208 265 320 386 470
#     4  12  27  49  83 116 155 208 265 320 386 470
#     4  12  27  49  83 116 155 208 265 320 386 470
#     4  12  28  52  78 120 160 204 258 330 394 458
#     4  12  28  52  78 120 160 204 258 330 394 458
#     4  12  27  49  83 116 155 208 265 320 386 470
#
# _framework density 27.627492
#
# number of rings (size 3 to 8) (size 9 to 14) (size 15 to 20)
#    0.000    0.000    6.667    2.000    0.000    2.667 
#    0.000    0.000    0.000    0.000    0.000    0.000 
#    0.000    0.000    0.000    0.000    0.000    0.000 
#
# Total GULP energy -74334.892174 kJ/mol
# GULP energy per Si atom -12389.148696 kJ/mol
# Density = 2.756461 g / cm^3
# Si number density = 27.627492 Si / 1000 Ang^3
#
#
#
# Elastic Constant Matrix: (Units=GPa)
#
#
# Indices 1 2 3 4 5 6 
#
# 1 129.6018 23.0239 -0.0829 -7.1403 -11.1748 -12.3269
# 2 23.0239 118.3395 12.2880 -18.7475 -3.3939 -5.4490
# 3 -0.0829 12.2880 70.9937 -18.1660 -7.4235 4.9920
# 4 -7.1403 -18.7475 -18.1660 44.8612 2.5773 -4.0844
# 5 -11.1748 -3.3939 -7.4235 2.5773 48.4322 -15.4406
# 6 -12.3269 -5.4490 4.9920 -4.0844 -15.4406 57.7670
#
#
#
# Elastic Compliance Matrix: (Units=1/GPa)
#
#
# Indices 1 2 3 4 5 6 
#
# 1 0.008478 -0.001352 0.000637 0.001109 0.002671 0.002419
# 2 -0.001352 0.009400 -0.000773 0.003471 0.000365 0.001008
# 3 0.000637 -0.000773 0.016030 0.006118 0.002121 -0.000323
# 4 0.001109 0.003471 0.006118 0.026547 0.000693 0.002098
# 5 0.002671 0.000365 0.002121 0.000693 0.023751 0.006819
# 6 0.002419 0.001008 -0.000323 0.002098 0.006819 0.019921
#
#
# Mechanical properties :
#
#
# Convention : Reuss Voigt Hill
#
# Bulk Modulus (GPa) = 32.32858 43.26588 37.79723
# Shear Modulus (GPa) = 42.58398 49.12581 45.85489
#
# Velocity S-wave (km/s) = 3.93028 4.22139 4.07843
# Velocity P-wave (km/s) = 5.68534 6.28129 5.99073
#
# Compressibility (1/GPa) = 0.03093239
#
# Stress axis : x y z
#
# Youngs Moduli (GPa) = 117.95205 106.37931 62.38135
#
# Poissons Ratio (x) = 0.14381 -0.03973
# Poissons Ratio (y) = 0.15946 0.04823
# Poissons Ratio (z) = -0.07513 0.08225
#
# Static dielectric constant tensor:
#      x y z
#    x 5.418550 -0.116590 -0.193370 
#    y -0.116590 5.205280 -0.401470 
#    z -0.193370 -0.401470 4.808830 
# 
# 
# High freq. dielectric constant tensor:
#      x y z
#    x 2.137270 -0.008370 -0.013290 
#    y -0.008370 2.131230 -0.028830 
#    z -0.013290 -0.028830 2.095370 
# 
# From -- ./inp_files/6228.got.cif
#   From: 2010.03.12/outbox.cif.g09.slc.cpg/sg1_4_cif.got.tgz:6228.got - 2010.03.29 11:57:58.
