data_PCOD8000260
_publ_section_title
;
Structure prediction by ZEFSAII (Michael W. Deem and Ramdas Pophale) SiO2 
 PCOD8000260
Probable space group: P 1
;
_chemical_formula_sum "Si O2"
_cell_formula_units_Z 8
_cell_length_a 11.058438
_cell_length_b 12.146438
_cell_length_c 6.236047
_cell_angle_alpha 48.056935
_cell_angle_beta 131.636346
_cell_angle_gamma 145.378884
_cell_volume 340.768238
_symmetry_space_group_name_H-M "P 1"
_symmetry_group_IT_number 1
_symmetry_cell_setting 'triclinic'
loop_
_space_group_symop_operation_xyz
x,y,z
loop_
_atom_site_type_symbol
_atom_site_label
_atom_site_fract_x
_atom_site_fract_y
_atom_site_fract_z
Si Si1 0.594310 0.172260 0.122500
Si Si2 0.855046 0.877750 0.713459
Si Si3 0.148507 0.179905 0.020358
Si Si4 0.466135 0.783039 0.546088
Si Si5 0.074742 0.559333 0.071700
Si Si6 0.321224 0.503554 0.116404
Si Si7 0.526838 0.451231 0.804539
Si Si8 0.172389 0.945994 0.659194
O O1 0.842589 0.332143 0.120072
O O2 0.553949 0.999869 0.440245
O O3 0.538179 0.282220 0.047248
O O4 0.417687 0.053426 0.877165
O O5 0.621301 0.821122 0.477364
O O6 0.763366 0.652337 0.917595
O O7 0.046437 0.986356 0.617807
O O8 0.932856 0.013465 0.840959
O O9 0.130501 0.284629 0.059448
O O10 0.208012 0.053122 0.339478
O O11 0.331159 0.372703 0.836113
O O12 0.214340 0.634110 0.358416
O O13 0.481035 0.684196 0.897592
O O14 0.197664 0.554697 0.030548
O O15 0.034046 0.707851 0.773631
O O16 0.474973 0.489751 0.458870
#
# Coordination Sequence:
#
# PCOD8000260 Si02
#       8
#     1   1   1   1   1   1   1   1
#     4  11  25  49  71 101 152 188 233 300 356 424
#     4  12  25  46  75 106 145 189 240 303 351 434
#     4  12  26  44  75 108 143 194 242 296 356 429
#     4  11  28  45  72 112 143 188 241 295 364 424
#     4  11  26  48  70 105 153 188 236 303 354 430
#     4  12  25  50  72 104 150 191 244 293 356 432
#     4  12  25  50  73 101 148 193 249 294 348 433
#     4  11  26  46  74 109 144 189 243 294 365 424
#
# _framework density 23.476364
#
# number of rings (size 3 to 8) (size 9 to 14) (size 15 to 20)
#    0.000    0.500    6.250    0.000    8.750    1.000 
#    4.500    0.000    0.000    0.000    0.000    0.000 
#    0.000    0.000    0.000    0.000    0.000    0.000 
#
# Total GULP energy -99117.511598 kJ/mol
# GULP energy per Si atom -12389.688950 kJ/mol
# Density = 2.342293 g / cm^3
# Si number density = 23.476364 Si / 1000 Ang^3
#
#
#
# Elastic Constant Matrix: (Units=GPa)
#
#
# Indices 1 2 3 4 5 6 
#
# 1 103.5127 37.7529 34.3107 -2.3538 8.4514 -3.9278
# 2 37.7529 157.6558 36.6797 -9.7112 -9.7635 1.9614
# 3 34.3107 36.6797 102.6124 -26.9397 -6.2484 7.7806
# 4 -2.3538 -9.7112 -26.9397 34.1234 -1.5235 6.7392
# 5 8.4514 -9.7635 -6.2484 -1.5235 25.0286 -2.2232
# 6 -3.9278 1.9614 7.7806 6.7392 -2.2232 49.5762
#
#
#
# Elastic Compliance Matrix: (Units=1/GPa)
#
#
# Indices 1 2 3 4 5 6 
#
# 1 0.012859 -0.002608 -0.005183 -0.004697 -0.006738 0.002272
# 2 -0.002608 0.007562 -0.001282 0.001179 0.003555 -0.000306
# 3 -0.005183 -0.001282 0.016046 0.013067 0.005661 -0.004401
# 4 -0.004697 0.001179 0.013067 0.041491 0.007142 -0.007789
# 5 -0.006738 0.003555 0.005661 0.007142 0.045420 -0.000497
# 6 0.002272 -0.000306 -0.004401 -0.007789 -0.000497 0.022090
#
#
# Mechanical properties :
#
#
# Convention : Reuss Voigt Hill
#
# Bulk Modulus (GPa) = 54.58164 64.58527 59.58346
# Shear Modulus (GPa) = 29.45995 38.74817 34.10406
#
# Velocity S-wave (km/s) = 3.54627 4.06706 3.81556
# Velocity P-wave (km/s) = 6.32994 7.04451 6.69676
#
# Compressibility (1/GPa) = 0.01832118
#
# Stress axis : x y z
#
# Youngs Moduli (GPa) = 77.76363 132.23343 62.32204
#
# Poissons Ratio (x) = 0.34491 0.32302
# Poissons Ratio (y) = 0.20283 0.07988
# Poissons Ratio (z) = 0.40305 0.16949
#
# Static dielectric constant tensor:
#      x y z
#    x 4.107880 -0.112180 0.128430 
#    y -0.112180 4.635020 -0.231940 
#    z 0.128430 -0.231940 4.097540 
# 
# 
# High freq. dielectric constant tensor:
#      x y z
#    x 1.918650 -0.006780 0.012400 
#    y -0.006780 1.961220 -0.019450 
#    z 0.012400 -0.019450 1.905750 
# 
# From -- ./inp_files/2353.got.cif
#   From: 2010.03.12/outbox.cif.g09.slc.cpg/sg1_2_cif.got.tgz:2353.got - 2010.03.29 11:57:58.
