data_PCOD8000180
_publ_section_title
;
Structure prediction by ZEFSAII (Michael W. Deem and Ramdas Pophale) SiO2 
 PCOD8000180
Probable space group: P 1
;
_chemical_formula_sum "Si O2"
_cell_formula_units_Z 8
_cell_length_a 11.931013
_cell_length_b 14.377557
_cell_length_c 6.624406
_cell_angle_alpha 135.671743
_cell_angle_beta 134.246439
_cell_angle_gamma 25.988646
_cell_volume 342.338937
_symmetry_space_group_name_H-M "P 1"
_symmetry_group_IT_number 1
_symmetry_cell_setting 'triclinic'
loop_
_space_group_symop_operation_xyz
x,y,z
loop_
_atom_site_type_symbol
_atom_site_label
_atom_site_fract_x
_atom_site_fract_y
_atom_site_fract_z
Si Si1 0.827420 0.481080 0.662510
Si Si2 0.478379 0.170710 0.465696
Si Si3 0.253248 0.089419 0.283685
Si Si4 0.648220 0.126869 0.213484
Si Si5 0.436574 0.725766 0.199949
Si Si6 0.097022 0.538818 0.274360
Si Si7 0.923326 0.917699 0.853486
Si Si8 0.822934 0.300985 0.767636
O O1 0.563728 0.667546 0.488165
O O2 0.809703 0.381842 0.659648
O O3 0.068902 0.283651 0.516646
O O4 0.871107 0.595828 0.997016
O O5 0.458581 0.054975 0.400877
O O6 0.641257 0.031148 0.246425
O O7 0.196582 0.418334 0.433805
O O8 0.657143 0.159315 0.792693
O O9 0.431120 0.859114 0.259333
O O10 0.095565 0.140654 0.973752
O O11 0.342392 0.373253 0.168158
O O12 0.802303 0.158429 0.494231
O O13 0.814196 0.936104 0.957689
O O14 0.588838 0.507132 0.936346
O O15 0.139916 0.881381 0.101924
O O16 0.998411 0.752758 0.531820
#
# Coordination Sequence:
#
# PCOD8000180 Si02
#       8
#     1   1   1   1   1   1   1   1
#     4  11  25  45  70 107 140 190 229 295 360 407
#     4  10  24  45  68 104 139 182 238 291 345 416
#     4  11  24  44  73 101 145 184 239 289 349 426
#     4  10  23  46  72 102 137 187 234 290 353 410
#     4  11  26  43  71 108 141 187 236 287 356 426
#     4  10  24  49  68 102 142 180 237 291 342 419
#     4  12  24  46  71 103 141 190 230 290 357 420
#     4  11  22  46  71 101 147 184 233 297 348 418
#
# _framework density 23.368652000000001
#
# number of rings (size 3 to 8) (size 9 to 14) (size 15 to 20)
#    0.750    0.500    2.500    2.250    1.750    6.000 
#    4.500    0.000    0.000    0.000    0.000    0.000 
#    0.000    0.000    0.000    0.000    0.000    0.000 
#
# Total GULP energy -99110.722143 kJ/mol
# GULP energy per Si atom -12388.840268 kJ/mol
# Density = 2.331546 g / cm^3
# Si number density = 23.368652 Si / 1000 Ang^3
#
#
#
# Elastic Constant Matrix: (Units=GPa)
#
#
# Indices 1 2 3 4 5 6 
#
# 1 129.5323 30.6221 39.0210 -13.7073 -8.8851 -5.1039
# 2 30.6221 80.8782 54.8914 -26.3547 0.4181 5.8771
# 3 39.0210 54.8914 109.2604 -32.3575 9.8133 -6.5787
# 4 -13.7073 -26.3547 -32.3575 50.7518 -0.4272 -5.8959
# 5 -8.8851 0.4181 9.8133 -0.4272 36.7818 -3.0294
# 6 -5.1039 5.8771 -6.5787 -5.8959 -3.0294 38.7187
#
#
#
# Elastic Compliance Matrix: (Units=1/GPa)
#
#
# Indices 1 2 3 4 5 6 
#
# 1 0.009184 -0.001852 -0.002514 0.000094 0.003020 0.001315
# 2 -0.001852 0.020762 -0.008928 0.004116 0.001403 -0.004176
# 3 -0.002514 -0.008928 0.016995 0.006000 -0.004602 0.004465
# 4 0.000094 0.004116 0.006000 0.026186 -0.000965 0.004319
# 5 0.003020 0.001403 -0.004602 -0.000965 0.029245 0.001544
# 6 0.001315 -0.004176 0.004465 0.004319 0.001544 0.028172
#
#
# Mechanical properties :
#
#
# Convention : Reuss Voigt Hill
#
# Bulk Modulus (GPa) = 49.12984 63.19332 56.16158
# Shear Modulus (GPa) = 30.50383 38.25955 34.38169
#
# Velocity S-wave (km/s) = 3.61686 4.05064 3.83988
# Velocity P-wave (km/s) = 6.20578 6.99840 6.61397
#
# Compressibility (1/GPa) = 0.02035423
#
# Stress axis : x y z
#
# Youngs Moduli (GPa) = 108.88476 48.16500 58.84221
#
# Poissons Ratio (x) = 0.08918 0.14792
# Poissons Ratio (y) = 0.20161 0.52533
# Poissons Ratio (z) = 0.27371 0.43001
#
# Static dielectric constant tensor:
#      x y z
#    x 4.162710 -0.170630 -0.149330 
#    y -0.170630 4.180530 -0.329000 
#    z -0.149330 -0.329000 4.297320 
# 
# 
# High freq. dielectric constant tensor:
#      x y z
#    x 1.927830 -0.014900 -0.005850 
#    y -0.014900 1.917630 -0.020000 
#    z -0.005850 -0.020000 1.929470 
# 
# From -- ./inp_files/2518.got.cif
#   From: 2010.03.12/outbox.cif.g09.slc.cpg/sg1_2_cif.got.tgz:2518.got - 2010.03.29 11:57:58.
