data_PCOD8000505
_publ_section_title
;
Structure prediction by ZEFSAII (Michael W. Deem and Ramdas Pophale) SiO2 
 PCOD8000505
Probable space group: P -1
;
_chemical_formula_sum "Si O2"
_cell_formula_units_Z 10
_cell_length_a 8.967849
_cell_length_b 6.860319
_cell_length_c 17.619336
_cell_angle_alpha 50.313627
_cell_angle_beta 38.177956
_cell_angle_gamma 49.218150
_cell_volume 488.871618
_symmetry_space_group_name_H-M "P -1"
_symmetry_group_IT_number 2
_symmetry_cell_setting 'triclinic'
loop_
_space_group_symop_operation_xyz
x,y,z
-x,-y,-z
loop_
_atom_site_type_symbol
_atom_site_label
_atom_site_fract_x
_atom_site_fract_y
_atom_site_fract_z
Si Si1 0.128229 0.663634 0.799858
Si Si2 0.394299 0.768958 0.255202
Si Si3 0.010702 0.759322 0.280880
Si Si4 0.274559 0.384894 0.134704
Si Si5 0.555157 0.574287 0.542867
O O1 0.316572 0.423412 0.833967
O O2 0.282408 0.736850 0.648410
O O3 0.898152 0.570636 0.882829
O O4 0.025166 0.947171 0.814860
O O5 0.209900 0.709916 0.281829
O O6 0.321493 0.689279 0.388066
O O7 0.390226 0.071988 0.184296
O O8 0.108451 0.533817 0.234645
O O9 0.743186 0.749389 0.422620
O O10 0.500000 0.500000 0.000000
O O11 0.500000 0.500000 0.500000
#
# Coordination Sequence:
#
# PCOD8000505 Si02
#       5
#     2   2   2   2   2
#     4   9  22  40  57  91 118 152 197 235 297 352
#     4   9  23  38  59  95 116 151 201 235 300 354
#     4  11  20  39  63  86 121 157 188 247 293 350
#     4  11  24  42  60  84 119 161 203 243 287 341
#     4  10  19  39  63  89 125 151 186 243 300 359
#
# _framework density 20.455268
#
# number of rings (size 3 to 8) (size 9 to 14) (size 15 to 20)
#    1.200    0.800    2.000    1.200    0.000    8.000 
#    0.000    2.000    0.000    0.000    0.000    0.000 
#    0.000    0.000    0.000    0.000    0.000    0.000 
#
# Total GULP energy -123922.538923 kJ/mol
# GULP energy per Si atom -12392.253892 kJ/mol
# Density = 2.040871 g / cm^3
# Si number density = 20.455268 Si / 1000 Ang^3
#
#
#
# Elastic Constant Matrix: (Units=GPa)
#
#
# Indices 1 2 3 4 5 6 
#
# 1 99.7478 54.2147 17.4321 -21.1459 -28.0831 -4.7124
# 2 54.2147 114.8143 4.7629 -22.6961 -8.7490 -4.7905
# 3 17.4321 4.7629 57.8787 -14.1157 -30.7853 4.4647
# 4 -21.1459 -22.6961 -14.1157 21.7365 4.3029 -10.1086
# 5 -28.0831 -8.7490 -30.7853 4.3029 40.4670 1.2884
# 6 -4.7124 -4.7905 4.4647 -10.1086 1.2884 25.0046
#
#
#
# Elastic Compliance Matrix: (Units=1/GPa)
#
#
# Indices 1 2 3 4 5 6 
#
# 1 0.020749 -0.004047 0.007562 0.022187 0.016603 0.009899
# 2 -0.004047 0.014347 0.004530 0.017453 0.001624 0.008149
# 3 0.007562 0.004530 0.039980 0.035159 0.032659 0.007686
# 4 0.022187 0.017453 0.035159 0.126071 0.030901 0.050622
# 5 0.016603 0.001624 0.032659 0.030901 0.057918 0.007117
# 6 0.009899 0.008149 0.007686 0.050622 0.007117 0.062145
#
#
# Mechanical properties :
#
#
# Convention : Reuss Voigt Hill
#
# Bulk Modulus (GPa) = 10.96893 47.25114 29.11004
# Shear Modulus (GPa) = 14.90275 30.51035 22.70655
#
# Velocity S-wave (km/s) = 2.70210 3.86627 3.33537
# Velocity P-wave (km/s) = 3.88705 6.56358 5.39397
#
# Compressibility (1/GPa) = 0.09116659
#
# Stress axis : x y z
#
# Youngs Moduli (GPa) = 48.19495 69.70267 25.01229
#
# Poissons Ratio (x) = 0.28210 -0.18915
# Poissons Ratio (y) = 0.19506 -0.11331
# Poissons Ratio (z) = -0.36447 -0.31576
#
# Static dielectric constant tensor:
#      x y z
#    x 3.673630 -0.090690 -0.232030 
#    y -0.090690 3.828200 0.014310 
#    z -0.232030 0.014310 3.517370 
# 
# 
# High freq. dielectric constant tensor:
#      x y z
#    x 1.804620 -0.000640 -0.022790 
#    y -0.000640 1.804670 -0.004560 
#    z -0.022790 -0.004560 1.783650 
# 
# From -- ./inp_files/1878.got.cif
#   From: 2010.06.25/outbox.cif.g09.slc.cpg/sg2_1_cif.got.tgz:1878.got - 2010.06.27 13:26:56.
