data_PCOD8000644
_publ_section_title
;
Structure prediction by ZEFSAII (Michael W. Deem and Ramdas Pophale) SiO2 
 PCOD8000644
Probable space group: P -1
;
_chemical_formula_sum "Si O2"
_cell_formula_units_Z 16
_cell_length_a 10.999530
_cell_length_b 11.199578
_cell_length_c 9.111444
_cell_angle_alpha 106.268488
_cell_angle_beta 45.486139
_cell_angle_gamma 121.232376
_cell_volume 677.961654
_symmetry_space_group_name_H-M "P -1"
_symmetry_group_IT_number 2
_symmetry_cell_setting 'triclinic'
loop_
_space_group_symop_operation_xyz
x,y,z
-x,-y,-z
loop_
_atom_site_type_symbol
_atom_site_label
_atom_site_fract_x
_atom_site_fract_y
_atom_site_fract_z
Si Si1 0.629992 0.321168 0.566214
Si Si2 0.921352 0.594972 0.792496
Si Si3 0.187736 0.697249 0.109822
Si Si4 0.194571 0.382962 0.422686
Si Si5 0.948429 0.109197 0.160785
Si Si6 0.119343 0.098082 0.303544
Si Si7 0.492267 0.121408 0.876599
Si Si8 0.362288 0.857004 0.735065
O O1 0.631162 0.473284 0.605868
O O2 0.524472 0.244170 0.777334
O O3 0.533884 0.219323 0.470622
O O4 0.851644 0.354117 0.389885
O O5 0.807662 0.451458 0.931916
O O6 0.847741 0.565058 0.678230
O O7 0.897459 0.722882 0.934989
O O8 0.365341 0.821102 0.087708
O O9 0.990034 0.682235 0.337024
O O10 0.207679 0.741839 0.938064
O O11 0.251082 0.258993 0.306309
O O12 0.739777 0.082986 0.272992
O O13 0.957579 0.087665 0.320303
O O14 0.000000 0.000000 0.000000
O O15 0.268501 0.050371 0.093171
O O16 0.000000 0.000000 0.500000
O O17 0.520189 0.995155 0.734156
#
# Coordination Sequence:
#
# PCOD8000644 Si02
#       8
#     2   2   2   2   2   2   2   2
#     4  10  20  38  61  91 125 158 211 255 311 361
#     4   9  18  37  66  90 124 166 209 259 300 374
#     4  11  21  40  66  98 126 159 216 256 313 364
#     4  10  19  39  66  90 124 169 210 255 301 378
#     4  10  21  42  61  89 125 169 211 247 312 377
#     4  11  25  43  64  92 124 169 213 254 310 379
#     4  12  22  41  63  93 129 165 204 260 314 373
#     4  11  24  38  62  98 124 167 206 264 312 361
#
# _framework density 23.600154
#
# number of rings (size 3 to 8) (size 9 to 14) (size 15 to 20)
#    0.000    1.500    3.750    2.250    0.000    5.000 
#    2.250    0.000    0.000    0.750    0.000    0.000 
#    0.000    0.000    0.000    0.000    0.000    0.000 
#
# Total GULP energy -198303.246060 kJ/mol
# GULP energy per Si atom -12393.952879 kJ/mol
# Density = 2.354644 g / cm^3
# Si number density = 23.600154 Si / 1000 Ang^3
#
#
#
# Elastic Constant Matrix: (Units=GPa)
#
#
# Indices 1 2 3 4 5 6 
#
# 1 47.9096 16.6220 17.6629 -3.4543 19.7526 3.7609
# 2 16.6220 145.7944 23.3453 23.0255 19.8286 9.7714
# 3 17.6629 23.3453 82.8327 -7.2577 22.9776 1.8321
# 4 -3.4543 23.0255 -7.2577 43.7864 -0.5132 4.8961
# 5 19.7526 19.8286 22.9776 -0.5132 22.5177 -4.9579
# 6 3.7609 9.7714 1.8321 4.8961 -4.9579 24.8309
#
#
#
# Elastic Compliance Matrix: (Units=1/GPa)
#
#
# Indices 1 2 3 4 5 6 
#
# 1 0.037543 0.001048 0.003796 0.004282 -0.041025 -0.015414
# 2 0.001048 0.009135 -0.000370 -0.004358 -0.009745 -0.004812
# 3 0.003796 -0.000370 0.018316 0.004065 -0.023188 -0.007212
# 4 0.004282 -0.004358 0.004065 0.026694 -0.004652 -0.005426
# 5 -0.041025 -0.009745 -0.023188 -0.004652 0.120627 0.036762
# 6 -0.015414 -0.004812 -0.007212 -0.005426 0.036762 0.053443
#
#
# Mechanical properties :
#
#
# Convention : Reuss Voigt Hill
#
# Bulk Modulus (GPa) = 13.52447 43.53300 28.52873
# Shear Modulus (GPa) = 17.76472 32.82078 25.29275
#
# Velocity S-wave (km/s) = 2.74658 3.73326 3.27726
# Velocity P-wave (km/s) = 3.97510 6.08844 5.14152
#
# Compressibility (1/GPa) = 0.07394004
#
# Stress axis : x y z
#
# Youngs Moduli (GPa) = 26.63641 109.46981 54.59827
#
# Poissons Ratio (x) = -0.11476 -0.20723
# Poissons Ratio (y) = -0.02792 0.02022
# Poissons Ratio (z) = -0.10110 0.04055
#
# Static dielectric constant tensor:
#      x y z
#    x 3.942600 0.134730 0.315390 
#    y 0.134730 5.213290 0.348620 
#    z 0.315390 0.348620 4.052030 
# 
# 
# High freq. dielectric constant tensor:
#      x y z
#    x 1.890190 0.006960 0.026330 
#    y 0.006960 1.971590 0.005270 
#    z 0.026330 0.005270 1.915440 
# 
# From -- ./inp_files/262666.got.cif
#   From: 2010.06.25/outbox.cif.g09.slc.cpg/sg2_132_cif.got.tgz:262666.got - 2010.06.27 13:26:56.
