data_PCOD8000702
_publ_section_title
;
Structure prediction by ZEFSAII (Michael W. Deem and Ramdas Pophale) SiO2 
 PCOD8000702
Probable space group: P -1
;
_chemical_formula_sum "Si O2"
_cell_formula_units_Z 12
_cell_length_a 9.978744
_cell_length_b 11.284477
_cell_length_c 9.337945
_cell_angle_alpha 78.169462
_cell_angle_beta 44.797698
_cell_angle_gamma 107.484339
_cell_volume 553.164042
_symmetry_space_group_name_H-M "P -1"
_symmetry_group_IT_number 2
_symmetry_cell_setting 'triclinic'
loop_
_space_group_symop_operation_xyz
x,y,z
-x,-y,-z
loop_
_atom_site_type_symbol
_atom_site_label
_atom_site_fract_x
_atom_site_fract_y
_atom_site_fract_z
Si Si1 0.730698 0.688342 0.116734
Si Si2 0.964539 0.309188 0.331167
Si Si3 0.126490 0.611640 0.240031
Si Si4 0.755742 0.668904 0.426128
Si Si5 0.996656 0.878562 0.436871
Si Si6 0.481371 0.162791 0.898816
O O1 0.772747 0.734186 0.239822
O O2 0.509696 0.501769 0.305982
O O3 0.673127 0.785354 0.050040
O O4 0.986650 0.735935 0.846637
O O5 0.075591 0.269668 0.381462
O O6 0.671445 0.206187 0.615562
O O7 0.117542 0.499114 0.159110
O O8 0.398251 0.760759 0.054728
O O9 0.000000 0.500000 0.500000
O O10 0.977116 0.663141 0.277940
O O11 0.797345 0.795584 0.477533
O O12 0.000000 0.000000 0.500000
O O13 0.274783 0.974366 0.134098
#
# Coordination Sequence:
#
# PCOD8000702 Si02
#       6
#     2   2   2   2   2   2
#     4  11  24  43  67  93 134 166 212 266 323 370
#     4  11  22  41  67  95 123 169 222 255 313 379
#     4  10  19  39  68  90 123 167 216 267 303 362
#     4  11  24  44  63  99 130 167 211 271 316 377
#     4  12  24  40  68  96 129 170 216 257 322 382
#     4  11  22  42  64  95 130 169 208 269 312 376
#
# _framework density 21.693384999999999
#
# number of rings (size 3 to 8) (size 9 to 14) (size 15 to 20)
#    0.000    1.000    8.333    0.500    2.333    2.667 
#    0.000    0.833    0.000    0.000    0.000    0.000 
#    0.000    0.000    0.000    0.000    0.000    0.000 
#
# Total GULP energy -148707.563883 kJ/mol
# GULP energy per Si atom -12392.296990 kJ/mol
# Density = 2.164401 g / cm^3
# Si number density = 21.693385 Si / 1000 Ang^3
#
#
#
# Elastic Constant Matrix: (Units=GPa)
#
#
# Indices 1 2 3 4 5 6 
#
# 1 80.6639 31.4052 14.8243 5.0221 -4.1552 5.2139
# 2 31.4052 108.8495 29.8618 14.5035 -1.0153 15.4495
# 3 14.8243 29.8618 61.6594 5.7613 3.6798 9.9777
# 4 5.0221 14.5035 5.7613 33.9913 -2.4303 -5.2007
# 5 -4.1552 -1.0153 3.6798 -2.4303 19.8039 3.5781
# 6 5.2139 15.4495 9.9777 -5.2007 3.5781 34.4603
#
#
#
# Elastic Compliance Matrix: (Units=1/GPa)
#
#
# Indices 1 2 3 4 5 6 
#
# 1 0.014306 -0.003514 -0.001852 -0.000132 0.003223 -0.000408
# 2 -0.003514 0.012665 -0.004118 -0.004851 0.000946 -0.004784
# 3 -0.001852 -0.004118 0.019649 -0.002110 -0.003881 -0.003478
# 4 -0.000132 -0.004851 -0.002110 0.033220 0.002833 0.007525
# 5 0.003223 0.000946 -0.003881 0.002833 0.053171 -0.004882
# 6 -0.000408 -0.004784 -0.003478 0.007525 -0.004882 0.033875
#
#
# Mechanical properties :
#
#
# Convention : Reuss Voigt Hill
#
# Bulk Modulus (GPa) = 36.16218 44.81727 40.48973
# Shear Modulus (GPa) = 25.63170 29.32319 27.47744
#
# Velocity S-wave (km/s) = 3.44109 3.68055 3.56283
# Velocity P-wave (km/s) = 5.70035 6.22625 5.96910
#
# Compressibility (1/GPa) = 0.02765320
#
# Stress axis : x y z
#
# Youngs Moduli (GPa) = 69.89985 78.95890 50.89280
#
# Poissons Ratio (x) = 0.27747 0.09424
# Poissons Ratio (y) = 0.24563 0.20956
# Poissons Ratio (z) = 0.12943 0.32513
#
# Static dielectric constant tensor:
#      x y z
#    x 3.886240 0.244810 -0.058460 
#    y 0.244810 5.388330 -0.250160 
#    z -0.058460 -0.250160 4.043140 
# 
# 
# High freq. dielectric constant tensor:
#      x y z
#    x 1.834240 -0.009400 -0.000140 
#    y -0.009400 1.854530 -0.002520 
#    z -0.000140 -0.002520 1.846380 
# 
# From -- ./inp_files/164183.got.cif
#   From: 2010.06.25/outbox.cif.g09.slc.cpg/sg2_83_cif.got.tgz:164183.got - 2010.06.27 13:26:56.
