data_PCOD8000366
_publ_section_title
;
Structure prediction by ZEFSAII (Michael W. Deem and Ramdas Pophale) SiO2 
 PCOD8000366
Probable space group: P -1
;
_chemical_formula_sum "Si O2"
_cell_formula_units_Z 14
_cell_length_a 8.167419
_cell_length_b 16.845880
_cell_length_c 16.271996
_cell_angle_alpha 23.900914
_cell_angle_beta 137.312130
_cell_angle_gamma 136.497179
_cell_volume 603.303897
_symmetry_space_group_name_H-M "P -1"
_symmetry_group_IT_number 2
_symmetry_cell_setting 'triclinic'
loop_
_space_group_symop_operation_xyz
x,y,z
-x,-y,-z
loop_
_atom_site_type_symbol
_atom_site_label
_atom_site_fract_x
_atom_site_fract_y
_atom_site_fract_z
Si Si1 0.155044 0.007891 0.438170
Si Si2 0.460761 0.723677 0.760782
Si Si3 0.309239 0.224365 0.454544
Si Si4 0.200555 0.715207 0.499598
Si Si5 0.571270 0.430407 0.721061
Si Si6 0.836560 0.937693 0.077422
Si Si7 0.803659 0.364348 0.707140
O O1 0.302326 0.818980 0.681048
O O2 0.860318 0.921929 0.403478
O O3 0.265595 0.135607 0.277941
O O4 0.189998 0.163828 0.379422
O O5 0.326827 0.749218 0.601728
O O6 0.500000 0.500000 0.000000
O O7 0.599779 0.214477 0.566084
O O8 0.300414 0.453126 0.261053
O O9 0.985941 0.840735 0.293387
O O10 0.072837 0.480201 0.665763
O O11 0.411687 0.217824 0.890422
O O12 0.781518 0.411198 0.751195
O O13 0.406333 0.573587 0.484246
O O14 0.764918 0.128726 0.910705
O O15 0.000000 0.000000 0.000000
#
# Coordination Sequence:
#
# PCOD8000366 Si02
#       7
#     2   2   2   2   2   2   2
#     4   9  21  39  62  89 119 155 203 253 300 360
#     4  10  21  42  66  90 120 158 202 253 304 355
#     4  10  19  39  60  84 123 160 194 251 304 348
#     4  10  22  38  61  89 123 158 199 249 301 361
#     4  10  21  38  60  88 124 160 204 251 296 361
#     4  11  22  38  61  92 124 160 201 246 305 365
#     4  10  21  38  60  89 122 160 202 249 302 362
#
# _framework density 23.205553999999999
#
# number of rings (size 3 to 8) (size 9 to 14) (size 15 to 20)
#    0.000    2.000    0.000    3.000    0.000    5.714 
#    0.000   17.857    0.000    0.000    0.000    0.000 
#    0.000    0.000    0.000    0.000    0.000    0.000 
#
# Total GULP energy -173445.388479 kJ/mol
# GULP energy per Si atom -12388.956320 kJ/mol
# Density = 2.315274 g / cm^3
# Si number density = 23.205554 Si / 1000 Ang^3
#
#
#
# Elastic Constant Matrix: (Units=GPa)
#
#
# Indices 1 2 3 4 5 6 
#
# 1 135.2631 64.6970 40.7463 -28.2899 2.5465 21.8925
# 2 64.6970 111.7923 48.7625 -44.5335 4.9150 13.2389
# 3 40.7463 48.7625 117.3815 -39.6795 4.6072 3.0737
# 4 -28.2899 -44.5335 -39.6795 40.5128 -5.1828 -5.9961
# 5 2.5465 4.9150 4.6072 -5.1828 28.5684 -17.1443
# 6 21.8925 13.2389 3.0737 -5.9961 -17.1443 55.1312
#
#
#
# Elastic Compliance Matrix: (Units=1/GPa)
#
#
# Indices 1 2 3 4 5 6 
#
# 1 0.010945 -0.005355 -0.001611 -0.000643 -0.002134 -0.003704
# 2 -0.005355 0.018871 -0.000369 0.016543 -0.000073 -0.000608
# 3 -0.001611 -0.000369 0.013093 0.011690 0.001203 0.001644
# 4 -0.000643 0.016543 0.011690 0.055482 0.007857 0.004109
# 5 -0.002134 -0.000073 0.001203 0.007857 0.046017 0.015963
# 6 -0.003704 -0.000608 0.001644 0.004109 0.015963 0.025075
#
#
# Mechanical properties :
#
#
# Convention : Reuss Voigt Hill
#
# Bulk Modulus (GPa) = 35.41381 74.76093 55.08737
# Shear Modulus (GPa) = 25.83087 38.85789 32.34438
#
# Velocity S-wave (km/s) = 3.33998 4.09651 3.73744
# Velocity P-wave (km/s) = 5.49254 7.39338 6.51268
#
# Compressibility (1/GPa) = 0.02823757
#
# Stress axis : x y z
#
# Youngs Moduli (GPa) = 91.36705 52.99252 76.37381
#
# Poissons Ratio (x) = 0.28377 0.12307
# Poissons Ratio (y) = 0.48926 0.02821
# Poissons Ratio (z) = 0.14723 0.01958
#
# Static dielectric constant tensor:
#      x y z
#    x 4.735970 0.268410 0.103530 
#    y 0.268410 4.299490 -0.482830 
#    z 0.103530 -0.482830 3.967650 
# 
# 
# High freq. dielectric constant tensor:
#      x y z
#    x 1.934900 0.011900 0.006100 
#    y 0.011900 1.920240 -0.041120 
#    z 0.006100 -0.041120 1.880220 
# 
# From -- ./inp_files/460508.got.cif
#   From: 2010.06.25/outbox.cif.g09.slc.cpg/sg2_231_cif.got.tgz:460508.got - 2010.06.27 13:26:56.
