data_PCOD8000248
_publ_section_title
;
Structure prediction by ZEFSAII (Michael W. Deem and Ramdas Pophale) SiO2 
 PCOD8000248
Probable space group: P 1
;
_chemical_formula_sum "Si O2"
_cell_formula_units_Z 8
_cell_length_a 14.811530
_cell_length_b 11.863190
_cell_length_c 5.053918
_cell_angle_alpha 98.709858
_cell_angle_beta 80.304282
_cell_angle_gamma 28.138292
_cell_volume 315.388800
_symmetry_space_group_name_H-M "P 1"
_symmetry_group_IT_number 1
_symmetry_cell_setting 'triclinic'
loop_
_space_group_symop_operation_xyz
x,y,z
loop_
_atom_site_type_symbol
_atom_site_label
_atom_site_fract_x
_atom_site_fract_y
_atom_site_fract_z
Si Si1 0.949150 0.447960 0.512180
Si Si2 0.304227 0.744193 0.474225
Si Si3 0.081254 0.767434 0.477234
Si Si4 0.473844 0.759875 0.113682
Si Si5 0.784979 0.767916 0.197493
Si Si6 0.701980 0.319145 0.522822
Si Si7 0.860523 0.332953 0.199782
Si Si8 0.191092 0.499368 0.829077
O O1 0.862671 0.638906 0.404848
O O2 0.868795 0.413507 0.466613
O O3 0.818415 0.628159 0.919270
O O4 0.250661 0.104152 0.274043
O O5 0.226645 0.717175 0.368071
O O6 0.414807 0.692238 0.165829
O O7 0.495318 0.489735 0.524409
O O8 0.099869 0.072737 0.799610
O O9 0.070928 0.728341 0.762423
O O10 0.202947 0.536271 0.131611
O O11 0.800797 0.122155 0.635536
O O12 0.615961 0.645996 0.254050
O O13 0.630791 0.539366 0.701052
O O14 0.483465 0.141480 0.474796
O O15 0.986749 0.632973 0.970525
O O16 0.906722 0.139102 0.157547
#
# Coordination Sequence:
#
# PCOD8000248 Si02
#       8
#     1   1   1   1   1   1   1   1
#     4  12  27  49  82 109 153 210 251 320 403 449
#     4  11  24  45  67 115 159 197 241 300 379 483
#     4  12  27  49  82 109 153 210 251 320 403 449
#     4  11  25  41  73 112 162 192 245 299 378 487
#     4  12  31  57  80 112 150 203 278 341 381 446
#     4  11  25  41  73 112 162 192 245 299 378 487
#     4  11  24  45  67 115 159 197 241 300 379 483
#     4  12  31  57  80 112 150 203 278 341 381 446
#
# _framework density 25.365518000000002
#
# number of rings (size 3 to 8) (size 9 to 14) (size 15 to 20)
#    0.000    0.500    2.500    3.750   10.500    0.000 
#    0.000    0.000    0.000    0.000    0.000    0.000 
#    0.000    0.000    0.000    0.000    0.000    0.000 
#
# Total GULP energy -99105.549713 kJ/mol
# GULP energy per Si atom -12388.193714 kJ/mol
# Density = 2.530778 g / cm^3
# Si number density = 25.365518 Si / 1000 Ang^3
#
#
#
# Elastic Constant Matrix: (Units=GPa)
#
#
# Indices 1 2 3 4 5 6 
#
# 1 125.5684 18.3287 28.3418 9.6061 -2.8109 -20.6902
# 2 18.3287 160.2993 3.3675 12.1855 -21.1185 -7.8650
# 3 28.3418 3.3675 57.6346 19.8804 5.8767 -8.1490
# 4 9.6061 12.1855 19.8804 44.7705 -6.4325 3.7008
# 5 -2.8109 -21.1185 5.8767 -6.4325 43.1703 -4.7511
# 6 -20.6902 -7.8650 -8.1490 3.7008 -4.7511 38.7729
#
#
#
# Elastic Compliance Matrix: (Units=1/GPa)
#
#
# Indices 1 2 3 4 5 6 
#
# 1 0.009776 -0.000618 -0.004209 -0.000229 0.001357 0.004395
# 2 -0.000618 0.006934 0.000354 -0.001585 0.003255 0.001702
# 3 -0.004209 0.000354 0.024080 -0.010828 -0.004623 0.003354
# 4 -0.000229 -0.001585 -0.010828 0.028665 0.004414 -0.004914
# 5 0.001357 0.003255 -0.004623 0.004414 0.026488 0.003237
# 6 0.004395 0.001702 0.003354 -0.004914 0.003237 0.030052
#
#
# Mechanical properties :
#
#
# Convention : Reuss Voigt Hill
#
# Bulk Modulus (GPa) = 31.40239 49.28647 40.34443
# Shear Modulus (GPa) = 34.35086 44.90703 39.62894
#
# Velocity S-wave (km/s) = 3.68398 4.21217 3.95690
# Velocity P-wave (km/s) = 5.52291 6.56728 6.06761
#
# Compressibility (1/GPa) = 0.03184471
#
# Stress axis : x y z
#
# Youngs Moduli (GPa) = 102.29075 144.21066 41.52764
#
# Poissons Ratio (x) = 0.08906 0.17481
# Poissons Ratio (y) = 0.06317 -0.01470
# Poissons Ratio (z) = 0.43058 -0.05105
#
# Static dielectric constant tensor:
#      x y z
#    x 4.496470 -0.132020 -0.139830 
#    y -0.132020 4.696740 0.050790 
#    z -0.139830 0.050790 4.786650 
# 
# 
# High freq. dielectric constant tensor:
#      x y z
#    x 2.015900 -0.011040 -0.008120 
#    y -0.011040 2.020760 -0.012770 
#    z -0.008120 -0.012770 2.041580 
# 
# From -- ./inp_files/386.got.cif
#   From: 2010.03.12/outbox.cif.g09.slc.cpg/sg1_1_cif.got.tgz:386.got - 2010.03.29 11:57:58.
