data_PCOD8000530
_publ_section_title
;
Structure prediction by ZEFSAII (Michael W. Deem and Ramdas Pophale) SiO2 
 PCOD8000530
Probable space group: P -1
;
_chemical_formula_sum "Si O2"
_cell_formula_units_Z 14
_cell_length_a 22.721030
_cell_length_b 6.957192
_cell_length_c 12.302574
_cell_angle_alpha 129.229523
_cell_angle_beta 26.078894
_cell_angle_gamma 118.898619
_cell_volume 641.382684
_symmetry_space_group_name_H-M "P -1"
_symmetry_group_IT_number 2
_symmetry_cell_setting 'triclinic'
loop_
_space_group_symop_operation_xyz
x,y,z
-x,-y,-z
loop_
_atom_site_type_symbol
_atom_site_label
_atom_site_fract_x
_atom_site_fract_y
_atom_site_fract_z
Si Si1 0.190917 0.813017 0.716666
Si Si2 0.145168 0.350601 0.310531
Si Si3 0.367625 0.172009 0.500491
Si Si4 0.170854 0.535444 0.114332
Si Si5 0.675261 0.032760 0.958088
Si Si6 0.087113 0.882126 0.680006
Si Si7 0.270490 0.247139 0.455598
O O1 0.115318 0.774143 0.716407
O O2 0.223292 0.552195 0.635937
O O3 0.329998 0.906056 0.499697
O O4 0.076680 0.036054 0.047451
O O5 0.178453 0.311399 0.112626
O O6 0.159189 0.642196 0.401650
O O7 0.991106 0.333902 0.595825
O O8 0.258823 0.156173 0.121659
O O9 0.517103 0.167382 0.300705
O O10 0.375927 0.190274 0.361985
O O11 0.252415 0.411551 0.826693
O O12 0.238666 0.757735 0.125075
O O13 0.665414 0.874632 0.807677
O O14 0.141677 0.133104 0.658065
#
# Coordination Sequence:
#
# PCOD8000530 Si02
#       7
#     2   2   2   2   2   2   2
#     4  10  21  38  65  95 130 164 214 262 325 376
#     4  11  23  43  70  92 129 170 218 267 321 374
#     4  11  26  43  65  97 136 169 213 264 322 388
#     4  11  25  46  65  94 132 169 220 269 313 385
#     4  12  25  43  68  97 129 175 215 262 324 384
#     4  10  19  39  63  97 127 164 213 270 315 374
#     4  11  23  40  67  99 128 170 213 269 320 381
#
# _framework density 21.827840999999999
#
# number of rings (size 3 to 8) (size 9 to 14) (size 15 to 20)
#    0.000    1.143    4.286    1.714    0.000    4.571 
#    0.000    0.000    0.000    0.000    0.000    0.000 
#    0.000    0.000    0.000    0.000    0.000    0.000 
#
# Total GULP energy -173555.359301 kJ/mol
# GULP energy per Si atom -12396.811379 kJ/mol
# Density = 2.177816 g / cm^3
# Si number density = 21.827841 Si / 1000 Ang^3
#
#
#
# Elastic Constant Matrix: (Units=GPa)
#
#
# Indices 1 2 3 4 5 6 
#
# 1 95.9529 35.4391 33.2788 4.2737 -10.7609 -9.1102
# 2 35.4391 114.2113 23.9574 3.1281 -24.1447 -11.4791
# 3 33.2788 23.9574 64.6491 4.1106 -18.7160 -7.7128
# 4 4.2737 3.1281 4.1106 15.7187 3.4801 1.6702
# 5 -10.7609 -24.1447 -18.7160 3.4801 39.7536 -1.7364
# 6 -9.1102 -11.4791 -7.7128 1.6702 -1.7364 32.0180
#
#
#
# Elastic Compliance Matrix: (Units=1/GPa)
#
#
# Indices 1 2 3 4 5 6 
#
# 1 0.013686 -0.002963 -0.005856 -0.001613 -0.000647 0.001470
# 2 -0.002963 0.011582 -0.000194 -0.003312 0.006597 0.003793
# 3 -0.005856 -0.000194 0.022301 -0.006804 0.009589 0.004511
# 4 -0.001613 -0.003312 -0.006804 0.069983 -0.012110 -0.007593
# 5 -0.000647 0.006597 0.009589 -0.012110 0.034868 0.007014
# 6 0.001470 0.003793 0.004511 -0.007593 0.007014 0.034874
#
#
# Mechanical properties :
#
#
# Convention : Reuss Voigt Hill
#
# Bulk Modulus (GPa) = 33.84849 51.12933 42.48891
# Shear Modulus (GPa) = 23.23755 29.64058 26.43906
#
# Velocity S-wave (km/s) = 3.26633 3.68900 3.48408
# Velocity P-wave (km/s) = 5.45582 6.45134 5.97435
#
# Compressibility (1/GPa) = 0.02954341
#
# Stress axis : x y z
#
# Youngs Moduli (GPa) = 73.06645 86.33800 44.84013
#
# Poissons Ratio (x) = 0.25582 0.26260
# Poissons Ratio (y) = 0.21650 0.00870
# Poissons Ratio (z) = 0.42790 0.01674
#
# Static dielectric constant tensor:
#      x y z
#    x 3.979310 0.047640 0.111610 
#    y 0.047640 3.810300 -0.074030 
#    z 0.111610 -0.074030 3.763250 
# 
# 
# High freq. dielectric constant tensor:
#      x y z
#    x 1.862780 0.005360 0.006800 
#    y 0.005360 1.859780 -0.006700 
#    z 0.006800 -0.006700 1.845820 
# 
# From -- ./inp_files/69462.got.cif
#   From: 2010.06.25/outbox.cif.g09.slc.cpg/sg2_35_cif.got.tgz:69462.got - 2010.06.27 13:26:56.
