data_PCOD8000211
_publ_section_title
;
Structure prediction by ZEFSAII (Michael W. Deem and Ramdas Pophale) SiO2 
 PCOD8000211
Probable space group: P 1
;
_chemical_formula_sum "Si O2"
_cell_formula_units_Z 8
_cell_length_a 11.928078
_cell_length_b 11.439570
_cell_length_c 5.378482
_cell_angle_alpha 51.504108
_cell_angle_beta 113.278663
_cell_angle_gamma 145.628221
_cell_volume 312.386075
_symmetry_space_group_name_H-M "P 1"
_symmetry_group_IT_number 1
_symmetry_cell_setting 'triclinic'
loop_
_space_group_symop_operation_xyz
x,y,z
loop_
_atom_site_type_symbol
_atom_site_label
_atom_site_fract_x
_atom_site_fract_y
_atom_site_fract_z
Si Si1 0.775930 0.282690 0.347520
Si Si2 0.344968 0.806479 0.745622
Si Si3 0.619940 0.527175 0.716175
Si Si4 0.038015 0.057484 0.475141
Si Si5 0.838145 0.526161 0.582197
Si Si6 0.057160 0.349089 0.787535
Si Si7 0.265640 0.049806 0.378853
Si Si8 0.347547 0.528504 0.442664
O O1 0.773584 0.382326 0.462876
O O2 0.915768 0.274185 0.540396
O O3 0.537721 0.003758 0.461441
O O4 0.858042 0.440194 0.960723
O O5 0.124978 0.553937 0.753892
O O6 0.316848 0.937389 0.690254
O O7 0.403511 0.735445 0.081055
O O8 0.664005 0.479208 0.563028
O O9 0.544833 0.619444 0.470561
O O10 0.837401 0.757577 0.754189
O O11 0.453706 0.276544 0.064670
O O12 0.138565 0.236990 0.560034
O O13 0.224351 0.137343 0.428609
O O14 0.953847 0.106527 0.154514
O O15 0.055587 0.824596 0.331097
O O16 0.282393 0.508928 0.688729
#
# Coordination Sequence:
#
# PCOD8000211 Si02
#       8
#     1   1   1   1   1   1   1   1
#     4  12  26  47  74 113 151 199 251 314 378 451
#     4  11  25  44  73 108 143 199 248 309 374 449
#     4  11  24  47  74 108 146 197 252 309 379 453
#     4  10  25  46  70 107 147 196 253 307 379 451
#     4  11  27  47  76 113 153 196 253 316 379 446
#     4  11  24  47  70 106 154 193 249 314 373 453
#     4  11  22  49  72 110 149 191 252 315 373 445
#     4  11  25  45  73 103 151 199 246 312 377 452
#
# _framework density 25.609335000000002
#
# number of rings (size 3 to 8) (size 9 to 14) (size 15 to 20)
#    0.000    1.000    3.750    1.500    5.250    3.000 
#    2.250    0.000    0.000    0.000    0.000    0.000 
#    0.000    0.000    0.000    0.000    0.000    0.000 
#
# Total GULP energy -99147.832355 kJ/mol
# GULP energy per Si atom -12393.479044 kJ/mol
# Density = 2.555105 g / cm^3
# Si number density = 25.609335 Si / 1000 Ang^3
#
#
#
# Elastic Constant Matrix: (Units=GPa)
#
#
# Indices 1 2 3 4 5 6 
#
# 1 141.4965 27.5297 37.5277 -14.4635 14.2993 3.6506
# 2 27.5297 59.6216 36.3979 -21.7298 -9.2947 4.9299
# 3 37.5277 36.3979 89.1577 -25.0582 1.5117 -1.7722
# 4 -14.4635 -21.7298 -25.0582 41.4496 9.2006 -2.3040
# 5 14.2993 -9.2947 1.5117 9.2006 54.8143 -1.0951
# 6 3.6506 4.9299 -1.7722 -2.3040 -1.0951 41.2394
#
#
#
# Elastic Compliance Matrix: (Units=1/GPa)
#
#
# Indices 1 2 3 4 5 6 
#
# 1 0.008561 -0.002669 -0.002250 0.000812 -0.002771 -0.000564
# 2 -0.002669 0.026133 -0.007684 0.007063 0.004100 -0.002715
# 3 -0.002250 -0.007684 0.017101 0.006126 -0.002173 0.002137
# 4 0.000812 0.007063 0.006126 0.032915 -0.004687 0.001062
# 5 -0.002771 0.004100 -0.002173 -0.004687 0.020507 -0.000055
# 6 -0.000564 -0.002715 0.002137 0.001062 -0.000055 0.024773
#
#
# Mechanical properties :
#
#
# Convention : Reuss Voigt Hill
#
# Bulk Modulus (GPa) = 37.60791 54.79847 46.20319
# Shear Modulus (GPa) = 30.47702 40.08871 35.28286
#
# Velocity S-wave (km/s) = 3.45349 3.96080 3.71581
# Velocity P-wave (km/s) = 5.53346 6.50857 6.04073
#
# Compressibility (1/GPa) = 0.02659015
#
# Stress axis : x y z
#
# Youngs Moduli (GPa) = 116.81041 38.26533 58.47592
#
# Poissons Ratio (x) = 0.10213 0.13156
# Poissons Ratio (y) = 0.31176 0.44931
# Poissons Ratio (z) = 0.26281 0.29402
#
# Static dielectric constant tensor:
#      x y z
#    x 5.040830 0.124610 0.288380 
#    y 0.124610 4.459750 -0.298800 
#    z 0.288380 -0.298800 4.428990 
# 
# 
# High freq. dielectric constant tensor:
#      x y z
#    x 2.051300 0.007640 0.013520 
#    y 0.007640 2.012470 -0.026020 
#    z 0.013520 -0.026020 2.011830 
# 
# From -- ./inp_files/2348.got.cif
#   From: 2010.03.12/outbox.cif.g09.slc.cpg/sg1_2_cif.got.tgz:2348.got - 2010.03.29 11:57:58.
