data_PCOD8000130
_publ_section_title
;
Structure prediction by ZEFSAII (Michael W. Deem and Ramdas Pophale) SiO2 
 PCOD8000130
Probable space group: P 1
;
_chemical_formula_sum "Si O2"
_cell_formula_units_Z 8
_cell_length_a 10.839591
_cell_length_b 13.661919
_cell_length_c 9.030386
_cell_angle_alpha 28.739760
_cell_angle_beta 137.650541
_cell_angle_gamma 149.719429
_cell_volume 323.324562
_symmetry_space_group_name_H-M "P 1"
_symmetry_group_IT_number 1
_symmetry_cell_setting 'triclinic'
loop_
_space_group_symop_operation_xyz
x,y,z
loop_
_atom_site_type_symbol
_atom_site_label
_atom_site_fract_x
_atom_site_fract_y
_atom_site_fract_z
Si Si1 0.342330 0.393540 0.527500
Si Si2 0.323574 0.818646 0.291342
Si Si3 0.411995 0.416847 0.881810
Si Si4 0.065293 0.140095 0.186698
Si Si5 0.216640 0.681171 0.704025
Si Si6 0.968448 0.857850 0.769280
Si Si7 0.675900 0.332087 0.759112
Si Si8 0.565136 0.960488 0.901511
O O1 0.371313 0.302444 0.832385
O O2 0.544027 0.448535 0.519971
O O3 0.383297 0.665653 0.214396
O O4 0.071632 0.138727 0.566570
O O5 0.308611 0.568600 0.589435
O O6 0.255724 0.821864 0.395866
O O7 0.133915 0.787356 0.052374
O O8 0.595138 0.103304 0.113488
O O9 0.697722 0.617703 0.908941
O O10 0.252119 0.178292 0.180559
O O11 0.203434 0.425580 0.017718
O O12 0.973522 0.899896 0.539821
O O13 0.835440 0.063569 0.995403
O O14 0.454044 0.918918 0.696217
O O15 0.967284 0.579435 0.693298
O O16 0.582118 0.182570 0.713673
#
# Coordination Sequence:
#
# PCOD8000130 Si02
#       8
#     1   1   1   1   1   1   1   1
#     4  11  23  42  69 101 132 183 224 276 348 401
#     4  10  23  43  69 100 136 174 231 281 331 412
#     4  11  23  46  70 100 140 181 226 283 344 406
#     4  10  22  42  72 102 133 179 232 278 341 412
#     4  10  22  44  69  98 134 183 223 282 345 399
#     4  11  23  44  67 103 140 173 234 281 334 414
#     4  10  23  44  66  98 138 173 232 278 333 416
#     4  11  21  45  72  96 137 182 224 283 346 400
#
# _framework density 24.742937999999999
#
# number of rings (size 3 to 8) (size 9 to 14) (size 15 to 20)
#    0.000    1.500    3.750    0.750    0.000    6.000 
#    4.500    6.250    0.000    0.000    0.000    0.000 
#    0.000    0.000    0.000    0.000    0.000    0.000 
#
# Total GULP energy -99198.688424 kJ/mol
# GULP energy per Si atom -12399.836053 kJ/mol
# Density = 2.468662 g / cm^3
# Si number density = 24.742938 Si / 1000 Ang^3
#
#
#
# Elastic Constant Matrix: (Units=GPa)
#
#
# Indices 1 2 3 4 5 6 
#
# 1 117.4416 60.6858 32.1236 18.1320 -33.7854 20.8535
# 2 60.6858 141.0129 26.4782 20.5663 -18.3667 12.9405
# 3 32.1236 26.4782 83.5627 12.2007 -11.9053 9.4654
# 4 18.1320 20.5663 12.2007 37.8748 1.6314 -2.1287
# 5 -33.7854 -18.3667 -11.9053 1.6314 36.0923 -11.7773
# 6 20.8535 12.9405 9.4654 -2.1287 -11.7773 35.0974
#
#
#
# Elastic Compliance Matrix: (Units=1/GPa)
#
#
# Indices 1 2 3 4 5 6 
#
# 1 0.015806 -0.003790 -0.002018 -0.005566 0.011131 -0.004052
# 2 -0.003790 0.009549 -0.000876 -0.003178 0.000861 -0.000937
# 3 -0.002018 -0.000876 0.013959 -0.003236 0.001820 -0.001828
# 4 -0.005566 -0.003178 -0.003236 0.032437 -0.007830 0.004692
# 5 0.011131 0.000861 0.001820 -0.007830 0.041484 0.006024
# 6 -0.004052 -0.000937 -0.001828 0.004692 0.006024 0.034044
#
#
# Mechanical properties :
#
#
# Convention : Reuss Voigt Hill
#
# Bulk Modulus (GPa) = 38.54073 64.51027 51.52550
# Shear Modulus (GPa) = 29.53418 36.66154 33.09786
#
# Velocity S-wave (km/s) = 3.45866 3.85346 3.66138
# Velocity P-wave (km/s) = 5.61783 6.77699 6.22445
#
# Compressibility (1/GPa) = 0.02594658
#
# Stress axis : x y z
#
# Youngs Moduli (GPa) = 63.26593 104.72731 71.63745
#
# Poissons Ratio (x) = 0.39691 0.14455
# Poissons Ratio (y) = 0.23977 0.06275
# Poissons Ratio (z) = 0.12766 0.09174
#
# Static dielectric constant tensor:
#      x y z
#    x 4.539160 -0.054850 -0.270520 
#    y -0.054850 4.438130 -0.109030 
#    z -0.270520 -0.109030 4.374150 
# 
# 
# High freq. dielectric constant tensor:
#      x y z
#    x 1.982980 -0.002350 -0.006740 
#    y -0.002350 1.982850 -0.005290 
#    z -0.006740 -0.005290 1.978590 
# 
# From -- ./inp_files/5595.got.cif
#   From: 2010.03.12/outbox.cif.g09.slc.cpg/sg1_3_cif.got.tgz:5595.got - 2010.03.29 11:57:58.
