data_PCOD8000926
_publ_section_title
;
Structure prediction by ZEFSAII (Michael W. Deem and Ramdas Pophale) SiO2 
 PCOD8000926
Probable space group: P -1
;
_chemical_formula_sum "Si O2"
_cell_formula_units_Z 10
_cell_length_a 12.845068
_cell_length_b 10.530253
_cell_length_c 8.543544
_cell_angle_alpha 109.248949
_cell_angle_beta 130.517209
_cell_angle_gamma 32.160400
_cell_volume 392.236896
_symmetry_space_group_name_H-M "P -1"
_symmetry_group_IT_number 2
_symmetry_cell_setting 'triclinic'
loop_
_space_group_symop_operation_xyz
x,y,z
-x,-y,-z
loop_
_atom_site_type_symbol
_atom_site_label
_atom_site_fract_x
_atom_site_fract_y
_atom_site_fract_z
Si Si1 0.961616 0.050686 0.300139
Si Si2 0.510383 0.254348 0.327067
Si Si3 0.848281 0.407980 0.174090
Si Si4 0.376443 0.134237 0.763825
Si Si5 0.115549 0.154557 0.016646
O O1 0.285125 0.799600 0.442624
O O2 0.818592 0.048719 0.073086
O O3 0.000000 0.000000 0.500000
O O4 0.785121 0.340098 0.204698
O O5 0.202550 0.519782 0.225981
O O6 0.704226 0.946902 0.415273
O O7 0.448702 0.322094 0.107699
O O8 0.875194 0.531915 0.338970
O O9 0.108432 0.153976 0.198978
O O10 0.500000 0.000000 0.000000
O O11 0.638177 0.956007 0.837137
#
# Coordination Sequence:
#
# PCOD8000926 Si02
#       5
#     2   2   2   2   2
#     4  12  23  41  63  94 123 162 208 254 302 361
#     4   9  22  39  64  90 124 159 203 248 307 360
#     4   9  23  40  65  88 126 161 205 248 309 359
#     4  10  19  40  66  92 119 163 203 248 309 361
#     4  10  22  41  65  88 129 160 201 254 303 364
#
# _framework density 25.494796000000001
#
# number of rings (size 3 to 8) (size 9 to 14) (size 15 to 20)
#    1.200    0.800    0.000    4.200    0.000    4.000 
#    3.600    1.000    0.000    0.000    0.000    0.000 
#    0.000    0.000    0.000    0.000    0.000    0.000 
#
# Total GULP energy -123888.560240 kJ/mol
# GULP energy per Si atom -12388.856024 kJ/mol
# Density = 2.543677 g / cm^3
# Si number density = 25.494796 Si / 1000 Ang^3
#
#
#
# Elastic Constant Matrix: (Units=GPa)
#
#
# Indices 1 2 3 4 5 6 
#
# 1 115.3303 35.6341 15.0226 -1.2072 -13.6761 11.0841
# 2 35.6341 137.2953 19.5562 -15.4777 -20.0827 21.1794
# 3 15.0226 19.5562 50.3860 10.6889 -12.1107 12.0662
# 4 -1.2072 -15.4777 10.6889 29.5376 17.7692 -2.7378
# 5 -13.6761 -20.0827 -12.1107 17.7692 38.1158 0.2204
# 6 11.0841 21.1794 12.0662 -2.7378 0.2204 46.3842
#
#
#
# Elastic Compliance Matrix: (Units=1/GPa)
#
#
# Indices 1 2 3 4 5 6 
#
# 1 0.009915 -0.002089 -0.000199 -0.003068 0.003833 -0.001563
# 2 -0.002089 0.009420 -0.003456 0.005530 0.000553 -0.002579
# 3 -0.000199 -0.003456 0.035234 -0.029279 0.023007 -0.009378
# 4 -0.003068 0.005530 -0.029279 0.073273 -0.041709 0.010348
# 5 0.003833 0.000553 0.023007 -0.041709 0.054714 -0.009875
# 6 -0.001563 -0.002579 -0.009378 0.010348 -0.009875 0.026207
#
#
# Mechanical properties :
#
#
# Convention : Reuss Voigt Hill
#
# Bulk Modulus (GPa) = 23.21187 49.27082 36.24135
# Shear Modulus (GPa) = 21.31184 38.32743 29.81963
#
# Velocity S-wave (km/s) = 2.89438 3.88150 3.42370
# Velocity P-wave (km/s) = 4.50491 6.28139 5.46581
#
# Compressibility (1/GPa) = 0.04308141
#
# Stress axis : x y z
#
# Youngs Moduli (GPa) = 100.85989 106.15509 28.38159
#
# Poissons Ratio (x) = 0.22177 0.00564
# Poissons Ratio (y) = 0.21071 0.09809
# Poissons Ratio (z) = 0.02005 0.36687
#
# Static dielectric constant tensor:
#      x y z
#    x 4.448170 0.287000 -0.022460 
#    y 0.287000 4.719580 -0.096090 
#    z -0.022460 -0.096090 4.723500 
# 
# 
# High freq. dielectric constant tensor:
#      x y z
#    x 2.009000 0.015550 0.013540 
#    y 0.015550 2.026950 -0.009030 
#    z 0.013540 -0.009030 2.039110 
# 
# From -- ./inp_files/106336.got.cif
#   From: 2010.06.25/outbox.cif.g09.slc.cpg/sg2_54_cif.got.tgz:106336.got - 2010.06.27 13:26:56.
