data_PCOD8000717
_publ_section_title
;
Structure prediction by ZEFSAII (Michael W. Deem and Ramdas Pophale) SiO2 
 PCOD8000717
Probable space group: P -1
;
_chemical_formula_sum "Si O2"
_cell_formula_units_Z 16
_cell_length_a 21.889072
_cell_length_b 12.677212
_cell_length_c 18.540806
_cell_angle_alpha 43.249813
_cell_angle_beta 160.102882
_cell_angle_gamma 150.000762
_cell_volume 755.549382
_symmetry_space_group_name_H-M "P -1"
_symmetry_group_IT_number 2
_symmetry_cell_setting 'triclinic'
loop_
_space_group_symop_operation_xyz
x,y,z
-x,-y,-z
loop_
_atom_site_type_symbol
_atom_site_label
_atom_site_fract_x
_atom_site_fract_y
_atom_site_fract_z
Si Si1 0.051296 0.185826 0.363673
Si Si2 0.210729 0.273859 0.249125
Si Si3 0.929840 0.760917 0.185445
Si Si4 0.655339 0.158144 0.311207
Si Si5 0.909177 0.266905 0.026701
Si Si6 0.316629 0.485951 0.109401
Si Si7 0.523893 0.632352 0.024886
Si Si8 0.639833 0.132390 0.012813
O O1 0.363421 0.330134 0.657756
O O2 0.846686 0.901530 0.265838
O O3 0.084670 0.305546 0.267579
O O4 0.910574 0.200663 0.262241
O O5 0.500000 0.500000 0.500000
O O6 0.249489 0.336704 0.177518
O O7 0.116340 0.034990 0.272148
O O8 0.962029 0.211353 0.038720
O O9 0.055181 0.705187 0.399849
O O10 0.916140 0.717783 0.106966
O O11 0.603729 0.544801 0.959809
O O12 0.421182 0.954707 0.211595
O O13 0.593410 0.039347 0.223912
O O14 0.665929 0.347363 0.218626
O O15 0.000000 0.500000 0.000000
O O16 0.259424 0.624760 0.995972
O O17 0.500000 0.500000 0.000000
O O18 0.500000 0.000000 0.000000
#
# Coordination Sequence:
#
# PCOD8000717 Si02
#       8
#     2   2   2   2   2   2   2   2
#     4  10  23  43  65 101 134 177 219 279 333 391
#     4  12  23  42  72  93 126 178 224 274 331 395
#     4  12  25  43  62 100 136 173 218 273 340 395
#     4  10  23  41  65  97 136 170 219 281 331 397
#     4  10  19  39  68  97 123 168 231 270 328 394
#     4  12  25  44  67  99 141 173 225 273 332 404
#     4  10  22  41  68  97 129 170 229 274 331 396
#     4  10  22  42  69  97 130 176 224 269 334 394
#
# _framework density 21.176642000000001
#
# number of rings (size 3 to 8) (size 9 to 14) (size 15 to 20)
#    0.000    1.500    1.250    6.750    1.750    2.000 
#    4.500    0.625    0.000    0.000    0.000    0.000 
#    0.000    0.000    0.000    0.000    0.000    0.000 
#
# Total GULP energy -198360.654087 kJ/mol
# GULP energy per Si atom -12397.540880 kJ/mol
# Density = 2.112844 g / cm^3
# Si number density = 21.176642 Si / 1000 Ang^3
#
#
#
# Elastic Constant Matrix: (Units=GPa)
#
#
# Indices 1 2 3 4 5 6 
#
# 1 149.4192 48.7615 45.4189 7.8596 0.3824 -1.8022
# 2 48.7615 154.1009 29.2050 5.4852 0.5672 -5.9476
# 3 45.4189 29.2050 65.5443 11.9362 -5.1231 -10.6964
# 4 7.8596 5.4852 11.9362 20.7023 -2.3924 5.0834
# 5 0.3824 0.5672 -5.1231 -2.3924 34.6131 -1.4796
# 6 -1.8022 -5.9476 -10.6964 5.0834 -1.4796 47.1386
#
#
#
# Elastic Compliance Matrix: (Units=1/GPa)
#
#
# Indices 1 2 3 4 5 6 
#
# 1 0.009013 -0.001815 -0.005841 0.000638 -0.000946 -0.001308
# 2 -0.001815 0.007467 -0.001972 -0.000308 -0.000396 0.000446
# 3 -0.005841 -0.001972 0.023648 -0.012090 0.003030 0.006293
# 4 0.000638 -0.000308 -0.012090 0.057508 0.001803 -0.008903
# 5 -0.000946 -0.000396 0.003030 0.001803 0.029538 0.001334
# 6 -0.001308 0.000446 0.006293 -0.008903 0.001334 0.023650
#
#
# Mechanical properties :
#
#
# Convention : Reuss Voigt Hill
#
# Bulk Modulus (GPa) = 47.90666 68.42613 58.16639
# Shear Modulus (GPa) = 28.24268 36.86939 32.55604
#
# Velocity S-wave (km/s) = 3.65591 4.17710 3.92517
# Velocity P-wave (km/s) = 6.36336 7.45966 6.93321
#
# Compressibility (1/GPa) = 0.02087393
#
# Stress axis : x y z
#
# Youngs Moduli (GPa) = 110.94668 133.92615 42.28639
#
# Poissons Ratio (x) = 0.24305 0.24699
# Poissons Ratio (y) = 0.20135 0.08337
# Poissons Ratio (z) = 0.64803 0.26404
#
# Static dielectric constant tensor:
#      x y z
#    x 3.982390 0.078600 0.107800 
#    y 0.078600 3.986960 -0.004450 
#    z 0.107800 -0.004450 3.789730 
# 
# 
# High freq. dielectric constant tensor:
#      x y z
#    x 1.843430 0.009870 0.008730 
#    y 0.009870 1.845440 -0.003810 
#    z 0.008730 -0.003810 1.812670 
# 
# From -- ./inp_files/577967.got.cif
#   From: 2010.06.25/outbox.cif.g09.slc.cpg/sg2_289_cif.got.tgz:577967.got - 2010.06.27 13:26:56.
