data_PCOD8000045
_publ_section_title
;
Structure prediction by ZEFSAII (Michael W. Deem and Ramdas Pophale) SiO2 
 PCOD8000045
Probable space group: P 1
;
_chemical_formula_sum "Si O2"
_cell_formula_units_Z 8
_cell_length_a 9.526418
_cell_length_b 8.691327
_cell_length_c 7.401418
_cell_angle_alpha 72.876775
_cell_angle_beta 109.076728
_cell_angle_gamma 59.975170
_cell_volume 415.549061
_symmetry_space_group_name_H-M "P 1"
_symmetry_group_IT_number 1
_symmetry_cell_setting 'triclinic'
loop_
_space_group_symop_operation_xyz
x,y,z
loop_
_atom_site_type_symbol
_atom_site_label
_atom_site_fract_x
_atom_site_fract_y
_atom_site_fract_z
Si Si1 0.622640 0.830250 0.583950
Si Si2 0.217702 0.978715 0.322346
Si Si3 0.269142 0.647773 0.235977
Si Si4 0.829140 0.451891 0.042001
Si Si5 0.804788 0.898146 0.344689
Si Si6 0.866341 0.775540 0.011188
Si Si7 0.566736 0.383099 0.137274
Si Si8 0.244187 0.639111 0.622909
O O1 0.698678 0.908039 0.737033
O O2 0.385238 0.993537 0.418468
O O3 0.695603 0.825757 0.416487
O O4 0.707610 0.593337 0.761017
O O5 0.006878 0.212913 0.136307
O O6 0.249202 0.854907 0.192193
O O7 0.223410 0.849637 0.538337
O O8 0.304582 0.534190 0.483541
O O9 0.455591 0.483096 0.245203
O O10 0.063296 0.725990 0.041068
O O11 0.911551 0.552871 0.142083
O O12 0.685077 0.460510 0.114099
O O13 0.714527 0.128412 0.301035
O O14 0.032477 0.719130 0.561492
O O15 0.783803 0.911596 0.113992
O O16 0.404717 0.460475 0.890665
#
# Coordination Sequence:
#
# PCOD8000045 Si02
#       8
#     1   1   1   1   1   1   1   1
#     4  10  23  38  63  91 123 153 201 249 295 356
#     4  10  20  42  61  83 128 157 192 249 300 345
#     4   9  21  38  62  92 119 156 201 247 291 364
#     4  10  21  40  63  83 125 159 193 249 300 344
#     4  11  23  39  63  89 124 156 200 247 298 356
#     4   9  21  42  61  87 127 150 200 252 296 348
#     4  12  21  39  66  89 116 167 199 238 304 359
#     4   9  20  40  59  88 122 150 200 247 286 354
#
# _framework density 19.251636000000001
#
# number of rings (size 3 to 8) (size 9 to 14) (size 15 to 20)
#    1.500    0.500    2.500    0.750    3.500    1.000 
#    2.250    3.750    0.000    0.000    0.000    0.000 
#    0.000    0.000    0.000    0.000    0.000    0.000 
#
# Total GULP energy -99135.116403 kJ/mol
# GULP energy per Si atom -12391.889550 kJ/mol
# Density = 1.920782 g / cm^3
# Si number density = 19.251636 Si / 1000 Ang^3
#
#
#
# Elastic Constant Matrix: (Units=GPa)
#
#
# Indices 1 2 3 4 5 6 
#
# 1 104.7044 31.5606 24.2984 -4.0865 9.8513 -14.9723
# 2 31.5606 104.1459 20.3262 -1.2703 4.7360 -15.1835
# 3 24.2984 20.3262 68.2900 -1.2958 13.9355 -9.9915
# 4 -4.0865 -1.2703 -1.2958 20.6078 5.3472 3.6107
# 5 9.8513 4.7360 13.9355 5.3472 35.9819 2.7113
# 6 -14.9723 -15.1835 -9.9915 3.6107 2.7113 31.7597
#
#
#
# Elastic Compliance Matrix: (Units=1/GPa)
#
#
# Indices 1 2 3 4 5 6 
#
# 1 0.011654 -0.002410 -0.002347 0.002045 -0.002538 0.003587
# 2 -0.002410 0.011253 -0.001895 -0.000479 -0.000297 0.003727
# 3 -0.002347 -0.001895 0.018015 0.001560 -0.006621 0.004043
# 4 0.002045 -0.000479 0.001560 0.051901 -0.008516 -0.003948
# 5 -0.002538 -0.000297 -0.006621 -0.008516 0.032751 -0.005250
# 6 0.003587 0.003727 0.004043 -0.003948 -0.005250 0.037128
#
#
# Mechanical properties :
#
#
# Convention : Reuss Voigt Hill
#
# Bulk Modulus (GPa) = 36.21006 47.72342 41.96674
# Shear Modulus (GPa) = 26.99594 31.06688 29.03141
#
# Velocity S-wave (km/s) = 3.74875 4.02148 3.88751
# Velocity P-wave (km/s) = 6.13084 6.81221 6.48048
#
# Compressibility (1/GPa) = 0.02761663
#
# Stress axis : x y z
#
# Youngs Moduli (GPa) = 85.81113 88.86370 55.50915
#
# Poissons Ratio (x) = 0.21416 0.13031
# Poissons Ratio (y) = 0.20680 0.10520
# Poissons Ratio (z) = 0.20144 0.16841
#
# Static dielectric constant tensor:
#      x y z
#    x 3.561010 -0.032050 0.108130 
#    y -0.032050 3.213590 0.043390 
#    z 0.108130 0.043390 3.266340 
# 
# 
# High freq. dielectric constant tensor:
#      x y z
#    x 1.759650 -0.007960 0.013190 
#    y -0.007960 1.727020 -0.000140 
#    z 0.013190 -0.000140 1.734040 
# 
# From -- ./inp_files/4140.got.cif
#   From: 2010.03.12/outbox.cif.g09.slc.cpg/sg1_3_cif.got.tgz:4140.got - 2010.03.29 11:57:58.
