data_PCOD8000768
_publ_section_title
;
Structure prediction by ZEFSAII (Michael W. Deem and Ramdas Pophale) SiO2 
 PCOD8000768
Probable space group: P -1
;
_chemical_formula_sum "Si O2"
_cell_formula_units_Z 16
_cell_length_a 8.692337
_cell_length_b 20.189801
_cell_length_c 24.245664
_cell_angle_alpha 22.027368
_cell_angle_beta 149.202114
_cell_angle_gamma 148.629161
_cell_volume 779.549718
_symmetry_space_group_name_H-M "P -1"
_symmetry_group_IT_number 2
_symmetry_cell_setting 'triclinic'
loop_
_space_group_symop_operation_xyz
x,y,z
-x,-y,-z
loop_
_atom_site_type_symbol
_atom_site_label
_atom_site_fract_x
_atom_site_fract_y
_atom_site_fract_z
Si Si1 0.304282 0.212773 0.157519
Si Si2 0.768775 0.498791 0.007774
Si Si3 0.445418 0.494242 0.183924
Si Si4 0.587553 0.555383 0.421889
Si Si5 0.258862 0.691645 0.419606
Si Si6 0.342633 0.807213 0.073988
Si Si7 0.817239 0.822592 0.114647
Si Si8 0.697453 0.198323 0.537171
O O1 0.623064 0.340176 0.129959
O O2 0.340873 0.008934 0.335369
O O3 0.244643 0.300961 0.129361
O O4 0.023330 0.215407 0.028066
O O5 0.123371 0.493157 0.115027
O O6 0.574732 0.456386 0.924108
O O7 0.737305 0.647202 0.184251
O O8 0.520019 0.297840 0.363381
O O9 0.500000 0.500000 0.500000
O O10 0.528969 0.358673 0.523949
O O11 0.369789 0.651315 0.246117
O O12 0.937179 0.694665 0.423808
O O13 0.455405 0.789539 0.458407
O O14 0.000000 0.500000 0.500000
O O15 0.076737 0.828219 0.236032
O O16 0.497297 0.811764 0.057311
O O17 0.500000 0.000000 0.000000
O O18 0.000000 0.000000 0.000000
#
# Coordination Sequence:
#
# PCOD8000768 Si02
#       8
#     2   2   2   2   2   2   2   2
#     4  11  24  44  66  92 127 168 216 265 324 370
#     4  10  26  45  65  88 121 176 224 264 309 371
#     4  11  23  45  66  90 127 168 222 266 307 376
#     4  11  23  36  59 100 134 168 200 249 335 391
#     4  10  19  40  57  92 129 164 200 253 325 385
#     4  12  23  39  63  98 134 161 204 266 324 388
#     4  12  24  37  68  97 128 171 208 258 326 388
#     4  11  22  41  67  90 130 167 207 272 314 381
#
# _framework density 20.52467
#
# number of rings (size 3 to 8) (size 9 to 14) (size 15 to 20)
#    0.000    1.000    7.500    0.000    7.000    1.000 
#    0.000    0.000    0.000    0.000    0.000    0.000 
#    0.000    0.000    0.000    0.000    0.000    0.000 
#
# Total GULP energy -198287.598237 kJ/mol
# GULP energy per Si atom -12392.974890 kJ/mol
# Density = 2.047795 g / cm^3
# Si number density = 20.524670 Si / 1000 Ang^3
#
#
#
# Elastic Constant Matrix: (Units=GPa)
#
#
# Indices 1 2 3 4 5 6 
#
# 1 87.4282 16.5780 34.7642 -12.6174 1.3998 -7.0092
# 2 16.5780 56.9146 24.6696 -9.9715 3.7541 -11.2065
# 3 34.7642 24.6696 121.1853 -9.7494 4.3382 6.1775
# 4 -12.6174 -9.9715 -9.7494 32.2858 -8.4313 2.9846
# 5 1.3998 3.7541 4.3382 -8.4313 34.6722 -6.2297
# 6 -7.0092 -11.2065 6.1775 2.9846 -6.2297 22.5783
#
#
#
# Elastic Compliance Matrix: (Units=1/GPa)
#
#
# Indices 1 2 3 4 5 6 
#
# 1 0.014099 -0.000855 -0.003862 0.004116 0.001904 0.004991
# 2 -0.000855 0.022992 -0.004742 0.004583 0.001452 0.012239
# 3 -0.003862 -0.004742 0.010788 0.000457 -0.001840 -0.007073
# 4 0.004116 0.004583 0.000457 0.036205 0.008249 0.000917
# 5 0.001904 0.001452 -0.001840 0.008249 0.032590 0.009717
# 6 0.004991 0.012239 -0.007073 0.000917 0.009717 0.056409
#
#
# Mechanical properties :
#
#
# Convention : Reuss Voigt Hill
#
# Bulk Modulus (GPa) = 34.52918 46.39463 40.46190
# Shear Modulus (GPa) = 24.79487 30.54165 27.66826
#
# Velocity S-wave (km/s) = 3.47947 3.86170 3.67556
# Velocity P-wave (km/s) = 5.74475 6.52205 6.14570
#
# Compressibility (1/GPa) = 0.02896102
#
# Stress axis : x y z
#
# Youngs Moduli (GPa) = 70.92548 43.49406 92.69275
#
# Poissons Ratio (x) = 0.03717 0.35799
# Poissons Ratio (y) = 0.06061 0.43959
# Poissons Ratio (z) = 0.27392 0.20627
#
# Static dielectric constant tensor:
#      x y z
#    x 3.983870 -0.404840 0.058570 
#    y -0.404840 3.386960 -0.201190 
#    z 0.058570 -0.201190 3.479450 
# 
# 
# High freq. dielectric constant tensor:
#      x y z
#    x 1.811000 -0.016830 0.005530 
#    y -0.016830 1.784210 0.002930 
#    z 0.005530 0.002930 1.806460 
# 
# From -- ./inp_files/223385.got.cif
#   From: 2010.06.25/outbox.cif.g09.slc.cpg/sg2_112_cif.got.tgz:223385.got - 2010.06.27 13:26:56.
