data_PCOD8000857
_publ_section_title
;
Structure prediction by ZEFSAII (Michael W. Deem and Ramdas Pophale) SiO2 
 PCOD8000857
Probable space group: P -1
;
_chemical_formula_sum "Si O2"
_cell_formula_units_Z 16
_cell_length_a 11.695068
_cell_length_b 9.240952
_cell_length_c 12.272404
_cell_angle_alpha 128.936540
_cell_angle_beta 92.633754
_cell_angle_gamma 119.298226
_cell_volume 767.887802
_symmetry_space_group_name_H-M "P -1"
_symmetry_group_IT_number 2
_symmetry_cell_setting 'triclinic'
loop_
_space_group_symop_operation_xyz
x,y,z
-x,-y,-z
loop_
_atom_site_type_symbol
_atom_site_label
_atom_site_fract_x
_atom_site_fract_y
_atom_site_fract_z
Si Si1 0.873874 0.396140 0.216802
Si Si2 0.280931 0.663254 0.036188
Si Si3 0.889061 0.047246 0.493232
Si Si4 0.371717 0.976422 0.803916
Si Si5 0.223261 0.181990 0.843694
Si Si6 0.664439 0.292826 0.537323
Si Si7 0.974975 0.817217 0.824352
Si Si8 0.321687 0.955620 0.375451
O O1 0.005292 0.666132 0.403800
O O2 0.946748 0.273046 0.157202
O O3 0.721330 0.232713 0.205769
O O4 0.839405 0.435846 0.113088
O O5 0.451044 0.871831 0.094176
O O6 0.249481 0.786147 0.183713
O O7 0.268313 0.445722 0.988085
O O8 0.783357 0.984446 0.563738
O O9 0.776400 0.863898 0.305562
O O10 0.000000 0.000000 0.500000
O O11 0.344261 0.170464 0.899085
O O12 0.316129 0.836760 0.619123
O O13 0.056329 0.962534 0.784047
O O14 0.796281 0.592484 0.680112
O O15 0.680460 0.204809 0.609594
O O16 0.497682 0.212109 0.483865
O O17 0.000000 0.000000 0.000000
#
# Coordination Sequence:
#
# PCOD8000857 Si02
#       8
#     2   2   2   2   2   2   2   2
#     4  11  23  40  62  91 131 167 207 262 319 381
#     4  11  23  40  62  95 132 166 207 264 321 375
#     4  12  23  41  63  95 125 166 211 257 316 373
#     4  10  21  40  65  92 124 171 215 260 311 371
#     4  11  22  38  64  95 123 168 217 265 302 378
#     4  10  19  40  64  88 122 162 214 260 306 374
#     4  11  23  40  63  95 126 165 212 263 318 368
#     4  10  22  38  64  90 122 167 206 258 317 366
#
# _framework density 20.836376999999999
#
# number of rings (size 3 to 8) (size 9 to 14) (size 15 to 20)
#    0.000    1.250    3.750    2.250    0.000    3.500 
#    4.500    0.000    0.000    3.750    0.000    0.000 
#    0.000    0.000    0.000    0.000    0.000    0.000 
#
# Total GULP energy -198423.606427 kJ/mol
# GULP energy per Si atom -12401.475402 kJ/mol
# Density = 2.078895 g / cm^3
# Si number density = 20.836377 Si / 1000 Ang^3
#
#
#
# Elastic Constant Matrix: (Units=GPa)
#
#
# Indices 1 2 3 4 5 6 
#
# 1 108.7326 33.5993 36.0039 6.0733 -20.4242 18.9359
# 2 33.5993 72.8016 20.9810 4.2748 -7.5482 14.6551
# 3 36.0039 20.9810 89.2315 5.9994 -7.9180 14.4424
# 4 6.0733 4.2748 5.9994 36.4869 1.0075 4.0283
# 5 -20.4242 -7.5482 -7.9180 1.0075 32.6478 -1.0065
# 6 18.9359 14.6551 14.4424 4.0283 -1.0065 29.2101
#
#
#
# Elastic Compliance Matrix: (Units=1/GPa)
#
#
# Indices 1 2 3 4 5 6 
#
# 1 0.013546 -0.003568 -0.003142 -0.000947 0.006760 -0.005074
# 2 -0.003568 0.017069 -0.001562 -0.000591 0.001188 -0.005356
# 3 -0.003142 -0.001562 0.013599 -0.001145 0.000892 -0.003715
# 4 -0.000947 -0.000591 -0.001145 0.028149 -0.001951 -0.002473
# 5 0.006760 0.001188 0.000892 -0.001951 0.035289 -0.003935
# 6 -0.005074 -0.005356 -0.003715 -0.002473 -0.003935 0.042254
#
#
# Mechanical properties :
#
#
# Convention : Reuss Voigt Hill
#
# Bulk Modulus (GPa) = 36.13951 50.21490 43.17720
# Shear Modulus (GPa) = 28.46188 31.68107 30.07147
#
# Velocity S-wave (km/s) = 3.69991 3.90355 3.80309
# Velocity P-wave (km/s) = 5.96947 6.66850 6.32864
#
# Compressibility (1/GPa) = 0.02767055
#
# Stress axis : x y z
#
# Youngs Moduli (GPa) = 73.82084 58.58590 73.53407
#
# Poissons Ratio (x) = 0.20906 0.23104
# Poissons Ratio (y) = 0.26342 0.11483
# Poissons Ratio (z) = 0.23194 0.09149
#
# Static dielectric constant tensor:
#      x y z
#    x 3.823510 0.353400 0.031050 
#    y 0.353400 3.802120 -0.106670 
#    z 0.031050 -0.106670 3.680280 
# 
# 
# High freq. dielectric constant tensor:
#      x y z
#    x 1.816920 0.018020 -0.001770 
#    y 0.018020 1.808610 0.000740 
#    z -0.001770 0.000740 1.818810 
# 
# From -- ./inp_files/185139.got.cif
#   From: 2010.06.25/outbox.cif.g09.slc.cpg/sg2_93_cif.got.tgz:185139.got - 2010.06.27 13:26:56.
