data_PCOD8000683
_publ_section_title
;
Structure prediction by ZEFSAII (Michael W. Deem and Ramdas Pophale) SiO2 
 PCOD8000683
Probable space group: P -1
;
_chemical_formula_sum "Si O2"
_cell_formula_units_Z 16
_cell_length_a 8.771156
_cell_length_b 18.351967
_cell_length_c 11.962441
_cell_angle_alpha 151.661594
_cell_angle_beta 123.913719
_cell_angle_gamma 55.046909
_cell_volume 741.986085
_symmetry_space_group_name_H-M "P -1"
_symmetry_group_IT_number 2
_symmetry_cell_setting 'triclinic'
loop_
_space_group_symop_operation_xyz
x,y,z
-x,-y,-z
loop_
_atom_site_type_symbol
_atom_site_label
_atom_site_fract_x
_atom_site_fract_y
_atom_site_fract_z
Si Si1 0.482782 0.753970 0.154634
Si Si2 0.672772 0.958953 0.667564
Si Si3 0.698667 0.380611 0.918400
Si Si4 0.985977 0.514557 0.339518
Si Si5 0.918712 0.212051 0.373990
Si Si6 0.260039 0.349208 0.387804
Si Si7 0.342779 0.027382 0.068519
Si Si8 0.347843 0.599586 0.316100
O O1 0.618725 0.830891 0.390658
O O2 0.307440 0.739734 0.144810
O O3 0.403403 0.864015 0.166922
O O4 0.600653 0.588892 0.932240
O O5 0.589051 0.944059 0.738277
O O6 0.898407 0.919444 0.700170
O O7 0.705941 0.309126 0.700478
O O8 0.500000 0.500000 0.000000
O O9 0.881169 0.458175 0.113791
O O10 0.839521 0.518112 0.386766
O O11 0.031845 0.685843 0.571319
O O12 0.179415 0.394059 0.290477
O O13 0.840979 0.344030 0.613606
O O14 0.758870 0.116993 0.152920
O O15 0.207353 0.186153 0.184320
O O16 0.482803 0.340465 0.472126
O O17 0.500000 0.000000 0.000000
#
# Coordination Sequence:
#
# PCOD8000683 Si02
#       8
#     2   2   2   2   2   2   2   2
#     4  10  23  42  73  96 133 179 223 285 332 405
#     4  11  25  44  67 102 137 173 228 276 349 396
#     4  10  19  39  67  94 127 175 222 271 332 396
#     4  11  24  38  68  99 127 169 229 278 324 398
#     4  12  26  41  68 101 137 175 222 282 339 396
#     4  11  23  42  64  97 130 173 226 269 335 400
#     4  12  26  44  67  93 139 184 216 273 342 412
#     4  11  23  42  71  97 134 176 229 276 336 403
#
# _framework density 21.563745000000001
#
# number of rings (size 3 to 8) (size 9 to 14) (size 15 to 20)
#    0.000    1.000    5.000    2.625    3.500    3.500 
#    0.000    1.875    0.000    0.000    0.000    0.000 
#    0.000    0.000    0.000    0.000    0.000    0.000 
#
# Total GULP energy -198263.490471 kJ/mol
# GULP energy per Si atom -12391.468154 kJ/mol
# Density = 2.151466 g / cm^3
# Si number density = 21.563745 Si / 1000 Ang^3
#
#
#
# Elastic Constant Matrix: (Units=GPa)
#
#
# Indices 1 2 3 4 5 6 
#
# 1 100.5467 40.6619 26.9573 -6.6407 -8.7346 -1.8252
# 2 40.6619 136.1426 52.7611 -8.4334 0.9311 10.5069
# 3 26.9573 52.7611 78.4772 2.6179 8.0022 -1.0095
# 4 -6.6407 -8.4334 2.6179 34.6270 -1.8862 8.6812
# 5 -8.7346 0.9311 8.0022 -1.8862 43.8865 5.3954
# 6 -1.8252 10.5069 -1.0095 8.6812 5.3954 18.1211
#
#
#
# Elastic Compliance Matrix: (Units=1/GPa)
#
#
# Indices 1 2 3 4 5 6 
#
# 1 0.012107 -0.002457 -0.002868 0.001935 0.002986 0.000668
# 2 -0.002457 0.012525 -0.008185 0.006263 0.002445 -0.011694
# 3 -0.002868 -0.008185 0.020183 -0.007050 -0.005690 0.010653
# 4 0.001935 0.006263 -0.007050 0.037562 0.006057 -0.023627
# 5 0.002986 0.002445 -0.005690 0.006057 0.026115 -0.012111
# 6 0.000668 -0.011694 0.010653 -0.023627 -0.012111 0.077550
#
#
# Mechanical properties :
#
#
# Convention : Reuss Voigt Hill
#
# Bulk Modulus (GPa) = 56.19302 61.76968 58.98135
# Shear Modulus (GPa) = 22.83165 32.31268 27.57216
#
# Velocity S-wave (km/s) = 3.25745 3.87521 3.57968
# Velocity P-wave (km/s) = 6.34536 6.98071 6.67060
#
# Compressibility (1/GPa) = 0.01779581
#
# Stress axis : x y z
#
# Youngs Moduli (GPa) = 82.59439 79.84083 49.54659
#
# Poissons Ratio (x) = 0.19616 0.14208
# Poissons Ratio (y) = 0.20293 0.40555
# Poissons Ratio (z) = 0.23684 0.65352
#
# Static dielectric constant tensor:
#      x y z
#    x 4.099710 0.245590 -0.051000 
#    y 0.245590 4.109850 0.018350 
#    z -0.051000 0.018350 3.953680 
# 
# 
# High freq. dielectric constant tensor:
#      x y z
#    x 1.838590 0.010400 0.004960 
#    y 0.010400 1.845390 -0.000800 
#    z 0.004960 -0.000800 1.846120 
# 
# From -- ./inp_files/403625.got.cif
#   From: 2010.06.25/outbox.cif.g09.slc.cpg/sg2_202_cif.got.tgz:403625.got - 2010.06.27 13:26:56.
