data_PCOD8000750
_publ_section_title
;
Structure prediction by ZEFSAII (Michael W. Deem and Ramdas Pophale) SiO2 
 PCOD8000750
Probable space group: P -1
;
_chemical_formula_sum "Si O2"
_cell_formula_units_Z 14
_cell_length_a 10.015462
_cell_length_b 8.965069
_cell_length_c 9.576778
_cell_angle_alpha 114.122232
_cell_angle_beta 124.644155
_cell_angle_gamma 54.664082
_cell_volume 573.001763
_symmetry_space_group_name_H-M "P -1"
_symmetry_group_IT_number 2
_symmetry_cell_setting 'triclinic'
loop_
_space_group_symop_operation_xyz
x,y,z
-x,-y,-z
loop_
_atom_site_type_symbol
_atom_site_label
_atom_site_fract_x
_atom_site_fract_y
_atom_site_fract_z
Si Si1 0.843920 0.880896 0.861042
Si Si2 0.028459 0.963800 0.769572
Si Si3 0.274279 0.685246 0.376392
Si Si4 0.817334 0.408936 0.435827
Si Si5 0.778820 0.683273 0.293754
Si Si6 0.151123 0.523537 0.009383
Si Si7 0.528749 0.073926 0.400825
O O1 0.669923 0.843353 0.761268
O O2 0.853259 0.961523 0.744098
O O3 0.038227 0.700314 0.913226
O O4 0.833433 0.019435 0.030800
O O5 0.148491 0.782063 0.685963
O O6 0.933681 0.143868 0.682620
O O7 0.307083 0.566175 0.491958
O O8 0.293878 0.555149 0.204934
O O9 0.423080 0.759446 0.491317
O O10 0.714206 0.581428 0.334649
O O11 0.004031 0.402920 0.597308
O O12 0.679951 0.903145 0.337468
O O13 0.735039 0.642605 0.094174
O O14 0.000000 0.500000 0.000000
O O15 0.500000 0.000000 0.500000
#
# Coordination Sequence:
#
# PCOD8000750 Si02
#       7
#     2   2   2   2   2   2   2
#     4  10  22  41  68  94 136 175 219 273 340 396
#     4  10  19  39  70  94 124 179 231 264 322 410
#     4  11  23  40  72  99 134 175 230 274 330 400
#     4  11  21  39  69 103 126 177 233 279 321 403
#     4  11  24  41  71  99 139 172 223 283 341 386
#     4  11  23  45  72  99 130 179 230 276 324 408
#     4  12  25  43  66 103 141 177 218 283 341 396
#
# _framework density 24.432735000000001
#
# number of rings (size 3 to 8) (size 9 to 14) (size 15 to 20)
#    0.000    1.143    5.714    0.429    2.000    0.000 
#    0.000    8.571    0.000    0.000    0.000    0.000 
#    0.000    0.000    0.000    0.000    0.000    0.000 
#
# Total GULP energy -173610.796513 kJ/mol
# GULP energy per Si atom -12400.771180 kJ/mol
# Density = 2.437713 g / cm^3
# Si number density = 24.432735 Si / 1000 Ang^3
#
#
#
# Elastic Constant Matrix: (Units=GPa)
#
#
# Indices 1 2 3 4 5 6 
#
# 1 98.5663 17.4848 63.1526 12.7929 0.6440 28.8088
# 2 17.4848 67.1746 41.7116 22.3082 -9.3852 5.3156
# 3 63.1526 41.7116 140.3000 38.3561 -7.8231 7.1849
# 4 12.7929 22.3082 38.3561 45.6969 3.3902 -3.0296
# 5 0.6440 -9.3852 -7.8231 3.3902 40.4799 1.8160
# 6 28.8088 5.3156 7.1849 -3.0296 1.8160 38.4791
#
#
#
# Elastic Compliance Matrix: (Units=1/GPa)
#
#
# Indices 1 2 3 4 5 6 
#
# 1 0.019007 0.000931 -0.008387 0.000510 -0.001181 -0.012697
# 2 0.000931 0.020601 -0.004036 -0.007523 0.004773 -0.003607
# 3 -0.008387 -0.004036 0.014095 -0.007457 0.002389 0.003505
# 4 0.000510 -0.007523 -0.007457 0.032452 -0.006131 0.004894
# 5 -0.001181 0.004773 0.002389 -0.006131 0.026893 -0.001974
# 6 -0.012697 -0.003607 0.003505 0.004894 -0.001974 0.035816
#
#
# Mechanical properties :
#
#
# Convention : Reuss Voigt Hill
#
# Bulk Modulus (GPa) = 32.55402 61.19321 46.87362
# Shear Modulus (GPa) = 27.45917 37.17731 32.31824
#
# Velocity S-wave (km/s) = 3.35605 3.90502 3.64090
# Velocity P-wave (km/s) = 5.32638 6.74034 6.07464
#
# Compressibility (1/GPa) = 0.03071817
#
# Stress axis : x y z
#
# Youngs Moduli (GPa) = 52.61342 48.54076 70.94505
#
# Poissons Ratio (x) = -0.04520 0.59504
# Poissons Ratio (y) = -0.04899 0.28636
# Poissons Ratio (z) = 0.44128 0.19593
#
# Static dielectric constant tensor:
#      x y z
#    x 4.173360 0.203190 0.061040 
#    y 0.203190 4.616370 0.062200 
#    z 0.061040 0.062200 4.742910 
# 
# 
# High freq. dielectric constant tensor:
#      x y z
#    x 1.943140 0.017370 -0.007590 
#    y 0.017370 1.974790 0.013570 
#    z -0.007590 0.013570 1.980830 
# 
# From -- ./inp_files/245256.got.cif
#   From: 2010.06.25/outbox.cif.g09.slc.cpg/sg2_123_cif.got.tgz:245256.got - 2010.06.27 13:26:56.
