data_PCOD8000104
_publ_section_title
;
Structure prediction by ZEFSAII (Michael W. Deem and Ramdas Pophale) SiO2 
 PCOD8000104
Probable space group: P 1
;
_chemical_formula_sum "Si O2"
_cell_formula_units_Z 6
_cell_length_a 5.207019
_cell_length_b 7.562652
_cell_length_c 8.456346
_cell_angle_alpha 50.820006
_cell_angle_beta 116.817701
_cell_angle_gamma 106.934253
_cell_volume 230.358734
_symmetry_space_group_name_H-M "P 1"
_symmetry_group_IT_number 1
_symmetry_cell_setting 'triclinic'
loop_
_space_group_symop_operation_xyz
x,y,z
loop_
_atom_site_type_symbol
_atom_site_label
_atom_site_fract_x
_atom_site_fract_y
_atom_site_fract_z
Si Si1 0.804570 0.110820 0.430070
Si Si2 0.311293 0.814137 0.164599
Si Si3 0.737009 0.545098 0.612745
Si Si4 0.958272 0.480146 0.037328
Si Si5 0.204782 0.267549 0.722789
Si Si6 0.169811 0.006949 0.317861
O O1 0.968672 0.145185 0.618431
O O2 0.509264 0.984059 0.459736
O O3 0.995225 0.937632 0.468558
O O4 0.764447 0.356170 0.190212
O O5 0.629429 0.744111 0.351728
O O6 0.097743 0.837968 0.245600
O O7 0.177811 0.654882 0.082910
O O8 0.365416 0.073012 0.976645
O O9 0.779233 0.608149 0.776943
O O10 0.033237 0.444894 0.684531
O O11 0.453332 0.380255 0.621037
O O12 0.121361 0.273022 0.111345
#
# Coordination Sequence:
#
# PCOD8000104 Si02
#       6
#     1   1   1   1   1   1
#     4  10  21  46  73 101 150 185 231 311 350 414
#     4  12  26  49  78 110 139 206 237 291 382 423
#     4  12  27  50  73 109 152 186 245 307 351 437
#     4  10  24  49  71 109 142 192 242 297 356 438
#     4  12  25  50  75 108 152 187 243 309 352 435
#     4  10  23  46  70 107 147 180 246 299 347 437
#
# _framework density 26.046334999999999
#
# number of rings (size 3 to 8) (size 9 to 14) (size 15 to 20)
#    1.000    0.000    3.333    3.000    2.333    2.667 
#    6.000    0.000    0.000    0.000    0.000    0.000 
#    0.000    0.000    0.000    0.000    0.000    0.000 
#
# Total GULP energy -74343.776598 kJ/mol
# GULP energy per Si atom -12390.629433 kJ/mol
# Density = 2.598705 g / cm^3
# Si number density = 26.046335 Si / 1000 Ang^3
#
#
#
# Elastic Constant Matrix: (Units=GPa)
#
#
# Indices 1 2 3 4 5 6 
#
# 1 118.2382 -4.5861 23.0086 -3.6606 6.5119 3.6548
# 2 -4.5861 105.7921 27.4330 22.7876 20.5398 -12.3321
# 3 23.0086 27.4330 173.1486 2.3675 15.4635 -8.4279
# 4 -3.6606 22.7876 2.3675 47.0352 0.1059 8.8904
# 5 6.5119 20.5398 15.4635 0.1059 26.5195 4.9620
# 6 3.6548 -12.3321 -8.4279 8.8904 4.9620 35.5640
#
#
#
# Elastic Compliance Matrix: (Units=1/GPa)
#
#
# Indices 1 2 3 4 5 6 
#
# 1 0.008872 0.000917 -0.001179 0.000442 -0.002073 -0.000694
# 2 0.000917 0.015266 -0.000791 -0.008976 -0.013255 0.009105
# 3 -0.001179 -0.000791 0.006443 -0.000388 -0.003212 0.001919
# 4 0.000442 -0.008976 -0.000388 0.027811 0.009106 -0.011473
# 5 -0.002073 -0.013255 -0.003212 0.009106 0.053095 -0.014829
# 6 -0.000694 0.009105 0.001919 -0.011473 -0.014829 0.036739
#
#
# Mechanical properties :
#
#
# Convention : Reuss Voigt Hill
#
# Bulk Modulus (GPa) = 35.11911 54.32109 44.72010
# Shear Modulus (GPa) = 31.28470 45.24530 38.26500
#
# Velocity S-wave (km/s) = 3.46947 4.17238 3.83706
# Velocity P-wave (km/s) = 5.43712 6.64173 6.06938
#
# Compressibility (1/GPa) = 0.02847452
#
# Stress axis : x y z
#
# Youngs Moduli (GPa) = 112.71719 65.50665 155.20871
#
# Poissons Ratio (x) = -0.06005 0.18297
# Poissons Ratio (y) = -0.10333 0.12273
# Poissons Ratio (z) = 0.13288 0.05180
#
# Static dielectric constant tensor:
#      x y z
#    x 4.381650 -0.143490 -0.049160 
#    y -0.143490 4.716770 -0.096350 
#    z -0.049160 -0.096350 4.861840 
# 
# 
# High freq. dielectric constant tensor:
#      x y z
#    x 2.029770 0.004390 -0.003930 
#    y 0.004390 2.054860 0.001230 
#    z -0.003930 0.001230 2.052660 
# 
# From -- ./inp_files/964.got.cif
#   From: 2010.03.12/outbox.cif.g09.slc.cpg/sg1_1_cif.got.tgz:964.got - 2010.03.29 11:57:58.
