data_PCOD8000381
_publ_section_title
;
Structure prediction by ZEFSAII (Michael W. Deem and Ramdas Pophale) SiO2 
 PCOD8000381
Probable space group: P -1
;
_chemical_formula_sum "Si O2"
_cell_formula_units_Z 12
_cell_length_a 9.951285
_cell_length_b 10.201528
_cell_length_c 8.911081
_cell_angle_alpha 109.488266
_cell_angle_beta 41.940207
_cell_angle_gamma 116.748339
_cell_volume 539.918891
_symmetry_space_group_name_H-M "P -1"
_symmetry_group_IT_number 2
_symmetry_cell_setting 'triclinic'
loop_
_space_group_symop_operation_xyz
x,y,z
-x,-y,-z
loop_
_atom_site_type_symbol
_atom_site_label
_atom_site_fract_x
_atom_site_fract_y
_atom_site_fract_z
Si Si1 0.547389 0.904763 0.293652
Si Si2 0.854033 0.317631 0.416574
Si Si3 0.450337 0.638661 0.759813
Si Si4 0.709516 0.695119 0.270203
Si Si5 0.708743 0.574817 0.758082
Si Si6 0.817901 0.194640 0.064141
O O1 0.314946 0.806572 0.387292
O O2 0.667097 0.793022 0.208050
O O3 0.500000 0.000000 0.500000
O O4 0.694983 0.018956 0.096208
O O5 0.792511 0.465175 0.545756
O O6 0.821125 0.270987 0.252801
O O7 0.094444 0.332672 0.267739
O O8 0.540441 0.679660 0.534873
O O9 0.315645 0.467521 0.831547
O O10 0.640024 0.682637 0.741490
O O11 0.288458 0.731315 0.946763
O O12 0.941533 0.776395 0.175140
O O13 0.500000 0.500000 0.000000
#
# Coordination Sequence:
#
# PCOD8000381 Si02
#       6
#     2   2   2   2   2   2
#     4  10  19  39  60  90 121 154 194 242 294 358
#     4  10  21  38  59  88 117 157 198 240 283 357
#     4  11  21  37  58  93 120 146 201 254 287 342
#     4  11  20  36  62  90 121 154 195 245 299 340
#     4  11  23  39  60  84 121 161 200 237 295 350
#     4  11  22  37  65  92 119 153 196 245 298 351
#
# _framework density 22.225560999999999
#
# number of rings (size 3 to 8) (size 9 to 14) (size 15 to 20)
#    0.000    1.333    5.000    3.000    0.000    2.667 
#    0.000    0.833    0.000    2.000    0.000    0.000 
#    0.000    0.000    0.000    0.000    0.000    0.000 
#
# Total GULP energy -148718.167387 kJ/mol
# GULP energy per Si atom -12393.180616 kJ/mol
# Density = 2.217497 g / cm^3
# Si number density = 22.225561 Si / 1000 Ang^3
#
#
#
# Elastic Constant Matrix: (Units=GPa)
#
#
# Indices 1 2 3 4 5 6 
#
# 1 161.9260 58.1771 28.0689 -19.4694 -44.6492 -13.3451
# 2 58.1771 121.9619 28.1636 -24.2463 -25.6967 -21.7130
# 3 28.0689 28.1636 43.9557 -14.5369 -31.1379 1.8408
# 4 -19.4694 -24.2463 -14.5369 24.7876 11.9789 -4.2029
# 5 -44.6492 -25.6967 -31.1379 11.9789 44.4278 -2.2331
# 6 -13.3451 -21.7130 1.8408 -4.2029 -2.2331 36.6723
#
#
#
# Elastic Compliance Matrix: (Units=1/GPa)
#
#
# Indices 1 2 3 4 5 6 
#
# 1 0.009830 -0.002084 0.003226 0.003163 0.010242 0.003168
# 2 -0.002084 0.014054 -0.003812 0.011001 0.000853 0.009067
# 3 0.003226 -0.003812 0.050877 0.012514 0.033312 -0.000174
# 4 0.003163 0.011001 0.012514 0.062269 0.002242 0.014309
# 5 0.010242 0.000853 0.033312 0.002242 0.056352 0.006248
# 6 0.003168 0.009067 -0.000174 0.014309 0.006248 0.035819
#
#
# Mechanical properties :
#
#
# Convention : Reuss Voigt Hill
#
# Bulk Modulus (GPa) = 14.40442 61.85142 38.12792
# Shear Modulus (GPa) = 19.40386 35.40648 27.40517
#
# Velocity S-wave (km/s) = 2.95793 3.99564 3.51529
# Velocity P-wave (km/s) = 4.26156 7.01257 5.80246
#
# Compressibility (1/GPa) = 0.06942314
#
# Stress axis : x y z
#
# Youngs Moduli (GPa) = 101.72452 71.15267 19.65542
#
# Poissons Ratio (x) = 0.14825 -0.06341
# Poissons Ratio (y) = 0.21195 0.07492
# Poissons Ratio (z) = -0.32818 0.27122
#
# Static dielectric constant tensor:
#      x y z
#    x 4.229790 0.173500 -0.443240 
#    y 0.173500 5.138590 -0.566940 
#    z -0.443240 -0.566940 4.040260 
# 
# 
# High freq. dielectric constant tensor:
#      x y z
#    x 1.868430 -0.005470 -0.034480 
#    y -0.005470 1.864130 -0.011640 
#    z -0.034480 -0.011640 1.866650 
# 
# From -- ./inp_files/159040.got.cif
#   From: 2010.06.25/outbox.cif.g09.slc.cpg/sg2_80_cif.got.tgz:159040.got - 2010.06.27 13:26:56.
