data_PCOD8000996
_publ_section_title
;
Structure prediction by ZEFSAII (Michael W. Deem and Ramdas Pophale) SiO2 
 PCOD8000996
Probable space group: P -1
;
_chemical_formula_sum "Si O2"
_cell_formula_units_Z 14
_cell_length_a 7.680425
_cell_length_b 6.972328
_cell_length_c 12.039953
_cell_angle_alpha 89.638015
_cell_angle_beta 70.856571
_cell_angle_gamma 81.802650
_cell_volume 602.303538
_symmetry_space_group_name_H-M "P -1"
_symmetry_group_IT_number 2
_symmetry_cell_setting 'triclinic'
loop_
_space_group_symop_operation_xyz
x,y,z
-x,-y,-z
loop_
_atom_site_type_symbol
_atom_site_label
_atom_site_fract_x
_atom_site_fract_y
_atom_site_fract_z
Si Si1 0.533772 0.863243 0.097469
Si Si2 0.472626 0.968162 0.669349
Si Si3 0.599652 0.685143 0.468588
Si Si4 0.174864 0.709835 0.167689
Si Si5 0.986701 0.476637 0.372571
Si Si6 0.942785 0.124009 0.251596
Si Si7 0.963667 0.781110 0.997367
O O1 0.476428 0.001816 0.214500
O O2 0.398451 0.700457 0.113461
O O3 0.747310 0.760068 0.061121
O O4 0.500000 0.000000 0.000000
O O5 0.509655 0.158633 0.593004
O O6 0.606040 0.783152 0.589725
O O7 0.260204 0.935043 0.701655
O O8 0.500000 0.500000 0.500000
O O9 0.801028 0.617891 0.374140
O O10 0.086468 0.654162 0.067093
O O11 0.149403 0.554025 0.268414
O O12 0.091015 0.929192 0.218961
O O13 0.976795 0.250676 0.351675
O O14 0.000000 0.500000 0.500000
O O15 0.967871 0.270483 0.142108
O O16 0.000000 0.000000 0.000000
#
# Coordination Sequence:
#
# PCOD8000996 Si02
#       7
#     2   2   2   2   2   2   2
#     4  12  21  38  71 100 127 170 216 268 328 390
#     4  11  23  41  70  95 123 177 219 263 332 385
#     4  11  24  43  64  93 127 171 224 268 320 383
#     4  11  24  44  65  95 136 171 214 270 326 386
#     4  12  28  42  61  98 135 170 222 271 318 389
#     4  11  21  43  67  92 130 173 212 264 331 384
#     4  10  19  40  68  97 129 167 217 263 325 395
#
# _framework density 23.244094
#
# number of rings (size 3 to 8) (size 9 to 14) (size 15 to 20)
#    0.000    0.857    8.571    0.000    4.000    1.143 
#    0.000    0.714    0.000    0.000    0.000    0.000 
#    0.000    0.000    0.000    0.000    0.000    0.000 
#
# Total GULP energy -173589.864108 kJ/mol
# GULP energy per Si atom -12399.276008 kJ/mol
# Density = 2.319119 g / cm^3
# Si number density = 23.244094 Si / 1000 Ang^3
#
#
#
# Elastic Constant Matrix: (Units=GPa)
#
#
# Indices 1 2 3 4 5 6 
#
# 1 101.7147 24.4688 19.3626 -12.8041 -6.7334 35.9307
# 2 24.4688 80.8540 29.6363 -15.0968 6.2843 6.5051
# 3 19.3626 29.6363 121.7932 -10.6682 22.1128 14.9054
# 4 -12.8041 -15.0968 -10.6682 44.5900 5.0982 -10.7004
# 5 -6.7334 6.2843 22.1128 5.0982 49.3725 -2.2959
# 6 35.9307 6.5051 14.9054 -10.7004 -2.2959 27.0452
#
#
#
# Elastic Compliance Matrix: (Units=1/GPa)
#
#
# Indices 1 2 3 4 5 6 
#
# 1 0.020133 -0.004778 0.000652 -0.002324 0.002060 -0.026702
# 2 -0.004778 0.015447 -0.003063 0.004750 -0.001454 0.006075
# 3 0.000652 -0.003063 0.010482 0.000740 -0.004571 -0.006001
# 4 -0.002324 0.004750 0.000740 0.026782 -0.003468 0.011838
# 5 0.002060 -0.001454 -0.004571 -0.003468 0.023159 0.000726
# 6 -0.026702 0.006075 -0.006001 0.011838 0.000726 0.079042
#
#
# Mechanical properties :
#
#
# Convention : Reuss Voigt Hill
#
# Bulk Modulus (GPa) = 31.56015 50.14415 40.85215
# Shear Modulus (GPa) = 25.00209 39.59449 32.29829
#
# Velocity S-wave (km/s) = 3.28324 4.13173 3.73168
# Velocity P-wave (km/s) = 5.28962 6.66193 6.01504
#
# Compressibility (1/GPa) = 0.03168553
#
# Stress axis : x y z
#
# Youngs Moduli (GPa) = 49.66977 64.73546 95.40582
#
# Poissons Ratio (x) = 0.30927 -0.06222
# Poissons Ratio (y) = 0.23730 0.29222
# Poissons Ratio (z) = -0.03239 0.19828
#
# Static dielectric constant tensor:
#      x y z
#    x 4.104240 0.157850 0.015360 
#    y 0.157850 3.951200 0.117680 
#    z 0.015360 0.117680 4.816380 
# 
# 
# High freq. dielectric constant tensor:
#      x y z
#    x 1.907400 0.018660 -0.004800 
#    y 0.018660 1.910500 -0.003320 
#    z -0.004800 -0.003320 1.937460 
# 
# From -- ./inp_files/488535.got.cif
#   From: 2010.06.25/outbox.cif.g09.slc.cpg/sg2_245_cif.got.tgz:488535.got - 2010.06.27 13:26:56.
