data_PCOD8000665
_publ_section_title
;
Structure prediction by ZEFSAII (Michael W. Deem and Ramdas Pophale) SiO2 
 PCOD8000665
Probable space group: P -1
;
_chemical_formula_sum "Si O2"
_cell_formula_units_Z 14
_cell_length_a 22.288782
_cell_length_b 11.579224
_cell_length_c 14.891388
_cell_angle_alpha 30.275265
_cell_angle_beta 29.105422
_cell_angle_gamma 21.209148
_cell_volume 649.488552
_symmetry_space_group_name_H-M "P -1"
_symmetry_group_IT_number 2
_symmetry_cell_setting 'triclinic'
loop_
_space_group_symop_operation_xyz
x,y,z
-x,-y,-z
loop_
_atom_site_type_symbol
_atom_site_label
_atom_site_fract_x
_atom_site_fract_y
_atom_site_fract_z
Si Si1 0.155099 0.644185 0.355215
Si Si2 0.345672 0.304432 0.164829
Si Si3 0.049084 0.261570 0.018856
Si Si4 0.247460 0.816553 0.805926
Si Si5 0.322451 0.117579 0.621557
Si Si6 0.090447 0.428738 0.299526
Si Si7 0.724319 0.618411 0.069758
O O1 0.328176 0.384528 0.238600
O O2 0.201797 0.493744 0.494535
O O3 0.990125 0.713156 0.490802
O O4 0.103381 0.975550 0.201310
O O5 0.198911 0.305797 0.333475
O O6 0.545096 0.950633 0.126576
O O7 0.274605 0.613484 0.991512
O O8 0.884137 0.409908 0.072482
O O9 0.216028 0.127886 0.831707
O O10 0.000000 0.500000 0.000000
O O11 0.307521 0.596610 0.785353
O O12 0.357925 0.897861 0.636931
O O13 0.044768 0.178488 0.811454
O O14 0.500000 0.000000 0.500000
O O15 0.236300 0.251885 0.147636
#
# Coordination Sequence:
#
# PCOD8000665 Si02
#       7
#     2   2   2   2   2   2   2
#     4  11  23  45  70  96 131 186 223 275 337 407
#     4  11  21  36  68 105 139 175 223 281 338 399
#     4  12  27  49  69  97 140 180 223 283 338 403
#     4  10  19  41  71  96 140 178 217 281 336 392
#     4  11  26  47  71 102 133 180 231 273 338 405
#     4  10  19  39  66  99 138 175 225 272 339 401
#     4  11  22  41  66 106 138 175 226 282 337 391
#
# _framework density 21.555420999999999
#
# number of rings (size 3 to 8) (size 9 to 14) (size 15 to 20)
#    0.000    1.143    4.286    4.714    2.000    3.429 
#    5.143    3.571    0.000    0.000    0.000    0.000 
#    0.000    0.000    0.000    0.000    0.000    0.000 
#
# Total GULP energy -173445.356157 kJ/mol
# GULP energy per Si atom -12388.954011 kJ/mol
# Density = 2.150636 g / cm^3
# Si number density = 21.555421 Si / 1000 Ang^3
#
#
#
# Elastic Constant Matrix: (Units=GPa)
#
#
# Indices 1 2 3 4 5 6 
#
# 1 110.2445 29.0116 32.8234 -1.5148 -28.2959 7.8191
# 2 29.0116 91.0815 51.0213 2.3373 -30.0341 13.1409
# 3 32.8234 51.0213 105.8515 -25.2478 -18.9824 4.4463
# 4 -1.5148 2.3373 -25.2478 27.2474 -6.4757 -3.6837
# 5 -28.2959 -30.0341 -18.9824 -6.4757 26.2272 3.5170
# 6 7.8191 13.1409 4.4463 -3.6837 3.5170 40.2940
#
#
#
# Elastic Compliance Matrix: (Units=1/GPa)
#
#
# Indices 1 2 3 4 5 6 
#
# 1 0.013997 0.003508 -0.001695 0.002795 0.019265 -0.005099
# 2 0.003508 0.025670 -0.009934 -0.006536 0.025826 -0.010808
# 3 -0.001695 -0.009934 0.021450 0.022794 0.007595 0.002623
# 4 0.002795 -0.006536 0.022794 0.065513 0.027851 0.002632
# 5 0.019265 0.025826 0.007595 0.027851 0.103475 -0.019484
# 6 -0.005099 -0.010808 0.002623 0.002632 -0.019484 0.030984
#
#
# Mechanical properties :
#
#
# Convention : Reuss Voigt Hill
#
# Bulk Modulus (GPa) = 22.28494 59.20999 40.74746
# Shear Modulus (GPa) = 17.10633 31.70848 24.40740
#
# Velocity S-wave (km/s) = 2.82014 3.83955 3.36863
# Velocity P-wave (km/s) = 4.57877 6.86910 5.83737
#
# Compressibility (1/GPa) = 0.04487336
#
# Stress axis : x y z
#
# Youngs Moduli (GPa) = 71.44299 38.95612 46.61995
#
# Poissons Ratio (x) = -0.13666 0.07904
# Poissons Ratio (y) = -0.25062 0.46314
# Poissons Ratio (z) = 0.12113 0.38701
#
# Static dielectric constant tensor:
#      x y z
#    x 4.185750 0.022510 -0.044820 
#    y 0.022510 3.705620 -0.105210 
#    z -0.044820 -0.105210 3.943540 
# 
# 
# High freq. dielectric constant tensor:
#      x y z
#    x 1.850190 -0.003500 -0.001190 
#    y -0.003500 1.832270 -0.009930 
#    z -0.001190 -0.009930 1.848840 
# 
# From -- ./inp_files/379492.got.cif
#   From: 2010.06.25/outbox.cif.g09.slc.cpg/sg2_190_cif.got.tgz:379492.got - 2010.06.27 13:26:56.
