data_PCOD8000241
_publ_section_title
;
Structure prediction by ZEFSAII (Michael W. Deem and Ramdas Pophale) SiO2 
 PCOD8000241
Probable space group: P 1
;
_chemical_formula_sum "Si O2"
_cell_formula_units_Z 8
_cell_length_a 5.391271
_cell_length_b 9.970487
_cell_length_c 7.724115
_cell_angle_alpha 69.977063
_cell_angle_beta 83.095341
_cell_angle_gamma 116.827255
_cell_volume 328.895743
_symmetry_space_group_name_H-M "P 1"
_symmetry_group_IT_number 1
_symmetry_cell_setting 'triclinic'
loop_
_space_group_symop_operation_xyz
x,y,z
loop_
_atom_site_type_symbol
_atom_site_label
_atom_site_fract_x
_atom_site_fract_y
_atom_site_fract_z
Si Si1 0.794660 0.890810 0.558780
Si Si2 0.049312 0.819888 0.257396
Si Si3 0.661549 0.148854 0.530135
Si Si4 0.594586 0.133666 0.139119
Si Si5 0.210144 0.598468 0.807544
Si Si6 0.087337 0.840333 0.863684
Si Si7 0.780083 0.454496 0.593426
Si Si8 0.268117 0.308218 0.929121
O O1 0.451338 0.759514 0.604621
O O2 0.863312 0.799560 0.744570
O O3 0.958013 0.917128 0.354001
O O4 0.870696 0.072228 0.540448
O O5 0.910309 0.627556 0.403207
O O6 0.405391 0.935551 0.190347
O O7 0.956475 0.839205 0.062862
O O8 0.590926 0.162187 0.331510
O O9 0.830020 0.330011 0.526014
O O10 0.375327 0.022628 0.722683
O O11 0.437893 0.229717 0.039649
O O12 0.912677 0.188047 0.007020
O O13 0.319620 0.481591 0.934040
O O14 0.131961 0.681978 0.934073
O O15 0.941400 0.483342 0.751389
O O16 0.429178 0.370246 0.698492
#
# Coordination Sequence:
#
# PCOD8000241 Si02
#       8
#     1   1   1   1   1   1   1   1
#     4  11  23  53  79 112 170 209 266 332 398 478
#     4  12  25  51  80 116 158 219 268 324 410 476
#     4  11  27  48  75 117 164 209 268 335 399 480
#     4  12  27  51  80 113 165 220 258 330 405 479
#     4  11  23  49  78 112 166 209 260 342 392 468
#     4  11  25  49  78 115 164 214 268 326 407 480
#     4  12  26  50  78 119 161 209 270 338 396 474
#     4  12  26  49  82 112 160 209 268 323 405 463
#
# _framework density 24.323815
#
# number of rings (size 3 to 8) (size 9 to 14) (size 15 to 20)
#    0.000    0.500    5.000    2.250    1.750    2.000 
#   15.750    1.250    0.000    0.000    0.000    0.000 
#    0.000    0.000    0.000    0.000    0.000    0.000 
#
# Total GULP energy -99107.204563 kJ/mol
# GULP energy per Si atom -12388.400570 kJ/mol
# Density = 2.426845 g / cm^3
# Si number density = 24.323815 Si / 1000 Ang^3
#
#
#
# Elastic Constant Matrix: (Units=GPa)
#
#
# Indices 1 2 3 4 5 6 
#
# 1 104.0380 41.9932 63.5631 -0.6839 -10.2111 -17.2010
# 2 41.9932 152.9864 65.6835 -6.8081 -14.1728 -8.9503
# 3 63.5631 65.6835 162.6957 0.6598 -15.8464 1.4571
# 4 -0.6839 -6.8081 0.6598 42.5812 -1.2956 9.0993
# 5 -10.2111 -14.1728 -15.8464 -1.2956 27.3466 -1.1272
# 6 -17.2010 -8.9503 1.4571 9.0993 -1.1272 34.3630
#
#
#
# Elastic Compliance Matrix: (Units=1/GPa)
#
#
# Indices 1 2 3 4 5 6 
#
# 1 0.014707 -0.001269 -0.005089 -0.001470 0.002133 0.007706
# 2 -0.001269 0.008393 -0.002673 0.001128 0.002440 0.001445
# 3 -0.005089 -0.002673 0.009445 0.000181 0.002047 -0.003625
# 4 -0.001470 0.001128 0.000181 0.025184 0.001042 -0.007084
# 5 0.002133 0.002440 0.002047 0.001042 0.039974 0.002652
# 6 0.007706 0.001445 -0.003625 -0.007084 0.002652 0.035452
#
#
# Mechanical properties :
#
#
# Convention : Reuss Voigt Hill
#
# Bulk Modulus (GPa) = 69.04148 84.68885 76.86516
# Shear Modulus (GPa) = 32.04253 37.42349 34.73301
#
# Velocity S-wave (km/s) = 3.63344 3.92670 3.78291
# Velocity P-wave (km/s) = 6.78590 7.44657 7.12390
#
# Compressibility (1/GPa) = 0.01448405
#
# Stress axis : x y z
#
# Youngs Moduli (GPa) = 67.99527 119.14469 105.88078
#
# Poissons Ratio (x) = 0.15120 0.53880
# Poissons Ratio (y) = 0.08629 0.28297
# Poissons Ratio (z) = 0.34601 0.31842
#
# Static dielectric constant tensor:
#      x y z
#    x 4.485120 -0.099480 -0.260440 
#    y -0.099480 4.495920 -0.231230 
#    z -0.260440 -0.231230 4.485340 
# 
# 
# High freq. dielectric constant tensor:
#      x y z
#    x 1.955480 -0.008620 -0.014640 
#    y -0.008620 1.977840 -0.020230 
#    z -0.014640 -0.020230 1.969280 
# 
# From -- ./inp_files/3041.got.cif
#   From: 2010.03.12/outbox.cif.g09.slc.cpg/sg1_2_cif.got.tgz:3041.got - 2010.03.29 11:57:58.
