data_PCOD8000833
_publ_section_title
;
Structure prediction by ZEFSAII (Michael W. Deem and Ramdas Pophale) SiO2 
 PCOD8000833
Probable space group: P -1
;
_chemical_formula_sum "Si O2"
_cell_formula_units_Z 16
_cell_length_a 12.762100
_cell_length_b 16.191296
_cell_length_c 9.023193
_cell_angle_alpha 106.338591
_cell_angle_beta 65.528473
_cell_angle_gamma 153.020165
_cell_volume 752.272039
_symmetry_space_group_name_H-M "P -1"
_symmetry_group_IT_number 2
_symmetry_cell_setting 'triclinic'
loop_
_space_group_symop_operation_xyz
x,y,z
-x,-y,-z
loop_
_atom_site_type_symbol
_atom_site_label
_atom_site_fract_x
_atom_site_fract_y
_atom_site_fract_z
Si Si1 0.426157 0.811279 0.660989
Si Si2 0.238262 0.073235 0.672070
Si Si3 0.538504 0.760475 0.841584
Si Si4 0.658658 0.664244 0.285116
Si Si5 0.107356 0.557750 0.127403
Si Si6 0.487238 0.954986 0.148407
Si Si7 0.250620 0.272376 0.399784
Si Si8 0.113637 0.921731 0.985103
O O1 0.540269 0.844043 0.464089
O O2 0.500735 0.807464 0.761684
O O3 0.125471 0.617640 0.718029
O O4 0.534684 0.979846 0.693271
O O5 0.355322 0.245234 0.704909
O O6 0.125358 0.970025 0.840876
O O7 0.023523 0.927379 0.600592
O O8 0.562155 0.683643 0.713792
O O9 0.307493 0.612665 0.020030
O O10 0.784228 0.942405 0.885112
O O11 0.378401 0.439996 0.332413
O O12 0.778138 0.730414 0.410800
O O13 0.824229 0.720055 0.098168
O O14 0.247000 0.734959 0.197649
O O15 0.000000 0.500000 0.000000
O O16 0.742255 0.072764 0.090258
O O17 0.500000 0.000000 0.000000
#
# Coordination Sequence:
#
# PCOD8000833 Si02
#       8
#     2   2   2   2   2   2   2   2
#     4  11  22  39  65  88 128 165 205 266 310 367
#     4  12  25  44  60  93 138 168 202 261 326 373
#     4  10  19  40  62  95 124 159 214 258 311 372
#     4  11  24  42  67  95 123 167 216 262 311 378
#     4   9  19  34  60  94 118 158 204 262 308 357
#     4  11  21  38  64  94 119 164 217 257 304 371
#     4  11  24  40  68  99 120 164 220 263 312 370
#     4  11  24  41  65  92 131 172 204 258 323 380
#
# _framework density 21.268901
#
# number of rings (size 3 to 8) (size 9 to 14) (size 15 to 20)
#    0.000    1.250    6.250    1.500    1.750    2.000 
#    0.000    2.500    0.000    0.000    0.000    0.000 
#    0.000    0.000    0.000    0.000    0.000    0.000 
#
# Total GULP energy -198397.504918 kJ/mol
# GULP energy per Si atom -12399.844057 kJ/mol
# Density = 2.122049 g / cm^3
# Si number density = 21.268901 Si / 1000 Ang^3
#
#
#
# Elastic Constant Matrix: (Units=GPa)
#
#
# Indices 1 2 3 4 5 6 
#
# 1 64.8354 22.4366 25.1479 -2.5496 -20.0660 -24.3093
# 2 22.4366 84.7734 26.0933 -10.2509 -23.6511 -15.3817
# 3 25.1479 26.0933 105.1148 -20.3200 -18.3040 -12.5041
# 4 -2.5496 -10.2509 -20.3200 27.5878 1.2473 -6.8615
# 5 -20.0660 -23.6511 -18.3040 1.2473 34.5615 2.5776
# 6 -24.3093 -15.3817 -12.5041 -6.8615 2.5776 24.8610
#
#
#
# Elastic Compliance Matrix: (Units=1/GPa)
#
#
# Indices 1 2 3 4 5 6 
#
# 1 0.035728 0.005534 0.001946 0.016129 0.021882 0.041521
# 2 0.005534 0.019393 0.001460 0.013121 0.015279 0.020181
# 3 0.001946 0.001460 0.014449 0.014261 0.008286 0.013150
# 4 0.016129 0.013121 0.014261 0.063794 0.020120 0.046583
# 5 0.021882 0.015279 0.008286 0.020120 0.053141 0.035060
# 6 0.041521 0.020181 0.013150 0.046583 0.035060 0.109145
#
#
# Mechanical properties :
#
#
# Convention : Reuss Voigt Hill
#
# Bulk Modulus (GPa) = 11.43504 44.67546 28.05525
# Shear Modulus (GPa) = 16.29077 29.47179 22.88128
#
# Velocity S-wave (km/s) = 2.77057 3.72650 3.28351
# Velocity P-wave (km/s) = 3.95257 6.29019 5.25306
#
# Compressibility (1/GPa) = 0.08745053
#
# Stress axis : x y z
#
# Youngs Moduli (GPa) = 27.98907 51.56434 69.20662
#
# Poissons Ratio (x) = -0.28536 -0.13469
# Poissons Ratio (y) = -0.15489 -0.10101
# Poissons Ratio (z) = -0.05447 -0.07526
#
# Static dielectric constant tensor:
#      x y z
#    x 3.999570 0.075620 -0.509360 
#    y 0.075620 4.055900 -0.263370 
#    z -0.509360 -0.263370 4.082570 
# 
# 
# High freq. dielectric constant tensor:
#      x y z
#    x 1.818870 -0.003200 -0.022140 
#    y -0.003200 1.831660 -0.006280 
#    z -0.022140 -0.006280 1.832630 
# 
# From -- ./inp_files/272331.got.cif
#   From: 2010.06.25/outbox.cif.g09.slc.cpg/sg2_137_cif.got.tgz:272331.got - 2010.06.27 13:26:56.
