data_PCOD8000553
_publ_section_title
;
Structure prediction by ZEFSAII (Michael W. Deem and Ramdas Pophale) SiO2 
 PCOD8000553
Probable space group: P -1
;
_chemical_formula_sum "Si O2"
_cell_formula_units_Z 16
_cell_length_a 8.632931
_cell_length_b 25.380718
_cell_length_c 8.846540
_cell_angle_alpha 147.530049
_cell_angle_beta 130.621829
_cell_angle_gamma 48.990717
_cell_volume 762.196413
_symmetry_space_group_name_H-M "P -1"
_symmetry_group_IT_number 2
_symmetry_cell_setting 'triclinic'
loop_
_space_group_symop_operation_xyz
x,y,z
-x,-y,-z
loop_
_atom_site_type_symbol
_atom_site_label
_atom_site_fract_x
_atom_site_fract_y
_atom_site_fract_z
Si Si1 0.930237 0.999058 0.623989
Si Si2 0.034928 0.471211 0.278748
Si Si3 0.806132 0.212014 0.736901
Si Si4 0.236588 0.684803 0.340471
Si Si5 0.929442 0.334350 0.368462
Si Si6 0.919103 0.830651 0.694704
Si Si7 0.529509 0.146244 0.652906
Si Si8 0.507049 0.346829 0.290887
O O1 0.675136 0.042031 0.566193
O O2 0.000000 0.000000 0.500000
O O3 0.017077 0.883225 0.455129
O O4 0.031290 0.072729 0.963752
O O5 0.974070 0.571043 0.375506
O O6 0.281741 0.419392 0.282174
O O7 0.000000 0.500000 0.500000
O O8 0.891336 0.400175 0.960929
O O9 0.691740 0.284463 0.703232
O O10 0.632216 0.176997 0.639564
O O11 0.930823 0.274416 0.068262
O O12 0.444608 0.643426 0.476022
O O13 0.090794 0.785931 0.568462
O O14 0.690947 0.375890 0.381045
O O15 0.078348 0.258839 0.399300
O O16 0.692751 0.872167 0.574817
O O17 0.506337 0.231860 0.972949
#
# Coordination Sequence:
#
# PCOD8000553 Si02
#       8
#     2   2   2   2   2   2   2   2
#     4  10  19  39  64  90 123 158 198 250 297 353
#     4  12  24  40  64  90 123 158 200 254 304 350
#     4  10  21  40  61  88 129 156 196 252 300 351
#     4  11  23  42  61  89 125 160 196 252 305 353
#     4  10  21  42  61  89 122 160 200 248 299 358
#     4  11  21  39  66  89 120 159 204 246 299 357
#     4  10  20  40  64  89 120 160 202 247 295 358
#     4  10  22  42  62  86 124 159 201 248 297 362
#
# _framework density 20.991965
#
# number of rings (size 3 to 8) (size 9 to 14) (size 15 to 20)
#    0.000    1.500    7.500    0.375    0.000    6.000 
#    4.500    0.625    0.000    0.000    0.000    0.000 
#    0.000    0.000    0.000    0.000    0.000    0.000 
#
# Total GULP energy -198368.765550 kJ/mol
# GULP energy per Si atom -12398.047847 kJ/mol
# Density = 2.094419 g / cm^3
# Si number density = 20.991965 Si / 1000 Ang^3
#
#
#
# Elastic Constant Matrix: (Units=GPa)
#
#
# Indices 1 2 3 4 5 6 
#
# 1 24.8005 9.2731 16.4325 -0.5359 -1.2856 3.3603
# 2 9.2731 79.9127 17.4896 -7.5704 7.1277 2.9896
# 3 16.4325 17.4896 95.0606 -10.0313 -10.7848 0.7259
# 4 -0.5359 -7.5704 -10.0313 37.7294 -3.1230 1.2816
# 5 -1.2856 7.1277 -10.7848 -3.1230 21.0201 -3.3324
# 6 3.3603 2.9896 0.7259 1.2816 -3.3324 33.2323
#
#
#
# Elastic Compliance Matrix: (Units=1/GPa)
#
#
# Indices 1 2 3 4 5 6 
#
# 1 0.047372 -0.003760 -0.007774 -0.002069 -0.000803 -0.004283
# 2 -0.003760 0.014283 -0.002511 0.001671 -0.006359 -0.001552
# 3 -0.007774 -0.002511 0.013620 0.003632 0.008124 0.001389
# 4 -0.002069 0.001671 0.003632 0.028232 0.005273 -0.000580
# 5 -0.000803 -0.006359 0.008124 0.005273 0.055559 0.005844
# 6 -0.004283 -0.001552 0.001389 -0.000580 0.005844 0.031242
#
#
# Mechanical properties :
#
#
# Convention : Reuss Voigt Hill
#
# Bulk Modulus (GPa) = 21.19309 31.79603 26.49456
# Shear Modulus (GPa) = 21.35591 28.83493 25.09542
#
# Velocity S-wave (km/s) = 3.19303 3.71026 3.46132
# Velocity P-wave (km/s) = 4.86946 5.79088 5.35005
#
# Compressibility (1/GPa) = 0.04718518
#
# Stress axis : x y z
#
# Youngs Moduli (GPa) = 21.10930 70.01255 73.42251
#
# Poissons Ratio (x) = 0.26325 0.57078
# Poissons Ratio (y) = 0.07937 0.18438
# Poissons Ratio (z) = 0.16410 0.17581
#
# Static dielectric constant tensor:
#      x y z
#    x 3.619400 -0.129620 -0.234430 
#    y -0.129620 4.104620 0.189360 
#    z -0.234430 0.189360 3.905590 
# 
# 
# High freq. dielectric constant tensor:
#      x y z
#    x 1.800440 -0.001200 -0.017220 
#    y -0.001200 1.824250 -0.001940 
#    z -0.017220 -0.001940 1.832770 
# 
# From -- ./inp_files/200652.got.cif
#   From: 2010.06.25/outbox.cif.g09.slc.cpg/sg2_101_cif.got.tgz:200652.got - 2010.06.27 13:26:56.
