data_PCOD8000285
_publ_section_title
;
Structure prediction by ZEFSAII (Michael W. Deem and Ramdas Pophale) SiO2 
 PCOD8000285
Probable space group: P 1
;
_chemical_formula_sum "Si O2"
_cell_formula_units_Z 8
_cell_length_a 8.588086
_cell_length_b 11.978629
_cell_length_c 7.194298
_cell_angle_alpha 117.196655
_cell_angle_beta 127.421777
_cell_angle_gamma 38.060760
_cell_volume 362.016155
_symmetry_space_group_name_H-M "P 1"
_symmetry_group_IT_number 1
_symmetry_cell_setting 'triclinic'
loop_
_space_group_symop_operation_xyz
x,y,z
loop_
_atom_site_type_symbol
_atom_site_label
_atom_site_fract_x
_atom_site_fract_y
_atom_site_fract_z
Si Si1 0.849260 0.028480 0.495840
Si Si2 0.960081 0.434125 0.451162
Si Si3 0.561052 0.271613 0.811948
Si Si4 0.448228 0.826172 0.280520
Si Si5 0.905204 0.177746 0.336984
Si Si6 0.866841 0.358621 0.944469
Si Si7 0.456272 0.731593 0.818996
Si Si8 0.473715 0.986425 0.100048
O O1 0.729154 0.096004 0.668472
O O2 0.820792 0.177197 0.485349
O O3 0.670977 0.013998 0.228540
O O4 0.169985 0.828033 0.577279
O O5 0.234925 0.384304 0.675220
O O6 0.696943 0.651419 0.455048
O O7 0.926201 0.319065 0.452138
O O8 0.987424 0.391562 0.220906
O O9 0.617148 0.383246 0.852902
O O10 0.676046 0.223335 0.067152
O O11 0.506591 0.934452 0.304206
O O12 0.383165 0.760673 0.011640
O O13 0.193264 0.970212 0.344138
O O14 0.714931 0.516528 0.798361
O O15 0.147466 0.157458 0.926618
O O16 0.562528 0.824355 0.916918
#
# Coordination Sequence:
#
# PCOD8000285 Si02
#       8
#     1   1   1   1   1   1   1   1
#     4  12  22  37  66  90 118 164 195 243 308 347
#     4  10  20  38  63  86 120 161 194 247 301 345
#     4  11  20  41  62  88 115 165 197 240 304 349
#     4   9  18  40  61  81 121 153 198 244 287 353
#     4  11  23  42  57  90 126 152 202 248 289 363
#     4  10  18  35  63  88 116 152 201 241 290 358
#     4   9  20  36  59  87 116 154 196 241 293 345
#     4  10  19  37  59  90 120 153 203 244 288 362
#
# _framework density 22.098459999999999
#
# number of rings (size 3 to 8) (size 9 to 14) (size 15 to 20)
#    0.750    1.000    6.250    0.000    1.750    1.000 
#    2.250    0.000    0.000    0.000    0.000    0.000 
#    0.000    0.000    0.000    0.000    0.000    0.000 
#
# Total GULP energy -99105.199644 kJ/mol
# GULP energy per Si atom -12388.149956 kJ/mol
# Density = 2.204816 g / cm^3
# Si number density = 22.098460 Si / 1000 Ang^3
#
#
#
# Elastic Constant Matrix: (Units=GPa)
#
#
# Indices 1 2 3 4 5 6 
#
# 1 64.3640 32.6907 49.3749 -17.4816 20.5653 18.7850
# 2 32.6907 139.2125 46.4905 -38.3314 16.9263 23.0906
# 3 49.3749 46.4905 111.9949 -23.2344 36.4489 8.2371
# 4 -17.4816 -38.3314 -23.2344 35.9374 -2.8187 -5.6871
# 5 20.5653 16.9263 36.4489 -2.8187 35.5918 5.9085
# 6 18.7850 23.0906 8.2371 -5.6871 5.9085 24.3564
#
#
#
# Elastic Compliance Matrix: (Units=1/GPa)
#
#
# Indices 1 2 3 4 5 6 
#
# 1 0.031797 0.001859 -0.010207 0.007311 -0.004915 -0.019935
# 2 0.001859 0.012320 -0.002262 0.010944 -0.002213 -0.009256
# 3 -0.010207 -0.002262 0.019365 0.005336 -0.013772 0.008055
# 4 0.007311 0.010944 0.005336 0.044924 -0.010544 -0.004771
# 5 -0.004915 -0.002213 -0.013772 -0.010544 0.045758 -0.003016
# 6 -0.019935 -0.009256 0.008055 -0.004771 -0.003016 0.062100
#
#
# Mechanical properties :
#
#
# Convention : Reuss Voigt Hill
#
# Bulk Modulus (GPa) = 23.66261 63.63150 43.64705
# Shear Modulus (GPa) = 19.87502 31.64479 25.75990
#
# Velocity S-wave (km/s) = 3.00223 3.78827 3.41792
# Velocity P-wave (km/s) = 4.76958 6.92760 5.94729
#
# Compressibility (1/GPa) = 0.04226077
#
# Stress axis : x y z
#
# Youngs Moduli (GPa) = 31.44952 81.16912 51.63966
#
# Poissons Ratio (x) = -0.15091 0.52711
# Poissons Ratio (y) = -0.05847 0.11683
# Poissons Ratio (z) = 0.32102 0.18363
#
# Static dielectric constant tensor:
#      x y z
#    x 3.558540 0.211740 0.053550 
#    y 0.211740 4.015330 -0.141750 
#    z 0.053550 -0.141750 3.862480 
# 
# 
# High freq. dielectric constant tensor:
#      x y z
#    x 1.830430 0.014560 0.004820 
#    y 0.014560 1.871540 -0.007730 
#    z 0.004820 -0.007730 1.869900 
# 
# From -- ./inp_files/4408.got.cif
#   From: 2010.03.12/outbox.cif.g09.slc.cpg/sg1_3_cif.got.tgz:4408.got - 2010.03.29 11:57:58.
