data_PCOD8000540
_publ_section_title
;
Structure prediction by ZEFSAII (Michael W. Deem and Ramdas Pophale) SiO2 
 PCOD8000540
Probable space group: P -1
;
_chemical_formula_sum "Si O2"
_cell_formula_units_Z 10
_cell_length_a 10.866079
_cell_length_b 9.552795
_cell_length_c 9.106298
_cell_angle_alpha 86.160591
_cell_angle_beta 111.531139
_cell_angle_gamma 42.868227
_cell_volume 506.944349
_symmetry_space_group_name_H-M "P -1"
_symmetry_group_IT_number 2
_symmetry_cell_setting 'triclinic'
loop_
_space_group_symop_operation_xyz
x,y,z
-x,-y,-z
loop_
_atom_site_type_symbol
_atom_site_label
_atom_site_fract_x
_atom_site_fract_y
_atom_site_fract_z
Si Si1 0.890632 0.303895 0.691646
Si Si2 0.641963 0.508405 0.265172
Si Si3 0.597804 0.068271 0.059367
Si Si4 0.941609 0.972040 0.628152
Si Si5 0.484203 0.338157 0.270929
O O1 0.739171 0.466052 0.469917
O O2 0.755193 0.473873 0.763169
O O3 0.938743 0.093996 0.744114
O O4 0.128320 0.180775 0.792992
O O5 0.508078 0.476806 0.214497
O O6 0.850068 0.319478 0.246755
O O7 0.468407 0.778771 0.119772
O O8 0.489709 0.226115 0.147601
O O9 0.500000 0.000000 0.000000
O O10 0.690929 0.120228 0.490585
O O11 0.000000 0.000000 0.500000
#
# Coordination Sequence:
#
# PCOD8000540 Si02
#       5
#     2   2   2   2   2
#     4  10  20  39  61  88 115 143 192 245 280 333
#     4  10  19  39  65  85 110 152 189 238 295 325
#     4  12  25  39  55  84 122 157 190 227 281 349
#     4   8  14  33  62  84 106 141 183 238 284 322
#     4  10  19  39  64  86 114 144 192 244 283 335
#
# _framework density 19.726032
#
# number of rings (size 3 to 8) (size 9 to 14) (size 15 to 20)
#    0.000    2.400    6.000    3.000    0.000    2.400 
#    3.600    1.000    0.000    0.000    0.000    0.000 
#    0.000    0.000    0.000    0.000    0.000    0.000 
#
# Total GULP energy -123938.343747 kJ/mol
# GULP energy per Si atom -12393.834375 kJ/mol
# Density = 1.968113 g / cm^3
# Si number density = 19.726032 Si / 1000 Ang^3
#
#
#
# Elastic Constant Matrix: (Units=GPa)
#
#
# Indices 1 2 3 4 5 6 
#
# 1 70.4487 67.0276 51.0914 22.4210 17.2433 -6.1484
# 2 67.0276 109.1807 52.2272 17.8787 9.1245 -26.7091
# 3 51.0914 52.2272 87.1950 17.4215 20.9491 2.5484
# 4 22.4210 17.8787 17.4215 19.3636 3.6804 0.0223
# 5 17.2433 9.1245 20.9491 3.6804 19.3293 7.2033
# 6 -6.1484 -26.7091 2.5484 0.0223 7.2033 38.3191
#
#
#
# Elastic Compliance Matrix: (Units=1/GPa)
#
#
# Indices 1 2 3 4 5 6 
#
# 1 0.065847 -0.030120 -0.005849 -0.037588 -0.029350 -0.004500
# 2 -0.030120 0.032403 -0.006664 0.008821 0.011115 0.016101
# 3 -0.005849 -0.006664 0.023617 -0.005557 -0.014527 -0.004420
# 4 -0.037588 0.008821 -0.005557 0.088260 0.019810 -0.003289
# 5 -0.029350 0.011115 -0.014527 0.019810 0.089419 -0.012816
# 6 -0.004500 0.016101 -0.004420 -0.003289 -0.012816 0.039303
#
#
# Mechanical properties :
#
#
# Convention : Reuss Voigt Hill
#
# Bulk Modulus (GPa) = 27.32044 67.50185 47.41114
# Shear Modulus (GPa) = 11.45964 21.83428 16.64696
#
# Velocity S-wave (km/s) = 2.41288 3.33058 2.90816
# Velocity P-wave (km/s) = 4.65217 7.00602 5.94672
#
# Compressibility (1/GPa) = 0.03660264
#
# Stress axis : x y z
#
# Youngs Moduli (GPa) = 15.18661 30.86132 42.34299
#
# Poissons Ratio (x) = 0.92953 0.24767
# Poissons Ratio (y) = 0.45742 0.28215
# Poissons Ratio (z) = 0.08883 0.20564
#
# Static dielectric constant tensor:
#      x y z
#    x 3.114930 -0.297690 0.170420 
#    y -0.297690 4.215020 -0.308920 
#    z 0.170420 -0.308920 3.617540 
# 
# 
# High freq. dielectric constant tensor:
#      x y z
#    x 1.715280 -0.028170 0.015040 
#    y -0.028170 1.773220 -0.005350 
#    z 0.015040 -0.005350 1.767760 
# 
# From -- ./inp_files/146864.got.cif
#   From: 2010.06.25/outbox.cif.g09.slc.cpg/sg2_74_cif.got.tgz:146864.got - 2010.06.27 13:26:56.
