data_PCOD8000148
_publ_section_title
;
Structure prediction by ZEFSAII (Michael W. Deem and Ramdas Pophale) SiO2 
 PCOD8000148
Probable space group: P 1
;
_chemical_formula_sum "Si O2"
_cell_formula_units_Z 8
_cell_length_a 10.756172
_cell_length_b 7.710881
_cell_length_c 13.914981
_cell_angle_alpha 143.191898
_cell_angle_beta 149.097295
_cell_angle_gamma 43.999318
_cell_volume 353.154611
_symmetry_space_group_name_H-M "P 1"
_symmetry_group_IT_number 1
_symmetry_cell_setting 'triclinic'
loop_
_space_group_symop_operation_xyz
x,y,z
loop_
_atom_site_type_symbol
_atom_site_label
_atom_site_fract_x
_atom_site_fract_y
_atom_site_fract_z
Si Si1 0.071280 0.461380 0.834850
Si Si2 0.692666 0.278298 0.837969
Si Si3 0.113767 0.277224 0.978622
Si Si4 0.899699 0.047105 0.051794
Si Si5 0.538590 0.831965 0.088200
Si Si6 0.615112 0.499538 0.177095
Si Si7 0.894553 0.246720 0.422365
Si Si8 0.267109 0.911909 0.387522
O O1 0.983059 0.388496 0.639838
O O2 0.089152 0.213032 0.818957
O O3 0.336190 0.572700 0.052136
O O4 0.878647 0.711121 0.863975
O O5 0.905124 0.225671 0.035808
O O6 0.515197 0.559885 0.879801
O O7 0.838638 0.322986 0.857229
O O8 0.542688 0.995862 0.609139
O O9 0.254338 0.564821 0.218725
O O10 0.268761 0.994102 0.001110
O O11 0.669271 0.176404 0.021840
O O12 0.146650 0.076736 0.287208
O O13 0.666712 0.734789 0.232487
O O14 0.683353 0.053775 0.224209
O O15 0.787088 0.497284 0.385494
O O16 0.122557 0.037412 0.441154
#
# Coordination Sequence:
#
# PCOD8000148 Si02
#       8
#     1   1   1   1   1   1   1   1
#     4  11  23  42  66 100 136 180 226 279 348 401
#     4  11  23  46  68 100 141 178 230 290 339 408
#     4  11  24  46  69 105 141 178 237 283 337 429
#     4   9  22  41  67  97 129 179 230 274 338 410
#     4  11  23  45  71 103 140 177 234 289 339 415
#     4  10  22  45  68  92 141 180 222 294 338 399
#     4  11  22  45  71  99 138 183 230 283 347 409
#     4  10  23  46  74  94 136 191 221 286 356 393
#
# _framework density 22.652968000000001
#
# number of rings (size 3 to 8) (size 9 to 14) (size 15 to 20)
#    0.000    1.500    2.500    2.250    1.750    0.000 
#   18.000    0.000    0.000    0.000    0.000    0.000 
#    0.000    0.000    0.000    0.000    0.000    0.000 
#
# Total GULP energy -99129.210446 kJ/mol
# GULP energy per Si atom -12391.151306 kJ/mol
# Density = 2.260141 g / cm^3
# Si number density = 22.652968 Si / 1000 Ang^3
#
#
#
# Elastic Constant Matrix: (Units=GPa)
#
#
# Indices 1 2 3 4 5 6 
#
# 1 124.8089 44.8357 47.4017 -8.7139 -15.8580 5.9976
# 2 44.8357 126.9714 40.9064 -3.2627 -16.4186 1.9620
# 3 47.4017 40.9064 83.2889 -11.0221 -20.2912 -4.0001
# 4 -8.7139 -3.2627 -11.0221 21.9706 4.9878 -10.4075
# 5 -15.8580 -16.4186 -20.2912 4.9878 44.8324 -5.4581
# 6 5.9976 1.9620 -4.0001 -10.4075 -5.4581 37.1595
#
#
#
# Elastic Compliance Matrix: (Units=1/GPa)
#
#
# Indices 1 2 3 4 5 6 
#
# 1 0.010886 -0.002100 -0.005090 0.000387 0.000489 -0.002014
# 2 -0.002100 0.009934 -0.003657 -0.001935 0.001343 -0.000924
# 3 -0.005090 -0.003657 0.019545 0.009059 0.005485 0.006462
# 4 0.000387 -0.001935 0.009059 0.058274 -0.000860 0.017210
# 5 0.000489 0.001343 0.005485 -0.000860 0.026038 0.004024
# 6 -0.002014 -0.000924 0.006462 0.017210 0.004024 0.033392
#
#
# Mechanical properties :
#
#
# Convention : Reuss Voigt Hill
#
# Bulk Modulus (GPa) = 53.56154 66.81741 60.18948
# Shear Modulus (GPa) = 26.88380 34.25420 30.56900
#
# Velocity S-wave (km/s) = 3.44869 3.89283 3.67747
# Velocity P-wave (km/s) = 6.28917 7.05447 6.68279
#
# Compressibility (1/GPa) = 0.01867011
#
# Stress axis : x y z
#
# Youngs Moduli (GPa) = 91.86288 100.66832 51.16376
#
# Poissons Ratio (x) = 0.21136 0.26045
# Poissons Ratio (y) = 0.19288 0.18711
# Poissons Ratio (z) = 0.46762 0.36816
#
# Static dielectric constant tensor:
#      x y z
#    x 4.257120 -0.015120 -0.352070 
#    y -0.015120 4.332280 -0.047690 
#    z -0.352070 -0.047690 3.841950 
# 
# 
# High freq. dielectric constant tensor:
#      x y z
#    x 1.905390 -0.006310 -0.027870 
#    y -0.006310 1.905290 -0.005990 
#    z -0.027870 -0.005990 1.857460 
# 
# From -- ./inp_files/4369.got.cif
#   From: 2010.03.12/outbox.cif.g09.slc.cpg/sg1_3_cif.got.tgz:4369.got - 2010.03.29 11:57:58.
