data_PCOD8000036
_publ_section_title
;
Structure prediction by ZEFSAII (Michael W. Deem and Ramdas Pophale) SiO2 
 PCOD8000036
Probable space group: P 1
;
_chemical_formula_sum "Si O2"
_cell_formula_units_Z 8
_cell_length_a 7.410943
_cell_length_b 9.529831
_cell_length_c 8.071064
_cell_angle_alpha 99.316606
_cell_angle_beta 67.171828
_cell_angle_gamma 133.965658
_cell_volume 373.145779
_symmetry_space_group_name_H-M "P 1"
_symmetry_group_IT_number 1
_symmetry_cell_setting 'triclinic'
loop_
_space_group_symop_operation_xyz
x,y,z
loop_
_atom_site_type_symbol
_atom_site_label
_atom_site_fract_x
_atom_site_fract_y
_atom_site_fract_z
Si Si1 0.931450 0.727210 0.985990
Si Si2 0.606285 0.653617 0.592491
Si Si3 0.684475 0.972663 0.427653
Si Si4 0.172531 0.116216 0.109365
Si Si5 0.929811 0.378581 0.374440
Si Si6 0.375630 0.498915 0.988192
Si Si7 0.090979 0.720146 0.578868
Si Si8 0.576806 0.397530 0.302664
O O1 0.062587 0.707654 0.784322
O O2 0.662658 0.674399 0.008421
O O3 0.840976 0.572693 0.131993
O O4 0.169843 0.954712 0.008292
O O5 0.646529 0.836788 0.558605
O O6 0.488668 0.494559 0.456456
O O7 0.899177 0.738012 0.560172
O O8 0.392654 0.552865 0.800777
O O9 0.403558 0.900244 0.450594
O O10 0.864935 0.199838 0.459850
O O11 0.850627 0.985007 0.220537
O O12 0.312213 0.296831 0.967481
O O13 0.326355 0.211615 0.248754
O O14 0.661674 0.313249 0.377060
O O15 0.147970 0.467246 0.166043
O O16 0.033388 0.530426 0.511471
#
# Coordination Sequence:
#
# PCOD8000036 Si02
#       8
#     1   1   1   1   1   1   1   1
#     4  10  20  40  64  90 123 167 204 256 308 366
#     4  10  22  43  64  92 127 166 201 257 314 362
#     4  11  23  38  66  92 123 164 206 255 305 369
#     4  10  21  40  65  91 123 167 207 251 311 367
#     4  10  23  41  64  94 125 163 208 257 308 366
#     4   9  21  41  63  90 124 160 207 258 306 368
#     4  10  24  41  65  90 129 161 209 256 307 366
#     4  10  22  38  65  91 132 160 206 256 311 366
#
# _framework density 21.439342
#
# number of rings (size 3 to 8) (size 9 to 14) (size 15 to 20)
#    0.000    2.000    1.250    0.750    7.000    4.000 
#    2.250    1.250    2.750    0.000    0.000    0.000 
#    0.000    0.000    0.000    0.000    0.000    0.000 
#
# Total GULP energy -99146.820132 kJ/mol
# GULP energy per Si atom -12393.352516 kJ/mol
# Density = 2.139055 g / cm^3
# Si number density = 21.439342 Si / 1000 Ang^3
#
#
#
# Elastic Constant Matrix: (Units=GPa)
#
#
# Indices 1 2 3 4 5 6 
#
# 1 46.9344 38.6558 36.0023 -0.8010 -11.2646 -3.6017
# 2 38.6558 136.2648 82.2652 8.9949 4.6541 -6.4304
# 3 36.0023 82.2652 125.7736 16.0558 5.1073 -1.1888
# 4 -0.8010 8.9949 16.0558 31.5318 -3.6056 2.4578
# 5 -11.2646 4.6541 5.1073 -3.6056 28.8452 -4.6620
# 6 -3.6017 -6.4304 -1.1888 2.4578 -4.6620 35.3473
#
#
#
# Elastic Compliance Matrix: (Units=1/GPa)
#
#
# Indices 1 2 3 4 5 6 
#
# 1 0.038704 -0.006938 -0.008466 0.009174 0.019582 0.004342
# 2 -0.006938 0.013513 -0.006536 -0.001214 -0.003702 0.001128
# 3 -0.008466 -0.006536 0.015771 -0.006947 -0.006213 -0.001858
# 4 0.009174 -0.001214 -0.006947 0.036982 0.009496 -0.000839
# 5 0.019582 -0.003702 -0.006213 0.009496 0.046258 0.006554
# 6 0.004342 0.001128 -0.001858 -0.000839 0.006554 0.029798
#
#
# Mechanical properties :
#
#
# Convention : Reuss Voigt Hill
#
# Bulk Modulus (GPa) = 41.48221 69.20215 55.34218
# Shear Modulus (GPa) = 21.46444 29.28150 25.37297
#
# Velocity S-wave (km/s) = 3.16756 3.69966 3.44390
# Velocity P-wave (km/s) = 5.72438 7.11324 6.45627
#
# Compressibility (1/GPa) = 0.02410672
#
# Stress axis : x y z
#
# Youngs Moduli (GPa) = 25.83690 74.00421 63.40739
#
# Poissons Ratio (x) = 0.51344 0.53682
# Poissons Ratio (y) = 0.17926 0.41446
# Poissons Ratio (z) = 0.21874 0.48372
#
# Static dielectric constant tensor:
#      x y z
#    x 3.749440 0.061940 -0.118540 
#    y 0.061940 3.920500 0.010930 
#    z -0.118540 0.010930 3.896170 
# 
# 
# High freq. dielectric constant tensor:
#      x y z
#    x 1.829250 -0.000870 -0.007850 
#    y -0.000870 1.845980 0.000150 
#    z -0.007850 0.000150 1.837340 
# 
# From -- ./inp_files/1215.got.cif
#   From: 2010.03.12/outbox.cif.g09.slc.cpg/sg1_1_cif.got.tgz:1215.got - 2010.03.29 11:57:58.
