data_PCOD8000925
_publ_section_title
;
Structure prediction by ZEFSAII (Michael W. Deem and Ramdas Pophale) SiO2 
 PCOD8000925
Probable space group: P -1
;
_chemical_formula_sum "Si O2"
_cell_formula_units_Z 14
_cell_length_a 12.419380
_cell_length_b 12.479487
_cell_length_c 11.585007
_cell_angle_alpha 140.011121
_cell_angle_beta 76.036788
_cell_angle_gamma 129.339606
_cell_volume 777.076857
_symmetry_space_group_name_H-M "P -1"
_symmetry_group_IT_number 2
_symmetry_cell_setting 'triclinic'
loop_
_space_group_symop_operation_xyz
x,y,z
-x,-y,-z
loop_
_atom_site_type_symbol
_atom_site_label
_atom_site_fract_x
_atom_site_fract_y
_atom_site_fract_z
Si Si1 0.827431 0.410630 0.846285
Si Si2 0.276242 0.208239 0.885639
Si Si3 0.398091 0.586055 0.983493
Si Si4 0.925709 0.173040 0.697719
Si Si5 0.200562 0.299152 0.592491
Si Si6 0.126758 0.317930 0.145273
Si Si7 0.068033 0.183767 0.296452
O O1 0.821864 0.205174 0.689045
O O2 0.855345 0.489923 0.770476
O O3 0.662212 0.308772 0.854521
O O4 0.975490 0.646290 0.072444
O O5 0.310045 0.330027 0.852784
O O6 0.101615 0.931103 0.702180
O O7 0.411250 0.219090 0.890734
O O8 0.275320 0.356918 0.103925
O O9 0.353433 0.537162 0.818256
O O10 0.040794 0.213146 0.608692
O O11 0.804804 0.905768 0.558939
O O12 0.205992 0.343133 0.490005
O O13 0.126033 0.355480 0.313340
O O14 0.962552 0.041461 0.923493
#
# Coordination Sequence:
#
# PCOD8000925 Si02
#       7
#     2   2   2   2   2   2   2
#     4   9  15  27  41  67  85 113 135 176 209 258
#     4   8  14  26  42  64  83 116 140 168 202 262
#     4   9  16  25  44  64  90 106 140 172 218 245
#     4   9  16  24  43  63  92 104 138 177 221 239
#     4  10  16  27  42  69  84 108 138 184 207 246
#     4   8  15  27  45  62  82 113 151 167 195 254
#     4   9  15  27  46  63  84 110 151 170 198 244
#
# _framework density 18.016235999999999
#
# number of rings (size 3 to 8) (size 9 to 14) (size 15 to 20)
#    0.857    2.286    1.429    1.714    0.000    0.000 
#    0.000    1.429    0.000   13.714    0.000   16.000 
#    0.000    0.000    0.000    0.000    0.000    0.000 
#
# Total GULP energy -173438.111476 kJ/mol
# GULP energy per Si atom -12388.436534 kJ/mol
# Density = 1.797523 g / cm^3
# Si number density = 18.016236 Si / 1000 Ang^3
#
#
#
# Elastic Constant Matrix: (Units=GPa)
#
#
# Indices 1 2 3 4 5 6 
#
# 1 106.1713 38.7264 20.5887 -1.7680 -4.3859 -20.8282
# 2 38.7264 93.0609 31.5810 -26.2733 4.0907 -22.8054
# 3 20.5887 31.5810 39.6122 -17.0375 2.6627 -14.7890
# 4 -1.7680 -26.2733 -17.0375 24.5361 -11.8879 6.1801
# 5 -4.3859 4.0907 2.6627 -11.8879 22.4831 2.5996
# 6 -20.8282 -22.8054 -14.7890 6.1801 2.5996 22.1540
#
#
#
# Elastic Compliance Matrix: (Units=1/GPa)
#
#
# Indices 1 2 3 4 5 6 
#
# 1 0.013357 -0.005090 -0.004492 -0.010727 -0.002488 0.007603
# 2 -0.005090 0.021872 -0.002215 0.021947 0.005802 0.009448
# 3 -0.004492 -0.002215 0.047870 0.030435 0.008099 0.016011
# 4 -0.010727 0.021947 0.030435 0.108762 0.048184 -0.003170
# 5 -0.002488 0.005802 0.008099 0.048184 0.068899 -0.012486
# 6 0.007603 0.009448 0.016011 -0.003170 -0.012486 0.075050
#
#
# Mechanical properties :
#
#
# Convention : Reuss Voigt Hill
#
# Bulk Modulus (GPa) = 16.80577 46.73738 31.77157
# Shear Modulus (GPa) = 13.18432 23.69786 18.44109
#
# Velocity S-wave (km/s) = 2.70812 3.63073 3.20282
# Velocity P-wave (km/s) = 4.37343 6.60109 5.59916
#
# Compressibility (1/GPa) = 0.05950336
#
# Stress axis : x y z
#
# Youngs Moduli (GPa) = 74.86935 45.72109 20.89012
#
# Poissons Ratio (x) = 0.23270 0.09385
# Poissons Ratio (y) = 0.38106 0.04627
# Poissons Ratio (z) = 0.33635 0.10128
#
# Static dielectric constant tensor:
#      x y z
#    x 3.266030 -0.178460 -0.065720 
#    y -0.178460 3.105780 -0.237450 
#    z -0.065720 -0.237450 2.969100 
# 
# 
# High freq. dielectric constant tensor:
#      x y z
#    x 1.680580 -0.018580 0.000070 
#    y -0.018580 1.668770 -0.030160 
#    z 0.000070 -0.030160 1.663220 
# 
# From -- ./inp_files/265997.got.cif
#   From: 2010.06.25/outbox.cif.g09.slc.cpg/sg2_133_cif.got.tgz:265997.got - 2010.06.27 13:26:56.
