data_PCOD8000609
_publ_section_title
;
Structure prediction by ZEFSAII (Michael W. Deem and Ramdas Pophale) SiO2 
 PCOD8000609
Probable space group: P -1
;
_chemical_formula_sum "Si O2"
_cell_formula_units_Z 16
_cell_length_a 12.635279
_cell_length_b 13.079498
_cell_length_c 12.348051
_cell_angle_alpha 86.531251
_cell_angle_beta 36.191256
_cell_angle_gamma 114.744440
_cell_volume 732.739713
_symmetry_space_group_name_H-M "P -1"
_symmetry_group_IT_number 2
_symmetry_cell_setting 'triclinic'
loop_
_space_group_symop_operation_xyz
x,y,z
-x,-y,-z
loop_
_atom_site_type_symbol
_atom_site_label
_atom_site_fract_x
_atom_site_fract_y
_atom_site_fract_z
Si Si1 0.165160 0.212883 0.434830
Si Si2 0.181434 0.728346 0.004295
Si Si3 0.753658 0.189502 0.814225
Si Si4 0.809792 0.842648 0.008605
Si Si5 0.368805 0.188369 0.073109
Si Si6 0.167205 0.811407 0.788630
Si Si7 0.295434 0.651350 0.608908
Si Si8 0.623362 0.786533 0.539451
O O1 0.359770 0.272122 0.166799
O O2 0.346731 0.290857 0.392817
O O3 0.052737 0.279003 0.509522
O O4 0.898082 0.011510 0.679641
O O5 0.069453 0.750628 0.998442
O O6 0.503630 0.831665 0.700177
O O7 0.216427 0.805796 0.081092
O O8 0.954045 0.532730 0.223946
O O9 0.680435 0.270147 0.826636
O O10 0.500000 0.000000 0.000000
O O11 0.643442 0.762681 0.035876
O O12 0.936700 0.787524 0.931685
O O13 0.580938 0.780243 0.289345
O O14 0.069909 0.043931 0.780651
O O15 0.161210 0.704217 0.730227
O O16 0.500000 0.000000 0.500000
O O17 0.387842 0.648781 0.650998
#
# Coordination Sequence:
#
# PCOD8000609 Si02
#       8
#     2   2   2   2   2   2   2   2
#     4   9  18  32  61  90 119 160 216 265 309 359
#     4  11  23  43  64  96 135 165 208 274 328 371
#     4  10  21  37  63  94 119 166 223 263 307 378
#     4  11  23  39  65  96 130 169 218 258 316 386
#     4   9  19  36  57  91 124 157 208 276 308 353
#     4  11  23  39  68  97 129 168 219 261 313 383
#     4  11  25  42  61  97 138 171 201 267 334 376
#     4  10  19  39  65  92 132 166 214 266 315 377
#
# _framework density 21.835857000000001
#
# number of rings (size 3 to 8) (size 9 to 14) (size 15 to 20)
#    0.000    1.750    3.750    1.875    3.500    3.500 
#    2.250    0.625    0.000    1.500    0.000    0.000 
#    0.000    0.000    0.000    0.000    0.000    0.000 
#
# Total GULP energy -198359.777063 kJ/mol
# GULP energy per Si atom -12397.486066 kJ/mol
# Density = 2.178616 g / cm^3
# Si number density = 21.835857 Si / 1000 Ang^3
#
#
#
# Elastic Constant Matrix: (Units=GPa)
#
#
# Indices 1 2 3 4 5 6 
#
# 1 170.0710 64.7485 27.4837 36.9051 -4.3810 -16.8137
# 2 64.7485 102.0239 36.4986 28.0109 -0.0523 7.7165
# 3 27.4837 36.4986 50.5683 18.8515 -2.3086 -1.4254
# 4 36.9051 28.0109 18.8515 39.7064 -4.5693 -8.2580
# 5 -4.3810 -0.0523 -2.3086 -4.5693 18.1510 10.0652
# 6 -16.8137 7.7165 -1.4254 -8.2580 10.0652 36.2273
#
#
#
# Elastic Compliance Matrix: (Units=1/GPa)
#
#
# Indices 1 2 3 4 5 6 
#
# 1 0.009122 -0.005134 0.000386 -0.004214 -0.001483 0.004794
# 2 -0.005134 0.018266 -0.008463 -0.005693 0.000812 -0.008130
# 3 0.000386 -0.008463 0.028595 -0.007609 0.001217 0.001034
# 4 -0.004214 -0.005693 -0.007609 0.038573 0.004033 0.006630
# 5 -0.001483 0.000812 0.001217 0.004033 0.066020 -0.018237
# 6 0.004794 -0.008130 0.001034 0.006630 -0.018237 0.038179
#
#
# Mechanical properties :
#
#
# Convention : Reuss Voigt Hill
#
# Bulk Modulus (GPa) = 33.82816 64.45832 49.14324
# Shear Modulus (GPa) = 21.27367 31.74578 26.50973
#
# Velocity S-wave (km/s) = 3.12469 3.81706 3.48810
# Velocity P-wave (km/s) = 5.34265 7.00072 6.22712
#
# Compressibility (1/GPa) = 0.02956117
#
# Stress axis : x y z
#
# Youngs Moduli (GPa) = 109.62294 54.74711 34.97063
#
# Poissons Ratio (x) = 0.28106 -0.01349
# Poissons Ratio (y) = 0.56278 0.29596
# Poissons Ratio (z) = -0.04229 0.46333
#
# Static dielectric constant tensor:
#      x y z
#    x 4.263340 -0.067330 -0.082880 
#    y -0.067330 3.784340 0.360350 
#    z -0.082880 0.360350 3.723970 
# 
# 
# High freq. dielectric constant tensor:
#      x y z
#    x 1.869270 0.005190 -0.010340 
#    y 0.005190 1.841770 0.029100 
#    z -0.010340 0.029100 1.838770 
# 
# From -- ./inp_files/283396.got.cif
#   From: 2010.06.25/outbox.cif.g09.slc.cpg/sg2_142_cif.got.tgz:283396.got - 2010.06.27 13:26:56.
