data_PCOD8000559
_publ_section_title
;
Structure prediction by ZEFSAII (Michael W. Deem and Ramdas Pophale) SiO2 
 PCOD8000559
Probable space group: P -1
;
_chemical_formula_sum "Si O2"
_cell_formula_units_Z 16
_cell_length_a 8.957335
_cell_length_b 16.789855
_cell_length_c 8.905234
_cell_angle_alpha 91.543582
_cell_angle_beta 54.470456
_cell_angle_gamma 56.725379
_cell_volume 784.792552
_symmetry_space_group_name_H-M "P -1"
_symmetry_group_IT_number 2
_symmetry_cell_setting 'triclinic'
loop_
_space_group_symop_operation_xyz
x,y,z
-x,-y,-z
loop_
_atom_site_type_symbol
_atom_site_label
_atom_site_fract_x
_atom_site_fract_y
_atom_site_fract_z
Si Si1 0.344469 0.830426 0.038065
Si Si2 0.225908 0.046365 0.135708
Si Si3 0.814773 0.237258 0.614615
Si Si4 0.179412 0.663926 0.119087
Si Si5 0.094169 0.798931 0.934370
Si Si6 0.084758 0.363409 0.315417
Si Si7 0.681400 0.374234 0.437075
Si Si8 0.767453 0.511425 0.793145
O O1 0.323190 0.788585 0.206045
O O2 0.223552 0.952453 0.144265
O O3 0.193091 0.837900 0.988036
O O4 0.635701 0.752057 0.811299
O O5 0.033593 0.135205 0.378590
O O6 0.139090 0.098596 0.022170
O O7 0.500000 0.000000 0.000000
O O8 0.940833 0.265102 0.653071
O O9 0.615930 0.347930 0.630959
O O10 0.191000 0.564876 0.101136
O O11 0.011544 0.748079 0.083738
O O12 0.468475 0.613040 0.935575
O O13 0.315868 0.696401 0.692364
O O14 0.114236 0.440506 0.219630
O O15 0.959297 0.332839 0.284617
O O16 0.907387 0.432175 0.564757
O O17 0.500000 0.500000 0.500000
#
# Coordination Sequence:
#
# PCOD8000559 Si02
#       8
#     2   2   2   2   2   2   2   2
#     4  11  22  41  69  85 117 157 218 254 298 363
#     4  11  24  43  65  89 121 159 198 261 317 364
#     4  10  21  40  62  89 117 164 204 247 309 360
#     4  10  19  39  64  91 123 163 202 248 302 366
#     4  10  22  39  62  90 118 159 205 249 307 364
#     4  11  21  36  61  94 120 164 209 243 299 368
#     4  11  23  37  58  90 134 165 195 249 309 364
#     4  10  20  33  64  90 125 160 202 239 304 358
#
# _framework density 20.387551999999999
#
# number of rings (size 3 to 8) (size 9 to 14) (size 15 to 20)
#    0.000    1.500    3.750    3.000    3.500    0.000 
#    0.000    6.250    2.750    0.000    0.000    0.000 
#    0.000    0.000    0.000    0.000    0.000    0.000 
#
# Total GULP energy -198247.056155 kJ/mol
# GULP energy per Si atom -12390.441010 kJ/mol
# Density = 2.034115 g / cm^3
# Si number density = 20.387552 Si / 1000 Ang^3
#
#
#
# Elastic Constant Matrix: (Units=GPa)
#
#
# Indices 1 2 3 4 5 6 
#
# 1 81.1743 52.1116 41.4642 -8.2827 -0.9153 -1.5190
# 2 52.1116 175.9893 46.8010 -12.6750 8.3954 -2.9092
# 3 41.4642 46.8010 88.1273 5.3904 10.9699 -6.1427
# 4 -8.2827 -12.6750 5.3904 35.3388 -2.2133 1.6138
# 5 -0.9153 8.3954 10.9699 -2.2133 30.0549 -2.0566
# 6 -1.5190 -2.9092 -6.1427 1.6138 -2.0566 37.3293
#
#
#
# Elastic Compliance Matrix: (Units=1/GPa)
#
#
# Indices 1 2 3 4 5 6 
#
# 1 0.019228 -0.003408 -0.008191 0.004872 0.004833 -0.000775
# 2 -0.003408 0.007542 -0.002397 0.002203 -0.001181 -0.000106
# 3 -0.008191 -0.002397 0.017794 -0.005998 -0.006358 0.002317
# 4 0.004872 0.002203 -0.005998 0.031470 0.003919 -0.001762
# 5 0.004833 -0.001181 -0.006358 0.003919 0.036420 0.000896
# 6 -0.000775 -0.000106 0.002317 -0.001762 0.000896 0.027256
#
#
# Mechanical properties :
#
#
# Convention : Reuss Voigt Hill
#
# Bulk Modulus (GPa) = 60.34079 69.56050 64.95064
# Shear Modulus (GPa) = 28.86444 34.20553 31.53498
#
# Velocity S-wave (km/s) = 3.76678 4.10050 3.93717
# Velocity P-wave (km/s) = 6.96988 7.52409 7.25228
#
# Compressibility (1/GPa) = 0.01657254
#
# Stress axis : x y z
#
# Youngs Moduli (GPa) = 52.00824 132.59268 56.20014
#
# Poissons Ratio (x) = 0.45185 0.46031
# Poissons Ratio (y) = 0.17723 0.13471
# Poissons Ratio (z) = 0.42598 0.31782
#
# Static dielectric constant tensor:
#      x y z
#    x 3.656050 0.239350 0.160320 
#    y 0.239350 4.116070 -0.093170 
#    z 0.160320 -0.093170 3.714250 
# 
# 
# High freq. dielectric constant tensor:
#      x y z
#    x 1.776480 0.023570 0.019710 
#    y 0.023570 1.818720 -0.001740 
#    z 0.019710 -0.001740 1.788710 
# 
# From -- ./inp_files/215102.got.cif
#   From: 2010.06.25/outbox.cif.g09.slc.cpg/sg2_108_cif.got.tgz:215102.got - 2010.06.27 13:26:56.
