data_PCOD8000226
_publ_section_title
;
Structure prediction by ZEFSAII (Michael W. Deem and Ramdas Pophale) SiO2 
 PCOD8000226
Probable space group: P 1
;
_chemical_formula_sum "Si O2"
_cell_formula_units_Z 8
_cell_length_a 7.113224
_cell_length_b 7.394913
_cell_length_c 11.714021
_cell_angle_alpha 113.139984
_cell_angle_beta 80.707580
_cell_angle_gamma 140.297508
_cell_volume 351.384631
_symmetry_space_group_name_H-M "P 1"
_symmetry_group_IT_number 1
_symmetry_cell_setting 'triclinic'
loop_
_space_group_symop_operation_xyz
x,y,z
loop_
_atom_site_type_symbol
_atom_site_label
_atom_site_fract_x
_atom_site_fract_y
_atom_site_fract_z
Si Si1 0.532050 0.218380 0.860010
Si Si2 0.844305 0.813492 0.460147
Si Si3 0.911220 0.310788 0.021690
Si Si4 0.788160 0.138939 0.415125
Si Si5 0.474780 0.475172 0.624281
Si Si6 0.917320 0.518934 0.689415
Si Si7 0.465954 0.617967 0.901782
Si Si8 0.096794 0.613574 0.315185
O O1 0.679196 0.282263 0.982914
O O2 0.722847 0.278034 0.753029
O O3 0.524659 0.447635 0.902397
O O4 0.206952 0.857176 0.797743
O O5 0.869633 0.610947 0.363591
O O6 0.561729 0.626757 0.527851
O O7 0.153632 0.110866 0.568700
O O8 0.787448 0.904391 0.377639
O O9 0.147353 0.437853 0.933565
O O10 0.733970 0.977908 0.004634
O O11 0.087206 0.554031 0.168262
O O12 0.976619 0.385064 0.564422
O O13 0.971990 0.329045 0.329060
O O14 0.443815 0.943839 0.394513
O O15 0.740504 0.535255 0.636460
O O16 0.463724 0.626740 0.765100
#
# Coordination Sequence:
#
# PCOD8000226 Si02
#       8
#     1   1   1   1   1   1   1   1
#     4  11  25  43  66 105 133 178 221 280 341 395
#     4  12  24  43  69 101 133 182 220 280 342 397
#     4  12  27  45  72  96 138 191 227 268 332 417
#     4  12  26  43  70 104 133 183 225 280 345 396
#     4  11  22  42  69  99 143 169 216 285 347 397
#     4  11  21  42  69  99 145 164 217 289 341 401
#     4  11  25  45  67 105 136 178 224 283 340 396
#     4  12  26  49  66  99 143 179 234 275 326 407
#
# _framework density 22.767073
#
# number of rings (size 3 to 8) (size 9 to 14) (size 15 to 20)
#    0.000    0.500    2.500    6.750    5.250    2.000 
#    0.000    0.000    0.000    0.000    0.000    0.000 
#    0.000    0.000    0.000    0.000    0.000    0.000 
#
# Total GULP energy -99236.083059 kJ/mol
# GULP energy per Si atom -12404.510382 kJ/mol
# Density = 2.271525 g / cm^3
# Si number density = 22.767073 Si / 1000 Ang^3
#
#
#
# Elastic Constant Matrix: (Units=GPa)
#
#
# Indices 1 2 3 4 5 6 
#
# 1 73.3418 21.2625 42.2536 -4.6370 -2.7094 -8.2531
# 2 21.2625 97.7850 17.5017 -2.2995 -3.6968 5.8915
# 3 42.2536 17.5017 95.0351 -0.7545 4.0053 -5.7262
# 4 -4.6370 -2.2995 -0.7545 35.1043 -1.1041 2.2873
# 5 -2.7094 -3.6968 4.0053 -1.1041 23.7831 -3.1652
# 6 -8.2531 5.8915 -5.7262 2.2873 -3.1652 33.1416
#
#
#
# Elastic Compliance Matrix: (Units=1/GPa)
#
#
# Indices 1 2 3 4 5 6 
#
# 1 0.019991 -0.002936 -0.008235 0.002113 0.003879 0.004302
# 2 -0.002936 0.011272 -0.000988 0.000552 0.001234 -0.002826
# 3 -0.008235 -0.000988 0.014529 -0.000975 -0.003535 0.000365
# 4 0.002113 0.000552 -0.000975 0.028935 0.001624 -0.001582
# 5 0.003879 0.001234 -0.003535 0.001624 0.043912 0.004218
# 6 0.004302 -0.002826 0.000365 -0.001582 0.004218 0.032322
#
#
# Mechanical properties :
#
#
# Convention : Reuss Voigt Hill
#
# Bulk Modulus (GPa) = 46.56934 47.57751 47.07343
# Shear Modulus (GPa) = 27.40651 30.74875 29.07763
#
# Velocity S-wave (km/s) = 3.47332 3.67901 3.57764
# Velocity P-wave (km/s) = 6.04850 6.24417 6.14711
#
# Compressibility (1/GPa) = 0.02147335
#
# Stress axis : x y z
#
# Youngs Moduli (GPa) = 50.02164 88.71797 68.82725
#
# Poissons Ratio (x) = 0.26046 0.56680
# Poissons Ratio (y) = 0.14686 0.06803
# Poissons Ratio (z) = 0.41194 0.08768
#
# Static dielectric constant tensor:
#      x y z
#    x 4.140080 -0.018260 0.002700 
#    y -0.018260 4.185790 -0.034460 
#    z 0.002700 -0.034460 3.876840 
# 
# 
# High freq. dielectric constant tensor:
#      x y z
#    x 1.903340 0.001180 0.003120 
#    y 0.001180 1.915830 -0.002780 
#    z 0.003120 -0.002780 1.879910 
# 
# From -- ./inp_files/6513.got.cif
#   From: 2010.03.12/outbox.cif.g09.slc.cpg/sg1_4_cif.got.tgz:6513.got - 2010.03.29 11:57:58.
