data_PCOD8000311
_publ_section_title
;
Structure prediction by ZEFSAII (Michael W. Deem and Ramdas Pophale) SiO2 
 PCOD8000311
Probable space group: P -1
;
_chemical_formula_sum "Si O2"
_cell_formula_units_Z 14
_cell_length_a 11.077789
_cell_length_b 11.919514
_cell_length_c 20.158394
_cell_angle_alpha 30.564600
_cell_angle_beta 142.599947
_cell_angle_gamma 123.185170
_cell_volume 737.207777
_symmetry_space_group_name_H-M "P -1"
_symmetry_group_IT_number 2
_symmetry_cell_setting 'triclinic'
loop_
_space_group_symop_operation_xyz
x,y,z
-x,-y,-z
loop_
_atom_site_type_symbol
_atom_site_label
_atom_site_fract_x
_atom_site_fract_y
_atom_site_fract_z
Si Si1 0.311407 0.888179 0.495834
Si Si2 0.876870 0.485734 0.520595
Si Si3 0.498811 0.955523 0.383906
Si Si4 0.429840 0.516322 0.285806
Si Si5 0.953955 0.943483 0.832439
Si Si6 0.996379 0.815074 0.497843
Si Si7 0.308671 0.768563 0.767170
O O1 0.122762 0.066537 0.271631
O O2 0.453533 0.004461 0.537621
O O3 0.480122 0.633967 0.666078
O O4 0.179823 0.828130 0.525430
O O5 0.608857 0.618940 0.328866
O O6 0.924708 0.617343 0.537156
O O7 0.000000 0.500000 0.500000
O O8 0.961522 0.199858 0.720083
O O9 0.610880 0.058036 0.327826
O O10 0.233238 0.083423 0.190017
O O11 0.584288 0.658683 0.571448
O O12 0.191102 0.732060 0.059497
O O13 0.112684 0.731046 0.663524
O O14 0.785823 0.083856 0.280175
O O15 0.500000 0.500000 0.000000
#
# Coordination Sequence:
#
# PCOD8000311 Si02
#       7
#     2   2   2   2   2   2   2
#     4   9  18  34  53  82 115 148 180 232 282 329
#     4  10  19  39  55  83 121 145 181 231 281 334
#     4   9  20  37  52  77 117 143 188 239 271 324
#     4  10  20  33  55  84 113 149 183 223 285 335
#     4  10  20  32  55  85 113 150 184 221 279 342
#     4  10  20  39  58  81 118 144 182 243 275 320
#     4  10  23  39  61  84 104 150 196 229 279 328
#
# _framework density 18.990575
#
# number of rings (size 3 to 8) (size 9 to 14) (size 15 to 20)
#    0.000    2.571    2.857    1.714    0.000    9.714 
#    0.000    2.857    0.000    5.143    0.000    0.000 
#    0.000    0.000    0.000    0.000    0.000    0.000 
#
# Total GULP energy -173444.313766 kJ/mol
# GULP energy per Si atom -12388.879555 kJ/mol
# Density = 1.894735 g / cm^3
# Si number density = 18.990575 Si / 1000 Ang^3
#
#
#
# Elastic Constant Matrix: (Units=GPa)
#
#
# Indices 1 2 3 4 5 6 
#
# 1 58.6441 48.8404 42.3902 -7.6868 11.6630 9.2330
# 2 48.8404 136.0700 50.4908 0.1839 9.7304 15.1312
# 3 42.3902 50.4908 153.3114 9.7997 30.3723 14.7788
# 4 -7.6868 0.1839 9.7997 21.3904 4.7574 5.9722
# 5 11.6630 9.7304 30.3723 4.7574 25.7081 2.8754
# 6 9.2330 15.1312 14.7788 5.9722 2.8754 26.2476
#
#
#
# Elastic Compliance Matrix: (Units=1/GPa)
#
#
# Indices 1 2 3 4 5 6 
#
# 1 0.033057 -0.008612 -0.005162 0.018091 -0.008206 -0.006974
# 2 -0.008612 0.011026 -0.001257 -0.002403 0.001918 -0.002283
# 3 -0.005162 -0.001257 0.010484 -0.004333 -0.008606 -0.001434
# 4 0.018091 -0.002403 -0.004333 0.062214 -0.011971 -0.015383
# 5 -0.008206 0.001918 -0.008606 -0.011971 0.053893 0.003447
# 6 -0.006974 -0.002283 -0.001434 -0.015383 0.003447 0.045798
#
#
# Mechanical properties :
#
#
# Convention : Reuss Voigt Hill
#
# Bulk Modulus (GPa) = 40.80613 70.16316 55.48465
# Shear Modulus (GPa) = 19.63071 28.42283 24.02677
#
# Velocity S-wave (km/s) = 3.21862 3.87289 3.56082
# Velocity P-wave (km/s) = 5.94533 7.55153 6.79605
#
# Compressibility (1/GPa) = 0.02450612
#
# Stress axis : x y z
#
# Youngs Moduli (GPa) = 30.25071 90.69064 95.38279
#
# Poissons Ratio (x) = 0.78102 0.49240
# Poissons Ratio (y) = 0.26052 0.11985
# Poissons Ratio (z) = 0.15616 0.11396
#
# Static dielectric constant tensor:
#      x y z
#    x 3.546070 0.180070 0.126580 
#    y 0.180070 3.885150 0.082090 
#    z 0.126580 0.082090 3.211710 
# 
# 
# High freq. dielectric constant tensor:
#      x y z
#    x 1.743900 0.022660 0.012450 
#    y 0.022660 1.744740 0.002070 
#    z 0.012450 0.002070 1.715770 
# 
# From -- ./inp_files/524309.got.cif
#   From: 2010.06.25/outbox.cif.g09.slc.cpg/sg2_263_cif.got.tgz:524309.got - 2010.06.27 13:26:56.
