data_PCOD8000841
_publ_section_title
;
Structure prediction by ZEFSAII (Michael W. Deem and Ramdas Pophale) SiO2 
 PCOD8000841
Probable space group: P -1
;
_chemical_formula_sum "Si O2"
_cell_formula_units_Z 16
_cell_length_a 18.534918
_cell_length_b 9.780027
_cell_length_c 11.284847
_cell_angle_alpha 98.933145
_cell_angle_beta 40.974288
_cell_angle_gamma 66.416481
_cell_volume 797.473102
_symmetry_space_group_name_H-M "P -1"
_symmetry_group_IT_number 2
_symmetry_cell_setting 'triclinic'
loop_
_space_group_symop_operation_xyz
x,y,z
-x,-y,-z
loop_
_atom_site_type_symbol
_atom_site_label
_atom_site_fract_x
_atom_site_fract_y
_atom_site_fract_z
Si Si1 0.370011 0.054375 0.753811
Si Si2 0.026184 0.379175 0.065947
Si Si3 0.496367 0.595042 0.860480
Si Si4 0.687720 0.138535 0.645210
Si Si5 0.458945 0.408615 0.460063
Si Si6 0.693261 0.655432 0.665016
Si Si7 0.457728 0.102280 0.893403
Si Si8 0.974341 0.159546 0.973706
O O1 0.369777 0.144829 0.885476
O O2 0.500000 0.000000 0.500000
O O3 0.435231 0.831107 0.655104
O O4 0.179673 0.263805 0.952836
O O5 0.851478 0.572282 0.389507
O O6 0.054648 0.195770 0.963582
O O7 0.000000 0.500000 0.000000
O O8 0.543729 0.388544 0.798224
O O9 0.447273 0.656160 0.791686
O O10 0.679587 0.504331 0.640204
O O11 0.334420 0.815722 0.178151
O O12 0.624616 0.047476 0.670074
O O13 0.895977 0.964841 0.321848
O O14 0.500000 0.500000 0.500000
O O15 0.239536 0.601292 0.758857
O O16 0.512971 0.905767 0.865409
O O17 0.703022 0.669323 0.796270
O O18 0.000000 0.000000 0.000000
#
# Coordination Sequence:
#
# PCOD8000841 Si02
#       8
#     2   2   2   2   2   2   2   2
#     4  12  25  40  60  90 129 162 206 266 315 364
#     4  12  24  40  63  90 122 161 211 262 311 374
#     4  10  20  40  62  90 127 161 214 244 308 368
#     4  10  21  36  66  95 120 169 208 253 295 377
#     4  12  25  41  63  93 127 166 204 261 316 365
#     4  10  19  40  63  89 121 167 205 252 307 380
#     4  10  21  37  65  91 124 162 207 249 317 370
#     4  12  21  39  65  93 122 160 216 251 305 371
#
# _framework density 20.063372000000001
#
# number of rings (size 3 to 8) (size 9 to 14) (size 15 to 20)
#    0.000    1.000    3.750    3.750    1.750    0.500 
#    0.000    0.625    2.750    0.000    0.000    0.000 
#    0.000    0.000    0.000    0.000    0.000    0.000 
#
# Total GULP energy -198235.756353 kJ/mol
# GULP energy per Si atom -12389.734772 kJ/mol
# Density = 2.001771 g / cm^3
# Si number density = 20.063372 Si / 1000 Ang^3
#
#
#
# Elastic Constant Matrix: (Units=GPa)
#
#
# Indices 1 2 3 4 5 6 
#
# 1 151.2586 47.2230 44.9933 -10.4124 25.4112 -7.0655
# 2 47.2230 119.4145 27.1446 -13.5467 13.2353 -0.0743
# 3 44.9933 27.1446 108.8366 -27.7661 15.8875 -15.8706
# 4 -10.4124 -13.5467 -27.7661 34.6114 -5.1672 3.3790
# 5 25.4112 13.2353 15.8875 -5.1672 23.2524 -2.5044
# 6 -7.0655 -0.0743 -15.8706 3.3790 -2.5044 35.5627
#
#
#
# Elastic Compliance Matrix: (Units=1/GPa)
#
#
# Indices 1 2 3 4 5 6 
#
# 1 0.009249 -0.002439 -0.002411 -0.001232 -0.007308 0.000359
# 2 -0.002439 0.010013 -0.000740 0.002389 -0.002123 -0.001171
# 3 -0.002411 -0.000740 0.013946 0.009135 -0.003948 0.004597
# 4 -0.001232 0.002389 0.009135 0.037042 0.002026 0.000460
# 5 -0.007308 -0.002123 -0.003948 0.002026 0.055402 0.000491
# 6 0.000359 -0.001171 0.004597 0.000460 0.000491 0.030231
#
#
# Mechanical properties :
#
#
# Convention : Reuss Voigt Hill
#
# Bulk Modulus (GPa) = 45.39607 68.69240 57.04423
# Shear Modulus (GPa) = 28.66867 36.02857 32.34862
#
# Velocity S-wave (km/s) = 3.78419 4.24221 4.01973
# Velocity P-wave (km/s) = 6.46289 7.63591 7.07376
#
# Compressibility (1/GPa) = 0.02202834
#
# Stress axis : x y z
#
# Youngs Moduli (GPa) = 108.11435 99.87376 71.70281
#
# Poissons Ratio (x) = 0.24363 0.17284
# Poissons Ratio (y) = 0.26373 0.05308
# Poissons Ratio (z) = 0.26061 0.07393
#
# Static dielectric constant tensor:
#      x y z
#    x 3.518810 0.010740 0.412500 
#    y 0.010740 3.758970 -0.211270 
#    z 0.412500 -0.211270 3.742840 
# 
# 
# High freq. dielectric constant tensor:
#      x y z
#    x 1.776800 0.015110 0.030170 
#    y 0.015110 1.801550 -0.019180 
#    z 0.030170 -0.019180 1.778770 
# 
# From -- ./inp_files/461350.got.cif
#   From: 2010.06.25/outbox.cif.g09.slc.cpg/sg2_231_cif.got.tgz:461350.got - 2010.06.27 13:26:56.
