data_PCOD8000269
_publ_section_title
;
Structure prediction by ZEFSAII (Michael W. Deem and Ramdas Pophale) SiO2 
 PCOD8000269
Probable space group: P 1
;
_chemical_formula_sum "Si O2"
_cell_formula_units_Z 6
_cell_length_a 6.664216
_cell_length_b 9.431740
_cell_length_c 7.061828
_cell_angle_alpha 109.048308
_cell_angle_beta 89.348829
_cell_angle_gamma 45.041908
_cell_volume 276.787876
_symmetry_space_group_name_H-M "P 1"
_symmetry_group_IT_number 1
_symmetry_cell_setting 'triclinic'
loop_
_space_group_symop_operation_xyz
x,y,z
loop_
_atom_site_type_symbol
_atom_site_label
_atom_site_fract_x
_atom_site_fract_y
_atom_site_fract_z
Si Si1 0.247850 0.644470 0.235110
Si Si2 0.594325 0.903327 0.752791
Si Si3 0.636302 0.558687 0.493958
Si Si4 0.267440 0.565001 0.773518
Si Si5 0.272097 0.285428 0.214372
Si Si6 0.607561 0.087407 0.493936
O O1 0.531074 0.574219 0.289707
O O2 0.223317 0.483875 0.232518
O O3 0.258328 0.652558 0.012279
O O4 0.970284 0.902252 0.425850
O O5 0.506212 0.778473 0.698218
O O6 0.937453 0.745350 0.755398
O O7 0.547076 0.970340 0.562036
O O8 0.344811 0.134268 0.975610
O O9 0.525258 0.489045 0.601163
O O10 0.993831 0.381856 0.386744
O O11 0.402791 0.325017 0.705801
O O12 0.549013 0.113101 0.282049
#
# Coordination Sequence:
#
# PCOD8000269 Si02
#       6
#     1   1   1   1   1   1
#     4  12  26  46  74 105 142 186 233 287 354 415
#     4  12  26  46  74 105 142 186 233 287 354 415
#     4  12  26  46  68 116 138 172 246 294 336 416
#     4  12  26  46  74 105 142 186 233 287 354 415
#     4  12  26  46  74 105 142 186 233 287 354 415
#     4  12  22  46  76  96 142 188 226 286 348 412
#
# _framework density 21.677250999999998
#
# number of rings (size 3 to 8) (size 9 to 14) (size 15 to 20)
#    0.000    0.000   10.000    0.000    0.000    9.333 
#    0.000    0.000    0.000    0.000    0.000    0.000 
#    0.000    0.000    0.000    0.000    0.000    0.000 
#
# Total GULP energy -74338.979301 kJ/mol
# GULP energy per Si atom -12389.829883 kJ/mol
# Density = 2.162791 g / cm^3
# Si number density = 21.677251 Si / 1000 Ang^3
#
#
#
# Elastic Constant Matrix: (Units=GPa)
#
#
# Indices 1 2 3 4 5 6 
#
# 1 85.3059 18.0943 22.4459 -0.0515 3.4780 0.7621
# 2 18.0943 94.5957 33.2342 -3.0409 2.1135 -0.6159
# 3 22.4459 33.2342 118.5956 1.1651 8.1883 -1.6333
# 4 -0.0515 -3.0409 1.1651 48.6555 -1.1784 -4.7448
# 5 3.4780 2.1135 8.1883 -1.1784 34.1924 -1.6979
# 6 0.7621 -0.6159 -1.6333 -4.7448 -1.6979 10.7769
#
#
#
# Elastic Compliance Matrix: (Units=1/GPa)
#
#
# Indices 1 2 3 4 5 6 
#
# 1 0.012632 -0.001762 -0.001860 -0.000218 -0.000813 -0.001500
# 2 -0.001762 0.012007 -0.003046 0.000904 0.000236 0.000784
# 3 -0.001860 -0.003046 0.009788 -0.000379 -0.001931 0.000970
# 4 -0.000218 0.000904 -0.000379 0.021597 0.001284 0.009721
# 5 -0.000813 0.000236 -0.001931 0.001284 0.030073 0.005082
# 6 -0.001500 0.000784 0.000970 0.009721 0.005082 0.098169
#
#
# Mechanical properties :
#
#
# Convention : Reuss Voigt Hill
#
# Bulk Modulus (GPa) = 47.40854 49.56066 48.48460
# Shear Modulus (GPa) = 24.43417 33.70650 29.07033
#
# Velocity S-wave (km/s) = 3.36099 3.94753 3.66601
# Velocity P-wave (km/s) = 6.08107 6.60984 6.35096
#
# Compressibility (1/GPa) = 0.02109324
#
# Stress axis : x y z
#
# Youngs Moduli (GPa) = 79.16502 83.28338 102.16677
#
# Poissons Ratio (x) = 0.14671 0.18998
# Poissons Ratio (y) = 0.13945 0.31118
# Poissons Ratio (z) = 0.14721 0.25366
#
# Static dielectric constant tensor:
#      x y z
#    x 3.667120 -0.009510 0.030240 
#    y -0.009510 3.991250 -0.002530 
#    z 0.030240 -0.002530 4.031170 
# 
# 
# High freq. dielectric constant tensor:
#      x y z
#    x 1.834510 -0.000320 -0.003760 
#    y -0.000320 1.862450 -0.000710 
#    z -0.003760 -0.000710 1.870440 
# 
# From -- ./inp_files/1265.got.cif
#   From: 2010.03.12/outbox.cif.g09.slc.cpg/sg1_1_cif.got.tgz:1265.got - 2010.03.29 11:57:58.
