data_PCOD8000944
_publ_section_title
;
Structure prediction by ZEFSAII (Michael W. Deem and Ramdas Pophale) SiO2 
 PCOD8000944
Probable space group: P -1
;
_chemical_formula_sum "Si O2"
_cell_formula_units_Z 16
_cell_length_a 13.268499
_cell_length_b 9.059426
_cell_length_c 15.537517
_cell_angle_alpha 47.334576
_cell_angle_beta 38.479125
_cell_angle_gamma 68.231394
_cell_volume 800.810909
_symmetry_space_group_name_H-M "P -1"
_symmetry_group_IT_number 2
_symmetry_cell_setting 'triclinic'
loop_
_space_group_symop_operation_xyz
x,y,z
-x,-y,-z
loop_
_atom_site_type_symbol
_atom_site_label
_atom_site_fract_x
_atom_site_fract_y
_atom_site_fract_z
Si Si1 0.024504 0.783399 0.463116
Si Si2 0.137059 0.390675 0.925275
Si Si3 0.219267 0.667510 0.607521
Si Si4 0.251597 0.530018 0.454447
Si Si5 0.878022 0.747205 0.746851
Si Si6 0.931004 0.926189 0.289343
Si Si7 0.417738 0.514752 0.828610
Si Si8 0.596108 0.986289 0.527625
O O1 0.147804 0.646294 0.420532
O O2 0.878126 0.665696 0.680066
O O3 0.950629 0.815598 0.408910
O O4 0.126902 0.013684 0.345662
O O5 0.174004 0.444859 0.778301
O O6 0.308075 0.512880 0.817296
O O7 0.000000 0.500000 0.000000
O O8 0.093199 0.132543 0.068896
O O9 0.291623 0.640146 0.477086
O O10 0.047180 0.734424 0.689548
O O11 0.382568 0.843804 0.476966
O O12 0.135557 0.278528 0.648894
O O13 0.427719 0.567310 0.269879
O O14 0.701617 0.616718 0.963588
O O15 0.790139 0.035953 0.348086
O O16 0.502666 0.749420 0.720432
O O17 0.500000 0.000000 0.500000
#
# Coordination Sequence:
#
# PCOD8000944 Si02
#       8
#     2   2   2   2   2   2   2   2
#     4  10  19  40  67  83 120 160 205 245 296 350
#     4  12  19  36  68  87 117 158 207 246 283 360
#     4  11  21  41  62  91 121 161 200 242 300 359
#     4  10  26  38  58  90 129 159 190 252 310 348
#     4  10  20  37  69  91 111 158 213 247 282 361
#     4  11  21  40  62  91 117 164 202 238 304 365
#     4  11  21  38  57  95 121 152 202 248 303 352
#     4  11  20  35  61  87 120 156 197 247 299 350
#
# _framework density 19.979748000000001
#
# number of rings (size 3 to 8) (size 9 to 14) (size 15 to 20)
#    0.000    1.250    6.250    0.375    0.000    1.500 
#    0.000    5.000    0.000    0.000    0.000    0.000 
#    0.000    0.000    0.000    0.000    0.000    0.000 
#
# Total GULP energy -198239.626317 kJ/mol
# GULP energy per Si atom -12389.976645 kJ/mol
# Density = 1.993427 g / cm^3
# Si number density = 19.979748 Si / 1000 Ang^3
#
#
#
# Elastic Constant Matrix: (Units=GPa)
#
#
# Indices 1 2 3 4 5 6 
#
# 1 102.0470 45.9873 37.4444 1.7804 7.6272 0.6215
# 2 45.9873 99.3803 54.7617 -1.3752 -2.4722 3.0780
# 3 37.4444 54.7617 119.2539 2.4920 5.8285 0.4263
# 4 1.7804 -1.3752 2.4920 28.3691 2.0867 -4.7838
# 5 7.6272 -2.4722 5.8285 2.0867 30.8770 -4.8975
# 6 0.6215 3.0780 0.4263 -4.7838 -4.8975 31.8527
#
#
#
# Elastic Compliance Matrix: (Units=1/GPa)
#
#
# Indices 1 2 3 4 5 6 
#
# 1 0.012985 -0.005281 -0.001471 -0.000754 -0.003358 -0.000353
# 2 -0.005281 0.015828 -0.005804 0.001247 0.003484 -0.000626
# 3 -0.001471 -0.005804 0.011644 -0.001059 -0.002239 -0.000070
# 4 -0.000754 0.001247 -0.001059 0.036412 -0.001150 0.005200
# 5 -0.003358 0.003484 -0.002239 -0.001150 0.034778 0.004933
# 6 -0.000353 -0.000626 -0.000070 0.005200 0.004933 0.033002
#
#
# Mechanical properties :
#
#
# Convention : Reuss Voigt Hill
#
# Bulk Modulus (GPa) = 65.16784 66.34088 65.75436
# Shear Modulus (GPa) = 28.59152 30.38561 29.48856
#
# Velocity S-wave (km/s) = 3.78699 3.90400 3.84594
# Velocity P-wave (km/s) = 7.19788 7.32105 7.25973
#
# Compressibility (1/GPa) = 0.01534499
#
# Stress axis : x y z
#
# Youngs Moduli (GPa) = 77.00908 63.18029 85.87892
#
# Poissons Ratio (x) = 0.33368 0.12632
# Poissons Ratio (y) = 0.40672 0.49843
# Poissons Ratio (z) = 0.11327 0.36669
#
# Static dielectric constant tensor:
#      x y z
#    x 3.780410 -0.002170 -0.017280 
#    y -0.002170 3.757680 -0.234190 
#    z -0.017280 -0.234190 3.727050 
# 
# 
# High freq. dielectric constant tensor:
#      x y z
#    x 1.784950 -0.002990 0.006890 
#    y -0.002990 1.775760 -0.015720 
#    z 0.006890 -0.015720 1.766560 
# 
# From -- ./inp_files/237108.got.cif
#   From: 2010.06.25/outbox.cif.g09.slc.cpg/sg2_119_cif.got.tgz:237108.got - 2010.06.27 13:26:56.
