data_PCOD8000103
_publ_section_title
;
Structure prediction by ZEFSAII (Michael W. Deem and Ramdas Pophale) SiO2 
 PCOD8000103
Probable space group: P 1
;
_chemical_formula_sum "Si O2"
_cell_formula_units_Z 8
_cell_length_a 6.961294
_cell_length_b 5.144305
_cell_length_c 10.182593
_cell_angle_alpha 93.900151
_cell_angle_beta 86.330626
_cell_angle_gamma 77.627049
_cell_volume 354.197701
_symmetry_space_group_name_H-M "P 1"
_symmetry_group_IT_number 1
_symmetry_cell_setting 'triclinic'
loop_
_space_group_symop_operation_xyz
x,y,z
loop_
_atom_site_type_symbol
_atom_site_label
_atom_site_fract_x
_atom_site_fract_y
_atom_site_fract_z
Si Si1 0.560240 0.087940 0.140550
Si Si2 0.983794 0.994889 0.001773
Si Si3 0.139258 0.023062 0.720294
Si Si4 0.321557 0.449631 0.632940
Si Si5 0.043643 0.258004 0.467735
Si Si6 0.315216 0.794328 0.294081
Si Si7 0.612974 0.396677 0.411895
Si Si8 0.188610 0.452032 0.094078
O O1 0.595555 0.200016 0.287025
O O2 0.418921 0.303073 0.059360
O O3 0.447531 0.849089 0.164642
O O4 0.764553 0.981632 0.053797
O O5 0.987380 0.052132 0.848443
O O6 0.121314 0.701164 0.007590
O O7 0.051762 0.234945 0.085152
O O8 0.295735 0.740090 0.706957
O O9 0.272631 0.245312 0.737966
O O10 0.016607 0.075730 0.590801
O O11 0.535207 0.321317 0.555284
O O12 0.164279 0.475907 0.518296
O O13 0.838790 0.412197 0.420049
O O14 0.168853 0.069046 0.346820
O O15 0.471441 0.686935 0.399146
O O16 0.184170 0.582347 0.246141
#
# Coordination Sequence:
#
# PCOD8000103 Si02
#       8
#     1   1   1   1   1   1   1   1
#     4  11  25  43  68 107 135 177 229 279 332 420
#     4  12  26  47  70  97 140 185 228 271 342 396
#     4  10  23  47  67  93 141 176 222 282 316 406
#     4  10  21  46  63 100 134 168 229 273 326 403
#     4  10  23  42  66  99 135 172 216 276 343 387
#     4  11  22  45  67 105 143 164 230 285 335 412
#     4  11  22  39  72  98 134 177 214 280 350 395
#     4  11  26  45  69  99 134 185 222 284 338 387
#
# _framework density 22.586254
#
# number of rings (size 3 to 8) (size 9 to 14) (size 15 to 20)
#    0.750    0.500    3.750    1.500    3.500    1.000 
#    4.500    0.000    0.000    0.000    0.000    0.000 
#    0.000    0.000    0.000    0.000    0.000    0.000 
#
# Total GULP energy -99120.854449 kJ/mol
# GULP energy per Si atom -12390.106806 kJ/mol
# Density = 2.253485 g / cm^3
# Si number density = 22.586254 Si / 1000 Ang^3
#
#
#
# Elastic Constant Matrix: (Units=GPa)
#
#
# Indices 1 2 3 4 5 6 
#
# 1 119.6484 36.3709 29.4481 2.5042 -14.8562 -12.1433
# 2 36.3709 112.3539 12.5197 2.9612 -1.8741 0.5589
# 3 29.4481 12.5197 84.7702 -0.9437 -28.2306 -4.2381
# 4 2.5042 2.9612 -0.9437 27.7500 1.4697 3.0877
# 5 -14.8562 -1.8741 -28.2306 1.4697 32.7826 2.1286
# 6 -12.1433 0.5589 -4.2381 3.0877 2.1286 30.7771
#
#
#
# Elastic Compliance Matrix: (Units=1/GPa)
#
#
# Indices 1 2 3 4 5 6 
#
# 1 0.010582 -0.003125 -0.002190 -0.001262 0.002535 0.003882
# 2 -0.003125 0.010019 -0.000998 -0.000583 -0.001587 -0.001384
# 3 -0.002190 -0.000998 0.017346 0.000097 0.013846 0.000575
# 4 -0.001262 -0.000583 0.000097 0.036765 -0.001909 -0.004031
# 5 0.002535 -0.001587 0.013846 -0.001909 0.043564 0.000114
# 6 0.003882 -0.001384 0.000575 -0.004031 0.000114 0.034524
#
#
# Mechanical properties :
#
#
# Convention : Reuss Voigt Hill
#
# Bulk Modulus (GPa) = 39.49536 52.60555 46.05046
# Shear Modulus (GPa) = 28.75761 34.15753 31.45757
#
# Velocity S-wave (km/s) = 3.57211 3.89307 3.73604
# Velocity P-wave (km/s) = 5.87688 6.59920 6.24849
#
# Compressibility (1/GPa) = 0.02531943
#
# Stress axis : x y z
#
# Youngs Moduli (GPa) = 94.49937 99.80852 57.65102
#
# Poissons Ratio (x) = 0.31193 0.12627
# Poissons Ratio (y) = 0.29534 0.05755
# Poissons Ratio (z) = 0.20697 0.09964
#
# Static dielectric constant tensor:
#      x y z
#    x 3.881700 0.085900 0.021900 
#    y 0.085900 4.072270 -0.070560 
#    z 0.021900 -0.070560 3.853440 
# 
# 
# High freq. dielectric constant tensor:
#      x y z
#    x 1.869280 0.004010 -0.007330 
#    y 0.004010 1.897570 -0.003330 
#    z -0.007330 -0.003330 1.877310 
# 
# From -- ./inp_files/455.got.cif
#   From: 2010.03.12/outbox.cif.g09.slc.cpg/sg1_1_cif.got.tgz:455.got - 2010.03.29 11:57:58.
