data_PCOD8000779
_publ_section_title
;
Structure prediction by ZEFSAII (Michael W. Deem and Ramdas Pophale) SiO2 
 PCOD8000779
Probable space group: P -1
;
_chemical_formula_sum "Si O2"
_cell_formula_units_Z 14
_cell_length_a 19.500706
_cell_length_b 17.214058
_cell_length_c 8.704263
_cell_angle_alpha 55.623572
_cell_angle_beta 44.727129
_cell_angle_gamma 21.213695
_cell_volume 687.105241
_symmetry_space_group_name_H-M "P -1"
_symmetry_group_IT_number 2
_symmetry_cell_setting 'triclinic'
loop_
_space_group_symop_operation_xyz
x,y,z
-x,-y,-z
loop_
_atom_site_type_symbol
_atom_site_label
_atom_site_fract_x
_atom_site_fract_y
_atom_site_fract_z
Si Si1 0.366103 0.567461 0.274781
Si Si2 0.142592 0.124190 0.646439
Si Si3 0.228518 0.872218 0.284089
Si Si4 0.391590 0.996569 0.633587
Si Si5 0.435755 0.714852 0.458032
Si Si6 0.982477 0.243990 0.087386
Si Si7 0.330849 0.433656 0.265500
O O1 0.165771 0.822340 0.368992
O O2 0.546301 0.386060 0.333486
O O3 0.266711 0.555993 0.379605
O O4 0.500000 0.500000 0.000000
O O5 0.909842 0.371968 0.661591
O O6 0.300582 0.073654 0.514165
O O7 0.289891 0.931182 0.511804
O O8 0.068764 0.127527 0.912508
O O9 0.290087 0.807736 0.438024
O O10 0.018702 0.133502 0.285908
O O11 0.470699 0.692282 0.015452
O O12 0.589836 0.739575 0.616241
O O13 0.500000 0.000000 0.500000
O O14 0.158591 0.178794 0.911256
O O15 0.703142 0.517462 0.216796
#
# Coordination Sequence:
#
# PCOD8000779 Si02
#       7
#     2   2   2   2   2   2   2
#     4  10  21  38  58  86 122 159 204 243 287 349
#     4  10  21  38  60  87 117 161 191 241 305 348
#     4  10  20  38  57  86 119 159 203 245 288 341
#     4   9  19  40  66  87 116 154 197 244 300 358
#     4  12  21  38  62  86 123 161 199 242 297 349
#     4   9  22  40  59  87 121 157 198 245 295 351
#     4  10  19  40  60  84 124 157 194 247 295 351
#
# _framework density 20.375336000000001
#
# number of rings (size 3 to 8) (size 9 to 14) (size 15 to 20)
#    0.857    1.143    2.857    1.286    2.000    1.143 
#    2.571    2.857    0.000    4.286    0.000    0.000 
#    0.000    0.000    0.000    0.000    0.000    0.000 
#
# Total GULP energy -173442.593945 kJ/mol
# GULP energy per Si atom -12388.756710 kJ/mol
# Density = 2.032896 g / cm^3
# Si number density = 20.375336 Si / 1000 Ang^3
#
#
#
# Elastic Constant Matrix: (Units=GPa)
#
#
# Indices 1 2 3 4 5 6 
#
# 1 143.7832 62.8258 43.6631 -20.8217 -4.3728 -0.8876
# 2 62.8258 103.4259 25.6979 -0.0965 -6.3322 -12.6782
# 3 43.6631 25.6979 72.8844 -1.3848 -3.1454 5.6775
# 4 -20.8217 -0.0965 -1.3848 26.9455 -2.0510 4.1417
# 5 -4.3728 -6.3322 -3.1454 -2.0510 35.3388 -4.7864
# 6 -0.8876 -12.6782 5.6775 4.1417 -4.7864 41.6473
#
#
#
# Elastic Compliance Matrix: (Units=1/GPa)
#
#
# Indices 1 2 3 4 5 6 
#
# 1 0.012889 -0.006834 -0.004948 0.010021 0.000227 -0.002102
# 2 -0.006834 0.015027 -0.001655 -0.005997 0.002095 0.005492
# 3 -0.004948 -0.001655 0.017438 -0.002505 0.000129 -0.002723
# 4 0.010021 -0.005997 -0.002505 0.045707 0.001836 -0.005605
# 5 0.000227 0.002095 0.000129 0.001836 0.029336 0.003814
# 6 -0.002102 0.005492 -0.002723 -0.005605 0.003814 0.027005
#
#
# Mechanical properties :
#
#
# Convention : Reuss Voigt Hill
#
# Bulk Modulus (GPa) = 54.11450 64.94078 59.52764
# Shear Modulus (GPa) = 27.71052 33.31344 30.51198
#
# Velocity S-wave (km/s) = 3.69182 4.04789 3.87395
# Velocity P-wave (km/s) = 6.69248 7.33407 7.02061
#
# Compressibility (1/GPa) = 0.01847934
#
# Stress axis : x y z
#
# Youngs Moduli (GPa) = 77.58683 66.54471 57.34535
#
# Poissons Ratio (x) = 0.45479 0.28373
# Poissons Ratio (y) = 0.53025 0.09494
# Poissons Ratio (z) = 0.38388 0.11016
#
# Static dielectric constant tensor:
#      x y z
#    x 3.789030 -0.137980 0.276360 
#    y -0.137980 3.776580 0.207010 
#    z 0.276360 0.207010 3.737680 
# 
# 
# High freq. dielectric constant tensor:
#      x y z
#    x 1.784060 -0.019720 0.017760 
#    y -0.019720 1.801260 0.019420 
#    z 0.017760 0.019420 1.795080 
# 
# From -- ./inp_files/348403.got.cif
#   From: 2010.06.25/outbox.cif.g09.slc.cpg/sg2_175_cif.got.tgz:348403.got - 2010.06.27 13:26:56.
