data_PCOD8000613
_publ_section_title
;
Structure prediction by ZEFSAII (Michael W. Deem and Ramdas Pophale) SiO2 
 PCOD8000613
Probable space group: P -1
;
_chemical_formula_sum "Si O2"
_cell_formula_units_Z 16
_cell_length_a 9.269849
_cell_length_b 11.597574
_cell_length_c 11.839391
_cell_angle_alpha 51.732629
_cell_angle_beta 129.527079
_cell_angle_gamma 109.960758
_cell_volume 767.874990
_symmetry_space_group_name_H-M "P -1"
_symmetry_group_IT_number 2
_symmetry_cell_setting 'triclinic'
loop_
_space_group_symop_operation_xyz
x,y,z
-x,-y,-z
loop_
_atom_site_type_symbol
_atom_site_label
_atom_site_fract_x
_atom_site_fract_y
_atom_site_fract_z
Si Si1 0.565415 0.689727 0.605265
Si Si2 0.237199 0.617927 0.849377
Si Si3 0.177097 0.319271 0.457648
Si Si4 0.352315 0.139802 0.851144
Si Si5 0.400286 0.284709 0.141829
Si Si6 0.767300 0.348943 0.689460
Si Si7 0.646093 0.353926 0.875280
Si Si8 0.887991 0.860617 0.056124
O O1 0.750478 0.721768 0.607578
O O2 0.567483 0.769540 0.679191
O O3 0.381055 0.731848 0.411337
O O4 0.560815 0.519590 0.732093
O O5 0.397078 0.706548 0.818723
O O6 0.046760 0.662216 0.660543
O O7 0.281382 0.442039 0.973639
O O8 0.206032 0.668090 0.934347
O O9 0.253368 0.184606 0.656203
O O10 0.259597 0.473178 0.443018
O O11 0.466928 0.271264 0.871583
O O12 0.188014 0.112760 0.872090
O O13 0.500000 0.000000 0.000000
O O14 0.286951 0.159197 0.102687
O O15 0.740326 0.301387 0.835770
O O16 0.973371 0.288407 0.789318
O O17 0.000000 0.000000 0.000000
#
# Coordination Sequence:
#
# PCOD8000613 Si02
#       8
#     2   2   2   2   2   2   2   2
#     4  10  21  36  66 102 134 162 208 280 328 371
#     4  10  21  37  65 102 134 166 216 271 330 379
#     4  11  22  39  69 102 126 170 224 270 322 385
#     4  12  25  45  66  89 128 177 222 267 324 395
#     4  10  22  40  63  99 138 167 206 280 332 377
#     4  11  21  39  67 103 130 165 224 270 321 387
#     4  10  19  39  65  93 135 169 207 265 329 378
#     4  12  27  44  67  93 129 180 216 264 332 398
#
# _framework density 20.836725000000001
#
# number of rings (size 3 to 8) (size 9 to 14) (size 15 to 20)
#    0.000    1.250    5.000    1.500    3.500    2.000 
#    0.000    1.250    0.000    0.000    0.000    0.000 
#    0.000    0.000    0.000    0.000    0.000    0.000 
#
# Total GULP energy -198380.737223 kJ/mol
# GULP energy per Si atom -12398.796076 kJ/mol
# Density = 2.078930 g / cm^3
# Si number density = 20.836725 Si / 1000 Ang^3
#
#
#
# Elastic Constant Matrix: (Units=GPa)
#
#
# Indices 1 2 3 4 5 6 
#
# 1 140.5523 45.9208 54.5865 2.0051 -9.9852 4.4830
# 2 45.9208 75.1171 40.3413 20.3235 -16.0299 14.8352
# 3 54.5865 40.3413 110.2344 13.1896 -2.7343 -1.3510
# 4 2.0051 20.3235 13.1896 28.7092 5.1404 1.2136
# 5 -9.9852 -16.0299 -2.7343 5.1404 34.5883 6.2008
# 6 4.4830 14.8352 -1.3510 1.2136 6.2008 33.8416
#
#
#
# Elastic Compliance Matrix: (Units=1/GPa)
#
#
# Indices 1 2 3 4 5 6 
#
# 1 0.010391 -0.006711 -0.003402 0.005795 -0.001509 0.001498
# 2 -0.006711 0.035565 -0.006432 -0.024743 0.020924 -0.017905
# 3 -0.003402 -0.006432 0.013172 -0.000804 -0.003606 0.004486
# 4 0.005795 -0.024743 -0.000804 0.055433 -0.020204 0.011761
# 5 -0.001509 0.020924 -0.003606 -0.020204 0.043835 -0.016424
# 6 0.001498 -0.017905 0.004486 0.011761 -0.016424 0.039967
#
#
# Mechanical properties :
#
#
# Convention : Reuss Voigt Hill
#
# Bulk Modulus (GPa) = 38.40584 67.51122 52.95853
# Shear Modulus (GPa) = 20.82186 31.76484 26.29335
#
# Velocity S-wave (km/s) = 3.16458 3.90867 3.55614
# Velocity P-wave (km/s) = 5.64133 7.26916 6.50636
#
# Compressibility (1/GPa) = 0.02603770
#
# Stress axis : x y z
#
# Youngs Moduli (GPa) = 96.23770 28.11732 75.91989
#
# Poissons Ratio (x) = 0.18870 0.25827
# Poissons Ratio (y) = 0.64587 0.48832
# Poissons Ratio (z) = 0.32739 0.18085
#
# Static dielectric constant tensor:
#      x y z
#    x 3.857820 -0.036800 -0.169910 
#    y -0.036800 3.720430 0.285700 
#    z -0.169910 0.285700 3.782040 
# 
# 
# High freq. dielectric constant tensor:
#      x y z
#    x 1.824480 0.004050 -0.005980 
#    y 0.004050 1.796960 0.020850 
#    z -0.005980 0.020850 1.807210 
# 
# From -- ./inp_files/188680.got.cif
#   From: 2010.06.25/outbox.cif.g09.slc.cpg/sg2_95_cif.got.tgz:188680.got - 2010.06.27 13:26:56.
