data_PCOD8000721
_publ_section_title
;
Structure prediction by ZEFSAII (Michael W. Deem and Ramdas Pophale) SiO2 
 PCOD8000721
Probable space group: P -1
;
_chemical_formula_sum "Si O2"
_cell_formula_units_Z 16
_cell_length_a 14.333400
_cell_length_b 8.005615
_cell_length_c 13.278185
_cell_angle_alpha 118.170059
_cell_angle_beta 131.050381
_cell_angle_gamma 101.260084
_cell_volume 658.247041
_symmetry_space_group_name_H-M "P -1"
_symmetry_group_IT_number 2
_symmetry_cell_setting 'triclinic'
loop_
_space_group_symop_operation_xyz
x,y,z
-x,-y,-z
loop_
_atom_site_type_symbol
_atom_site_label
_atom_site_fract_x
_atom_site_fract_y
_atom_site_fract_z
Si Si1 0.780070 0.326375 0.872672
Si Si2 0.571883 0.424202 0.453684
Si Si3 0.655461 0.147583 0.520242
Si Si4 0.828043 0.143827 0.038179
Si Si5 0.391405 0.284741 0.954399
Si Si6 0.278152 0.452175 0.601309
Si Si7 0.175745 0.733176 0.529522
Si Si8 0.111941 0.135289 0.864250
O O1 0.774656 0.235193 0.730078
O O2 0.568484 0.143174 0.704618
O O3 0.872109 0.263914 0.988222
O O4 0.901518 0.660690 0.058057
O O5 0.500000 0.500000 0.500000
O O6 0.695857 0.417760 0.602488
O O7 0.685472 0.637946 0.499047
O O8 0.398952 0.106695 0.185671
O O9 0.734361 0.114211 0.473658
O O10 0.946202 0.429619 0.273416
O O11 0.883533 0.993005 0.067596
O O12 0.295347 0.317740 0.974180
O O13 0.218471 0.952185 0.698327
O O14 0.500000 0.500000 0.000000
O O15 0.555701 0.359279 0.146709
O O16 0.275624 0.664141 0.623262
O O17 0.076931 0.141297 0.412447
#
# Coordination Sequence:
#
# PCOD8000721 Si02
#       8
#     2   2   2   2   2   2   2   2
#     4  10  21  40  65  97 136 172 217 282 327 403
#     4  10  19  39  68  97 139 178 223 273 336 406
#     4   9  20  38  63  96 133 178 216 272 345 389
#     4  10  22  40  66  98 128 180 218 267 345 388
#     4  12  26  45  69  98 132 179 225 281 343 393
#     4  10  24  44  68 100 129 181 226 273 345 391
#     4  10  23  44  64  95 134 172 232 274 326 413
#     4  11  24  45  69 102 137 170 233 277 332 408
#
# _framework density 24.306985000000001
#
# number of rings (size 3 to 8) (size 9 to 14) (size 15 to 20)
#    0.000    1.750    1.250    1.875    1.750    4.000 
#   11.250    3.750    0.000    0.000    0.000    0.000 
#    0.000    0.000    0.000    0.000    0.000    0.000 
#
# Total GULP energy -198223.192942 kJ/mol
# GULP energy per Si atom -12388.949559 kJ/mol
# Density = 2.425166 g / cm^3
# Si number density = 24.306985 Si / 1000 Ang^3
#
#
#
# Elastic Constant Matrix: (Units=GPa)
#
#
# Indices 1 2 3 4 5 6 
#
# 1 63.8372 26.6570 18.1324 -4.6412 -7.4509 5.4544
# 2 26.6570 128.2880 43.4183 -11.5812 -10.0145 10.2837
# 3 18.1324 43.4183 123.3720 -9.5344 -0.7727 0.5021
# 4 -4.6412 -11.5812 -9.5344 39.3396 2.1205 3.6948
# 5 -7.4509 -10.0145 -0.7727 2.1205 24.1606 5.9296
# 6 5.4544 10.2837 0.5021 3.6948 5.9296 21.1957
#
#
#
# Elastic Compliance Matrix: (Units=1/GPa)
#
#
# Indices 1 2 3 4 5 6 
#
# 1 0.018337 -0.002194 -0.001764 0.001287 0.005924 -0.005494
# 2 -0.002194 0.010383 -0.003093 0.002366 0.004833 -0.006164
# 3 -0.001764 -0.003093 0.009517 0.001103 -0.002143 0.002137
# 4 0.001287 0.002366 0.001103 0.027104 0.000605 -0.006399
# 5 0.005924 0.004833 -0.002143 0.000605 0.049457 -0.017760
# 6 -0.005494 -0.006164 0.002137 -0.006399 -0.017760 0.057617
#
#
# Mechanical properties :
#
#
# Convention : Reuss Voigt Hill
#
# Bulk Modulus (GPa) = 41.43675 54.65695 48.04685
# Shear Modulus (GPa) = 25.69881 32.09181 28.89531
#
# Velocity S-wave (km/s) = 3.25508 3.63750 3.45159
# Velocity P-wave (km/s) = 5.58674 6.33851 5.97446
#
# Compressibility (1/GPa) = 0.02413317
#
# Stress axis : x y z
#
# Youngs Moduli (GPa) = 54.53601 96.31244 105.08028
#
# Poissons Ratio (x) = 0.21132 0.18535
# Poissons Ratio (y) = 0.11966 0.32505
# Poissons Ratio (z) = 0.09620 0.29793
#
# Static dielectric constant tensor:
#      x y z
#    x 4.017930 0.341400 0.113480 
#    y 0.341400 4.783590 -0.214840 
#    z 0.113480 -0.214840 4.642250 
# 
# 
# High freq. dielectric constant tensor:
#      x y z
#    x 1.930600 0.013560 0.017930 
#    y 0.013560 1.973750 -0.004920 
#    z 0.017930 -0.004920 1.976130 
# 
# From -- ./inp_files/434357.got.cif
#   From: 2010.06.25/outbox.cif.g09.slc.cpg/sg2_218_cif.got.tgz:434357.got - 2010.06.27 13:26:56.
