data_PCOD8000312
_publ_section_title
;
Structure prediction by ZEFSAII (Michael W. Deem and Ramdas Pophale) SiO2 
 PCOD8000312
Probable space group: P -1
;
_chemical_formula_sum "Si O2"
_cell_formula_units_Z 14
_cell_length_a 14.963979
_cell_length_b 7.154429
_cell_length_c 13.926009
_cell_angle_alpha 99.399500
_cell_angle_beta 142.748014
_cell_angle_gamma 105.398898
_cell_volume 667.072731
_symmetry_space_group_name_H-M "P -1"
_symmetry_group_IT_number 2
_symmetry_cell_setting 'triclinic'
loop_
_space_group_symop_operation_xyz
x,y,z
-x,-y,-z
loop_
_atom_site_type_symbol
_atom_site_label
_atom_site_fract_x
_atom_site_fract_y
_atom_site_fract_z
Si Si1 0.038480 0.736202 0.007960
Si Si2 0.669751 0.334221 0.960554
Si Si3 0.793120 0.438895 0.592363
Si Si4 0.993059 0.554230 0.389605
Si Si5 0.638666 0.901168 0.820085
Si Si6 0.924904 0.826953 0.105764
Si Si7 0.246854 0.005766 0.525196
O O1 0.913397 0.649401 0.795540
O O2 0.975665 0.844424 0.038659
O O3 0.000000 0.500000 0.000000
O O4 0.265708 0.966690 0.191251
O O5 0.833388 0.552000 0.044743
O O6 0.627073 0.078498 0.888304
O O7 0.461955 0.268279 0.762188
O O8 0.769120 0.428098 0.159287
O O9 0.583356 0.369060 0.401079
O O10 0.741666 0.172893 0.549139
O O11 0.926641 0.551354 0.618358
O O12 0.000000 0.500000 0.500000
O O13 0.134596 0.856254 0.516168
O O14 0.765462 0.855381 0.982951
O O15 0.119400 0.045438 0.354741
#
# Coordination Sequence:
#
# PCOD8000312 Si02
#       7
#     2   2   2   2   2   2   2
#     4  12  19  36  55  77 116 148 185 225 267 313
#     4  10  19  39  56  80 114 144 179 232 271 315
#     4   9  20  35  54  82 111 144 180 229 273 317
#     4   9  17  34  62  86 104 140 188 222 274 339
#     4  11  22  36  55  80 116 144 186 223 272 321
#     4  11  22  35  57  82 108 154 186 220 263 330
#     4   8  18  35  54  82 108 143 182 219 276 317
#
# _framework density 20.987219
#
# number of rings (size 3 to 8) (size 9 to 14) (size 15 to 20)
#    0.857    1.143    4.286    0.429    0.000    4.000 
#    0.000    0.000    0.000    6.857    0.000    0.000 
#    0.000    0.000    0.000    0.000    0.000    0.000 
#
# Total GULP energy -173443.691582 kJ/mol
# GULP energy per Si atom -12388.835113 kJ/mol
# Density = 2.093945 g / cm^3
# Si number density = 20.987219 Si / 1000 Ang^3
#
#
#
# Elastic Constant Matrix: (Units=GPa)
#
#
# Indices 1 2 3 4 5 6 
#
# 1 58.0701 26.1046 57.7901 -10.8831 -4.5969 23.6187
# 2 26.1046 32.4469 37.0679 -8.4837 -6.3684 18.8731
# 3 57.7901 37.0679 193.4469 -5.4534 15.6211 27.4185
# 4 -10.8831 -8.4837 -5.4534 35.5934 1.4533 -1.4892
# 5 -4.5969 -6.3684 15.6211 1.4533 29.0959 -9.7919
# 6 23.6187 18.8731 27.4185 -1.4892 -9.7919 31.2277
#
#
#
# Elastic Compliance Matrix: (Units=1/GPa)
#
#
# Indices 1 2 3 4 5 6 
#
# 1 0.035688 -0.011290 -0.006535 0.006580 0.001785 -0.013558
# 2 -0.011290 0.063357 -0.006049 0.009509 0.007584 -0.021610
# 3 -0.006535 -0.006049 0.009143 -0.001802 -0.007839 -0.001973
# 4 0.006580 0.009509 -0.001802 0.031780 -0.000073 -0.007649
# 5 0.001785 0.007584 -0.007839 -0.000073 0.045660 0.015263
# 6 -0.013558 -0.021610 -0.001973 -0.007649 0.015263 0.061490
#
#
# Mechanical properties :
#
#
# Convention : Reuss Voigt Hill
#
# Bulk Modulus (GPa) = 16.54540 58.43214 37.48877
# Shear Modulus (GPa) = 15.87237 30.05017 22.96127
#
# Velocity S-wave (km/s) = 2.75305 3.78806 3.31125
# Velocity P-wave (km/s) = 4.24339 6.85819 5.70268
#
# Compressibility (1/GPa) = 0.06043976
#
# Stress axis : x y z
#
# Youngs Moduli (GPa) = 28.02068 15.78348 109.37824
#
# Poissons Ratio (x) = 0.17819 0.71479
# Poissons Ratio (y) = 0.31635 0.66165
# Poissons Ratio (z) = 0.18312 0.09548
#
# Static dielectric constant tensor:
#      x y z
#    x 3.324130 0.080140 0.226190 
#    y 0.080140 3.567380 0.101740 
#    z 0.226190 0.101740 4.183200 
# 
# 
# High freq. dielectric constant tensor:
#      x y z
#    x 1.771060 0.004260 0.015250 
#    y 0.004260 1.811910 0.001930 
#    z 0.015250 0.001930 1.837680 
# 
# From -- ./inp_files/537346.got.cif
#   From: 2010.06.25/outbox.cif.g09.slc.cpg/sg2_269_cif.got.tgz:537346.got - 2010.06.27 13:26:56.
