data_PCOD8000594
_publ_section_title
;
Structure prediction by ZEFSAII (Michael W. Deem and Ramdas Pophale) SiO2 
 PCOD8000594
Probable space group: P -1
;
_chemical_formula_sum "Si O2"
_cell_formula_units_Z 16
_cell_length_a 8.967291
_cell_length_b 11.662213
_cell_length_c 17.073457
_cell_angle_alpha 55.167128
_cell_angle_beta 37.734561
_cell_angle_gamma 48.060554
_cell_volume 809.268511
_symmetry_space_group_name_H-M "P -1"
_symmetry_group_IT_number 2
_symmetry_cell_setting 'triclinic'
loop_
_space_group_symop_operation_xyz
x,y,z
-x,-y,-z
loop_
_atom_site_type_symbol
_atom_site_label
_atom_site_fract_x
_atom_site_fract_y
_atom_site_fract_z
Si Si1 0.660777 0.600500 0.879255
Si Si2 0.522382 0.836662 0.970929
Si Si3 0.587069 0.636695 0.476980
Si Si4 0.190262 0.435678 0.344800
Si Si5 0.518611 0.157331 0.420296
Si Si6 0.399253 0.682832 0.218115
Si Si7 0.726398 0.557079 0.286209
Si Si8 0.894918 0.979940 0.814361
O O1 0.507384 0.769887 0.917492
O O2 0.677507 0.623829 0.771082
O O3 0.953883 0.513310 0.831216
O O4 0.500000 0.500000 0.000000
O O5 0.576633 0.698437 0.065541
O O6 0.758756 0.892497 0.852903
O O7 0.239408 0.983778 0.056185
O O8 0.477366 0.792324 0.511619
O O9 0.634974 0.675920 0.352055
O O10 0.354934 0.578355 0.601636
O O11 0.867502 0.508795 0.446105
O O12 0.273085 0.287863 0.424315
O O13 0.286747 0.558090 0.293795
O O14 0.500000 0.000000 0.500000
O O15 0.789321 0.131366 0.270457
O O16 0.587722 0.637850 0.232900
O O17 0.154717 0.853859 0.268637
#
# Coordination Sequence:
#
# PCOD8000594 Si02
#       8
#     2   2   2   2   2   2   2   2
#     4  11  21  39  60  95 122 151 197 255 298 353
#     4   9  20  38  62  81 127 155 186 255 295 351
#     4  10  22  41  59  87 122 155 198 254 291 346
#     4  11  23  38  64  90 122 157 204 245 296 356
#     4  12  24  38  60  88 122 166 197 244 300 359
#     4  10  19  39  65  89 114 161 199 242 294 360
#     4  10  22  36  64  89 116 151 206 248 293 345
#     4   9  21  40  58  88 121 157 199 241 300 356
#
# _framework density 19.77094
#
# number of rings (size 3 to 8) (size 9 to 14) (size 15 to 20)
#    0.750    1.000    2.500    1.875    1.750    1.500 
#    2.250    1.250    0.000    0.000    0.000    0.000 
#    0.000    0.000    0.000    0.000    0.000    0.000 
#
# Total GULP energy -198306.731285 kJ/mol
# GULP energy per Si atom -12394.170705 kJ/mol
# Density = 1.972594 g / cm^3
# Si number density = 19.770940 Si / 1000 Ang^3
#
#
#
# Elastic Constant Matrix: (Units=GPa)
#
#
# Indices 1 2 3 4 5 6 
#
# 1 109.3133 42.4211 38.2734 8.9560 1.4255 13.4223
# 2 42.4211 78.4299 31.4297 -2.9555 -2.3374 26.8689
# 3 38.2734 31.4297 87.1838 12.1925 -8.0294 14.0615
# 4 8.9560 -2.9555 12.1925 34.8315 2.7137 7.1480
# 5 1.4255 -2.3374 -8.0294 2.7137 37.0766 2.9089
# 6 13.4223 26.8689 14.0615 7.1480 2.9089 33.3532
#
#
#
# Elastic Compliance Matrix: (Units=1/GPa)
#
#
# Indices 1 2 3 4 5 6 
#
# 1 0.012861 -0.006560 -0.003379 -0.003033 -0.001600 0.002323
# 2 -0.006560 0.024170 -0.004132 0.008561 0.001593 -0.017063
# 3 -0.003379 -0.004132 0.015676 -0.005019 0.003724 -0.001170
# 4 -0.003033 0.008561 -0.005019 0.034340 -0.002102 -0.010737
# 5 -0.001600 0.001593 0.003724 -0.002102 0.028426 -0.004238
# 6 0.002323 -0.017063 -0.001170 -0.010737 -0.004238 0.045956
#
#
# Mechanical properties :
#
#
# Convention : Reuss Voigt Hill
#
# Bulk Modulus (GPa) = 40.70776 55.46392 48.08584
# Shear Modulus (GPa) = 25.28325 31.90579 28.59452
#
# Velocity S-wave (km/s) = 3.57992 4.02154 3.80714
# Velocity P-wave (km/s) = 6.14184 7.04825 6.61060
#
# Compressibility (1/GPa) = 0.02456534
#
# Stress axis : x y z
#
# Youngs Moduli (GPa) = 77.75529 41.37411 63.78997
#
# Poissons Ratio (x) = 0.27141 0.21554
# Poissons Ratio (y) = 0.51007 0.26358
# Poissons Ratio (z) = 0.26273 0.17096
#
# Static dielectric constant tensor:
#      x y z
#    x 3.652640 0.243830 -0.017900 
#    y 0.243830 3.470230 0.183010 
#    z -0.017900 0.183010 3.628490 
# 
# 
# High freq. dielectric constant tensor:
#      x y z
#    x 1.766210 0.026940 -0.003790 
#    y 0.026940 1.753370 0.010940 
#    z -0.003790 0.010940 1.782280 
# 
# From -- ./inp_files/559084.got.cif
#   From: 2010.06.25/outbox.cif.g09.slc.cpg/sg2_280_cif.got.tgz:559084.got - 2010.06.27 13:26:56.
