data_PCOD8000870
_publ_section_title
;
Structure prediction by ZEFSAII (Michael W. Deem and Ramdas Pophale) SiO2 
 PCOD8000870
Probable space group: P -1
;
_chemical_formula_sum "Si O2"
_cell_formula_units_Z 16
_cell_length_a 20.907105
_cell_length_b 11.479284
_cell_length_c 9.266406
_cell_angle_alpha 128.575668
_cell_angle_beta 33.236620
_cell_angle_gamma 141.915345
_cell_volume 747.873172
_symmetry_space_group_name_H-M "P -1"
_symmetry_group_IT_number 2
_symmetry_cell_setting 'triclinic'
loop_
_space_group_symop_operation_xyz
x,y,z
-x,-y,-z
loop_
_atom_site_type_symbol
_atom_site_label
_atom_site_fract_x
_atom_site_fract_y
_atom_site_fract_z
Si Si1 0.644704 0.216048 0.544326
Si Si2 0.308006 0.886886 0.921248
Si Si3 0.929371 0.060386 0.567876
Si Si4 0.198614 0.914462 0.674841
Si Si5 0.667284 0.662233 0.273400
Si Si6 0.911633 0.842652 0.166625
Si Si7 0.829371 0.326122 0.695716
Si Si8 0.780147 0.541542 0.744394
O O1 0.675896 0.221244 0.320090
O O2 0.731437 0.150071 0.402639
O O3 0.709776 0.427064 0.638172
O O4 0.470746 0.074941 0.802193
O O5 0.208495 0.953544 0.118470
O O6 0.235564 0.734439 0.068661
O O7 0.047919 0.279624 0.465283
O O8 0.869247 0.917146 0.435790
O O9 0.000000 0.000000 0.500000
O O10 0.195078 0.853504 0.470307
O O11 0.302891 0.140140 0.648023
O O12 0.028361 0.807759 0.970293
O O13 0.500000 0.500000 0.500000
O O14 0.764922 0.666846 0.224320
O O15 0.700134 0.623203 0.022219
O O16 0.000000 0.000000 0.000000
O O17 0.747851 0.389095 0.806553
O O18 0.000000 0.500000 0.500000
#
# Coordination Sequence:
#
# PCOD8000870 Si02
#       8
#     2   2   2   2   2   2   2   2
#     4  10  26  45  66  97 138 181 227 281 344 412
#     4  11  24  45  68  93 139 182 226 274 354 395
#     4  12  24  43  69  99 135 180 223 279 344 405
#     4  10  21  42  67  94 134 177 217 279 340 399
#     4  11  24  38  67 102 138 170 229 278 339 401
#     4  10  19  40  64  92 130 172 213 270 330 397
#     4  11  22  40  71 100 130 170 228 282 330 402
#     4  11  24  44  63 104 133 172 232 282 336 405
#
# _framework density 21.394000999999999
#
# number of rings (size 3 to 8) (size 9 to 14) (size 15 to 20)
#    0.000    1.250    3.750    3.000    5.250    1.500 
#    4.500    0.625    0.000    0.000    0.000    0.000 
#    0.000    0.000    0.000    0.000    0.000    0.000 
#
# Total GULP energy -198353.857808 kJ/mol
# GULP energy per Si atom -12397.116113 kJ/mol
# Density = 2.134531 g / cm^3
# Si number density = 21.394001 Si / 1000 Ang^3
#
#
#
# Elastic Constant Matrix: (Units=GPa)
#
#
# Indices 1 2 3 4 5 6 
#
# 1 78.9645 39.0619 38.0810 -1.2317 -1.9919 11.5906
# 2 39.0619 125.5431 65.0339 8.9268 4.1032 23.7181
# 3 38.0810 65.0339 122.9047 -8.5343 2.7003 19.0794
# 4 -1.2317 8.9268 -8.5343 39.4270 10.5095 -0.2242
# 5 -1.9919 4.1032 2.7003 10.5095 43.0247 1.4077
# 6 11.5906 23.7181 19.0794 -0.2242 1.4077 41.1801
#
#
#
# Elastic Compliance Matrix: (Units=1/GPa)
#
#
# Indices 1 2 3 4 5 6 
#
# 1 0.015940 -0.003187 -0.003067 0.000223 0.001222 -0.001271
# 2 -0.003187 0.012855 -0.005494 -0.004260 0.000142 -0.003990
# 3 -0.003067 -0.005494 0.012587 0.004232 -0.001385 -0.001734
# 4 0.000223 -0.004260 0.004232 0.029119 -0.006989 0.000828
# 5 0.001222 0.000142 -0.001385 -0.006989 0.025102 -0.000680
# 6 -0.001271 -0.003990 -0.001734 0.000828 -0.000680 0.027770
#
#
# Mechanical properties :
#
#
# Convention : Reuss Voigt Hill
#
# Bulk Modulus (GPa) = 55.90719 67.97401 61.94060
# Shear Modulus (GPa) = 32.71587 37.07538 34.89562
#
# Velocity S-wave (km/s) = 3.91475 4.16742 4.04306
# Velocity P-wave (km/s) = 6.82808 7.41606 7.12813
#
# Compressibility (1/GPa) = 0.01788679
#
# Stress axis : x y z
#
# Youngs Moduli (GPa) = 62.73492 77.79016 79.44463
#
# Poissons Ratio (x) = 0.24789 0.24364
# Poissons Ratio (y) = 0.19992 0.43650
# Poissons Ratio (z) = 0.19239 0.42741
#
# Static dielectric constant tensor:
#      x y z
#    x 4.304260 0.260130 -0.373980 
#    y 0.260130 3.975070 0.118320 
#    z -0.373980 0.118320 4.209500 
# 
# 
# High freq. dielectric constant tensor:
#      x y z
#    x 1.835800 0.016050 -0.001240 
#    y 0.016050 1.835410 0.014680 
#    z -0.001240 0.014680 1.847090 
# 
# From -- ./inp_files/208363.got.cif
#   From: 2010.06.25/outbox.cif.g09.slc.cpg/sg2_105_cif.got.tgz:208363.got - 2010.06.27 13:26:56.
