data_PCOD8000101
_publ_section_title
;
Structure prediction by ZEFSAII (Michael W. Deem and Ramdas Pophale) SiO2 
 PCOD8000101
Probable space group: P 1
;
_chemical_formula_sum "Si O2"
_cell_formula_units_Z 8
_cell_length_a 6.608886
_cell_length_b 5.136747
_cell_length_c 14.911992
_cell_angle_alpha 97.997466
_cell_angle_beta 137.468245
_cell_angle_gamma 75.734693
_cell_volume 330.965009
_symmetry_space_group_name_H-M "P 1"
_symmetry_group_IT_number 1
_symmetry_cell_setting 'triclinic'
loop_
_space_group_symop_operation_xyz
x,y,z
loop_
_atom_site_type_symbol
_atom_site_label
_atom_site_fract_x
_atom_site_fract_y
_atom_site_fract_z
Si Si1 0.380390 0.534510 0.665360
Si Si2 0.011239 0.022387 0.662872
Si Si3 0.781535 0.378523 0.457026
Si Si4 0.520554 0.440432 0.188386
Si Si5 0.871637 0.871073 0.244672
Si Si6 0.498312 0.787527 0.538271
Si Si7 0.550440 0.258727 0.874876
Si Si8 0.878590 0.705543 0.042155
O O1 0.549214 0.644775 0.644517
O O2 0.594361 0.294969 0.782337
O O3 0.092447 0.443743 0.522178
O O4 0.267173 0.750241 0.719092
O O5 0.872740 0.089296 0.520676
O O6 0.188879 0.246134 0.770914
O O7 0.716602 0.004572 0.627127
O O8 0.555003 0.371842 0.301799
O O9 0.627677 0.581667 0.492983
O O10 0.698534 0.665531 0.226365
O O11 0.157210 0.547314 0.063526
O O12 0.641067 0.157900 0.163662
O O13 0.993452 0.762554 0.181779
O O14 0.146843 0.919561 0.402315
O O15 0.632511 0.515248 0.965163
O O16 0.759406 0.983278 0.964663
#
# Coordination Sequence:
#
# PCOD8000101 Si02
#       8
#     1   1   1   1   1   1   1   1
#     4  10  21  45  69 106 145 189 242 304 364 437
#     4  10  23  42  72 108 142 195 237 308 368 426
#     4  10  22  39  69 106 153 183 232 309 375 429
#     4  12  26  47  72 113 149 189 251 300 369 442
#     4  12  27  46  77 113 146 192 243 310 371 446
#     4  11  23  41  74 116 145 186 241 304 390 431
#     4  11  24  49  77  99 148 204 246 299 360 436
#     4  12  26  51  76 103 152 202 248 298 365 429
#
# _framework density 24.171737
#
# number of rings (size 3 to 8) (size 9 to 14) (size 15 to 20)
#    0.000    1.000    3.750    2.250    3.500    3.000 
#    2.250    6.250    0.000    0.000    0.000    0.000 
#    0.000    0.000    0.000    0.000    0.000    0.000 
#
# Total GULP energy -99149.674888 kJ/mol
# GULP energy per Si atom -12393.709361 kJ/mol
# Density = 2.411672 g / cm^3
# Si number density = 24.171737 Si / 1000 Ang^3
#
#
#
# Elastic Constant Matrix: (Units=GPa)
#
#
# Indices 1 2 3 4 5 6 
#
# 1 119.7280 40.3283 41.1761 0.3537 9.4129 31.4798
# 2 40.3283 125.7549 41.6258 -7.2743 7.0187 27.1825
# 3 41.1761 41.6258 103.8888 -7.5495 -1.2574 17.1704
# 4 0.3537 -7.2743 -7.5495 39.7506 4.9929 -0.3019
# 5 9.4129 7.0187 -1.2574 4.9929 21.5630 1.4594
# 6 31.4798 27.1825 17.1704 -0.3019 1.4594 40.1596
#
#
#
# Elastic Compliance Matrix: (Units=1/GPa)
#
#
# Indices 1 2 3 4 5 6 
#
# 1 0.012074 -0.000993 -0.003276 -0.000394 -0.004558 -0.007228
# 2 -0.000993 0.010612 -0.002941 0.001764 -0.003261 -0.005015
# 3 -0.003276 -0.002941 0.012381 0.001482 0.002822 -0.000826
# 4 -0.000394 0.001764 0.001482 0.026559 -0.006392 -0.001087
# 5 -0.004558 -0.003261 0.002822 -0.006392 0.050890 0.002676
# 6 -0.007228 -0.005015 -0.000826 -0.001087 0.002676 0.034209
#
#
# Mechanical properties :
#
#
# Convention : Reuss Voigt Hill
#
# Bulk Modulus (GPa) = 48.43645 66.18133 57.30889
# Shear Modulus (GPa) = 29.75694 35.37740 32.56717
#
# Velocity S-wave (km/s) = 3.51246 3.82983 3.67457
# Velocity P-wave (km/s) = 6.04415 6.85536 6.46250
#
# Compressibility (1/GPa) = 0.02064561
#
# Stress axis : x y z
#
# Youngs Moduli (GPa) = 82.82466 94.23297 80.76935
#
# Poissons Ratio (x) = 0.09361 0.26464
# Poissons Ratio (y) = 0.08227 0.23752
# Poissons Ratio (z) = 0.27137 0.27711
#
# Static dielectric constant tensor:
#      x y z
#    x 4.195190 0.251030 0.125700 
#    y 0.251030 4.518720 -0.098460 
#    z 0.125700 -0.098460 4.464870 
# 
# 
# High freq. dielectric constant tensor:
#      x y z
#    x 1.947010 0.018470 0.001170 
#    y 0.018470 1.968490 -0.012960 
#    z 0.001170 -0.012960 1.959990 
# 
# From -- ./inp_files/1980.got.cif
#   From: 2010.03.12/outbox.cif.g09.slc.cpg/sg1_1_cif.got.tgz:1980.got - 2010.03.29 11:57:58.
