data_PCOD8000710
_publ_section_title
;
Structure prediction by ZEFSAII (Michael W. Deem and Ramdas Pophale) SiO2 
 PCOD8000710
Probable space group: P -1
;
_chemical_formula_sum "Si O2"
_cell_formula_units_Z 14
_cell_length_a 21.436025
_cell_length_b 11.204780
_cell_length_c 9.859730
_cell_angle_alpha 59.553461
_cell_angle_beta 38.419295
_cell_angle_gamma 31.726957
_cell_volume 675.209865
_symmetry_space_group_name_H-M "P -1"
_symmetry_group_IT_number 2
_symmetry_cell_setting 'triclinic'
loop_
_space_group_symop_operation_xyz
x,y,z
-x,-y,-z
loop_
_atom_site_type_symbol
_atom_site_label
_atom_site_fract_x
_atom_site_fract_y
_atom_site_fract_z
Si Si1 0.319943 0.112957 0.720231
Si Si2 0.534508 0.610604 0.732354
Si Si3 0.922280 0.738761 0.453065
Si Si4 0.873840 0.286733 0.696381
Si Si5 0.037515 0.351363 0.870731
Si Si6 0.459513 0.703108 0.115105
Si Si7 0.951911 0.211586 0.302735
O O1 0.208141 0.256607 0.682663
O O2 0.500000 0.000000 0.500000
O O3 0.391147 0.872545 0.742207
O O4 0.163141 0.333919 0.974225
O O5 0.548057 0.445769 0.729955
O O6 0.737609 0.443541 0.487969
O O7 0.441707 0.707260 0.982296
O O8 0.922156 0.758840 0.280342
O O9 0.000000 0.500000 0.500000
O O10 0.056072 0.697988 0.312079
O O11 0.708989 0.006290 0.711029
O O12 0.962786 0.232789 0.432823
O O13 0.648644 0.559991 0.919476
O O14 0.931173 0.063919 0.763103
O O15 0.037860 0.232612 0.054032
#
# Coordination Sequence:
#
# PCOD8000710 Si02
#       7
#     2   2   2   2   2   2   2
#     4  11  23  40  64  94 126 168 214 262 313 380
#     4  10  19  39  68  94 121 163 222 270 303 372
#     4  12  27  43  62  95 138 170 203 264 331 387
#     4  10  23  41  69  93 127 169 215 266 313 377
#     4  11  26  40  64  97 131 168 211 266 324 378
#     4  10  22  40  65  93 123 169 217 259 317 372
#     4  10  20  42  69  98 121 166 224 265 312 373
#
# _framework density 20.734293999999998
#
# number of rings (size 3 to 8) (size 9 to 14) (size 15 to 20)
#    0.000    1.429    2.857    1.714    8.000    2.286 
#    0.000    1.429    0.000    0.000    0.000    0.000 
#    0.000    0.000    0.000    0.000    0.000    0.000 
#
# Total GULP energy -173576.433236 kJ/mol
# GULP energy per Si atom -12398.316660 kJ/mol
# Density = 2.068710 g / cm^3
# Si number density = 20.734294 Si / 1000 Ang^3
#
#
#
# Elastic Constant Matrix: (Units=GPa)
#
#
# Indices 1 2 3 4 5 6 
#
# 1 144.7421 30.8053 60.4441 15.5614 -2.3824 -7.1036
# 2 30.8053 131.1469 50.8374 23.1308 2.3437 8.6474
# 3 60.4441 50.8374 88.9766 20.6469 -2.9553 -2.8025
# 4 15.5614 23.1308 20.6469 41.1672 -1.1274 1.3056
# 5 -2.3824 2.3437 -2.9553 -1.1274 31.8021 6.0939
# 6 -7.1036 8.6474 -2.8025 1.3056 6.0939 28.1506
#
#
#
# Elastic Compliance Matrix: (Units=1/GPa)
#
#
# Indices 1 2 3 4 5 6 
#
# 1 0.009753 0.000250 -0.006583 -0.000590 -0.000268 0.001814
# 2 0.000250 0.010521 -0.005591 -0.003114 -0.000731 -0.003423
# 3 -0.006583 -0.005591 0.020042 -0.004451 0.001242 0.001989
# 4 -0.000590 -0.003114 -0.004451 0.028561 0.001010 -0.001179
# 5 -0.000268 -0.000731 0.001242 0.001010 0.032952 -0.006900
# 6 0.001814 -0.003423 0.001989 -0.001179 -0.006900 0.038779
#
#
# Mechanical properties :
#
#
# Convention : Reuss Voigt Hill
#
# Bulk Modulus (GPa) = 60.72106 72.11546 66.41826
# Shear Modulus (GPa) = 29.42119 35.07588 32.24853
#
# Velocity S-wave (km/s) = 3.77100 4.11747 3.94804
# Velocity P-wave (km/s) = 6.95050 7.58031 7.27222
#
# Compressibility (1/GPa) = 0.01646875
#
# Stress axis : x y z
#
# Youngs Moduli (GPa) = 102.53526 95.04352 49.89452
#
# Poissons Ratio (x) = -0.02379 0.32846
# Poissons Ratio (y) = -0.02567 0.27897
# Poissons Ratio (z) = 0.67500 0.53140
#
# Static dielectric constant tensor:
#      x y z
#    x 4.097220 0.087540 -0.125510 
#    y 0.087540 4.021920 0.121720 
#    z -0.125510 0.121720 3.657680 
# 
# 
# High freq. dielectric constant tensor:
#      x y z
#    x 1.804810 0.002620 -0.024050 
#    y 0.002620 1.831700 0.017300 
#    z -0.024050 0.017300 1.798580 
# 
# From -- ./inp_files/282785.got.cif
#   From: 2010.06.25/outbox.cif.g09.slc.cpg/sg2_142_cif.got.tgz:282785.got - 2010.06.27 13:26:56.
