data_PCOD8000974
_publ_section_title
;
Structure prediction by ZEFSAII (Michael W. Deem and Ramdas Pophale) SiO2 
 PCOD8000974
Probable space group: P -1
;
_chemical_formula_sum "Si O2"
_cell_formula_units_Z 14
_cell_length_a 8.482325
_cell_length_b 8.477059
_cell_length_c 12.874202
_cell_angle_alpha 118.574471
_cell_angle_beta 108.384900
_cell_angle_gamma 108.037597
_cell_volume 642.995087
_symmetry_space_group_name_H-M "P -1"
_symmetry_group_IT_number 2
_symmetry_cell_setting 'triclinic'
loop_
_space_group_symop_operation_xyz
x,y,z
-x,-y,-z
loop_
_atom_site_type_symbol
_atom_site_label
_atom_site_fract_x
_atom_site_fract_y
_atom_site_fract_z
Si Si1 0.132629 0.913495 0.470868
Si Si2 0.102133 0.550729 0.768167
Si Si3 0.104908 0.403992 0.078780
Si Si4 0.479684 0.833452 0.231593
Si Si5 0.528496 0.822485 0.998148
Si Si6 0.165060 0.918581 0.234951
Si Si7 0.955039 0.085534 0.124601
O O1 0.171280 0.940217 0.365316
O O2 0.016176 0.659688 0.395448
O O3 0.335478 0.045158 0.616019
O O4 0.000000 0.000000 0.500000
O O5 0.325130 0.602013 0.849318
O O6 0.092277 0.746520 0.779485
O O7 0.991765 0.496014 0.840161
O O8 0.336693 0.588884 0.169085
O O9 0.050204 0.178924 0.057045
O O10 0.997350 0.322967 0.919361
O O11 0.375750 0.967435 0.253754
O O12 0.546362 0.828854 0.128180
O O13 0.500000 0.000000 0.000000
O O14 0.734181 0.856285 0.008256
O O15 0.118443 0.086520 0.230682
#
# Coordination Sequence:
#
# PCOD8000974 Si02
#       7
#     2   2   2   2   2   2   2
#     4  12  27  43  60  93 132 176 214 259 316 387
#     4   9  20  42  65  90 133 159 215 256 323 361
#     4  10  21  40  69  99 126 164 212 269 315 369
#     4  12  23  41  68  94 127 172 213 261 321 376
#     4  10  19  40  67  97 123 168 208 264 320 369
#     4  12  20  39  67  96 127 165 214 264 314 380
#     4   9  21  38  66 101 130 157 208 271 323 367
#
# _framework density 21.773107
#
# number of rings (size 3 to 8) (size 9 to 14) (size 15 to 20)
#    0.857    0.571    2.857    3.000    0.000    1.143 
#    0.000   13.571    0.000    0.000    0.000    0.000 
#    0.000    0.000    0.000    0.000    0.000    0.000 
#
# Total GULP energy -173472.996909 kJ/mol
# GULP energy per Si atom -12390.928351 kJ/mol
# Density = 2.172355 g / cm^3
# Si number density = 21.773107 Si / 1000 Ang^3
#
#
#
# Elastic Constant Matrix: (Units=GPa)
#
#
# Indices 1 2 3 4 5 6 
#
# 1 135.8440 54.3270 67.2764 3.1607 21.8634 7.4509
# 2 54.3270 99.3547 52.1129 4.7757 17.8851 13.1262
# 3 67.2764 52.1129 141.2498 17.7443 38.8442 7.5115
# 4 3.1607 4.7757 17.7443 27.7355 -2.7115 4.4121
# 5 21.8634 17.8851 38.8442 -2.7115 39.3863 -2.1391
# 6 7.4509 13.1262 7.5115 4.4121 -2.1391 36.4874
#
#
#
# Elastic Compliance Matrix: (Units=1/GPa)
#
#
# Indices 1 2 3 4 5 6 
#
# 1 0.010863 -0.003909 -0.003872 0.001923 -0.000319 -0.000266
# 2 -0.003909 0.014521 -0.002791 0.000181 -0.001876 -0.003983
# 3 -0.003872 -0.002791 0.014257 -0.009196 -0.011315 -0.000692
# 4 0.001923 0.000181 -0.009196 0.043239 0.010724 -0.003165
# 5 -0.000319 -0.001876 -0.011315 0.010724 0.038535 0.004032
# 6 -0.000266 -0.003983 -0.000692 -0.003165 0.004032 0.029655
#
#
# Mechanical properties :
#
#
# Convention : Reuss Voigt Hill
#
# Bulk Modulus (GPa) = 54.05823 80.43122 67.24473
# Shear Modulus (GPa) = 28.02998 34.23733 31.13366
#
# Velocity S-wave (km/s) = 3.59188 3.96973 3.78552
# Velocity P-wave (km/s) = 6.48722 7.61790 7.07519
#
# Compressibility (1/GPa) = 0.01849857
#
# Stress axis : x y z
#
# Youngs Moduli (GPa) = 92.05264 68.86372 70.14146
#
# Poissons Ratio (x) = 0.26920 0.27156
# Poissons Ratio (y) = 0.35985 0.19574
# Poissons Ratio (z) = 0.35640 0.19218
#
# Static dielectric constant tensor:
#      x y z
#    x 4.407370 -0.008390 0.102720 
#    y -0.008390 4.209720 0.087540 
#    z 0.102720 0.087540 3.751060 
# 
# 
# High freq. dielectric constant tensor:
#      x y z
#    x 1.871410 -0.004850 -0.000350 
#    y -0.004850 1.866980 -0.002240 
#    z -0.000350 -0.002240 1.837100 
# 
# From -- ./inp_files/382986.got.cif
#   From: 2010.06.25/outbox.cif.g09.slc.cpg/sg2_192_cif.got.tgz:382986.got - 2010.06.27 13:26:56.
