data_PCOD8000018
_publ_section_title
;
Structure prediction by ZEFSAII (Michael W. Deem and Ramdas Pophale) SiO2 
 PCOD8000018
Probable space group: P 1
;
_chemical_formula_sum "Si O2"
_cell_formula_units_Z 8
_cell_length_a 14.033172
_cell_length_b 6.996147
_cell_length_c 8.804104
_cell_angle_alpha 54.877247
_cell_angle_beta 137.603291
_cell_angle_gamma 143.495178
_cell_volume 346.348259
_symmetry_space_group_name_H-M "P 1"
_symmetry_group_IT_number 1
_symmetry_cell_setting 'triclinic'
loop_
_space_group_symop_operation_xyz
x,y,z
loop_
_atom_site_type_symbol
_atom_site_label
_atom_site_fract_x
_atom_site_fract_y
_atom_site_fract_z
Si Si1 0.500000 0.435660 0.387850
Si Si2 0.007836 0.517982 0.956043
Si Si3 0.502040 0.221249 0.797166
Si Si4 0.790972 0.803815 0.061572
Si Si5 0.742938 0.462221 0.443431
Si Si6 0.850989 0.157147 0.523513
Si Si7 0.237630 0.572362 0.960382
Si Si8 0.912608 0.531183 0.153836
O O1 0.412815 0.226393 0.534691
O O2 0.540884 0.284477 0.376815
O O3 0.715093 0.779860 0.517656
O O4 0.359264 0.474472 0.141780
O O5 0.053039 0.670471 0.108169
O O6 0.842621 0.131268 0.953413
O O7 0.921892 0.620189 0.697674
O O8 0.207508 0.640139 0.064856
O O9 0.333000 0.880126 0.829835
O O10 0.577616 0.510817 0.869363
O O11 0.686550 0.266032 0.952762
O O12 0.792707 0.744326 0.269708
O O13 0.950736 0.819388 0.155715
O O14 0.717401 0.213141 0.412819
O O15 0.944126 0.348408 0.387156
O O16 0.021576 0.272145 0.783500
#
# Coordination Sequence:
#
# PCOD8000018 Si02
#       8
#     1   1   1   1   1   1   1   1
#     4  12  22  43  67  90 130 172 204 258 319 376
#     4  11  21  39  67  93 123 170 212 252 315 379
#     4  10  21  42  63  91 130 163 207 264 308 367
#     4   9  20  37  65  91 120 167 207 250 313 373
#     4  10  20  36  67  94 118 167 213 249 310 376
#     4  10  22  44  67  90 131 168 205 263 316 371
#     4  11  25  40  64 100 128 159 215 266 308 368
#     4   9  19  41  70  87 126 170 209 254 317 372
#
# _framework density 23.098139
#
# number of rings (size 3 to 8) (size 9 to 14) (size 15 to 20)
#    0.750    1.000    2.500    2.250    0.000    3.000 
#    0.000   11.250    0.000    0.000    0.000    0.000 
#    0.000    0.000    0.000    0.000    0.000    0.000 
#
# Total GULP energy -99179.828356 kJ/mol
# GULP energy per Si atom -12397.478545 kJ/mol
# Density = 2.304557 g / cm^3
# Si number density = 23.098139 Si / 1000 Ang^3
#
#
#
# Elastic Constant Matrix: (Units=GPa)
#
#
# Indices 1 2 3 4 5 6 
#
# 1 117.9817 16.8377 40.0157 -11.8893 -8.1663 19.6813
# 2 16.8377 56.9967 26.5046 -17.2433 2.1949 8.0481
# 3 40.0157 26.5046 93.5530 -29.8362 -9.2069 9.6796
# 4 -11.8893 -17.2433 -29.8362 30.5081 14.2470 -6.0667
# 5 -8.1663 2.1949 -9.2069 14.2470 36.2886 -4.5261
# 6 19.6813 8.0481 9.6796 -6.0667 -4.5261 25.9432
#
#
#
# Elastic Compliance Matrix: (Units=1/GPa)
#
#
# Indices 1 2 3 4 5 6 
#
# 1 0.011118 -0.001181 -0.004458 -0.002841 0.001713 -0.006770
# 2 -0.001181 0.024052 -0.002247 0.014032 -0.008285 -0.003891
# 3 -0.004458 -0.002247 0.017978 0.015847 -0.002447 0.000650
# 4 -0.002841 0.014032 0.015847 0.066611 -0.023193 0.003420
# 5 0.001713 -0.008285 -0.002447 -0.023193 0.037337 0.003274
# 6 -0.006770 -0.003891 0.000650 0.003420 0.003274 0.046017
#
#
# Mechanical properties :
#
#
# Convention : Reuss Voigt Hill
#
# Bulk Modulus (GPa) = 26.75377 48.36084 37.55731
# Shear Modulus (GPa) = 21.61285 30.89289 26.25287
#
# Velocity S-wave (km/s) = 3.06223 3.66110 3.37498
# Velocity P-wave (km/s) = 4.91028 6.23331 5.61092
#
# Compressibility (1/GPa) = 0.03737790
#
# Stress axis : x y z
#
# Youngs Moduli (GPa) = 89.94328 41.57627 55.62222
#
# Poissons Ratio (x) = 0.04909 0.24796
# Poissons Ratio (y) = 0.10621 0.12497
# Poissons Ratio (z) = 0.40096 0.09341
#
# Static dielectric constant tensor:
#      x y z
#    x 4.231180 0.104660 -0.199760 
#    y 0.104660 3.767150 -0.254000 
#    z -0.199760 -0.254000 3.995790 
# 
# 
# High freq. dielectric constant tensor:
#      x y z
#    x 1.910920 0.004900 -0.012550 
#    y 0.004900 1.888060 -0.028720 
#    z -0.012550 -0.028720 1.908340 
# 
# From -- ./inp_files/5707.got.cif
#   From: 2010.03.12/outbox.cif.g09.slc.cpg/sg1_3_cif.got.tgz:5707.got - 2010.03.29 11:57:58.
