data_PCOD8000981
_publ_section_title
;
Structure prediction by ZEFSAII (Michael W. Deem and Ramdas Pophale) SiO2 
 PCOD8000981
Probable space group: P -1
;
_chemical_formula_sum "Si O2"
_cell_formula_units_Z 16
_cell_length_a 19.370633
_cell_length_b 11.683343
_cell_length_c 11.471933
_cell_angle_alpha 139.148412
_cell_angle_beta 148.552423
_cell_angle_gamma 35.483745
_cell_volume 769.750516
_symmetry_space_group_name_H-M "P -1"
_symmetry_group_IT_number 2
_symmetry_cell_setting 'triclinic'
loop_
_space_group_symop_operation_xyz
x,y,z
-x,-y,-z
loop_
_atom_site_type_symbol
_atom_site_label
_atom_site_fract_x
_atom_site_fract_y
_atom_site_fract_z
Si Si1 0.861781 0.715716 0.296819
Si Si2 0.833098 0.044894 0.182305
Si Si3 0.423173 0.123253 0.149182
Si Si4 0.467830 0.650990 0.669417
Si Si5 0.357323 0.148397 0.332470
Si Si6 0.158172 0.908194 0.509570
Si Si7 0.801442 0.482773 0.439317
Si Si8 0.656193 0.667252 0.134908
O O1 0.808486 0.656480 0.293547
O O2 0.031955 0.548458 0.374795
O O3 0.866160 0.920392 0.486806
O O4 0.744075 0.753237 0.052114
O O5 0.812733 0.013672 0.264490
O O6 0.799330 0.275249 0.298527
O O7 0.008361 0.886184 0.278718
O O8 0.733188 0.976343 0.910609
O O9 0.535976 0.158798 0.254998
O O10 0.410292 0.194527 0.320149
O O11 0.500755 0.882544 0.076146
O O12 0.500000 0.500000 0.500000
O O13 0.305586 0.701372 0.528185
O O14 0.602146 0.544890 0.878131
O O15 0.259667 0.364172 0.421601
O O16 0.500000 0.000000 0.500000
O O17 0.687744 0.583885 0.245546
#
# Coordination Sequence:
#
# PCOD8000981 Si02
#       8
#     2   2   2   2   2   2   2   2
#     4  10  19  40  68  89 122 173 219 262 315 379
#     4  10  24  42  65  93 132 171 210 267 325 384
#     4  11  21  41  66  90 125 174 216 264 314 382
#     4  11  23  36  66  98 122 167 220 269 315 376
#     4  12  25  43  64  95 134 171 215 265 327 389
#     4  10  19  42  64  92 129 166 212 273 323 369
#     4  11  26  40  65  99 129 177 211 265 332 387
#     4  11  20  42  63  93 131 167 213 265 325 388
#
# _framework density 20.785955000000001
#
# number of rings (size 3 to 8) (size 9 to 14) (size 15 to 20)
#    0.000    1.250    5.000    1.125    1.750    4.000 
#    0.000    0.000    0.000    4.500    0.000    0.000 
#    0.000    0.000    0.000    0.000    0.000    0.000 
#
# Total GULP energy -198265.879861 kJ/mol
# GULP energy per Si atom -12391.617491 kJ/mol
# Density = 2.073865 g / cm^3
# Si number density = 20.785955 Si / 1000 Ang^3
#
#
#
# Elastic Constant Matrix: (Units=GPa)
#
#
# Indices 1 2 3 4 5 6 
#
# 1 102.0709 20.9410 38.8234 -6.8160 2.2726 -18.4622
# 2 20.9410 62.9243 38.4011 -3.7288 7.8869 -11.0035
# 3 38.8234 38.4011 122.3613 -4.0747 -3.3036 -13.9924
# 4 -6.8160 -3.7288 -4.0747 31.3933 -0.1329 -0.1543
# 5 2.2726 7.8869 -3.3036 -0.1329 30.6100 -7.5667
# 6 -18.4622 -11.0035 -13.9924 -0.1543 -7.5667 36.9433
#
#
#
# Elastic Compliance Matrix: (Units=1/GPa)
#
#
# Indices 1 2 3 4 5 6 
#
# 1 0.012128 -0.001438 -0.002785 0.002125 0.000329 0.004654
# 2 -0.001438 0.021216 -0.006052 0.001410 -0.005464 0.002195
# 3 -0.002785 -0.006052 0.011255 0.000161 0.003419 0.001770
# 4 0.002125 0.001410 0.000161 0.032512 0.000055 0.001690
# 5 0.000329 -0.005464 0.003419 0.000055 0.036214 0.007249
# 6 0.004654 0.002195 0.001770 0.001690 0.007249 0.032210
#
#
# Mechanical properties :
#
#
# Convention : Reuss Voigt Hill
#
# Bulk Modulus (GPa) = 41.57956 53.74305 47.66131
# Shear Modulus (GPa) = 28.71893 32.40204 30.56049
#
# Velocity S-wave (km/s) = 3.72109 3.95250 3.83854
# Velocity P-wave (km/s) = 6.20557 6.83676 6.52880
#
# Compressibility (1/GPa) = 0.02405028
#
# Stress axis : x y z
#
# Youngs Moduli (GPa) = 82.45557 47.13397 88.84688
#
# Poissons Ratio (x) = 0.06778 0.24742
# Poissons Ratio (y) = 0.11858 0.53767
# Poissons Ratio (z) = 0.22962 0.28524
#
# Static dielectric constant tensor:
#      x y z
#    x 4.232350 0.124520 -0.006920 
#    y 0.124520 3.789030 -0.148010 
#    z -0.006920 -0.148010 3.654270 
# 
# 
# High freq. dielectric constant tensor:
#      x y z
#    x 1.833270 -0.006360 0.009220 
#    y -0.006360 1.798240 -0.012300 
#    z 0.009220 -0.012300 1.806250 
# 
# From -- ./inp_files/243905.got.cif
#   From: 2010.06.25/outbox.cif.g09.slc.cpg/sg2_122_cif.got.tgz:243905.got - 2010.06.27 13:26:56.
