data_PCOD8000351
_publ_section_title
;
Structure prediction by ZEFSAII (Michael W. Deem and Ramdas Pophale) SiO2 
 PCOD8000351
Probable space group: P -1
;
_chemical_formula_sum "Si O2"
_cell_formula_units_Z 14
_cell_length_a 11.419042
_cell_length_b 15.700080
_cell_length_c 10.486262
_cell_angle_alpha 154.768494
_cell_angle_beta 66.518179
_cell_angle_gamma 125.133023
_cell_volume 613.868673
_symmetry_space_group_name_H-M "P -1"
_symmetry_group_IT_number 2
_symmetry_cell_setting 'triclinic'
loop_
_space_group_symop_operation_xyz
x,y,z
-x,-y,-z
loop_
_atom_site_type_symbol
_atom_site_label
_atom_site_fract_x
_atom_site_fract_y
_atom_site_fract_z
Si Si1 0.345851 0.472566 0.074074
Si Si2 0.540712 0.231436 0.138621
Si Si3 0.860540 0.009486 0.353733
Si Si4 0.793737 0.719721 0.458800
Si Si5 0.726504 0.757536 0.813892
Si Si6 0.669132 0.239070 0.753097
Si Si7 0.428996 0.159840 0.357784
O O1 0.292274 0.597884 0.169035
O O2 0.400310 0.618378 0.380798
O O3 0.500000 0.500000 0.000000
O O4 0.211083 0.202389 0.798709
O O5 0.679756 0.485835 0.470986
O O6 0.429015 0.243328 0.100480
O O7 0.425972 0.098257 0.127763
O O8 0.603443 0.066041 0.845780
O O9 0.790905 0.168309 0.615422
O O10 0.841075 0.914732 0.088874
O O11 0.040150 0.178099 0.532420
O O12 0.805496 0.843114 0.756370
O O13 0.701893 0.783579 0.484638
O O14 0.697883 0.424090 0.108318
O O15 0.500000 0.000000 0.500000
#
# Coordination Sequence:
#
# PCOD8000351 Si02
#       7
#     2   2   2   2   2   2   2
#     4  12  23  41  69  94 125 172 227 271 321 385
#     4   9  19  33  68  91 125 164 221 274 313 378
#     4  12  25  46  66  97 142 173 216 276 336 396
#     4  11  25  43  65  98 138 176 212 270 342 399
#     4  10  21  40  67  98 128 173 220 267 333 389
#     4  12  26  45  71  97 129 177 229 274 325 389
#     4  10  19  39  59  97 124 164 220 272 319 381
#
# _framework density 22.806182
#
# number of rings (size 3 to 8) (size 9 to 14) (size 15 to 20)
#    0.000    1.143    4.286    1.714    6.000    0.571 
#    2.571    0.714    0.000    0.000    0.000    0.000 
#    0.000    0.000    0.000    0.000    0.000    0.000 
#
# Total GULP energy -173504.125972 kJ/mol
# GULP energy per Si atom -12393.151855 kJ/mol
# Density = 2.275427 g / cm^3
# Si number density = 22.806182 Si / 1000 Ang^3
#
#
#
# Elastic Constant Matrix: (Units=GPa)
#
#
# Indices 1 2 3 4 5 6 
#
# 1 102.8512 19.7145 48.0546 17.1236 -25.6485 12.8732
# 2 19.7145 57.7061 18.8878 11.9206 -8.7036 4.8225
# 3 48.0546 18.8878 115.9089 16.2972 -20.3372 8.2535
# 4 17.1236 11.9206 16.2972 39.3527 -10.4108 4.8661
# 5 -25.6485 -8.7036 -20.3372 -10.4108 44.9467 -2.1712
# 6 12.8732 4.8225 8.2535 4.8661 -2.1712 36.6693
#
#
#
# Elastic Compliance Matrix: (Units=1/GPa)
#
#
# Indices 1 2 3 4 5 6 
#
# 1 0.014032 -0.001993 -0.004074 -0.002061 0.005147 -0.003169
# 2 -0.001993 0.019580 -0.001559 -0.004047 0.000966 -0.000930
# 3 -0.004074 -0.001559 0.011214 -0.001803 0.002004 -0.000531
# 4 -0.002061 -0.004047 -0.001803 0.029584 0.003979 -0.002029
# 5 0.005147 0.000966 0.002004 0.003979 0.027138 -0.001306
# 6 -0.003169 -0.000930 -0.000531 -0.002029 -0.001306 0.028817
#
#
# Mechanical properties :
#
#
# Convention : Reuss Voigt Hill
#
# Bulk Modulus (GPa) = 33.81613 49.97558 41.89586
# Shear Modulus (GPa) = 32.15949 36.84769 34.50359
#
# Velocity S-wave (km/s) = 3.75923 4.02392 3.89383
# Velocity P-wave (km/s) = 5.80536 6.59924 6.21499
#
# Compressibility (1/GPa) = 0.02957168
#
# Stress axis : x y z
#
# Youngs Moduli (GPa) = 71.26727 51.07215 89.17813
#
# Poissons Ratio (x) = 0.10181 0.36331
# Poissons Ratio (y) = 0.14206 0.13907
# Poissons Ratio (z) = 0.29034 0.07964
#
# Static dielectric constant tensor:
#      x y z
#    x 4.259250 -0.266060 -0.133720 
#    y -0.266060 3.958050 -0.147300 
#    z -0.133720 -0.147300 4.574490 
# 
# 
# High freq. dielectric constant tensor:
#      x y z
#    x 1.892270 -0.021190 -0.010670 
#    y -0.021190 1.888720 -0.011490 
#    z -0.010670 -0.011490 1.911280 
# 
# From -- ./inp_files/255982.got.cif
#   From: 2010.06.25/outbox.cif.g09.slc.cpg/sg2_128_cif.got.tgz:255982.got - 2010.06.27 13:26:56.
