data_PCOD8000127
_publ_section_title
;
Structure prediction by ZEFSAII (Michael W. Deem and Ramdas Pophale) SiO2 
 PCOD8000127
Probable space group: P 1
;
_chemical_formula_sum "Si O2"
_cell_formula_units_Z 8
_cell_length_a 9.768691
_cell_length_b 9.768744
_cell_length_c 9.453412
_cell_angle_alpha 45.362688
_cell_angle_beta 45.363031
_cell_angle_gamma 46.259234
_cell_volume 420.503504
_symmetry_space_group_name_H-M "P 1"
_symmetry_group_IT_number 1
_symmetry_cell_setting 'triclinic'
loop_
_space_group_symop_operation_xyz
x,y,z
loop_
_atom_site_type_symbol
_atom_site_label
_atom_site_fract_x
_atom_site_fract_y
_atom_site_fract_z
Si Si1 0.072760 0.718350 0.929510
Si Si2 0.621454 0.426458 0.120880
Si Si3 0.763459 0.598587 0.641798
Si Si4 0.138415 0.674997 0.238600
Si Si5 0.807226 0.983875 0.429515
Si Si6 0.687476 0.674576 0.141793
Si Si7 0.515338 0.532573 0.620873
Si Si8 0.763877 0.049534 0.738597
O O1 0.279369 0.575189 0.800210
O O2 0.123552 0.744961 0.035566
O O3 0.970899 0.946758 0.761641
O O4 0.909844 0.603997 0.114937
O O5 0.374190 0.552067 0.202196
O O6 0.664058 0.190491 0.300224
O O7 0.724416 0.526631 0.087503
O O8 0.732481 0.427600 0.889955
O O9 0.615524 0.635511 0.587510
O O10 0.005271 0.529347 0.466329
O O11 0.692874 0.820958 0.614939
O O12 0.035626 0.882025 0.261636
O O13 0.833857 0.034647 0.535572
O O14 0.516486 0.643608 0.389943
O O15 0.618231 0.916386 0.966323
O O16 0.640932 0.285312 0.702182
#
# Coordination Sequence:
#
# PCOD8000127 Si02
#       8
#     1   1   1   1   1   1   1   1
#     4  10  23  43  63  95 126 161 218 253 302 390
#     4  12  22  42  68  87 132 170 196 265 323 350
#     4  10  22  42  62  95 127 160 212 260 303 379
#     4  10  23  43  63  95 127 159 218 256 300 389
#     4  10  23  43  63  95 126 161 218 253 302 390
#     4  10  22  42  62  95 127 160 212 260 303 379
#     4  12  22  42  68  87 132 170 196 265 323 350
#     4  10  23  43  63  95 127 159 218 256 300 389
#
# _framework density 19.024813999999999
#
# number of rings (size 3 to 8) (size 9 to 14) (size 15 to 20)
#    1.500    0.000    5.000    0.000    3.500    0.000 
#    9.000    0.000    0.000    0.000    0.000    0.000 
#    0.000    0.000    0.000    0.000    0.000    0.000 
#
# Total GULP energy -99145.678148 kJ/mol
# GULP energy per Si atom -12393.209768 kJ/mol
# Density = 1.898151 g / cm^3
# Si number density = 19.024814 Si / 1000 Ang^3
#
#
#
# Elastic Constant Matrix: (Units=GPa)
#
#
# Indices 1 2 3 4 5 6 
#
# 1 64.0862 40.7506 29.1408 0.5324 6.0517 -12.9968
# 2 40.7506 105.8565 47.3238 5.7168 8.2219 -19.4260
# 3 29.1408 47.3238 107.3115 7.8066 16.6385 -12.8786
# 4 0.5324 5.7168 7.8066 34.9086 -0.3195 -0.2260
# 5 6.0517 8.2219 16.6385 -0.3195 33.1126 -1.4413
# 6 -12.9968 -19.4260 -12.8786 -0.2260 -1.4413 24.9109
#
#
#
# Elastic Compliance Matrix: (Units=1/GPa)
#
#
# Indices 1 2 3 4 5 6 
#
# 1 0.021903 -0.006385 -0.002464 0.001287 -0.000944 0.005132
# 2 -0.006385 0.014911 -0.003945 -0.001425 -0.000296 0.006227
# 3 -0.002464 -0.003945 0.012903 -0.002235 -0.004988 0.002000
# 4 0.001287 -0.001425 -0.002235 0.029365 0.001471 -0.001243
# 5 -0.000944 -0.000296 -0.004988 0.001471 0.032907 -0.001385
# 6 0.005132 0.006227 0.002000 -0.001243 -0.001385 0.048619
#
#
# Mechanical properties :
#
#
# Convention : Reuss Voigt Hill
#
# Bulk Modulus (GPa) = 41.44076 56.85385 49.14730
# Shear Modulus (GPa) = 25.74139 29.25568 27.49854
#
# Velocity S-wave (km/s) = 3.68236 3.92569 3.80597
# Velocity P-wave (km/s) = 6.31740 7.10612 6.72333
#
# Compressibility (1/GPa) = 0.02413083
#
# Stress axis : x y z
#
# Youngs Moduli (GPa) = 45.65484 67.06443 77.49862
#
# Poissons Ratio (x) = 0.42821 0.19092
# Poissons Ratio (y) = 0.29151 0.30573
# Poissons Ratio (z) = 0.11247 0.26457
#
# Static dielectric constant tensor:
#      x y z
#    x 3.364630 0.115530 0.105770 
#    y 0.115530 3.260620 0.098510 
#    z 0.105770 0.098510 3.533640 
# 
# 
# High freq. dielectric constant tensor:
#      x y z
#    x 1.733590 0.011760 0.012910 
#    y 0.011760 1.723500 0.010920 
#    z 0.012910 0.010920 1.748090 
# 
# From -- ./inp_files/4034.got.cif
#   From: 2010.03.12/outbox.cif.g09.slc.cpg/sg1_3_cif.got.tgz:4034.got - 2010.03.29 11:57:58.
