data_PCOD8000125
_publ_section_title
;
Structure prediction by ZEFSAII (Michael W. Deem and Ramdas Pophale) SiO2 
 PCOD8000125
Probable space group: P 1
;
_chemical_formula_sum "Si O2"
_cell_formula_units_Z 8
_cell_length_a 11.783401
_cell_length_b 5.196781
_cell_length_c 14.348659
_cell_angle_alpha 83.727658
_cell_angle_beta 30.861646
_cell_angle_gamma 103.646388
_cell_volume 341.751942
_symmetry_space_group_name_H-M "P 1"
_symmetry_group_IT_number 1
_symmetry_cell_setting 'triclinic'
loop_
_space_group_symop_operation_xyz
x,y,z
loop_
_atom_site_type_symbol
_atom_site_label
_atom_site_fract_x
_atom_site_fract_y
_atom_site_fract_z
Si Si1 0.503110 0.125000 0.073770
Si Si2 0.697989 0.028611 0.498766
Si Si3 0.145804 0.869489 0.967208
Si Si4 0.074989 0.085414 0.830550
Si Si5 0.140204 0.516968 0.614837
Si Si6 0.452689 0.535252 0.229905
Si Si7 0.572808 0.132037 0.390679
Si Si8 0.055519 0.811533 0.242432
O O1 0.368054 0.232629 0.235338
O O2 0.449082 0.797888 0.163869
O O3 0.343326 0.031254 0.091854
O O4 0.843878 0.441439 0.799465
O O5 0.629037 0.964869 0.439366
O O6 0.928799 0.428013 0.342929
O O7 0.413882 0.877404 0.764835
O O8 0.823715 0.842914 0.445833
O O9 0.154339 0.131334 0.883246
O O10 0.138981 0.965704 0.073313
O O11 0.865819 0.499958 0.145205
O O12 0.071570 0.365040 0.774820
O O13 0.332947 0.146464 0.592721
O O14 0.768329 0.715367 0.042777
O O15 0.213155 0.363741 0.488658
O O16 0.438821 0.908527 0.398779
#
# Coordination Sequence:
#
# PCOD8000125 Si02
#       8
#     1   1   1   1   1   1   1   1
#     4  11  26  47  69 102 139 183 237 284 334 414
#     4  10  25  43  69 102 136 181 232 283 340 411
#     4  10  24  44  71 103 138 186 221 287 357 402
#     4  10  22  42  65 104 144 172 227 280 347 421
#     4  11  25  42  71 103 142 179 227 285 352 413
#     4  11  25  42  72 100 138 187 223 282 351 399
#     4  10  22  41  66 103 142 175 223 284 347 420
#     4  11  25  49  69  99 141 183 236 285 336 410
#
# _framework density 23.408792999999999
#
# number of rings (size 3 to 8) (size 9 to 14) (size 15 to 20)
#    0.000    1.500    1.250    1.500   10.500    5.000 
#    2.250    0.000    0.000    0.000    0.000    0.000 
#    0.000    0.000    0.000    0.000    0.000    0.000 
#
# Total GULP energy -99175.086065 kJ/mol
# GULP energy per Si atom -12396.885758 kJ/mol
# Density = 2.335551 g / cm^3
# Si number density = 23.408793 Si / 1000 Ang^3
#
#
#
# Elastic Constant Matrix: (Units=GPa)
#
#
# Indices 1 2 3 4 5 6 
#
# 1 134.7641 46.2666 60.8532 5.3136 -20.2744 21.5431
# 2 46.2666 87.1303 28.2901 13.7308 -11.2602 17.6415
# 3 60.8532 28.2901 119.8027 15.5699 -8.8214 15.7578
# 4 5.3136 13.7308 15.5699 19.7898 3.7978 -1.7187
# 5 -20.2744 -11.2602 -8.8214 3.7978 38.5873 -1.0234
# 6 21.5431 17.6415 15.7578 -1.7187 -1.0234 37.0093
#
#
#
# Elastic Compliance Matrix: (Units=1/GPa)
#
#
# Indices 1 2 3 4 5 6 
#
# 1 0.011864 -0.004136 -0.004752 0.002494 0.003623 -0.002695
# 2 -0.004136 0.017337 0.000890 -0.013007 0.004192 -0.006724
# 3 -0.004752 0.000890 0.012344 -0.009619 0.001443 -0.003321
# 4 0.002494 -0.013007 -0.009619 0.069630 -0.011225 0.011767
# 5 0.003623 0.004192 0.001443 -0.011225 0.030360 -0.004403
# 6 -0.002695 -0.006724 -0.003321 0.011767 -0.004403 0.033633
#
#
# Mechanical properties :
#
#
# Convention : Reuss Voigt Hill
#
# Bulk Modulus (GPa) = 39.14031 68.05744 53.59887
# Shear Modulus (GPa) = 25.04007 32.82976 28.93491
#
# Velocity S-wave (km/s) = 3.27415 3.74900 3.51959
# Velocity P-wave (km/s) = 5.57226 6.91929 6.28198
#
# Compressibility (1/GPa) = 0.02554911
#
# Stress axis : x y z
#
# Youngs Moduli (GPa) = 84.29025 57.68001 81.01169
#
# Poissons Ratio (x) = 0.23855 0.38500
# Poissons Ratio (y) = 0.34860 -0.07213
# Poissons Ratio (z) = 0.40058 -0.05135
#
# Static dielectric constant tensor:
#      x y z
#    x 4.439790 0.078970 -0.141690 
#    y 0.078970 4.065380 0.003850 
#    z -0.141690 0.003850 4.279420 
# 
# 
# High freq. dielectric constant tensor:
#      x y z
#    x 1.922930 -0.000950 -0.008550 
#    y -0.000950 1.914420 0.007960 
#    z -0.008550 0.007960 1.933300 
# 
# From -- ./inp_files/359.got.cif
#   From: 2010.03.12/outbox.cif.g09.slc.cpg/sg1_1_cif.got.tgz:359.got - 2010.03.29 11:57:58.
