data_PCOD8000264
_publ_section_title
;
Structure prediction by ZEFSAII (Michael W. Deem and Ramdas Pophale) SiO2 
 PCOD8000264
Probable space group: P 1
;
_chemical_formula_sum "Si O2"
_cell_formula_units_Z 8
_cell_length_a 8.625977
_cell_length_b 12.272494
_cell_length_c 5.219102
_cell_angle_alpha 85.431867
_cell_angle_beta 95.919649
_cell_angle_gamma 144.706344
_cell_volume 317.507693
_symmetry_space_group_name_H-M "P 1"
_symmetry_group_IT_number 1
_symmetry_cell_setting 'triclinic'
loop_
_space_group_symop_operation_xyz
x,y,z
loop_
_atom_site_type_symbol
_atom_site_label
_atom_site_fract_x
_atom_site_fract_y
_atom_site_fract_z
Si Si1 0.580570 0.042440 0.346260
Si Si2 0.947269 0.450357 0.474827
Si Si3 0.049749 0.819100 0.094265
Si Si4 0.464416 0.479491 0.291944
Si Si5 0.259737 0.580596 0.023159
Si Si6 0.726209 0.997057 0.879341
Si Si7 0.250418 0.178319 0.005680
Si Si8 0.739436 0.525087 0.719951
O O1 0.714546 0.233966 0.399842
O O2 0.614449 0.978025 0.596424
O O3 0.260277 0.878036 0.300394
O O4 0.711085 0.076460 0.093321
O O5 0.822670 0.497555 0.499663
O O6 0.092412 0.484996 0.748112
O O7 0.130021 0.577937 0.230812
O O8 0.021491 0.731546 0.844809
O O9 0.150966 0.999251 0.043958
O O10 0.741147 0.644765 0.154487
O O11 0.558794 0.527270 0.595447
O O12 0.273915 0.469319 0.178678
O O13 0.302368 0.272767 0.262472
O O14 0.553818 0.794051 0.975927
O O15 0.023856 0.123401 0.839306
O O16 0.542725 0.339902 0.893837
#
# Coordination Sequence:
#
# PCOD8000264 Si02
#       8
#     1   1   1   1   1   1   1   1
#     4  12  28  49  77 113 152 202 255 311 378 454
#     4  12  28  51  76 112 153 203 252 314 380 449
#     4  11  27  49  76 111 153 198 255 309 381 451
#     4  11  26  49  74 111 150 202 249 316 377 449
#     4  12  28  50  78 110 156 199 255 313 380 448
#     4  12  28  50  77 114 150 203 254 314 376 454
#     4  11  26  51  75 112 151 199 255 311 381 451
#     4  11  29  47  79 109 155 200 251 316 377 452
#
# _framework density 25.19624
#
# number of rings (size 3 to 8) (size 9 to 14) (size 15 to 20)
#    0.000    0.500    1.250    4.500   19.250    2.000 
#    0.000    0.000    0.000    0.000    0.000    0.000 
#    0.000    0.000    0.000    0.000    0.000    0.000 
#
# Total GULP energy -99139.896958 kJ/mol
# GULP energy per Si atom -12392.487120 kJ/mol
# Density = 2.513889 g / cm^3
# Si number density = 25.196240 Si / 1000 Ang^3
#
#
#
# Elastic Constant Matrix: (Units=GPa)
#
#
# Indices 1 2 3 4 5 6 
#
# 1 103.6503 38.2593 38.6475 18.7187 12.3633 5.8839
# 2 38.2593 140.9444 40.0075 29.1775 -0.0394 -12.3121
# 3 38.6475 40.0075 134.2313 22.8577 17.3858 2.7634
# 4 18.7187 29.1775 22.8577 39.3739 1.1630 -0.0402
# 5 12.3633 -0.0394 17.3858 1.1630 50.5434 0.6452
# 6 5.8839 -12.3121 2.7634 -0.0402 0.6452 38.3850
#
#
#
# Elastic Compliance Matrix: (Units=1/GPa)
#
#
# Indices 1 2 3 4 5 6 
#
# 1 0.012173 -0.002374 -0.001982 -0.002815 -0.002202 -0.002451
# 2 -0.002374 0.009528 -0.001516 -0.005084 0.001182 0.003504
# 3 -0.001982 -0.001516 0.009398 -0.003312 -0.002662 -0.000818
# 4 -0.002815 -0.005084 -0.003312 0.032393 0.001091 -0.000945
# 5 -0.002202 0.001182 -0.002662 0.001091 0.021208 0.000553
# 6 -0.002451 0.003504 -0.000818 -0.000945 0.000553 0.027600
#
#
# Mechanical properties :
#
#
# Convention : Reuss Voigt Hill
#
# Bulk Modulus (GPa) = 51.66487 68.07272 59.86879
# Shear Modulus (GPa) = 38.31512 43.12125 40.71818
#
# Velocity S-wave (km/s) = 3.90381 4.14141 4.02436
# Velocity P-wave (km/s) = 6.39289 7.06711 6.73844
#
# Compressibility (1/GPa) = 0.01935551
#
# Stress axis : x y z
#
# Youngs Moduli (GPa) = 82.14737 104.94845 106.40384
#
# Poissons Ratio (x) = 0.24911 0.21094
# Poissons Ratio (y) = 0.19499 0.16131
# Poissons Ratio (z) = 0.16286 0.15911
#
# Static dielectric constant tensor:
#      x y z
#    x 4.711870 0.136370 0.058270 
#    y 0.136370 4.652680 0.259750 
#    z 0.058270 0.259750 5.019040 
# 
# 
# High freq. dielectric constant tensor:
#      x y z
#    x 2.013710 0.004160 0.010290 
#    y 0.004160 2.021740 0.014650 
#    z 0.010290 0.014650 2.009660 
# 
# From -- ./inp_files/1738.got.cif
#   From: 2010.03.12/outbox.cif.g09.slc.cpg/sg1_1_cif.got.tgz:1738.got - 2010.03.29 11:57:58.
