data_PCOD8000853
_publ_section_title
;
Structure prediction by ZEFSAII (Michael W. Deem and Ramdas Pophale) SiO2 
 PCOD8000853
Probable space group: P -1
;
_chemical_formula_sum "Si O2"
_cell_formula_units_Z 16
_cell_length_a 19.661794
_cell_length_b 6.447667
_cell_length_c 10.082968
_cell_angle_alpha 133.237958
_cell_angle_beta 113.927716
_cell_angle_gamma 52.895066
_cell_volume 742.613398
_symmetry_space_group_name_H-M "P -1"
_symmetry_group_IT_number 2
_symmetry_cell_setting 'triclinic'
loop_
_space_group_symop_operation_xyz
x,y,z
-x,-y,-z
loop_
_atom_site_type_symbol
_atom_site_label
_atom_site_fract_x
_atom_site_fract_y
_atom_site_fract_z
Si Si1 0.219831 0.080287 0.773669
Si Si2 0.633009 0.826069 0.103266
Si Si3 0.458489 0.408866 0.585638
Si Si4 0.765719 0.950355 0.528213
Si Si5 0.943717 0.423806 0.521098
Si Si6 0.344709 0.403037 0.708197
Si Si7 0.039109 0.267985 0.802123
Si Si8 0.395968 0.478637 0.287716
O O1 0.207993 0.999902 0.576927
O O2 0.126192 0.275850 0.847421
O O3 0.276574 0.759340 0.763377
O O4 0.266996 0.298317 0.907760
O O5 0.581813 0.802834 0.926178
O O6 0.626448 0.603752 0.119023
O O7 0.593647 0.198171 0.280531
O O8 0.430399 0.256702 0.618819
O O9 0.432107 0.305589 0.381956
O O10 0.558287 0.306173 0.621717
O O11 0.848482 0.727560 0.582307
O O12 0.700454 0.813434 0.418976
O O13 0.707350 0.306432 0.701861
O O14 0.000000 0.500000 0.500000
O O15 0.975511 0.403355 0.686859
O O16 0.942258 0.102608 0.324028
O O17 0.000000 0.500000 0.000000
#
# Coordination Sequence:
#
# PCOD8000853 Si02
#       8
#     2   2   2   2   2   2   2   2
#     4  10  20  42  63  87 131 164 198 266 313 361
#     4  10  22  40  61  91 125 167 209 258 311 366
#     4  10  22  42  60  89 130 165 204 266 314 354
#     4  11  21  41  64  90 124 167 206 253 318 369
#     4  11  24  43  68  93 133 168 205 270 321 375
#     4  10  19  40  64  83 129 166 198 257 314 358
#     4  11  25  43  66 100 126 165 217 262 320 389
#     4  11  22  40  63  93 124 164 215 254 309 384
#
# _framework density 21.545529999999999
#
# number of rings (size 3 to 8) (size 9 to 14) (size 15 to 20)
#    0.000    1.500    6.250    0.375    0.000    3.500 
#    6.750    0.000    0.000    0.000    0.000    0.000 
#    0.000    0.000    0.000    0.000    0.000    0.000 
#
# Total GULP energy -198310.002762 kJ/mol
# GULP energy per Si atom -12394.375173 kJ/mol
# Density = 2.149649 g / cm^3
# Si number density = 21.545530 Si / 1000 Ang^3
#
#
#
# Elastic Constant Matrix: (Units=GPa)
#
#
# Indices 1 2 3 4 5 6 
#
# 1 128.0121 16.4820 36.0295 -8.4495 -31.5603 4.9696
# 2 16.4820 55.5060 22.5496 -19.7799 -12.3799 14.9250
# 3 36.0295 22.5496 118.4412 -28.5695 -11.3930 9.7821
# 4 -8.4495 -19.7799 -28.5695 20.5610 -1.6649 -4.7136
# 5 -31.5603 -12.3799 -11.3930 -1.6649 27.6371 -0.0700
# 6 4.9696 14.9250 9.7821 -4.7136 -0.0700 39.5661
#
#
#
# Elastic Compliance Matrix: (Units=1/GPa)
#
#
# Indices 1 2 3 4 5 6 
#
# 1 0.011975 0.003567 -0.000709 0.008239 0.015473 -0.001665
# 2 0.003567 0.041983 0.007037 0.051247 0.028837 -0.011868
# 3 -0.000709 0.007037 0.015277 0.027852 0.010311 -0.003006
# 4 0.008239 0.051247 0.027852 0.141912 0.052368 -0.010253
# 5 0.015473 0.028837 0.010311 0.052368 0.074152 -0.009001
# 6 -0.001665 -0.011868 -0.003006 -0.010253 -0.009001 0.029466
#
#
# Mechanical properties :
#
#
# Convention : Reuss Voigt Hill
#
# Bulk Modulus (GPa) = 11.23263 50.23126 30.73195
# Shear Modulus (GPa) = 15.40119 32.67938 24.04029
#
# Velocity S-wave (km/s) = 2.67651 3.89878 3.34397
# Velocity P-wave (km/s) = 3.84401 6.60545 5.40409
#
# Compressibility (1/GPa) = 0.08902631
#
# Stress axis : x y z
#
# Youngs Moduli (GPa) = 83.50669 23.81907 65.45705
#
# Poissons Ratio (x) = -0.08495 0.04639
# Poissons Ratio (y) = -0.29784 -0.46065
# Poissons Ratio (z) = 0.05918 -0.16763
#
# Static dielectric constant tensor:
#      x y z
#    x 4.431680 -0.141830 -0.150570 
#    y -0.141830 4.431080 -0.239340 
#    z -0.150570 -0.239340 3.728160 
# 
# 
# High freq. dielectric constant tensor:
#      x y z
#    x 1.864430 -0.005680 -0.011060 
#    y -0.005680 1.848790 -0.011910 
#    z -0.011060 -0.011910 1.825870 
# 
# From -- ./inp_files/339969.got.cif
#   From: 2010.06.25/outbox.cif.g09.slc.cpg/sg2_170_cif.got.tgz:339969.got - 2010.06.27 13:26:56.
