data_PCOD8000950
_publ_section_title
;
Structure prediction by ZEFSAII (Michael W. Deem and Ramdas Pophale) SiO2 
 PCOD8000950
Probable space group: P -1
;
_chemical_formula_sum "Si O2"
_cell_formula_units_Z 16
_cell_length_a 10.512313
_cell_length_b 19.138370
_cell_length_c 17.310853
_cell_angle_alpha 25.117244
_cell_angle_beta 134.597468
_cell_angle_gamma 147.611835
_cell_volume 761.397084
_symmetry_space_group_name_H-M "P -1"
_symmetry_group_IT_number 2
_symmetry_cell_setting 'triclinic'
loop_
_space_group_symop_operation_xyz
x,y,z
-x,-y,-z
loop_
_atom_site_type_symbol
_atom_site_label
_atom_site_fract_x
_atom_site_fract_y
_atom_site_fract_z
Si Si1 0.259317 0.307483 0.379561
Si Si2 0.435447 0.779169 0.016591
Si Si3 0.276051 0.891118 0.067655
Si Si4 0.283448 0.591756 0.482904
Si Si5 0.759944 0.805884 0.689460
Si Si6 0.354246 0.783239 0.603297
Si Si7 0.229619 0.821131 0.350460
Si Si8 0.004045 0.683250 0.013266
O O1 0.293400 0.520493 0.200553
O O2 0.455457 0.334182 0.490155
O O3 0.306333 0.303919 0.313368
O O4 0.983056 0.079258 0.511430
O O5 0.242313 0.795769 0.947979
O O6 0.655185 0.913687 0.040604
O O7 0.568091 0.918977 0.853853
O O8 0.225877 0.693204 0.292621
O O9 0.057939 0.794211 0.011137
O O10 0.500000 0.000000 0.000000
O O11 0.290839 0.681435 0.480142
O O12 0.055198 0.316050 0.657207
O O13 0.520628 0.738731 0.689404
O O14 0.827863 0.695317 0.881941
O O15 0.247929 0.822597 0.448358
O O16 0.134039 0.575739 0.770443
O O17 0.500000 0.000000 0.500000
#
# Coordination Sequence:
#
# PCOD8000950 Si02
#       8
#     2   2   2   2   2   2   2   2
#     4  11  23  41  65  97 127 162 221 263 307 376
#     4  10  23  39  66  98 123 166 213 265 313 370
#     4   9  18  37  63  89 121 164 205 254 315 371
#     4  10  19  40  67  89 125 168 212 259 314 374
#     4  11  25  42  64  91 129 175 208 258 317 381
#     4  12  25  43  64  95 132 166 213 261 318 379
#     4  10  21  40  66  93 122 169 213 258 316 373
#     4  11  23  44  64  92 132 170 210 254 323 382
#
# _framework density 21.014001
#
# number of rings (size 3 to 8) (size 9 to 14) (size 15 to 20)
#    0.000    1.500    2.500    3.375    3.500    1.000 
#    2.250    3.125    0.000    0.000    0.000    0.000 
#    0.000    0.000    0.000    0.000    0.000    0.000 
#
# Total GULP energy -198314.245450 kJ/mol
# GULP energy per Si atom -12394.640341 kJ/mol
# Density = 2.096617 g / cm^3
# Si number density = 21.014001 Si / 1000 Ang^3
#
#
#
# Elastic Constant Matrix: (Units=GPa)
#
#
# Indices 1 2 3 4 5 6 
#
# 1 44.8917 14.1588 17.1767 -3.1872 -4.9253 -5.3926
# 2 14.1588 84.5674 27.5292 -4.3696 2.0432 -14.2250
# 3 17.1767 27.5292 82.3625 -11.6203 -14.7170 -21.9155
# 4 -3.1872 -4.3696 -11.6203 39.5882 -1.3176 0.1053
# 5 -4.9253 2.0432 -14.7170 -1.3176 33.1606 -2.2837
# 6 -5.3926 -14.2250 -21.9155 0.1053 -2.2837 32.9219
#
#
#
# Elastic Compliance Matrix: (Units=1/GPa)
#
#
# Indices 1 2 3 4 5 6 
#
# 1 0.024941 -0.002944 -0.003517 0.000729 0.002398 0.000636
# 2 -0.002944 0.014120 -0.003828 0.000097 -0.002804 0.002876
# 3 -0.003517 -0.003828 0.019653 0.005347 0.009439 0.011490
# 4 0.000729 0.000097 0.005347 0.027015 0.003817 0.003899
# 5 0.002398 -0.002804 0.009439 0.003817 0.035571 0.007920
# 6 0.000636 0.002876 0.011490 0.003899 0.007920 0.039907
#
#
# Mechanical properties :
#
#
# Convention : Reuss Voigt Hill
#
# Bulk Modulus (GPa) = 26.22154 36.61678 31.41916
# Shear Modulus (GPa) = 25.70709 31.33127 28.51918
#
# Velocity S-wave (km/s) = 3.50141 3.86550 3.68795
# Velocity P-wave (km/s) = 5.37138 6.11437 5.75488
#
# Compressibility (1/GPa) = 0.03813658
#
# Stress axis : x y z
#
# Youngs Moduli (GPa) = 40.09404 70.81937 50.88379
#
# Poissons Ratio (x) = 0.20851 0.17895
# Poissons Ratio (y) = 0.11805 0.19477
# Poissons Ratio (z) = 0.14101 0.27108
#
# Static dielectric constant tensor:
#      x y z
#    x 3.371870 1.311910 0.149870 
#    y 1.311910 -0.892890 -1.701670 
#    z 0.149870 -1.701670 3.098280 
# 
# 
# High freq. dielectric constant tensor:
#      x y z
#    x 1.805550 -0.004550 -0.027160 
#    y -0.004550 1.841900 -0.011960 
#    z -0.027160 -0.011960 1.813790 
# 
# From -- ./inp_files/429129.got.cif
#   From: 2010.06.25/outbox.cif.g09.slc.cpg/sg2_215_cif.got.tgz:429129.got - 2010.06.27 13:26:56.
