data_PCOD8000240
_publ_section_title
;
Structure prediction by ZEFSAII (Michael W. Deem and Ramdas Pophale) SiO2 
 PCOD8000240
Probable space group: P 1
;
_chemical_formula_sum "Si O2"
_cell_formula_units_Z 8
_cell_length_a 4.829965
_cell_length_b 5.385652
_cell_length_c 14.411869
_cell_angle_alpha 50.717064
_cell_angle_beta 83.573345
_cell_angle_gamma 84.470912
_cell_volume 288.193053
_symmetry_space_group_name_H-M "P 1"
_symmetry_group_IT_number 1
_symmetry_cell_setting 'triclinic'
loop_
_space_group_symop_operation_xyz
x,y,z
loop_
_atom_site_type_symbol
_atom_site_label
_atom_site_fract_x
_atom_site_fract_y
_atom_site_fract_z
Si Si1 0.225260 0.427690 0.731190
Si Si2 0.251967 0.832262 0.972692
Si Si3 0.757363 0.336072 0.512216
Si Si4 0.683051 0.691110 0.764284
Si Si5 0.908093 0.322125 0.005722
Si Si6 0.239889 0.692468 0.471854
Si Si7 0.587449 0.737675 0.156020
Si Si8 0.081960 0.367949 0.309576
O O1 0.368611 0.607738 0.769555
O O2 0.339563 0.599365 0.594508
O O3 0.893799 0.476643 0.742591
O O4 0.311809 0.042770 0.826838
O O5 0.101396 0.500260 0.031204
O O6 0.529220 0.742715 0.044668
O O7 0.075306 0.081902 0.985722
O O8 0.456668 0.471630 0.454810
O O9 0.916919 0.616133 0.492088
O O10 0.948746 0.246779 0.438800
O O11 0.739565 0.058767 0.654049
O O12 0.732677 0.603537 0.891089
O O13 0.681816 0.079627 0.114529
O O14 0.268622 0.054191 0.348515
O O15 0.298779 0.656195 0.238853
O O16 0.835166 0.469951 0.224294
#
# Coordination Sequence:
#
# PCOD8000240 Si02
#       8
#     1   1   1   1   1   1   1   1
#     4  11  23  45  78 115 162 202 257 339 414 490
#     4  11  26  52  82 121 164 213 270 341 416 489
#     4  12  26  47  78 117 152 212 265 333 409 483
#     4  11  23  45  78 115 162 202 257 339 414 490
#     4  11  26  52  82 121 164 213 270 341 416 489
#     4  12  26  47  78 117 152 212 265 333 409 483
#     4  12  26  54  76 116 158 226 270 338 398 486
#     4  12  28  52  78 110 166 212 278 332 398 478
#
# _framework density 27.759172
#
# number of rings (size 3 to 8) (size 9 to 14) (size 15 to 20)
#    0.000    0.500    3.750    3.750    1.750    4.000 
#    9.000    0.000    0.000    0.000    0.000    0.000 
#    0.000    0.000    0.000    0.000    0.000    0.000 
#
# Total GULP energy -99156.248474 kJ/mol
# GULP energy per Si atom -12394.531059 kJ/mol
# Density = 2.769599 g / cm^3
# Si number density = 27.759172 Si / 1000 Ang^3
#
#
#
# Elastic Constant Matrix: (Units=GPa)
#
#
# Indices 1 2 3 4 5 6 
#
# 1 122.5007 23.9982 65.7382 -19.7994 11.3911 20.9195
# 2 23.9982 96.6976 39.4877 -21.2042 6.6977 37.3417
# 3 65.7382 39.4877 181.9437 -30.9949 15.2712 12.6836
# 4 -19.7994 -21.2042 -30.9949 38.5108 6.2498 -3.1647
# 5 11.3911 6.6977 15.2712 6.2498 55.3733 -6.7826
# 6 20.9195 37.3417 12.6836 -3.1647 -6.7826 44.5054
#
#
#
# Elastic Compliance Matrix: (Units=1/GPa)
#
#
# Indices 1 2 3 4 5 6 
#
# 1 0.011565 0.002123 -0.003158 0.004540 -0.003069 -0.006462
# 2 0.002123 0.019762 -0.001655 0.010137 -0.005627 -0.017244
# 3 -0.003158 -0.001655 0.007779 0.004054 -0.001669 0.000690
# 4 0.004540 0.010137 0.004054 0.037716 -0.008816 -0.010456
# 5 -0.003069 -0.005627 -0.001669 -0.008816 0.021973 0.009361
# 6 -0.006462 -0.017244 0.000690 -0.010456 0.009361 0.040462
#
#
# Mechanical properties :
#
#
# Convention : Reuss Voigt Hill
#
# Bulk Modulus (GPa) = 29.65006 73.28780 51.46893
# Shear Modulus (GPa) = 32.07637 45.80574 38.94106
#
# Velocity S-wave (km/s) = 3.40299 4.06656 3.74948
# Velocity P-wave (km/s) = 5.11320 6.96476 6.10953
#
# Compressibility (1/GPa) = 0.03372674
#
# Stress axis : x y z
#
# Youngs Moduli (GPa) = 86.47120 50.60140 128.55542
#
# Poissons Ratio (x) = -0.10743 0.40593
# Poissons Ratio (y) = -0.18358 0.21274
# Poissons Ratio (z) = 0.27305 0.08374
#
# Static dielectric constant tensor:
#      x y z
#    x 5.202750 0.095150 -0.013450 
#    y 0.095150 4.514400 -0.045200 
#    z -0.013450 -0.045200 5.572580 
# 
# 
# High freq. dielectric constant tensor:
#      x y z
#    x 2.137450 0.004260 0.004340 
#    y 0.004260 2.090740 -0.007820 
#    z 0.004340 -0.007820 2.142570 
# 
# From -- ./inp_files/7356.got.cif
#   From: 2010.03.12/outbox.cif.g09.slc.cpg/sg1_4_cif.got.tgz:7356.got - 2010.03.29 11:57:58.
