data_PCOD8000545
_publ_section_title
;
Structure prediction by ZEFSAII (Michael W. Deem and Ramdas Pophale) SiO2 
 PCOD8000545
Probable space group: P -1
;
_chemical_formula_sum "Si O2"
_cell_formula_units_Z 12
_cell_length_a 7.996141
_cell_length_b 15.022505
_cell_length_c 10.536894
_cell_angle_alpha 26.299646
_cell_angle_beta 109.781358
_cell_angle_gamma 109.627165
_cell_volume 526.096700
_symmetry_space_group_name_H-M "P -1"
_symmetry_group_IT_number 2
_symmetry_cell_setting 'triclinic'
loop_
_space_group_symop_operation_xyz
x,y,z
-x,-y,-z
loop_
_atom_site_type_symbol
_atom_site_label
_atom_site_fract_x
_atom_site_fract_y
_atom_site_fract_z
Si Si1 0.990047 0.408727 0.314744
Si Si2 0.661299 0.384009 0.741849
Si Si3 0.146410 0.179428 0.283976
Si Si4 0.136220 0.999687 0.247086
Si Si5 0.101984 0.706344 0.300641
Si Si6 0.476414 0.988363 0.659108
O O1 0.973893 0.213670 0.465051
O O2 0.854135 0.320156 0.505355
O O3 0.187434 0.459890 0.356319
O O4 0.915896 0.600242 0.981018
O O5 0.500000 0.500000 0.500000
O O6 0.732246 0.260935 0.796292
O O7 0.598355 0.231810 0.031797
O O8 0.172802 0.162312 0.161083
O O9 0.327710 0.146418 0.450880
O O10 0.000000 0.000000 0.500000
O O11 0.332017 0.954914 0.299351
O O12 0.021176 0.106670 0.976779
O O13 0.000000 0.500000 0.500000
O O14 0.500000 0.000000 0.500000
#
# Coordination Sequence:
#
# PCOD8000545 Si02
#       6
#     2   2   2   2   2   2
#     4  11  23  39  66  94 120 168 209 259 308 370
#     4  11  22  40  66  91 123 169 209 254 318 372
#     4  11  21  42  62  86 131 168 208 250 318 368
#     4  11  22  40  65  92 125 159 214 259 309 365
#     4  10  19  39  64  86 125 163 201 256 317 365
#     4  10  22  38  63  90 126 167 203 257 310 373
#
# _framework density 22.809493
#
# number of rings (size 3 to 8) (size 9 to 14) (size 15 to 20)
#    0.000    1.333    5.000    2.500    2.333    1.333 
#    0.000    5.000    0.000    0.000    0.000    0.000 
#    0.000    0.000    0.000    0.000    0.000    0.000 
#
# Total GULP energy -148657.804621 kJ/mol
# GULP energy per Si atom -12388.150385 kJ/mol
# Density = 2.275758 g / cm^3
# Si number density = 22.809493 Si / 1000 Ang^3
#
#
#
# Elastic Constant Matrix: (Units=GPa)
#
#
# Indices 1 2 3 4 5 6 
#
# 1 112.0577 12.7068 56.7436 11.3916 15.4368 34.2111
# 2 12.7068 35.7948 21.0972 -16.9452 7.5952 15.4203
# 3 56.7436 21.0972 180.1262 -6.4235 19.0354 15.6774
# 4 11.3916 -16.9452 -6.4235 36.0245 -1.0492 -6.0178
# 5 15.4368 7.5952 19.0354 -1.0492 57.7624 13.0118
# 6 34.2111 15.4203 15.6774 -6.0178 13.0118 24.4980
#
#
#
# Elastic Compliance Matrix: (Units=1/GPa)
#
#
# Indices 1 2 3 4 5 6 
#
# 1 0.022845 0.003947 -0.005308 -0.012163 0.002906 -0.035522
# 2 0.003947 0.049569 -0.003893 0.016270 0.000925 -0.030716
# 3 -0.005308 -0.003893 0.007382 0.002232 -0.001980 0.006739
# 4 -0.012163 0.016270 0.002232 0.042449 -0.002726 0.017192
# 5 0.002906 0.000925 -0.001980 -0.002726 0.020364 -0.014859
# 6 -0.035522 -0.030716 0.006739 0.017192 -0.014859 0.117562
#
#
# Mechanical properties :
#
#
# Convention : Reuss Voigt Hill
#
# Bulk Modulus (GPa) = 14.43281 56.56377 35.49829
# Shear Modulus (GPa) = 17.01980 39.48574 28.25277
#
# Velocity S-wave (km/s) = 2.73458 4.16517 3.52325
# Velocity P-wave (km/s) = 4.03879 6.92703 5.66990
#
# Compressibility (1/GPa) = 0.06928656
#
# Stress axis : x y z
#
# Youngs Moduli (GPa) = 43.77256 20.17404 135.46232
#
# Poissons Ratio (x) = -0.07962 0.71906
# Poissons Ratio (y) = -0.17275 0.52738
# Poissons Ratio (z) = 0.23235 0.07854
#
# Static dielectric constant tensor:
#      x y z
#    x 5.276630 -0.960920 0.032350 
#    y -0.960920 5.760890 0.350480 
#    z 0.032350 0.350480 4.300480 
# 
# 
# High freq. dielectric constant tensor:
#      x y z
#    x 1.899160 0.002690 -0.000290 
#    y 0.002690 1.872900 0.008650 
#    z -0.000290 0.008650 1.919450 
# 
# From -- ./inp_files/157051.got.cif
#   From: 2010.06.25/outbox.cif.g09.slc.cpg/sg2_79_cif.got.tgz:157051.got - 2010.06.27 13:26:56.
