data_PCOD8000813
_publ_section_title
;
Structure prediction by ZEFSAII (Michael W. Deem and Ramdas Pophale) SiO2 
 PCOD8000813
Probable space group: P -1
;
_chemical_formula_sum "Si O2"
_cell_formula_units_Z 16
_cell_length_a 8.578843
_cell_length_b 9.103705
_cell_length_c 15.216115
_cell_angle_alpha 90.755723
_cell_angle_beta 102.450954
_cell_angle_gamma 45.416043
_cell_volume 810.004925
_symmetry_space_group_name_H-M "P -1"
_symmetry_group_IT_number 2
_symmetry_cell_setting 'triclinic'
loop_
_space_group_symop_operation_xyz
x,y,z
-x,-y,-z
loop_
_atom_site_type_symbol
_atom_site_label
_atom_site_fract_x
_atom_site_fract_y
_atom_site_fract_z
Si Si1 0.183594 0.506167 0.278933
Si Si2 0.602854 0.102091 0.608715
Si Si3 0.645879 0.243227 0.100816
Si Si4 0.164491 0.484686 0.080162
Si Si5 0.703295 0.291316 0.921561
Si Si6 0.884053 0.114387 0.763279
Si Si7 0.554170 0.104032 0.411362
Si Si8 0.130302 0.348350 0.597679
O O1 0.111078 0.487259 0.175833
O O2 0.180692 0.683769 0.279549
O O3 0.447141 0.287685 0.329417
O O4 0.017238 0.545787 0.331471
O O5 0.812848 0.039036 0.683348
O O6 0.585279 0.172726 0.506962
O O7 0.364771 0.289419 0.634246
O O8 0.635067 0.903729 0.601631
O O9 0.432556 0.271806 0.090019
O O10 0.555795 0.470478 0.107507
O O11 0.741186 0.166742 0.011688
O O12 0.843934 0.075056 0.192032
O O13 0.119146 0.687546 0.057381
O O14 0.000000 0.500000 0.000000
O O15 0.750238 0.166568 0.838514
O O16 0.796537 0.872195 0.409523
O O17 0.000000 0.500000 0.500000
#
# Coordination Sequence:
#
# PCOD8000813 Si02
#       8
#     2   2   2   2   2   2   2   2
#     4  11  22  37  61  84 128 147 186 254 295 333
#     4   9  20  39  61  83 114 149 205 237 277 357
#     4   9  19  39  58  77 123 157 183 239 295 341
#     4   9  20  37  57  86 115 154 191 234 288 346
#     4   8  19  39  55  80 120 152 189 243 283 342
#     4  11  22  36  58  95 113 150 198 243 291 343
#     4   9  20  41  57  82 119 151 195 239 288 342
#     4  10  19  40  62  81 113 161 193 239 288 341
#
# _framework density 19.752967000000002
#
# number of rings (size 3 to 8) (size 9 to 14) (size 15 to 20)
#    1.500    1.000    1.250    0.375    1.750    2.500 
#    4.500    3.125    0.000    0.000    0.000    0.000 
#    0.000    0.000    0.000    0.000    0.000    0.000 
#
# Total GULP energy -198209.432438 kJ/mol
# GULP energy per Si atom -12388.089527 kJ/mol
# Density = 1.970801 g / cm^3
# Si number density = 19.752967 Si / 1000 Ang^3
#
#
#
# Elastic Constant Matrix: (Units=GPa)
#
#
# Indices 1 2 3 4 5 6 
#
# 1 57.8165 29.6373 66.6956 -4.0311 0.7063 -12.7232
# 2 29.6373 86.3481 57.0313 -18.6088 0.2455 -4.8764
# 3 66.6956 57.0313 165.9910 0.9993 6.6884 -9.2387
# 4 -4.0311 -18.6088 0.9993 38.0577 -4.4725 -7.4929
# 5 0.7063 0.2455 6.6884 -4.4725 36.7379 3.4647
# 6 -12.7232 -4.8764 -9.2387 -7.4929 3.4647 28.4314
#
#
#
# Elastic Compliance Matrix: (Units=1/GPa)
#
#
# Indices 1 2 3 4 5 6 
#
# 1 0.037508 -0.001579 -0.013867 0.006383 0.001315 0.013530
# 2 -0.001579 0.017979 -0.005513 0.009548 0.001804 0.002882
# 3 -0.013867 -0.005513 0.013401 -0.005585 -0.002442 -0.003970
# 4 0.006383 0.009548 -0.005585 0.034453 0.003961 0.011277
# 5 0.001315 0.001804 -0.002442 0.003961 0.028327 -0.002304
# 6 0.013530 0.002882 -0.003970 0.011277 -0.002304 0.043684
#
#
# Mechanical properties :
#
#
# Convention : Reuss Voigt Hill
#
# Bulk Modulus (GPa) = 37.07583 68.54268 52.80925
# Shear Modulus (GPa) = 22.09845 31.09816 26.59830
#
# Velocity S-wave (km/s) = 3.34839 3.97212 3.67351
# Velocity P-wave (km/s) = 5.81029 7.47076 6.69222
#
# Compressibility (1/GPa) = 0.02697175
#
# Stress axis : x y z
#
# Youngs Moduli (GPa) = 26.66069 55.61910 74.62050
#
# Poissons Ratio (x) = 0.08784 1.03474
# Poissons Ratio (y) = 0.04211 0.41135
# Poissons Ratio (z) = 0.36970 0.30661
#
# Static dielectric constant tensor:
#      x y z
#    x 3.167010 -0.108900 -0.265250 
#    y -0.108900 3.542540 -0.004060 
#    z -0.265250 -0.004060 3.493520 
# 
# 
# High freq. dielectric constant tensor:
#      x y z
#    x 1.727530 -0.009860 -0.024740 
#    y -0.009860 1.769000 -0.003250 
#    z -0.024740 -0.003250 1.769710 
# 
# From -- ./inp_files/499196.got.cif
#   From: 2010.06.25/outbox.cif.g09.slc.cpg/sg2_250_cif.got.tgz:499196.got - 2010.06.27 13:26:56.
