data_PCOD8000112
_publ_section_title
;
Structure prediction by ZEFSAII (Michael W. Deem and Ramdas Pophale) SiO2 
 PCOD8000112
Probable space group: P 1
;
_chemical_formula_sum "Si O2"
_cell_formula_units_Z 8
_cell_length_a 13.876558
_cell_length_b 9.773313
_cell_length_c 16.730180
_cell_angle_alpha 154.918195
_cell_angle_beta 156.068038
_cell_angle_gamma 31.465295
_cell_volume 385.984185
_symmetry_space_group_name_H-M "P 1"
_symmetry_group_IT_number 1
_symmetry_cell_setting 'triclinic'
loop_
_space_group_symop_operation_xyz
x,y,z
loop_
_atom_site_type_symbol
_atom_site_label
_atom_site_fract_x
_atom_site_fract_y
_atom_site_fract_z
Si Si1 0.836250 0.430810 0.953270
Si Si2 0.594047 0.254974 0.821196
Si Si3 0.864540 0.183843 0.546032
Si Si4 0.738981 0.871949 0.880589
Si Si5 0.492549 0.919816 0.034002
Si Si6 0.959394 0.942077 0.651978
Si Si7 0.188194 0.901542 0.504381
Si Si8 0.073597 0.223706 0.425697
O O1 0.783020 0.181057 0.851932
O O2 0.624590 0.747045 0.963079
O O3 0.827689 0.236980 0.762010
O O4 0.090208 0.560312 0.229573
O O5 0.518498 0.645526 0.978826
O O6 0.344178 0.112579 0.537973
O O7 0.722937 0.132769 0.935559
O O8 0.886838 0.540811 0.783589
O O9 0.830084 0.948114 0.471184
O O10 0.097867 0.038525 0.594813
O O11 0.631302 0.207155 0.323665
O O12 0.475629 0.823217 0.685375
O O13 0.893911 0.989263 0.131961
O O14 0.216279 0.046528 0.877486
O O15 0.971153 0.597325 0.522886
O O16 0.093204 0.175537 0.510758
#
# Coordination Sequence:
#
# PCOD8000112 Si02
#       8
#     1   1   1   1   1   1   1   1
#     4   9  19  39  62  85 112 154 194 237 288 339
#     4   8  19  40  61  82 119 152 190 239 292 332
#     4  11  23  36  61  89 115 153 196 234 291 345
#     4  11  22  40  59  87 123 152 189 244 286 347
#     4   8  19  39  57  84 116 149 189 244 280 337
#     4  11  21  37  62  88 113 155 195 234 290 346
#     4  10  23  41  60  87 117 152 195 242 289 337
#     4  10  22  40  60  86 121 153 190 240 290 345
#
# _framework density 20.726237999999999
#
# number of rings (size 3 to 8) (size 9 to 14) (size 15 to 20)
#    0.750    1.500    0.000    2.250    1.750    4.000 
#    2.250    1.250    0.000    0.000    0.000    0.000 
#    0.000    0.000    0.000    0.000    0.000    0.000 
#
# Total GULP energy -99120.166728 kJ/mol
# GULP energy per Si atom -12390.020841 kJ/mol
# Density = 2.067906 g / cm^3
# Si number density = 20.726238 Si / 1000 Ang^3
#
#
#
# Elastic Constant Matrix: (Units=GPa)
#
#
# Indices 1 2 3 4 5 6 
#
# 1 119.8013 23.1410 43.0814 3.9389 -7.7660 -6.9134
# 2 23.1410 52.8327 18.7529 5.7769 -11.6549 0.9291
# 3 43.0814 18.7529 98.0888 -2.7413 -0.9219 -12.9432
# 4 3.9389 5.7769 -2.7413 26.6987 -4.7175 0.1683
# 5 -7.7660 -11.6549 -0.9219 -4.7175 35.1650 3.2355
# 6 -6.9134 0.9291 -12.9432 0.1683 3.2355 26.2048
#
#
#
# Elastic Compliance Matrix: (Units=1/GPa)
#
#
# Indices 1 2 3 4 5 6 
#
# 1 0.010476 -0.002832 -0.003980 -0.001162 0.001043 0.000777
# 2 -0.002832 0.023577 -0.003877 -0.003822 0.006973 -0.004334
# 3 -0.003980 -0.003877 0.013525 0.002417 -0.002037 0.006004
# 4 -0.001162 -0.003822 0.002417 0.039370 0.003794 0.000301
# 5 0.001043 0.006973 -0.002037 0.003794 0.031889 -0.004940
# 6 0.000777 -0.004334 0.006004 0.000301 -0.004940 0.042093
#
#
# Mechanical properties :
#
#
# Convention : Reuss Voigt Hill
#
# Bulk Modulus (GPa) = 38.16856 48.96369 43.56613
# Shear Modulus (GPa) = 26.17249 29.99688 28.08468
#
# Velocity S-wave (km/s) = 3.55740 3.80845 3.68507
# Velocity P-wave (km/s) = 5.94382 6.55854 6.25873
#
# Compressibility (1/GPa) = 0.02619957
#
# Stress axis : x y z
#
# Youngs Moduli (GPa) = 95.45532 42.41473 73.93963
#
# Poissons Ratio (x) = 0.12014 0.29426
# Poissons Ratio (y) = 0.27038 0.28664
# Poissons Ratio (z) = 0.37989 0.16443
#
# Static dielectric constant tensor:
#      x y z
#    x 3.739810 0.058870 0.220990 
#    y 0.058870 3.456440 -0.055420 
#    z 0.220990 -0.055420 3.685890 
# 
# 
# High freq. dielectric constant tensor:
#      x y z
#    x 1.812080 0.005530 0.008970 
#    y 0.005530 1.791530 -0.004220 
#    z 0.008970 -0.004220 1.806340 
# 
# From -- ./inp_files/3054.got.cif
#   From: 2010.03.12/outbox.cif.g09.slc.cpg/sg1_2_cif.got.tgz:3054.got - 2010.03.29 11:57:58.
