data_PCOD8000953
_publ_section_title
;
Structure prediction by ZEFSAII (Michael W. Deem and Ramdas Pophale) SiO2 
 PCOD8000953
Probable space group: P -1
;
_chemical_formula_sum "Si O2"
_cell_formula_units_Z 14
_cell_length_a 10.837143
_cell_length_b 11.710369
_cell_length_c 8.490713
_cell_angle_alpha 121.066495
_cell_angle_beta 43.871897
_cell_angle_gamma 117.475602
_cell_volume 632.379358
_symmetry_space_group_name_H-M "P -1"
_symmetry_group_IT_number 2
_symmetry_cell_setting 'triclinic'
loop_
_space_group_symop_operation_xyz
x,y,z
-x,-y,-z
loop_
_atom_site_type_symbol
_atom_site_label
_atom_site_fract_x
_atom_site_fract_y
_atom_site_fract_z
Si Si1 0.309903 0.861727 0.862827
Si Si2 0.739351 0.246055 0.827931
Si Si3 0.394032 0.263874 0.671091
Si Si4 0.935817 0.625402 0.561185
Si Si5 0.471596 0.451312 0.168145
Si Si6 0.022654 0.158488 0.051502
Si Si7 0.499770 0.100357 0.717582
O O1 0.493504 0.804671 0.611057
O O2 0.156795 0.803883 0.837634
O O3 0.352634 0.025555 0.923891
O O4 0.244312 0.825367 0.072195
O O5 0.692384 0.134193 0.652500
O O6 0.927974 0.336737 0.682240
O O7 0.570297 0.327312 0.039295
O O8 0.438704 0.423947 0.716004
O O9 0.445990 0.235795 0.787207
O O10 0.183486 0.201243 0.807240
O O11 0.741458 0.585911 0.631462
O O12 0.000000 0.500000 0.500000
O O13 0.937339 0.751303 0.765793
O O14 0.500000 0.500000 0.000000
O O15 0.000000 0.000000 0.000000
O O16 0.500000 0.000000 0.500000
#
# Coordination Sequence:
#
# PCOD8000953 Si02
#       7
#     2   2   2   2   2   2   2
#     4  11  26  41  63 100 142 173 207 278 352 391
#     4  12  25  42  65 102 137 169 218 282 338 391
#     4  11  22  44  71  96 129 178 229 268 326 406
#     4  12  23  43  73  96 129 179 234 276 325 404
#     4  12  22  42  71  98 124 174 235 275 318 398
#     4  12  24  41  70 101 130 177 234 273 324 407
#     4  10  19  40  67  90 126 176 219 261 318 400
#
# _framework density 22.13861
#
# number of rings (size 3 to 8) (size 9 to 14) (size 15 to 20)
#    0.000    0.571    5.714    3.000    2.000    1.714 
#    0.000    5.714    0.000    0.000    0.000    0.000 
#    0.000    0.000    0.000    0.000    0.000    0.000 
#
# Total GULP energy -173550.853760 kJ/mol
# GULP energy per Si atom -12396.489554 kJ/mol
# Density = 2.208822 g / cm^3
# Si number density = 22.138610 Si / 1000 Ang^3
#
#
#
# Elastic Constant Matrix: (Units=GPa)
#
#
# Indices 1 2 3 4 5 6 
#
# 1 59.7609 37.9476 24.5280 -11.9655 -11.9264 5.3596
# 2 37.9476 133.1796 45.0835 -13.1344 2.9770 13.8633
# 3 24.5280 45.0835 94.3883 -21.7786 -17.4946 3.6292
# 4 -11.9655 -13.1344 -21.7786 49.6816 5.0360 -0.9880
# 5 -11.9264 2.9770 -17.4946 5.0360 40.1034 -15.2101
# 6 5.3596 13.8633 3.6292 -0.9880 -15.2101 38.6299
#
#
#
# Elastic Compliance Matrix: (Units=1/GPa)
#
#
# Indices 1 2 3 4 5 6 
#
# 1 0.022983 -0.006305 -0.001065 0.002703 0.007302 0.002119
# 2 -0.006305 0.011778 -0.005095 -0.000030 -0.007122 -0.005678
# 3 -0.001065 -0.005095 0.015640 0.004545 0.007700 0.003655
# 4 0.002703 -0.000030 0.004545 0.022776 -0.000177 -0.000279
# 5 0.007302 -0.007122 0.007700 -0.000177 0.036826 0.015315
# 6 0.002119 -0.005678 0.003655 -0.000279 0.015315 0.033310
#
#
# Mechanical properties :
#
#
# Convention : Reuss Voigt Hill
#
# Bulk Modulus (GPa) = 39.26288 55.82745 47.54517
# Shear Modulus (GPa) = 28.29115 37.66760 32.97938
#
# Velocity S-wave (km/s) = 3.57867 4.12933 3.86382
# Velocity P-wave (km/s) = 5.90333 6.92872 6.43648
#
# Compressibility (1/GPa) = 0.02546935
#
# Stress axis : x y z
#
# Youngs Moduli (GPa) = 43.51065 84.90762 63.93726
#
# Poissons Ratio (x) = 0.53537 0.06809
# Poissons Ratio (y) = 0.27435 0.32579
# Poissons Ratio (z) = 0.04634 0.43264
#
# Static dielectric constant tensor:
#      x y z
#    x 3.976340 0.176030 -0.260540 
#    y 0.176030 5.311290 -0.162380 
#    z -0.260540 -0.162380 3.907320 
# 
# 
# High freq. dielectric constant tensor:
#      x y z
#    x 1.849800 0.014850 -0.016900 
#    y 0.014850 1.894860 -0.005980 
#    z -0.016900 -0.005980 1.859350 
# 
# From -- ./inp_files/259799.got.cif
#   From: 2010.06.25/outbox.cif.g09.slc.cpg/sg2_130_cif.got.tgz:259799.got - 2010.06.27 13:26:56.
