data_PCOD8000358
_publ_section_title
;
Structure prediction by ZEFSAII (Michael W. Deem and Ramdas Pophale) SiO2 
 PCOD8000358
Probable space group: P -1
;
_chemical_formula_sum "Si O2"
_cell_formula_units_Z 16
_cell_length_a 7.917446
_cell_length_b 21.995024
_cell_length_c 20.371260
_cell_angle_alpha 160.707317
_cell_angle_beta 135.625743
_cell_angle_gamma 45.231488
_cell_volume 812.936492
_symmetry_space_group_name_H-M "P -1"
_symmetry_group_IT_number 2
_symmetry_cell_setting 'triclinic'
loop_
_space_group_symop_operation_xyz
x,y,z
-x,-y,-z
loop_
_atom_site_type_symbol
_atom_site_label
_atom_site_fract_x
_atom_site_fract_y
_atom_site_fract_z
Si Si1 0.054103 0.906593 0.123708
Si Si2 0.987929 0.298135 0.371233
Si Si3 0.098159 0.794647 0.339761
Si Si4 0.798723 0.538454 0.066806
Si Si5 0.248762 0.552463 0.895020
Si Si6 0.901324 0.719439 0.760367
Si Si7 0.643832 0.801369 0.522816
Si Si8 0.622429 0.160516 0.229261
O O1 0.298552 0.006898 0.300052
O O2 0.081302 0.731005 0.000598
O O3 0.827551 0.065553 0.241123
O O4 0.998422 0.850912 0.976363
O O5 0.019224 0.513169 0.598254
O O6 0.746267 0.268264 0.315117
O O7 0.993804 0.218841 0.217636
O O8 0.231063 0.198904 0.372028
O O9 0.358960 0.801162 0.451271
O O10 0.930475 0.716184 0.267463
O O11 0.102818 0.654631 0.137363
O O12 0.000000 0.000000 0.500000
O O13 0.861656 0.501630 0.122357
O O14 0.519163 0.599278 0.032189
O O15 0.239263 0.380031 0.668878
O O16 0.605107 0.716248 0.672768
O O17 0.500000 0.000000 0.000000
#
# Coordination Sequence:
#
# PCOD8000358 Si02
#       8
#     2   2   2   2   2   2   2   2
#     4  10  20  36  60  83 116 153 192 243 290 339
#     4  10  20  38  60  86 114 161 197 241 298 341
#     4  10  20  39  59  86 121 148 187 236 289 345
#     4   9  21  37  62  84 113 155 187 233 289 346
#     4  10  19  39  60  83 115 149 195 235 284 350
#     4  10  20  38  62  82 117 159 199 241 295 349
#     4  10  21  36  58  84 115 150 191 242 284 343
#     4   9  20  35  55  83 115 151 193 244 286 346
#
# _framework density 19.681735
#
# number of rings (size 3 to 8) (size 9 to 14) (size 15 to 20)
#    0.000    2.250    1.250    1.125    0.000    5.500 
#    6.750    6.250    0.000    0.000    0.000    0.000 
#    0.000    0.000    0.000    0.000    0.000    0.000 
#
# Total GULP energy -198279.509480 kJ/mol
# GULP energy per Si atom -12392.469343 kJ/mol
# Density = 1.963694 g / cm^3
# Si number density = 19.681735 Si / 1000 Ang^3
#
#
#
# Elastic Constant Matrix: (Units=GPa)
#
#
# Indices 1 2 3 4 5 6 
#
# 1 101.6313 42.4098 26.1755 8.7238 19.9424 4.8281
# 2 42.4098 97.3323 40.1478 14.8235 7.8296 11.9818
# 3 26.1755 40.1478 77.5643 10.1394 29.3668 1.5180
# 4 8.7238 14.8235 10.1394 33.5041 -2.2568 2.7354
# 5 19.9424 7.8296 29.3668 -2.2568 26.7317 0.9652
# 6 4.8281 11.9818 1.5180 2.7354 0.9652 23.9897
#
#
#
# Elastic Compliance Matrix: (Units=1/GPa)
#
#
# Indices 1 2 3 4 5 6 
#
# 1 0.014387 -0.006486 0.004010 -0.003082 -0.013534 0.000986
# 2 -0.006486 0.017924 -0.011416 -0.001367 0.012277 -0.007263
# 3 0.004010 -0.011416 0.031960 -0.008498 -0.035666 0.005277
# 4 -0.003082 -0.001367 -0.008498 0.035069 0.015096 -0.002766
# 5 -0.013534 0.012277 -0.035666 0.015096 0.084592 -0.006276
# 6 0.000986 -0.007263 0.005277 -0.002766 -0.006276 0.045347
#
#
# Mechanical properties :
#
#
# Convention : Reuss Voigt Hill
#
# Bulk Modulus (GPa) = 27.40834 54.88823 41.14828
# Shear Modulus (GPa) = 18.57190 28.03142 23.30166
#
# Velocity S-wave (km/s) = 3.07516 3.77800 3.44455
# Velocity P-wave (km/s) = 5.15410 6.85416 6.06400
#
# Compressibility (1/GPa) = 0.03648525
#
# Stress axis : x y z
#
# Youngs Moduli (GPa) = 69.50915 55.79231 31.28955
#
# Poissons Ratio (x) = 0.36186 -0.12546
# Poissons Ratio (y) = 0.45083 0.35721
# Poissons Ratio (z) = -0.27872 0.63694
#
# Static dielectric constant tensor:
#      x y z
#    x 3.416080 -0.408680 -0.169600 
#    y -0.408680 3.793730 0.079550 
#    z -0.169600 0.079550 3.567670 
# 
# 
# High freq. dielectric constant tensor:
#      x y z
#    x 1.753740 -0.004240 0.010770 
#    y -0.004240 1.766030 0.009090 
#    z 0.010770 0.009090 1.776810 
# 
# From -- ./inp_files/353319.got.cif
#   From: 2010.06.25/outbox.cif.g09.slc.cpg/sg2_177_cif.got.tgz:353319.got - 2010.06.27 13:26:56.
