data_PCOD8000701
_publ_section_title
;
Structure prediction by ZEFSAII (Michael W. Deem and Ramdas Pophale) SiO2 
 PCOD8000701
Probable space group: P -1
;
_chemical_formula_sum "Si O2"
_cell_formula_units_Z 16
_cell_length_a 8.507019
_cell_length_b 15.891756
_cell_length_c 9.670524
_cell_angle_alpha 35.905221
_cell_angle_beta 79.632242
_cell_angle_gamma 84.937448
_cell_volume 750.426102
_symmetry_space_group_name_H-M "P -1"
_symmetry_group_IT_number 2
_symmetry_cell_setting 'triclinic'
loop_
_space_group_symop_operation_xyz
x,y,z
-x,-y,-z
loop_
_atom_site_type_symbol
_atom_site_label
_atom_site_fract_x
_atom_site_fract_y
_atom_site_fract_z
Si Si1 0.338557 0.947560 0.014377
Si Si2 0.359176 0.566984 0.851713
Si Si3 0.119413 0.059988 0.106047
Si Si4 0.185474 0.832520 0.629391
Si Si5 0.298949 0.334834 0.802695
Si Si6 0.765425 0.998367 0.322327
Si Si7 0.378353 0.641481 0.440935
Si Si8 0.182235 0.287286 0.176737
O O1 0.279126 0.779234 0.274774
O O2 0.192540 0.028492 0.987884
O O3 0.367496 0.975682 0.807659
O O4 0.500000 0.000000 0.000000
O O5 0.303151 0.711354 0.736950
O O6 0.427430 0.603445 0.639317
O O7 0.500000 0.500000 0.000000
O O8 0.205065 0.445290 0.034209
O O9 0.930369 0.036151 0.164697
O O10 0.193068 0.960316 0.344915
O O11 0.158594 0.231390 0.893056
O O12 0.245276 0.903609 0.670707
O O13 0.003165 0.759105 0.770618
O O14 0.273509 0.505235 0.567602
O O15 0.466484 0.308626 0.741617
O O16 0.298644 0.292334 0.019708
O O17 0.746906 0.829310 0.581721
#
# Coordination Sequence:
#
# PCOD8000701 Si02
#       8
#     2   2   2   2   2   2   2   2
#     4  12  25  41  63  90 136 176 213 259 323 386
#     4  11  25  41  65  95 133 169 215 263 319 390
#     4  11  20  42  66  95 127 171 210 272 322 375
#     4  11  21  42  69  97 130 162 221 268 321 381
#     4  10  19  39  68  88 128 166 210 264 317 378
#     4  11  24  40  67  99 127 164 225 266 317 383
#     4  10  23  40  61  92 129 174 209 255 326 376
#     4  10  21  41  68  98 127 172 209 271 325 368
#
# _framework density 21.321218999999999
#
# number of rings (size 3 to 8) (size 9 to 14) (size 15 to 20)
#    0.000    1.250    5.000    1.500    1.750    3.000 
#    0.000    2.500    0.000    0.000    0.000    0.000 
#    0.000    0.000    0.000    0.000    0.000    0.000 
#
# Total GULP energy -198308.438027 kJ/mol
# GULP energy per Si atom -12394.277377 kJ/mol
# Density = 2.127269 g / cm^3
# Si number density = 21.321219 Si / 1000 Ang^3
#
#
#
# Elastic Constant Matrix: (Units=GPa)
#
#
# Indices 1 2 3 4 5 6 
#
# 1 57.7852 32.0675 31.2548 2.5400 5.8365 0.3355
# 2 32.0675 126.7273 43.4674 -6.7081 7.4825 1.9930
# 3 31.2548 43.4674 107.2630 -8.4737 -1.7070 8.1149
# 4 2.5400 -6.7081 -8.4737 44.1576 0.3838 0.8606
# 5 5.8365 7.4825 -1.7070 0.3838 35.3672 4.6248
# 6 0.3355 1.9930 8.1149 0.8606 4.6248 29.2952
#
#
#
# Elastic Compliance Matrix: (Units=1/GPa)
#
#
# Indices 1 2 3 4 5 6 
#
# 1 0.022943 -0.003882 -0.005569 -0.002990 -0.003487 0.002182
# 2 -0.003882 0.010022 -0.002892 0.001198 -0.001684 0.000394
# 3 -0.005569 -0.002892 0.012626 0.002354 0.002601 -0.003717
# 4 -0.002990 0.001198 0.002354 0.023477 0.000286 -0.001434
# 5 -0.003487 -0.001684 0.002601 0.000286 0.030024 -0.005314
# 6 0.002182 0.000394 -0.003717 -0.001434 -0.005314 0.035994
#
#
# Mechanical properties :
#
#
# Convention : Reuss Voigt Hill
#
# Bulk Modulus (GPa) = 47.83620 56.15053 51.99337
# Shear Modulus (GPa) = 29.98679 34.09639 32.04159
#
# Velocity S-wave (km/s) = 3.75431 4.00331 3.88081
# Velocity P-wave (km/s) = 6.42478 6.91096 6.67230
#
# Compressibility (1/GPa) = 0.02090467
#
# Stress axis : x y z
#
# Youngs Moduli (GPa) = 43.58660 99.78124 79.20141
#
# Poissons Ratio (x) = 0.38737 0.44106
# Poissons Ratio (y) = 0.16921 0.22906
# Poissons Ratio (z) = 0.24272 0.28858
#
# Static dielectric constant tensor:
#      x y z
#    x 3.480820 -0.012520 -0.190080 
#    y -0.012520 4.212360 -0.192660 
#    z -0.190080 -0.192660 4.142560 
# 
# 
# High freq. dielectric constant tensor:
#      x y z
#    x 1.800130 -0.002980 -0.015520 
#    y -0.002980 1.857840 -0.007970 
#    z -0.015520 -0.007970 1.851940 
# 
# From -- ./inp_files/205171.got.cif
#   From: 2010.06.25/outbox.cif.g09.slc.cpg/sg2_103_cif.got.tgz:205171.got - 2010.06.27 13:26:56.
