data_PCOD8000179
_publ_section_title
;
Structure prediction by ZEFSAII (Michael W. Deem and Ramdas Pophale) SiO2 
 PCOD8000179
Probable space group: P 1
;
_chemical_formula_sum "Si O2"
_cell_formula_units_Z 8
_cell_length_a 9.909918
_cell_length_b 13.528679
_cell_length_c 5.176903
_cell_angle_alpha 119.847144
_cell_angle_beta 106.728153
_cell_angle_gamma 34.943099
_cell_volume 334.566946
_symmetry_space_group_name_H-M "P 1"
_symmetry_group_IT_number 1
_symmetry_cell_setting 'triclinic'
loop_
_space_group_symop_operation_xyz
x,y,z
loop_
_atom_site_type_symbol
_atom_site_label
_atom_site_fract_x
_atom_site_fract_y
_atom_site_fract_z
Si Si1 0.235780 0.142080 0.375000
Si Si2 0.659642 0.765792 0.384892
Si Si3 0.540895 0.582430 0.056164
Si Si4 0.603610 0.206326 0.291733
Si Si5 0.040363 0.817055 0.242932
Si Si6 0.366935 0.141665 0.941375
Si Si7 0.088035 0.639849 0.553817
Si Si8 0.756873 0.331438 0.339136
O O1 0.187284 0.256081 0.744278
O O2 0.040400 0.171335 0.309885
O O3 0.507266 0.907821 0.232134
O O4 0.210809 0.243110 0.249265
O O5 0.938087 0.627470 0.356799
O O6 0.526450 0.919529 0.747424
O O7 0.640733 0.643277 0.241171
O O8 0.254152 0.760636 0.190131
O O9 0.600075 0.501088 0.692584
O O10 0.676446 0.413240 0.113186
O O11 0.351228 0.428822 0.531566
O O12 0.740451 0.206420 0.186645
O O13 0.539679 0.136777 0.998598
O O14 0.785304 0.055565 0.434942
O O15 0.975305 0.772750 0.916544
O O16 0.108287 0.713058 0.416057
#
# Coordination Sequence:
#
# PCOD8000179 Si02
#       8
#     1   1   1   1   1   1   1   1
#     4  10  23  46  67 104 135 184 241 278 365 418
#     4  10  26  45  71 103 145 185 234 300 353 421
#     4  12  26  47  68 105 147 186 238 300 348 430
#     4  12  26  49  77 106 147 193 235 307 355 432
#     4  12  25  51  71 106 149 189 241 296 361 425
#     4  10  24  44  71 106 134 191 232 289 364 412
#     4  12  27  47  73 111 144 187 249 287 364 434
#     4  12  27  45  70 107 141 191 240 289 362 426
#
# _framework density 23.91151
#
# number of rings (size 3 to 8) (size 9 to 14) (size 15 to 20)
#    0.750    0.000    3.750    2.250    5.250    4.000 
#    2.250    0.000    0.000    0.000    0.000    0.000 
#    0.000    0.000    0.000    0.000    0.000    0.000 
#
# Total GULP energy -99122.170950 kJ/mol
# GULP energy per Si atom -12390.271369 kJ/mol
# Density = 2.385709 g / cm^3
# Si number density = 23.911510 Si / 1000 Ang^3
#
#
#
# Elastic Constant Matrix: (Units=GPa)
#
#
# Indices 1 2 3 4 5 6 
#
# 1 184.0676 35.9042 32.7705 -7.7998 15.3285 -4.6753
# 2 35.9042 116.9337 27.8481 -3.5727 -6.8024 -13.2658
# 3 32.7705 27.8481 86.9775 -26.0594 -11.8074 14.2225
# 4 -7.7998 -3.5727 -26.0594 23.6667 1.5841 -0.6117
# 5 15.3285 -6.8024 -11.8074 1.5841 28.7762 3.4597
# 6 -4.6753 -13.2658 14.2225 -0.6117 3.4597 50.7027
#
#
#
# Elastic Compliance Matrix: (Units=1/GPa)
#
#
# Indices 1 2 3 4 5 6 
#
# 1 0.006781 -0.001418 -0.003559 -0.001487 -0.005519 0.001611
# 2 -0.001418 0.010392 -0.004323 -0.003644 0.001197 0.003675
# 3 -0.003559 -0.004323 0.024251 0.023946 0.010551 -0.008693
# 4 -0.001487 -0.003644 0.023946 0.066920 0.006971 -0.007476
# 5 -0.005519 0.001197 0.010551 0.006971 0.042639 -0.005981
# 6 0.001611 0.003675 -0.008693 -0.007476 -0.005981 0.023589
#
#
# Mechanical properties :
#
#
# Convention : Reuss Voigt Hill
#
# Bulk Modulus (GPa) = 43.81638 64.55827 54.18733
# Shear Modulus (GPa) = 24.90292 40.05949 32.48120
#
# Velocity S-wave (km/s) = 3.23067 4.09751 3.68964
# Velocity P-wave (km/s) = 5.68159 7.03161 6.39234
#
# Compressibility (1/GPa) = 0.02282251
#
# Stress axis : x y z
#
# Youngs Moduli (GPa) = 147.48075 96.22655 41.23609
#
# Poissons Ratio (x) = 0.13646 0.14676
# Poissons Ratio (y) = 0.20914 0.17828
# Poissons Ratio (z) = 0.52487 0.41602
#
# Static dielectric constant tensor:
#      x y z
#    x 4.451210 -0.153570 0.137830 
#    y -0.153570 4.320700 -0.085630 
#    z 0.137830 -0.085630 4.000880 
# 
# 
# High freq. dielectric constant tensor:
#      x y z
#    x 1.964090 -0.014030 0.008140 
#    y -0.014030 1.950470 -0.010470 
#    z 0.008140 -0.010470 1.926470 
# 
# From -- ./inp_files/1728.got.cif
#   From: 2010.03.12/outbox.cif.g09.slc.cpg/sg1_1_cif.got.tgz:1728.got - 2010.03.29 11:57:58.
