data_PCOD8000976
_publ_section_title
;
Structure prediction by ZEFSAII (Michael W. Deem and Ramdas Pophale) SiO2 
 PCOD8000976
Probable space group: P -1
;
_chemical_formula_sum "Si O2"
_cell_formula_units_Z 16
_cell_length_a 16.553670
_cell_length_b 11.279291
_cell_length_c 7.225577
_cell_angle_alpha 120.183978
_cell_angle_beta 103.697218
_cell_angle_gamma 123.518574
_cell_volume 680.904280
_symmetry_space_group_name_H-M "P -1"
_symmetry_group_IT_number 2
_symmetry_cell_setting 'triclinic'
loop_
_space_group_symop_operation_xyz
x,y,z
-x,-y,-z
loop_
_atom_site_type_symbol
_atom_site_label
_atom_site_fract_x
_atom_site_fract_y
_atom_site_fract_z
Si Si1 0.986274 0.889663 0.693846
Si Si2 0.964799 0.584664 0.670039
Si Si3 0.422239 0.735745 0.902121
Si Si4 0.265839 0.258897 0.940665
Si Si5 0.835080 0.973270 0.682656
Si Si6 0.247488 0.513388 0.977122
Si Si7 0.305415 0.759371 0.543560
Si Si8 0.546647 0.534257 0.261222
O O1 0.948163 0.706380 0.649941
O O2 0.922985 0.952002 0.786381
O O3 0.907784 0.750041 0.349089
O O4 0.151297 0.119116 0.930606
O O5 0.822269 0.348502 0.497971
O O6 0.000000 0.500000 0.500000
O O7 0.079342 0.773474 0.036802
O O8 0.324775 0.670497 0.958966
O O9 0.582508 0.975203 0.223467
O O10 0.380257 0.736768 0.679693
O O11 0.398681 0.545027 0.737529
O O12 0.198860 0.084623 0.598282
O O13 0.324060 0.482818 0.081380
O O14 0.410377 0.384131 0.196639
O O15 0.690917 0.805589 0.587118
O O16 0.245201 0.631784 0.215111
O O17 0.500000 0.500000 0.000000
#
# Coordination Sequence:
#
# PCOD8000976 Si02
#       8
#     2   2   2   2   2   2   2   2
#     4  11  21  41  70  93 132 178 231 274 329 409
#     4  12  26  44  60  98 141 177 223 284 336 402
#     4  11  22  44  67  98 137 178 227 278 331 414
#     4  10  21  37  67 103 130 163 231 282 331 402
#     4  10  20  42  69  88 128 178 222 275 333 396
#     4  11  20  44  70 100 128 178 233 275 334 406
#     4  11  25  43  68  95 138 184 226 271 338 409
#     4  10  19  40  67  97 134 169 217 290 339 389
#
# _framework density 23.498163999999999
#
# number of rings (size 3 to 8) (size 9 to 14) (size 15 to 20)
#    0.000    1.250    5.000    3.750    1.750    1.000 
#    9.000    2.500    0.000    0.000    0.000    0.000 
#    0.000    0.000    0.000    0.000    0.000    0.000 
#
# Total GULP energy -198277.901508 kJ/mol
# GULP energy per Si atom -12392.368844 kJ/mol
# Density = 2.344468 g / cm^3
# Si number density = 23.498164 Si / 1000 Ang^3
#
#
#
# Elastic Constant Matrix: (Units=GPa)
#
#
# Indices 1 2 3 4 5 6 
#
# 1 109.4580 17.0612 49.9552 12.9948 15.1264 29.9961
# 2 17.0612 58.5986 12.1125 20.4325 8.1203 19.0078
# 3 49.9552 12.1125 102.1124 34.0091 8.2739 14.1841
# 4 12.9948 20.4325 34.0091 32.6036 8.5578 14.6788
# 5 15.1264 8.1203 8.2739 8.5578 44.7784 14.0365
# 6 29.9961 19.0078 14.1841 14.6788 14.0365 38.3158
#
#
#
# Elastic Compliance Matrix: (Units=1/GPa)
#
#
# Indices 1 2 3 4 5 6 
#
# 1 0.015720 -0.002437 -0.009126 0.010175 -0.001678 -0.011003
# 2 -0.002437 0.024429 0.004613 -0.016719 0.000525 -0.005706
# 3 -0.009126 0.004613 0.020739 -0.023837 0.001120 0.005900
# 4 0.010175 -0.016719 -0.023837 0.070408 -0.004373 -0.016219
# 5 -0.001678 0.000525 0.001120 -0.004373 0.025653 -0.007084
# 6 -0.011003 -0.005706 0.005900 -0.016219 -0.007084 0.044168
#
#
# Mechanical properties :
#
#
# Convention : Reuss Voigt Hill
#
# Bulk Modulus (GPa) = 21.28214 47.60298 34.44256
# Shear Modulus (GPa) = 21.67505 35.87558 28.77531
#
# Velocity S-wave (km/s) = 3.04042 3.91159 3.50319
# Velocity P-wave (km/s) = 4.62625 6.37988 5.57248
#
# Compressibility (1/GPa) = 0.04698775
#
# Stress axis : x y z
#
# Youngs Moduli (GPa) = 63.61394 40.93506 48.21750
#
# Poissons Ratio (x) = 0.09976 0.44003
# Poissons Ratio (y) = 0.15503 -0.22242
# Poissons Ratio (z) = 0.58054 -0.18882
#
# Static dielectric constant tensor:
#      x y z
#    x 4.186250 0.163750 0.352500 
#    y 0.163750 4.210380 0.069530 
#    z 0.352500 0.069530 4.651210 
# 
# 
# High freq. dielectric constant tensor:
#      x y z
#    x 1.911470 0.015650 0.017840 
#    y 0.015650 1.920440 0.004230 
#    z 0.017840 0.004230 1.945660 
# 
# From -- ./inp_files/308572.got.cif
#   From: 2010.06.25/outbox.cif.g09.slc.cpg/sg2_155_cif.got.tgz:308572.got - 2010.06.27 13:26:56.
