data_PCOD8000667
_publ_section_title
;
Structure prediction by ZEFSAII (Michael W. Deem and Ramdas Pophale) SiO2 
 PCOD8000667
Probable space group: P -1
;
_chemical_formula_sum "Si O2"
_cell_formula_units_Z 16
_cell_length_a 12.860247
_cell_length_b 8.611112
_cell_length_c 9.200811
_cell_angle_alpha 88.504128
_cell_angle_beta 86.121438
_cell_angle_gamma 132.265826
_cell_volume 748.751807
_symmetry_space_group_name_H-M "P -1"
_symmetry_group_IT_number 2
_symmetry_cell_setting 'triclinic'
loop_
_space_group_symop_operation_xyz
x,y,z
-x,-y,-z
loop_
_atom_site_type_symbol
_atom_site_label
_atom_site_fract_x
_atom_site_fract_y
_atom_site_fract_z
Si Si1 0.248950 0.916496 0.826509
Si Si2 0.531268 0.235568 0.633420
Si Si3 0.578351 0.921088 0.658434
Si Si4 0.900216 0.221192 0.667985
Si Si5 0.113447 0.005709 0.070184
Si Si6 0.389507 0.777841 0.938230
Si Si7 0.993594 0.658294 0.655998
Si Si8 0.746133 0.583845 0.807790
O O1 0.261039 0.753869 0.891272
O O2 0.151858 0.808505 0.696889
O O3 0.401493 0.129830 0.757348
O O4 0.189135 0.971519 0.949832
O O5 0.486228 0.228483 0.473588
O O6 0.652861 0.477057 0.671624
O O7 0.588858 0.117703 0.635194
O O8 0.472067 0.769922 0.802919
O O9 0.734811 0.013405 0.669299
O O10 0.913383 0.416050 0.696313
O O11 0.994211 0.280342 0.515276
O O12 0.961093 0.177530 0.795449
O O13 0.237797 0.228625 0.132383
O O14 0.000000 0.000000 0.000000
O O15 0.323681 0.591353 0.058971
O O16 0.500000 0.000000 0.000000
O O17 0.906364 0.697711 0.751563
#
# Coordination Sequence:
#
# PCOD8000667 Si02
#       8
#     2   2   2   2   2   2   2   2
#     4  11  22  42  66  95 131 173 219 281 322 388
#     4  10  21  39  67  98 132 163 221 274 334 382
#     4  10  19  39  67 101 131 162 216 285 325 375
#     4  11  24  42  69 101 131 173 220 274 330 393
#     4  12  28  45  61  94 142 181 217 266 335 403
#     4  11  21  39  69 100 131 169 221 279 326 383
#     4  11  23  42  72  97 129 168 229 274 327 385
#     4  12  24  44  63  97 133 181 217 269 333 393
#
# _framework density 21.368897
#
# number of rings (size 3 to 8) (size 9 to 14) (size 15 to 20)
#    0.000    1.000    6.250    1.500    1.750    2.000 
#    0.000    0.625    0.000    0.000    0.000    0.000 
#    0.000    0.000    0.000    0.000    0.000    0.000 
#
# Total GULP energy -198420.399022 kJ/mol
# GULP energy per Si atom -12401.274939 kJ/mol
# Density = 2.132026 g / cm^3
# Si number density = 21.368897 Si / 1000 Ang^3
#
#
#
# Elastic Constant Matrix: (Units=GPa)
#
#
# Indices 1 2 3 4 5 6 
#
# 1 67.9973 27.4250 44.5918 -17.1035 10.0711 11.9384
# 2 27.4250 74.2313 42.0270 12.1484 -2.6453 4.6115
# 3 44.5918 42.0270 139.4582 -4.1770 3.3152 -13.1811
# 4 -17.1035 12.1484 -4.1770 32.9940 8.2628 5.2747
# 5 10.0711 -2.6453 3.3152 8.2628 28.5696 4.4682
# 6 11.9384 4.6115 -13.1811 5.2747 4.4682 24.2018
#
#
#
# Elastic Compliance Matrix: (Units=1/GPa)
#
#
# Indices 1 2 3 4 5 6 
#
# 1 0.048770 -0.017109 -0.011609 0.041281 -0.024425 -0.031608
# 2 -0.017109 0.025383 -0.002801 -0.022939 0.014657 0.004371
# 3 -0.011609 -0.002801 0.012845 -0.006108 0.001882 0.014240
# 4 0.041281 -0.022939 -0.006108 0.072112 -0.032276 -0.029077
# 5 -0.024425 0.014657 0.001882 -0.032276 0.052905 0.007547
# 6 -0.031608 0.004371 0.014240 -0.029077 0.007547 0.068778
#
#
# Mechanical properties :
#
#
# Convention : Reuss Voigt Hill
#
# Bulk Modulus (GPa) = 41.73486 56.64159 49.18823
# Shear Modulus (GPa) = 14.21186 28.32927 21.27057
#
# Velocity S-wave (km/s) = 2.58170 3.64500 3.15842
# Velocity P-wave (km/s) = 5.33479 6.65423 6.03070
#
# Compressibility (1/GPa) = 0.02396079
#
# Stress axis : x y z
#
# Youngs Moduli (GPa) = 20.50421 39.39623 77.85123
#
# Poissons Ratio (x) = 0.67402 0.90377
# Poissons Ratio (y) = 0.35080 0.21809
# Poissons Ratio (z) = 0.23803 0.11036
#
# Static dielectric constant tensor:
#      x y z
#    x 3.875350 0.013460 0.162810 
#    y 0.013460 4.306380 -0.077690 
#    z 0.162810 -0.077690 4.231880 
# 
# 
# High freq. dielectric constant tensor:
#      x y z
#    x 1.828160 0.017880 -0.002840 
#    y 0.017880 1.820090 0.010340 
#    z -0.002840 0.010340 1.858730 
# 
# From -- ./inp_files/217670.got.cif
#   From: 2010.06.25/outbox.cif.g09.slc.cpg/sg2_109_cif.got.tgz:217670.got - 2010.06.27 13:26:56.
