data_PCOD8000068
_publ_section_title
;
Structure prediction by ZEFSAII (Michael W. Deem and Ramdas Pophale) SiO2 
 PCOD8000068
Probable space group: P 1
;
_chemical_formula_sum "Si O2"
_cell_formula_units_Z 8
_cell_length_a 13.436988
_cell_length_b 5.044366
_cell_length_c 5.247181
_cell_angle_alpha 118.352387
_cell_angle_beta 87.519834
_cell_angle_gamma 107.252987
_cell_volume 296.891147
_symmetry_space_group_name_H-M "P 1"
_symmetry_group_IT_number 1
_symmetry_cell_setting 'triclinic'
loop_
_space_group_symop_operation_xyz
x,y,z
loop_
_atom_site_type_symbol
_atom_site_label
_atom_site_fract_x
_atom_site_fract_y
_atom_site_fract_z
Si Si1 0.784240 0.831330 0.830520
Si Si2 0.291778 0.887451 0.527486
Si Si3 0.711852 0.427803 0.158141
Si Si4 0.499453 0.210079 0.448060
Si Si5 0.026260 0.210732 0.947719
Si Si6 0.327744 0.302334 0.139629
Si Si7 0.537196 0.628110 0.058161
Si Si8 0.101988 0.955096 0.316251
O O1 0.765087 0.588225 0.485319
O O2 0.903599 0.042842 0.906076
O O3 0.765117 0.641696 0.010637
O O4 0.714721 0.071620 0.951055
O O5 0.254409 0.503541 0.347027
O O6 0.229437 0.007968 0.358639
O O7 0.419718 0.001276 0.579339
O O8 0.254773 0.999746 0.850799
O O9 0.589728 0.451701 0.187814
O O10 0.408384 0.232172 0.287869
O O11 0.578077 0.013675 0.260682
O O12 0.571266 0.530044 0.730393
O O13 0.065051 0.132620 0.632349
O O14 0.085632 0.092705 0.110872
O O15 0.042036 0.581279 0.155077
O O16 0.410476 0.534679 0.033058
#
# Coordination Sequence:
#
# PCOD8000068 Si02
#       8
#     1   1   1   1   1   1   1   1
#     4  12  26  47  73 103 142 180 229 292 356 411
#     4  10  23  38  59  97 124 177 221 273 332 393
#     4  12  27  45  76 105 140 182 234 286 341 427
#     4  10  21  39  62  87 135 169 219 272 330 395
#     4  12  26  49  71 105 138 184 227 294 356 411
#     4  10  21  39  62  87 135 169 219 272 330 395
#     4  10  23  38  61  97 124 177 221 271 332 395
#     4  12  27  45  76 103 140 182 236 286 341 427
#
# _framework density 26.945900999999999
#
# number of rings (size 3 to 8) (size 9 to 14) (size 15 to 20)
#    0.000    1.000    0.000    6.000    7.000    0.000 
#    0.000    0.000    0.000    0.000    0.000    0.000 
#    0.000    0.000    0.000    0.000    0.000    0.000 
#
# Total GULP energy -99157.058210 kJ/mol
# GULP energy per Si atom -12394.632276 kJ/mol
# Density = 2.688457 g / cm^3
# Si number density = 26.945901 Si / 1000 Ang^3
#
#
#
# Elastic Constant Matrix: (Units=GPa)
#
#
# Indices 1 2 3 4 5 6 
#
# 1 98.0081 -4.0234 37.2565 4.7813 -8.5516 8.3320
# 2 -4.0234 82.7578 62.2633 9.4834 -13.0707 -34.2791
# 3 37.2565 62.2633 224.0170 31.5478 -10.4135 -38.3937
# 4 4.7813 9.4834 31.5478 50.8903 -8.7951 -12.3475
# 5 -8.5516 -13.0707 -10.4135 -8.7951 39.4539 1.8556
# 6 8.3320 -34.2791 -38.3937 -12.3475 1.8556 43.0481
#
#
#
# Elastic Compliance Matrix: (Units=1/GPa)
#
#
# Indices 1 2 3 4 5 6 
#
# 1 0.011941 0.001657 -0.002965 -0.000071 0.002516 -0.003765
# 2 0.001657 0.021598 -0.004000 0.002764 0.006425 0.013827
# 3 -0.002965 -0.004000 0.006889 -0.002723 -0.000888 0.002791
# 4 -0.000071 0.002764 -0.002723 0.023216 0.005064 0.006227
# 5 0.002516 0.006425 -0.000888 0.005064 0.028724 0.004052
# 6 -0.003765 0.013827 0.002791 0.006227 0.004052 0.039069
#
#
# Mechanical properties :
#
#
# Convention : Reuss Voigt Hill
#
# Bulk Modulus (GPa) = 33.54063 66.19731 49.86897
# Shear Modulus (GPa) = 32.89704 47.29755 40.09730
#
# Velocity S-wave (km/s) = 3.49786 4.19415 3.86173
# Velocity P-wave (km/s) = 5.36543 6.93358 6.19929
#
# Compressibility (1/GPa) = 0.02981458
#
# Stress axis : x y z
#
# Youngs Moduli (GPa) = 83.74237 46.30031 145.15567
#
# Poissons Ratio (x) = -0.07673 0.43036
# Poissons Ratio (y) = -0.13879 0.58055
# Poissons Ratio (z) = 0.24828 0.18518
#
# Static dielectric constant tensor:
#      x y z
#    x 6.846280 0.855220 -0.902910 
#    y 0.855220 5.521450 0.210640 
#    z -0.902910 0.210640 6.094710 
# 
# 
# High freq. dielectric constant tensor:
#      x y z
#    x 2.094790 0.012140 -0.011540 
#    y 0.012140 2.105680 0.003450 
#    z -0.011540 0.003450 2.111250 
# 
# From -- ./inp_files/537.got.cif
#   From: 2010.03.12/outbox.cif.g09.slc.cpg/sg1_1_cif.got.tgz:537.got - 2010.03.29 11:57:58.
