data_PCOD8000731
_publ_section_title
;
Structure prediction by ZEFSAII (Michael W. Deem and Ramdas Pophale) SiO2 
 PCOD8000731
Probable space group: P -1
;
_chemical_formula_sum "Si O2"
_cell_formula_units_Z 14
_cell_length_a 9.813601
_cell_length_b 10.082295
_cell_length_c 12.130642
_cell_angle_alpha 139.927311
_cell_angle_beta 120.107053
_cell_angle_gamma 60.972478
_cell_volume 657.261770
_symmetry_space_group_name_H-M "P -1"
_symmetry_group_IT_number 2
_symmetry_cell_setting 'triclinic'
loop_
_space_group_symop_operation_xyz
x,y,z
-x,-y,-z
loop_
_atom_site_type_symbol
_atom_site_label
_atom_site_fract_x
_atom_site_fract_y
_atom_site_fract_z
Si Si1 0.061231 0.581048 0.822334
Si Si2 0.224615 0.193658 0.750163
Si Si3 0.122508 0.163973 0.921560
Si Si4 0.237809 0.735251 0.800590
Si Si5 0.260565 0.458640 0.435188
Si Si6 0.398120 0.369849 0.110488
Si Si7 0.603557 0.261511 0.502201
O O1 0.036024 0.682228 0.999252
O O2 0.887724 0.638461 0.730789
O O3 0.121557 0.330265 0.700252
O O4 0.188229 0.684375 0.871582
O O5 0.323538 0.982196 0.602628
O O6 0.108602 0.137864 0.766443
O O7 0.342490 0.342889 0.944312
O O8 0.282457 0.262870 0.075736
O O9 0.130224 0.947591 0.850074
O O10 0.207632 0.547279 0.590634
O O11 0.422902 0.757364 0.885004
O O12 0.420481 0.280997 0.397858
O O13 0.295598 0.649581 0.495370
O O14 0.388530 0.610799 0.298872
#
# Coordination Sequence:
#
# PCOD8000731 Si02
#       7
#     2   2   2   2   2   2   2
#     4  12  24  38  59  95 133 151 199 261 319 353
#     4  10  23  40  65  92 122 163 202 257 303 364
#     4  10  21  39  62  89 118 165 211 245 294 371
#     4  11  22  39  63  91 123 164 202 256 307 357
#     4  10  20  38  61  91 119 158 210 253 290 374
#     4   9  21  39  67  89 118 158 220 244 287 374
#     4  10  19  39  69  89 116 162 217 247 294 356
#
# _framework density 21.300494
#
# number of rings (size 3 to 8) (size 9 to 14) (size 15 to 20)
#    0.857    0.857    2.857    1.714    2.000    1.143 
#    2.571    2.857    0.000    0.000    0.000    0.000 
#    0.000    0.000    0.000    0.000    0.000    0.000 
#
# Total GULP energy -173534.821506 kJ/mol
# GULP energy per Si atom -12395.344393 kJ/mol
# Density = 2.125201 g / cm^3
# Si number density = 21.300494 Si / 1000 Ang^3
#
#
#
# Elastic Constant Matrix: (Units=GPa)
#
#
# Indices 1 2 3 4 5 6 
#
# 1 73.5666 37.2021 16.6551 13.7253 -10.2219 5.0850
# 2 37.2021 90.6594 7.1095 29.2354 -6.2642 9.2448
# 3 16.6551 7.1095 63.0812 10.9774 -7.4691 -2.2802
# 4 13.7253 29.2354 10.9774 30.1040 -9.0990 -3.5678
# 5 -10.2219 -6.2642 -7.4691 -9.0990 13.5825 2.6310
# 6 5.0850 9.2448 -2.2802 -3.5678 2.6310 22.7649
#
#
#
# Elastic Compliance Matrix: (Units=1/GPa)
#
#
# Indices 1 2 3 4 5 6 
#
# 1 0.019487 -0.007653 -0.003518 0.003088 0.011749 -0.002471
# 2 -0.007653 0.021295 0.002130 -0.021240 -0.007210 -0.009221
# 3 -0.003518 0.002130 0.018063 -0.005683 0.004396 0.000331
# 4 0.003088 -0.021240 -0.005683 0.065392 0.030480 0.014092
# 5 0.011749 -0.007210 0.004396 0.030480 0.103219 -0.006409
# 6 -0.002471 -0.009221 0.000331 0.014092 -0.006409 0.051206
#
#
# Mechanical properties :
#
#
# Convention : Reuss Voigt Hill
#
# Bulk Modulus (GPa) = 24.53238 38.80451 31.66844
# Shear Modulus (GPa) = 16.11182 24.37967 20.24574
#
# Velocity S-wave (km/s) = 2.75327 3.38680 3.08633
# Velocity P-wave (km/s) = 4.65291 5.79233 5.25360
#
# Compressibility (1/GPa) = 0.04076245
#
# Stress axis : x y z
#
# Youngs Moduli (GPa) = 51.31756 46.95931 55.36223
#
# Poissons Ratio (x) = 0.35936 0.19477
# Poissons Ratio (y) = 0.39271 -0.11790
# Poissons Ratio (z) = 0.18054 -0.10001
#
# Static dielectric constant tensor:
#      x y z
#    x 3.661980 -0.168890 -0.184680 
#    y -0.168890 3.449510 -0.044240 
#    z -0.184680 -0.044240 3.760140 
# 
# 
# High freq. dielectric constant tensor:
#      x y z
#    x 1.821210 -0.017200 -0.017720 
#    y -0.017200 1.811300 0.004680 
#    z -0.017720 0.004680 1.829720 
# 
# From -- ./inp_files/171308.got.cif
#   From: 2010.06.25/outbox.cif.g09.slc.cpg/sg2_86_cif.got.tgz:171308.got - 2010.06.27 13:26:56.
