data_PCOD8000291
_publ_section_title
;
Structure prediction by ZEFSAII (Michael W. Deem and Ramdas Pophale) SiO2 
 PCOD8000291
Probable space group: P 1
;
_chemical_formula_sum "Si O2"
_cell_formula_units_Z 8
_cell_length_a 8.687524
_cell_length_b 9.201351
_cell_length_c 9.214901
_cell_angle_alpha 48.710322
_cell_angle_beta 106.358542
_cell_angle_gamma 76.597396
_cell_volume 432.891014
_symmetry_space_group_name_H-M "P 1"
_symmetry_group_IT_number 1
_symmetry_cell_setting 'triclinic'
loop_
_space_group_symop_operation_xyz
x,y,z
loop_
_atom_site_type_symbol
_atom_site_label
_atom_site_fract_x
_atom_site_fract_y
_atom_site_fract_z
Si Si1 0.556180 0.569790 0.972510
Si Si2 0.816135 0.743685 0.921522
Si Si3 0.049479 0.432173 0.939538
Si Si4 0.790845 0.130001 0.505756
Si Si5 0.138347 0.787710 0.628597
Si Si6 0.913432 0.035677 0.908567
Si Si7 0.244795 0.903039 0.290652
Si Si8 0.671637 0.476370 0.740328
O O1 0.650443 0.709413 0.949640
O O2 0.322362 0.750917 0.787666
O O3 0.632568 0.447584 0.915861
O O4 0.607195 0.381308 0.235874
O O5 0.001181 0.510568 0.044669
O O6 0.722257 0.957480 0.635662
O O7 0.891086 0.816929 0.031287
O O8 0.848095 0.508246 0.755295
O O9 0.136170 0.557634 0.797856
O O10 0.212274 0.149375 0.163845
O O11 0.885409 0.152209 0.664525
O O12 0.949299 0.023419 0.489482
O O13 0.149964 0.828946 0.435006
O O14 0.740255 0.234039 0.836714
O O15 0.131015 0.934601 0.090495
O O16 0.476713 0.701892 0.465589
#
# Coordination Sequence:
#
# PCOD8000291 Si02
#       8
#     1   1   1   1   1   1   1   1
#     4  10  19  35  58  78 103 139 186 215 255 312
#     4   8  18  35  54  80 105 141 173 214 268 310
#     4   9  18  36  56  79 105 137 183 218 259 308
#     4   9  19  35  54  77 109 138 169 224 261 304
#     4  10  20  33  58  83 100 136 186 220 255 310
#     4   9  19  37  55  76 114 141 169 213 276 314
#     4  10  20  37  57  78 108 141 175 221 260 316
#     4   9  19  36  58  77 106 145 175 213 268 316
#
# _framework density 18.480402999999999
#
# number of rings (size 3 to 8) (size 9 to 14) (size 15 to 20)
#    0.750    2.000    0.000    2.250    0.000    5.000 
#    4.500    1.250    5.500    0.000    0.000    0.000 
#    0.000    0.000    0.000    0.000    0.000    0.000 
#
# Total GULP energy -99147.682761 kJ/mol
# GULP energy per Si atom -12393.460345 kJ/mol
# Density = 1.843834 g / cm^3
# Si number density = 18.480403 Si / 1000 Ang^3
#
#
#
# Elastic Constant Matrix: (Units=GPa)
#
#
# Indices 1 2 3 4 5 6 
#
# 1 46.0087 12.7214 5.3080 -8.8640 0.1595 5.4026
# 2 12.7214 107.8049 18.2736 -6.9080 12.2821 15.3486
# 3 5.3080 18.2736 84.2624 0.5534 11.2022 3.2146
# 4 -8.8640 -6.9080 0.5534 24.8011 0.2075 -0.3346
# 5 0.1595 12.2821 11.2022 0.2075 31.2866 -3.9051
# 6 5.4026 15.3486 3.2146 -0.3346 -3.9051 19.2721
#
#
#
# Elastic Compliance Matrix: (Units=1/GPa)
#
#
# Indices 1 2 3 4 5 6 
#
# 1 0.024486 -0.001414 -0.001097 0.008308 0.000095 -0.005391
# 2 -0.001414 0.011880 -0.001410 0.002747 -0.005402 -0.009876
# 3 -0.001097 -0.001410 0.012874 -0.001058 -0.004243 -0.001595
# 4 0.008308 0.002747 -0.001058 0.044039 -0.001519 -0.003883
# 5 0.000095 -0.005402 -0.004243 -0.001519 0.037171 0.012489
# 6 -0.005391 -0.009876 -0.001595 -0.003883 0.012489 0.063995
#
#
# Mechanical properties :
#
#
# Convention : Reuss Voigt Hill
#
# Bulk Modulus (GPa) = 24.15667 34.52022 29.33845
# Shear Modulus (GPa) = 23.13875 28.52348 25.83112
#
# Velocity S-wave (km/s) = 3.54230 3.93293 3.74271
# Velocity P-wave (km/s) = 5.46172 6.27247 5.88108
#
# Compressibility (1/GPa) = 0.04139643
#
# Stress axis : x y z
#
# Youngs Moduli (GPa) = 40.83942 84.17791 77.67327
#
# Poissons Ratio (x) = 0.11906 0.08523
# Poissons Ratio (y) = 0.05776 0.10954
# Poissons Ratio (z) = 0.04481 0.11871
#
# Static dielectric constant tensor:
#      x y z
#    x 3.257420 0.047780 0.059680 
#    y 0.047780 3.391840 -0.043550 
#    z 0.059680 -0.043550 3.302340 
# 
# 
# High freq. dielectric constant tensor:
#      x y z
#    x 1.702120 0.004100 0.004140 
#    y 0.004100 1.711340 -0.005520 
#    z 0.004140 -0.005520 1.708160 
# 
# From -- ./inp_files/3812.got.cif
#   From: 2010.03.12/outbox.cif.g09.slc.cpg/sg1_2_cif.got.tgz:3812.got - 2010.03.29 11:57:58.
