data_PCOD8000566
_publ_section_title
;
Structure prediction by ZEFSAII (Michael W. Deem and Ramdas Pophale) SiO2 
 PCOD8000566
Probable space group: P -1
;
_chemical_formula_sum "Si O2"
_cell_formula_units_Z 16
_cell_length_a 15.042768
_cell_length_b 14.643522
_cell_length_c 8.775750
_cell_angle_alpha 124.559553
_cell_angle_beta 56.250074
_cell_angle_gamma 150.559952
_cell_volume 773.382555
_symmetry_space_group_name_H-M "P -1"
_symmetry_group_IT_number 2
_symmetry_cell_setting 'triclinic'
loop_
_space_group_symop_operation_xyz
x,y,z
-x,-y,-z
loop_
_atom_site_type_symbol
_atom_site_label
_atom_site_fract_x
_atom_site_fract_y
_atom_site_fract_z
Si Si1 0.672844 0.759365 0.904836
Si Si2 0.679730 0.088107 0.289400
Si Si3 0.720753 0.238399 0.685877
Si Si4 0.732971 0.505059 0.948199
Si Si5 0.078132 0.791846 0.395933
Si Si6 0.285055 0.460273 0.348166
Si Si7 0.911913 0.145966 0.903881
Si Si8 0.339118 0.133968 0.688518
O O1 0.697118 0.653383 0.735093
O O2 0.812939 0.947850 0.849140
O O3 0.467987 0.626640 0.934861
O O4 0.712312 0.806627 0.094203
O O5 0.766812 0.253082 0.476519
O O6 0.492739 0.973891 0.281713
O O7 0.615729 0.928869 0.300347
O O8 0.827340 0.178275 0.108723
O O9 0.761520 0.398105 0.841750
O O10 0.841268 0.261932 0.701711
O O11 0.777850 0.577478 0.801589
O O12 0.875729 0.686599 0.094867
O O13 0.112857 0.851919 0.246914
O O14 0.863215 0.609365 0.465407
O O15 0.174197 0.966698 0.574450
O O16 0.478313 0.683419 0.407300
#
# Coordination Sequence:
#
# PCOD8000566 Si02
#       8
#     2   2   2   2   2   2   2   2
#     4  10  22  42  66  88 115 152 209 259 295 337
#     4   9  18  38  64  89 118 153 198 249 299 340
#     4  10  19  39  64  92 118 150 204 250 292 352
#     4  11  21  40  67  92 114 154 205 251 300 344
#     4  11  26  38  56  93 130 162 192 233 302 369
#     4  11  22  40  65  92 114 152 208 256 296 344
#     4  11  24  41  57  89 130 163 192 237 301 367
#     4   9  18  40  63  90 114 153 202 254 295 339
#
# _framework density 20.688338000000002
#
# number of rings (size 3 to 8) (size 9 to 14) (size 15 to 20)
#    0.000    1.750    3.750    3.750    0.000    7.500 
#    0.000    1.250    0.000    0.000    0.000    0.000 
#    0.000    0.000    0.000    0.000    0.000    0.000 
#
# Total GULP energy -198428.511483 kJ/mol
# GULP energy per Si atom -12401.781968 kJ/mol
# Density = 2.064125 g / cm^3
# Si number density = 20.688338 Si / 1000 Ang^3
#
#
#
# Elastic Constant Matrix: (Units=GPa)
#
#
# Indices 1 2 3 4 5 6 
#
# 1 87.3983 49.2947 35.9142 -0.4263 -4.9167 -8.0890
# 2 49.2947 114.2089 32.7572 -8.4091 6.3780 -1.7005
# 3 35.9142 32.7572 40.5960 -3.6436 10.0628 -0.2738
# 4 -0.4263 -8.4091 -3.6436 12.4960 -7.3153 1.9644
# 5 -4.9167 6.3780 10.0628 -7.3153 27.1986 -0.6656
# 6 -8.0890 -1.7005 -0.2738 1.9644 -0.6656 17.0757
#
#
#
# Elastic Compliance Matrix: (Units=1/GPa)
#
#
# Indices 1 2 3 4 5 6 
#
# 1 0.025096 -0.005552 -0.021179 -0.003261 0.013088 0.011881
# 2 -0.005552 0.013090 -0.004925 0.007346 -0.000331 -0.002263
# 3 -0.021179 -0.004925 0.052841 -0.000159 -0.022524 -0.010536
# 4 -0.003261 0.007346 -0.000159 0.101042 0.024642 -0.011479
# 5 0.013088 -0.000331 -0.022524 0.024642 0.054295 0.005087
# 6 0.011881 -0.002263 -0.010536 -0.011479 0.005087 0.065316
#
#
# Mechanical properties :
#
#
# Convention : Reuss Voigt Hill
#
# Bulk Modulus (GPa) = 36.07995 53.12615 44.60305
# Shear Modulus (GPa) = 13.01303 19.63654 16.32479
#
# Velocity S-wave (km/s) = 2.51071 3.08419 2.81211
# Velocity P-wave (km/s) = 5.08749 6.19822 5.67012
#
# Compressibility (1/GPa) = 0.02771622
#
# Stress axis : x y z
#
# Youngs Moduli (GPa) = 39.84704 76.39217 18.92454
#
# Poissons Ratio (x) = 0.42409 0.40080
# Poissons Ratio (y) = 0.22121 0.09321
# Poissons Ratio (z) = 0.84391 0.37626
#
# Static dielectric constant tensor:
#      x y z
#    x 3.610480 0.055440 -0.222600 
#    y 0.055440 3.779440 0.096340 
#    z -0.222600 0.096340 3.684690 
# 
# 
# High freq. dielectric constant tensor:
#      x y z
#    x 1.799210 0.007740 -0.018810 
#    y 0.007740 1.817460 0.003910 
#    z -0.018810 0.003910 1.787270 
# 
# From -- ./inp_files/315726.got.cif
#   From: 2010.06.25/outbox.cif.g09.slc.cpg/sg2_158_cif.got.tgz:315726.got - 2010.06.27 13:26:56.
