data_PCOD8000458
_publ_section_title
;
Structure prediction by ZEFSAII (Michael W. Deem and Ramdas Pophale) SiO2 
 PCOD8000458
Probable space group: P -1
;
_chemical_formula_sum "Si O2"
_cell_formula_units_Z 16
_cell_length_a 10.198354
_cell_length_b 19.032765
_cell_length_c 10.749109
_cell_angle_alpha 31.380600
_cell_angle_beta 103.988819
_cell_angle_gamma 83.367713
_cell_volume 812.650890
_symmetry_space_group_name_H-M "P -1"
_symmetry_group_IT_number 2
_symmetry_cell_setting 'triclinic'
loop_
_space_group_symop_operation_xyz
x,y,z
-x,-y,-z
loop_
_atom_site_type_symbol
_atom_site_label
_atom_site_fract_x
_atom_site_fract_y
_atom_site_fract_z
Si Si1 0.409042 0.635052 0.389144
Si Si2 0.150539 0.978621 0.140285
Si Si3 0.082534 0.146754 0.357028
Si Si4 0.024732 0.898243 0.840752
Si Si5 0.740138 0.838018 0.217088
Si Si6 0.390107 0.961116 0.868337
Si Si7 0.145909 0.485838 0.132028
Si Si8 0.505235 0.603796 0.731265
O O1 0.500000 0.500000 0.500000
O O2 0.489147 0.543087 0.682332
O O3 0.202514 0.729390 0.200276
O O4 0.443490 0.771151 0.170609
O O5 0.342068 0.808568 0.399129
O O6 0.124065 0.971308 0.290948
O O7 0.128954 0.153545 0.846836
O O8 0.000000 0.000000 0.000000
O O9 0.055727 0.162757 0.178389
O O10 0.073479 0.001438 0.623924
O O11 0.276732 0.074976 0.548182
O O12 0.929288 0.330930 0.104071
O O13 0.803411 0.645653 0.544647
O O14 0.727315 0.928171 0.206684
O O15 0.560113 0.946894 0.933349
O O16 0.315508 0.421051 0.186259
O O17 0.000000 0.500000 0.000000
O O18 0.500000 0.500000 0.000000
#
# Coordination Sequence:
#
# PCOD8000458 Si02
#       8
#     2   2   2   2   2   2   2   2
#     4  11  21  39  65  93 128 168 215 261 324 394
#     4  12  23  42  65  91 128 167 217 265 333 394
#     4  10  21  40  64  95 126 162 222 262 320 387
#     4  10  22  39  66  91 126 171 207 268 330 386
#     4  11  21  38  65  90 124 169 220 255 320 386
#     4  10  19  39  62  90 121 168 214 255 311 388
#     4  12  24  38  66  98 130 169 215 272 319 388
#     4  12  25  40  65 102 132 162 220 283 324 374
#
# _framework density 19.688652999999999
#
# number of rings (size 3 to 8) (size 9 to 14) (size 15 to 20)
#    0.000    1.000    5.000    3.000    1.750    2.000 
#    0.000    1.250    2.750    0.000    0.000    0.000 
#    0.000    0.000    0.000    0.000    0.000    0.000 
#
# Total GULP energy -198334.901666 kJ/mol
# GULP energy per Si atom -12395.931354 kJ/mol
# Density = 1.964384 g / cm^3
# Si number density = 19.688653 Si / 1000 Ang^3
#
#
#
# Elastic Constant Matrix: (Units=GPa)
#
#
# Indices 1 2 3 4 5 6 
#
# 1 100.3231 37.2274 39.2716 22.7003 15.2465 5.6275
# 2 37.2274 129.2605 34.8298 11.9440 23.5844 9.3741
# 3 39.2716 34.8298 89.6952 8.1237 10.6176 5.9561
# 4 22.7003 11.9440 8.1237 34.9720 1.1834 2.7778
# 5 15.2465 23.5844 10.6176 1.1834 30.8352 3.7264
# 6 5.6275 9.3741 5.9561 2.7778 3.7264 26.4799
#
#
#
# Elastic Compliance Matrix: (Units=1/GPa)
#
#
# Indices 1 2 3 4 5 6 
#
# 1 0.014775 -0.001488 -0.004669 -0.007843 -0.004241 -0.000143
# 2 -0.001488 0.010155 -0.002323 -0.001622 -0.005957 -0.001747
# 3 -0.004669 -0.002323 0.014205 0.000655 -0.000667 -0.001355
# 4 -0.007843 -0.001622 0.000655 0.034118 0.003828 -0.002024
# 5 -0.004241 -0.005957 -0.000667 0.003828 0.039505 -0.002801
# 6 -0.000143 -0.001747 -0.001355 -0.002024 -0.002801 0.039325
#
#
# Mechanical properties :
#
#
# Convention : Reuss Voigt Hill
#
# Bulk Modulus (GPa) = 45.10009 60.21516 52.65762
# Shear Modulus (GPa) = 28.33901 32.32077 30.32989
#
# Velocity S-wave (km/s) = 3.79800 4.05605 3.92915
# Velocity P-wave (km/s) = 6.49534 7.25159 6.88386
#
# Compressibility (1/GPa) = 0.02217290
#
# Stress axis : x y z
#
# Youngs Moduli (GPa) = 67.68208 98.47810 70.39754
#
# Poissons Ratio (x) = 0.14655 0.32870
# Poissons Ratio (y) = 0.10072 0.16356
# Poissons Ratio (z) = 0.31602 0.22881
#
# Static dielectric constant tensor:
#      x y z
#    x 3.574260 0.216760 0.189920 
#    y 0.216760 3.869370 0.150510 
#    z 0.189920 0.150510 3.890460 
# 
# 
# High freq. dielectric constant tensor:
#      x y z
#    x 1.756970 0.021270 0.013780 
#    y 0.021270 1.760570 0.006170 
#    z 0.013780 0.006170 1.773210 
# 
# From -- ./inp_files/392580.got.cif
#   From: 2010.06.25/outbox.cif.g09.slc.cpg/sg2_197_cif.got.tgz:392580.got - 2010.06.27 13:26:56.
