data_PCOD8000199
_publ_section_title
;
Structure prediction by ZEFSAII (Michael W. Deem and Ramdas Pophale) SiO2 
 PCOD8000199
Probable space group: P 1
;
_chemical_formula_sum "Si O2"
_cell_formula_units_Z 8
_cell_length_a 5.064250
_cell_length_b 5.195728
_cell_length_c 15.244824
_cell_angle_alpha 53.345822
_cell_angle_beta 84.372726
_cell_angle_gamma 92.578199
_cell_volume 317.552607
_symmetry_space_group_name_H-M "P 1"
_symmetry_group_IT_number 1
_symmetry_cell_setting 'triclinic'
loop_
_space_group_symop_operation_xyz
x,y,z
loop_
_atom_site_type_symbol
_atom_site_label
_atom_site_fract_x
_atom_site_fract_y
_atom_site_fract_z
Si Si1 0.064990 0.196260 0.241500
Si Si2 0.296991 0.294157 0.536948
Si Si3 0.782719 0.284242 0.645339
Si Si4 0.779288 0.744538 0.131614
Si Si5 0.225530 0.220041 0.938257
Si Si6 0.406728 0.567273 0.024124
Si Si7 0.526896 0.811566 0.299828
Si Si8 0.990777 0.671568 0.718137
O O1 0.956546 0.505609 0.229817
O O2 0.331797 0.059375 0.295562
O O3 0.137059 0.353717 0.111546
O O4 0.826426 0.902781 0.306869
O O5 0.510213 0.355695 0.595907
O O6 0.416121 0.452235 0.410477
O O7 0.034449 0.451349 0.544840
O O8 0.210543 0.907624 0.605376
O O9 0.796461 0.434313 0.711268
O O10 0.805881 0.898958 0.730727
O O11 0.541401 0.822843 0.189982
O O12 0.645322 0.548171 0.090824
O O13 0.958817 0.068132 0.029118
O O14 0.445462 0.413805 0.958185
O O15 0.148886 0.471947 0.819333
O O16 0.364318 0.944076 0.940451
#
# Coordination Sequence:
#
# PCOD8000199 Si02
#       8
#     1   1   1   1   1   1   1   1
#     4  11  24  43  70 103 148 188 241 295 359 434
#     4  10  26  46  73 106 143 190 241 299 359 434
#     4  10  24  47  75 103 145 183 244 298 367 420
#     4  11  26  43  73 107 152 190 245 297 368 438
#     4  11  24  44  73 108 142 191 240 300 364 437
#     4  11  23  43  70 106 142 191 234 298 358 433
#     4  12  24  48  71 107 148 196 240 303 362 436
#     4  10  25  46  73 108 142 189 241 304 359 436
#
# _framework density 25.192678000000001
#
# number of rings (size 3 to 8) (size 9 to 14) (size 15 to 20)
#    0.750    0.500    2.500    2.250    3.500    3.000 
#    4.500    0.000    0.000    0.000    0.000    0.000 
#    0.000    0.000    0.000    0.000    0.000    0.000 
#
# Total GULP energy -99105.455155 kJ/mol
# GULP energy per Si atom -12388.181894 kJ/mol
# Density = 2.513534 g / cm^3
# Si number density = 25.192678 Si / 1000 Ang^3
#
#
#
# Elastic Constant Matrix: (Units=GPa)
#
#
# Indices 1 2 3 4 5 6 
#
# 1 108.5720 18.7092 5.9357 -7.2259 5.2242 1.5363
# 2 18.7092 98.6981 23.9646 -8.6158 -5.8513 4.6651
# 3 5.9357 23.9646 85.6643 -28.2906 4.1976 -1.2781
# 4 -7.2259 -8.6158 -28.2906 30.5714 5.3270 12.7247
# 5 5.2242 -5.8513 4.1976 5.3270 24.6688 -1.8909
# 6 1.5363 4.6651 -1.2781 12.7247 -1.8909 29.0371
#
#
#
# Elastic Compliance Matrix: (Units=1/GPa)
#
#
# Indices 1 2 3 4 5 6 
#
# 1 0.010061 -0.002000 0.001813 0.005394 -0.004291 -0.002775
# 2 -0.002000 0.011604 -0.003460 -0.000445 0.003748 -0.001472
# 3 0.001813 -0.003460 0.021328 0.025504 -0.011146 -0.010504
# 4 0.005394 -0.000445 0.025504 0.075870 -0.024573 -0.033939
# 5 -0.004291 0.003748 -0.011146 -0.024573 0.050549 0.013194
# 6 -0.002775 -0.001472 -0.010504 -0.033939 0.013194 0.050092
#
#
# Mechanical properties :
#
#
# Convention : Reuss Voigt Hill
#
# Bulk Modulus (GPa) = 28.01232 43.35039 35.68135
# Shear Modulus (GPa) = 20.94705 33.14379 27.04542
#
# Velocity S-wave (km/s) = 2.88666 3.63107 3.28005
# Velocity P-wave (km/s) = 4.71739 5.90123 5.34220
#
# Compressibility (1/GPa) = 0.03569858
#
# Stress axis : x y z
#
# Youngs Moduli (GPa) = 99.39685 86.17693 46.88647
#
# Poissons Ratio (x) = 0.17232 -0.08499
# Poissons Ratio (y) = 0.19875 0.16223
# Poissons Ratio (z) = -0.18017 0.29819
#
# Static dielectric constant tensor:
#      x y z
#    x 4.478730 -0.065270 -0.119160 
#    y -0.065270 4.508470 -0.274380 
#    z -0.119160 -0.274380 4.256980 
# 
# 
# High freq. dielectric constant tensor:
#      x y z
#    x 2.011480 0.001230 -0.004240 
#    y 0.001230 1.998140 -0.024340 
#    z -0.004240 -0.024340 1.980970 
# 
# From -- ./inp_files/6887.got.cif
#   From: 2010.03.12/outbox.cif.g09.slc.cpg/sg1_4_cif.got.tgz:6887.got - 2010.03.29 11:57:58.
