data_PCOD8000614
_publ_section_title
;
Structure prediction by ZEFSAII (Michael W. Deem and Ramdas Pophale) SiO2 
 PCOD8000614
Probable space group: P -1
;
_chemical_formula_sum "Si O2"
_cell_formula_units_Z 16
_cell_length_a 10.912933
_cell_length_b 7.831682
_cell_length_c 16.890525
_cell_angle_alpha 105.813551
_cell_angle_beta 30.992343
_cell_angle_gamma 101.440911
_cell_volume 713.386672
_symmetry_space_group_name_H-M "P -1"
_symmetry_group_IT_number 2
_symmetry_cell_setting 'triclinic'
loop_
_space_group_symop_operation_xyz
x,y,z
-x,-y,-z
loop_
_atom_site_type_symbol
_atom_site_label
_atom_site_fract_x
_atom_site_fract_y
_atom_site_fract_z
Si Si1 0.285271 0.523915 0.227646
Si Si2 0.059971 0.273998 0.860849
Si Si3 0.691039 0.846410 0.452483
Si Si4 0.629235 0.537895 0.171321
Si Si5 0.248752 0.790584 0.601373
Si Si6 0.801766 0.977327 0.917672
Si Si7 0.750366 0.576795 0.522286
Si Si8 0.410306 0.772803 0.058595
O O1 0.455601 0.617918 0.207914
O O2 0.398888 0.324037 0.121136
O O3 0.011855 0.529492 0.410753
O O4 0.274193 0.631538 0.165240
O O5 0.916785 0.096498 0.937785
O O6 0.177422 0.255104 0.707111
O O7 0.273503 0.304385 0.808690
O O8 0.862926 0.438560 0.990681
O O9 0.409224 0.835168 0.593240
O O10 0.757906 0.753322 0.487173
O O11 0.735187 0.056692 0.456343
O O12 0.462343 0.401364 0.292441
O O13 0.321417 0.592962 0.508647
O O14 0.976577 0.802237 0.783558
O O15 0.542507 0.903073 0.062980
O O16 0.788517 0.109126 0.864693
#
# Coordination Sequence:
#
# PCOD8000614 Si02
#       8
#     2   2   2   2   2   2   2   2
#     4  11  22  40  60  93 123 170 213 252 311 385
#     4  10  21  40  63  90 127 169 202 259 316 376
#     4  10  22  40  66  94 125 158 222 260 308 367
#     4  11  24  39  60  92 135 169 199 251 327 382
#     4  10  20  36  64  96 121 162 209 267 312 360
#     4  10  19  39  65  95 122 159 211 275 309 356
#     4  12  23  41  65  96 125 170 210 263 312 378
#     4  10  21  37  66  92 122 157 223 263 305 365
#
# _framework density 22.428229000000002
#
# number of rings (size 3 to 8) (size 9 to 14) (size 15 to 20)
#    0.000    1.500    3.750    2.250    1.750    0.000 
#    2.250    1.875    0.000    3.000    0.000    0.000 
#    0.000    0.000    0.000    0.000    0.000    0.000 
#
# Total GULP energy -198220.882295 kJ/mol
# GULP energy per Si atom -12388.805143 kJ/mol
# Density = 2.237718 g / cm^3
# Si number density = 22.428229 Si / 1000 Ang^3
#
#
#
# Elastic Constant Matrix: (Units=GPa)
#
#
# Indices 1 2 3 4 5 6 
#
# 1 86.2728 8.2969 22.2122 -7.3661 -22.3477 11.0720
# 2 8.2969 55.2147 -4.7933 -4.8707 0.1870 1.0064
# 3 22.2122 -4.7933 59.7590 4.8064 -14.5740 -0.7111
# 4 -7.3661 -4.8707 4.8064 16.4779 1.3383 -12.7898
# 5 -22.3477 0.1870 -14.5740 1.3383 37.0252 -8.4077
# 6 11.0720 1.0064 -0.7111 -12.7898 -8.4077 36.6278
#
#
#
# Elastic Compliance Matrix: (Units=1/GPa)
#
#
# Indices 1 2 3 4 5 6 
#
# 1 0.015516 -0.002184 -0.004743 0.006441 0.007084 -0.000847
# 2 -0.002184 0.019070 0.001792 0.005800 -0.000443 0.002094
# 3 -0.004743 0.001792 0.020641 -0.007794 0.005615 0.000353
# 4 0.006441 0.005800 -0.007794 0.090856 0.004429 0.030484
# 5 0.007084 -0.000443 0.005615 0.004429 0.035056 0.007573
# 6 -0.000847 0.002094 0.000353 0.030484 0.007573 0.039890
#
#
# Mechanical properties :
#
#
# Convention : Reuss Voigt Hill
#
# Bulk Modulus (GPa) = 22.24356 28.07534 25.15945
# Shear Modulus (GPa) = 20.30178 29.72823 25.01501
#
# Velocity S-wave (km/s) = 3.01190 3.64467 3.34329
# Velocity P-wave (km/s) = 4.69410 5.50059 5.11327
#
# Compressibility (1/GPa) = 0.04495683
#
# Stress axis : x y z
#
# Youngs Moduli (GPa) = 64.44978 52.43918 48.44762
#
# Poissons Ratio (x) = 0.11451 0.22978
# Poissons Ratio (y) = 0.14073 -0.08680
# Poissons Ratio (z) = 0.30568 -0.09395
#
# Static dielectric constant tensor:
#      x y z
#    x 4.059930 0.165740 -0.376070 
#    y 0.165740 3.953460 0.013470 
#    z -0.376070 0.013470 4.054240 
# 
# 
# High freq. dielectric constant tensor:
#      x y z
#    x 1.873450 0.012640 -0.045890 
#    y 0.012640 1.868090 0.000600 
#    z -0.045890 0.000600 1.878620 
# 
# From -- ./inp_files/514000.got.cif
#   From: 2010.06.25/outbox.cif.g09.slc.cpg/sg2_257_cif.got.tgz:514000.got - 2010.06.27 13:26:56.
