data_PCOD8000820
_publ_section_title
;
Structure prediction by ZEFSAII (Michael W. Deem and Ramdas Pophale) SiO2 
 PCOD8000820
Probable space group: P -1
;
_chemical_formula_sum "Si O2"
_cell_formula_units_Z 16
_cell_length_a 9.398147
_cell_length_b 20.043979
_cell_length_c 9.012751
_cell_angle_alpha 142.886171
_cell_angle_beta 71.783195
_cell_angle_gamma 124.822360
_cell_volume 805.316038
_symmetry_space_group_name_H-M "P -1"
_symmetry_group_IT_number 2
_symmetry_cell_setting 'triclinic'
loop_
_space_group_symop_operation_xyz
x,y,z
-x,-y,-z
loop_
_atom_site_type_symbol
_atom_site_label
_atom_site_fract_x
_atom_site_fract_y
_atom_site_fract_z
Si Si1 0.210713 0.651598 0.319027
Si Si2 0.015265 0.152302 0.609376
Si Si3 0.298109 0.849706 0.188866
Si Si4 0.049573 0.633270 0.647085
Si Si5 0.166003 0.140567 0.832240
Si Si6 0.137475 0.382580 0.762556
Si Si7 0.708035 0.612717 0.591439
Si Si8 0.492704 0.142412 0.611427
O O1 0.180740 0.667407 0.526906
O O2 0.405807 0.773153 0.417613
O O3 0.062411 0.659180 0.288904
O O4 0.217661 0.521839 0.067598
O O5 0.079844 0.188357 0.823986
O O6 0.142490 0.274898 0.673691
O O7 0.821180 0.129954 0.620101
O O8 0.984639 0.009584 0.323018
O O9 0.390398 0.792843 0.159296
O O10 0.450911 0.995652 0.334184
O O11 0.171892 0.753138 0.930355
O O12 0.000000 0.500000 0.500000
O O13 0.855966 0.605576 0.622652
O O14 0.312880 0.138297 0.681360
O O15 0.250837 0.241991 0.123341
O O16 0.262386 0.400777 0.614943
O O17 0.500000 0.500000 0.500000
#
# Coordination Sequence:
#
# PCOD8000820 Si02
#       8
#     2   2   2   2   2   2   2   2
#     4  10  21  37  60  90 118 155 199 249 295 343
#     4  10  19  40  62  87 117 159 202 237 297 359
#     4  10  20  38  65  88 118 159 200 241 294 350
#     4  11  24  39  62  87 119 159 200 246 296 352
#     4  10  22  37  62  88 121 156 193 247 297 353
#     4  10  21  38  62  86 120 158 199 244 296 355
#     4  11  24  41  59  87 122 158 198 247 298 352
#     4  10  21  38  63  92 119 155 198 246 291 353
#
# _framework density 19.867975000000001
#
# number of rings (size 3 to 8) (size 9 to 14) (size 15 to 20)
#    0.000    1.750    2.500    1.500    5.250    1.000 
#    2.250    1.250    0.000    0.000    0.000    0.000 
#    0.000    0.000    0.000    0.000    0.000    0.000 
#
# Total GULP energy -198265.430646 kJ/mol
# GULP energy per Si atom -12391.589415 kJ/mol
# Density = 1.982275 g / cm^3
# Si number density = 19.867975 Si / 1000 Ang^3
#
#
#
# Elastic Constant Matrix: (Units=GPa)
#
#
# Indices 1 2 3 4 5 6 
#
# 1 68.2075 47.5854 33.8173 4.9667 4.2086 -0.0162
# 2 47.5854 131.7858 53.8265 20.6499 -5.6585 -1.6913
# 3 33.8173 53.8265 120.3157 3.5893 3.4771 -0.0050
# 4 4.9667 20.6499 3.5893 22.1198 -0.4378 -2.6373
# 5 4.2086 -5.6585 3.4771 -0.4378 27.3041 0.6747
# 6 -0.0162 -1.6913 -0.0050 -2.6373 0.6747 31.9492
#
#
#
# Elastic Compliance Matrix: (Units=1/GPa)
#
#
# Indices 1 2 3 4 5 6 
#
# 1 0.020996 -0.006999 -0.002710 0.002164 -0.004305 -0.000091
# 2 -0.006999 0.013502 -0.003886 -0.010347 0.004212 -0.000232
# 3 -0.002710 -0.003886 0.010788 0.002456 -0.001723 0.000034
# 4 0.002164 -0.010347 0.002456 0.054419 -0.002016 0.003988
# 5 -0.004305 0.004212 -0.001723 -0.002016 0.038367 -0.000756
# 6 -0.000091 -0.000232 0.000034 0.003988 -0.000756 0.031633
#
#
# Mechanical properties :
#
#
# Convention : Reuss Voigt Hill
#
# Bulk Modulus (GPa) = 55.26447 65.64084 60.45265
# Shear Modulus (GPa) = 24.63939 28.61326 26.62632
#
# Velocity S-wave (km/s) = 3.52541 3.79907 3.66480
# Velocity P-wave (km/s) = 6.66690 7.23562 6.95707
#
# Compressibility (1/GPa) = 0.01809481
#
# Stress axis : x y z
#
# Youngs Moduli (GPa) = 47.62802 74.06443 92.69281
#
# Poissons Ratio (x) = 0.51840 0.25121
# Poissons Ratio (y) = 0.33336 0.36022
# Poissons Ratio (z) = 0.12908 0.28782
#
# Static dielectric constant tensor:
#      x y z
#    x 3.688060 0.118520 -0.149790 
#    y 0.118520 3.849040 0.076370 
#    z -0.149790 0.076370 3.613570 
# 
# 
# High freq. dielectric constant tensor:
#      x y z
#    x 1.775290 -0.001020 -0.002770 
#    y -0.001020 1.767560 0.013740 
#    z -0.002770 0.013740 1.773720 
# 
# From -- ./inp_files/216516.got.cif
#   From: 2010.06.25/outbox.cif.g09.slc.cpg/sg2_109_cif.got.tgz:216516.got - 2010.06.27 13:26:56.
