data_PCOD8000878
_publ_section_title
;
Structure prediction by ZEFSAII (Michael W. Deem and Ramdas Pophale) SiO2 
 PCOD8000878
Probable space group: P -1
;
_chemical_formula_sum "Si O2"
_cell_formula_units_Z 12
_cell_length_a 13.858762
_cell_length_b 9.524713
_cell_length_c 8.756051
_cell_angle_alpha 60.142687
_cell_angle_beta 88.705213
_cell_angle_gamma 135.583101
_cell_volume 548.729387
_symmetry_space_group_name_H-M "P -1"
_symmetry_group_IT_number 2
_symmetry_cell_setting 'triclinic'
loop_
_space_group_symop_operation_xyz
x,y,z
-x,-y,-z
loop_
_atom_site_type_symbol
_atom_site_label
_atom_site_fract_x
_atom_site_fract_y
_atom_site_fract_z
Si Si1 0.514023 0.195703 0.814846
Si Si2 0.109830 0.130839 0.578855
Si Si3 0.706988 0.069227 0.777977
Si Si4 0.971786 0.636839 0.001604
Si Si5 0.015144 0.292836 0.674800
Si Si6 0.428253 0.869898 0.736896
O O1 0.691351 0.543697 0.645797
O O2 0.477936 0.110555 0.685685
O O3 0.500000 0.000000 0.000000
O O4 0.351626 0.060892 0.976076
O O5 0.030695 0.126178 0.725053
O O6 0.000000 0.000000 0.500000
O O7 0.108703 0.946278 0.742332
O O8 0.836253 0.107104 0.698478
O O9 0.816557 0.390831 0.586698
O O10 0.525843 0.844251 0.811168
O O11 0.780657 0.444836 0.075614
O O12 0.000000 0.500000 0.000000
O O13 0.992783 0.669647 0.166804
O O14 0.500000 0.000000 0.500000
#
# Coordination Sequence:
#
# PCOD8000878 Si02
#       6
#     2   2   2   2   2   2
#     4  10  19  40  64  95 132 176 221 275 337 397
#     4  12  25  42  71 103 139 180 231 282 343 410
#     4  10  21  39  71  94 134 177 225 269 350 395
#     4  12  27  45  70 104 139 181 230 284 346 410
#     4  11  23  43  69 101 138 179 227 283 341 408
#     4  11  20  39  66 100 132 178 222 279 341 401
#
# _framework density 21.868704999999999
#
# number of rings (size 3 to 8) (size 9 to 14) (size 15 to 20)
#    0.000    1.000    5.000    3.500    4.667    0.000 
#    0.000    8.333    0.000    0.000    0.000    0.000 
#    0.000    0.000    0.000    0.000    0.000    0.000 
#
# Total GULP energy -148671.108502 kJ/mol
# GULP energy per Si atom -12389.259042 kJ/mol
# Density = 2.181893 g / cm^3
# Si number density = 21.868705 Si / 1000 Ang^3
#
#
#
# Elastic Constant Matrix: (Units=GPa)
#
#
# Indices 1 2 3 4 5 6 
#
# 1 108.4982 30.1995 43.1978 -7.0629 -4.5044 -2.6611
# 2 30.1995 109.5182 60.0021 16.3621 -2.8977 -6.3025
# 3 43.1978 60.0021 161.3142 -2.2597 -0.1548 -7.0571
# 4 -7.0629 16.3621 -2.2597 45.7771 -1.0917 -7.5469
# 5 -4.5044 -2.8977 -0.1548 -1.0917 32.6510 -10.8938
# 6 -2.6611 -6.3025 -7.0571 -7.5469 -10.8938 36.3360
#
#
#
# Elastic Compliance Matrix: (Units=1/GPa)
#
#
# Indices 1 2 3 4 5 6 
#
# 1 0.010894 -0.002171 -0.002024 0.002578 0.001750 0.001088
# 2 -0.002171 0.012861 -0.004253 -0.005051 0.000798 0.000436
# 3 -0.002024 -0.004253 0.008394 0.001791 -0.000205 0.001055
# 4 0.002578 -0.005051 0.001791 0.025135 0.002650 0.005676
# 5 0.001750 0.000798 -0.000205 0.002650 0.034763 0.011200
# 6 0.001088 0.000436 0.001055 0.005676 0.011200 0.032418
#
#
# Mechanical properties :
#
#
# Convention : Reuss Voigt Hill
#
# Bulk Modulus (GPa) = 65.56654 71.79216 68.67935
# Shear Modulus (GPa) = 34.14213 39.34822 36.74518
#
# Velocity S-wave (km/s) = 3.95553 4.24641 4.10355
# Velocity P-wave (km/s) = 7.13503 7.54604 7.34341
#
# Compressibility (1/GPa) = 0.01525168
#
# Stress axis : x y z
#
# Youngs Moduli (GPa) = 91.79174 77.75714 119.13030
#
# Poissons Ratio (x) = 0.16883 0.24116
# Poissons Ratio (y) = 0.19930 0.50667
# Poissons Ratio (z) = 0.18582 0.33071
#
# Static dielectric constant tensor:
#      x y z
#    x 3.982950 0.055370 -0.367440 
#    y 0.055370 4.037430 0.267790 
#    z -0.367440 0.267790 4.368440 
# 
# 
# High freq. dielectric constant tensor:
#      x y z
#    x 1.847640 0.008220 -0.026470 
#    y 0.008220 1.852670 0.010830 
#    z -0.026470 0.010830 1.874590 
# 
# From -- ./inp_files/148072.got.cif
#   From: 2010.06.25/outbox.cif.g09.slc.cpg/sg2_75_cif.got.tgz:148072.got - 2010.06.27 13:26:56.
