data_PCOD8000281
_publ_section_title
;
Structure prediction by ZEFSAII (Michael W. Deem and Ramdas Pophale) SiO2 
 PCOD8000281
Probable space group: P 1
;
_chemical_formula_sum "Si O2"
_cell_formula_units_Z 6
_cell_length_a 4.828583
_cell_length_b 10.944099
_cell_length_c 4.906358
_cell_angle_alpha 116.635360
_cell_angle_beta 89.999915
_cell_angle_gamma 88.712491
_cell_volume 231.686008
_symmetry_space_group_name_H-M "P 1"
_symmetry_group_IT_number 1
_symmetry_cell_setting 'triclinic'
loop_
_space_group_symop_operation_xyz
x,y,z
loop_
_atom_site_type_symbol
_atom_site_label
_atom_site_fract_x
_atom_site_fract_y
_atom_site_fract_z
Si Si1 0.366920 0.668900 0.268760
Si Si2 0.883415 0.485194 0.032062
Si Si3 0.084160 0.878519 0.827489
Si Si4 0.420854 0.119750 0.219610
Si Si5 0.904359 0.303456 0.350325
Si Si6 0.703613 0.910131 0.359101
O O1 0.622297 0.567846 0.242993
O O2 0.477854 0.791282 0.200709
O O3 0.124724 0.586327 0.038594
O O4 0.234677 0.734170 0.610307
O O5 0.001923 0.384993 0.166572
O O6 0.785851 0.403657 0.685235
O O7 0.822114 0.912497 0.666319
O O8 0.965659 0.876153 0.129975
O O9 0.309920 0.997368 0.906795
O O10 0.663050 0.202322 0.154588
O O11 0.165477 0.220804 0.395951
O O12 0.553095 0.054479 0.430616
#
# Coordination Sequence:
#
# PCOD8000281 Si02
#       6
#     1   1   1   1   1   1
#     4  12  28  52  80 116 158 198 268 318 396 462
#     4  12  30  50  78 110 158 214 258 314 378 470
#     4  12  28  50  82 124 156 202 252 340 398 458
#     4  12  28  52  80 116 158 198 268 318 396 462
#     4  12  30  50  78 110 158 214 258 314 378 470
#     4  12  28  50  82 124 156 202 252 340 398 458
#
# _framework density 25.897119
#
# number of rings (size 3 to 8) (size 9 to 14) (size 15 to 20)
#    0.000    0.000    3.333    4.000    4.667    5.333 
#    0.000    0.000    0.000    0.000    0.000    0.000 
#    0.000    0.000    0.000    0.000    0.000    0.000 
#
# Total GULP energy -74435.673002 kJ/mol
# GULP energy per Si atom -12405.945500 kJ/mol
# Density = 2.583818 g / cm^3
# Si number density = 25.897119 Si / 1000 Ang^3
#
#
#
# Elastic Constant Matrix: (Units=GPa)
#
#
# Indices 1 2 3 4 5 6 
#
# 1 154.4345 28.6810 13.9347 21.3225 13.0187 3.2092
# 2 28.6810 86.1306 27.8557 19.0758 4.6551 13.1049
# 3 13.9347 27.8557 74.2005 10.2649 14.8343 10.3932
# 4 21.3225 19.0758 10.2649 36.6509 4.5037 0.7517
# 5 13.0187 4.6551 14.8343 4.5037 38.3085 11.5656
# 6 3.2092 13.1049 10.3932 0.7517 11.5656 47.7717
#
#
#
# Elastic Compliance Matrix: (Units=1/GPa)
#
#
# Indices 1 2 3 4 5 6 
#
# 1 0.007398 -0.001747 0.000051 -0.003161 -0.002111 0.000532
# 2 -0.001747 0.015409 -0.004592 -0.005924 0.002273 -0.003568
# 3 0.000051 -0.004592 0.016639 -0.001615 -0.005402 -0.001031
# 4 -0.003161 -0.005924 -0.001615 0.032873 -0.002104 0.002181
# 5 -0.002111 0.002273 -0.005402 -0.002104 0.030925 -0.006760
# 6 0.000532 -0.003568 -0.001031 0.002181 -0.006760 0.023703
#
#
# Mechanical properties :
#
#
# Convention : Reuss Voigt Hill
#
# Bulk Modulus (GPa) = 37.21479 50.63425 43.92452
# Shear Modulus (GPa) = 33.67489 40.83248 37.25369
#
# Velocity S-wave (km/s) = 3.60993 3.97510 3.79691
# Velocity P-wave (km/s) = 5.63710 6.37676 6.01830
#
# Compressibility (1/GPa) = 0.02687104
#
# Stress axis : x y z
#
# Youngs Moduli (GPa) = 135.16527 64.89705 60.10023
#
# Poissons Ratio (x) = 0.11337 -0.00308
# Poissons Ratio (y) = 0.23613 0.27597
# Poissons Ratio (z) = -0.00692 0.29800
#
# Static dielectric constant tensor:
#      x y z
#    x 4.851510 0.009080 0.095130 
#    y 0.009080 4.644670 0.427400 
#    z 0.095130 0.427400 4.366490 
# 
# 
# High freq. dielectric constant tensor:
#      x y z
#    x 2.062990 -0.002350 0.004270 
#    y -0.002350 2.035950 0.018970 
#    z 0.004270 0.018970 2.023180 
# 
# From -- ./inp_files/328.got.cif
#   From: 2010.03.12/outbox.cif.g09.slc.cpg/sg1_1_cif.got.tgz:328.got - 2010.03.29 11:57:58.
