data_PCOD8000528
_publ_section_title
;
Structure prediction by ZEFSAII (Michael W. Deem and Ramdas Pophale) SiO2 
 PCOD8000528
Probable space group: P -1
;
_chemical_formula_sum "Si O2"
_cell_formula_units_Z 16
_cell_length_a 11.608026
_cell_length_b 9.510403
_cell_length_c 14.653274
_cell_angle_alpha 83.479047
_cell_angle_beta 149.720668
_cell_angle_gamma 108.372263
_cell_volume 730.315689
_symmetry_space_group_name_H-M "P -1"
_symmetry_group_IT_number 2
_symmetry_cell_setting 'triclinic'
loop_
_space_group_symop_operation_xyz
x,y,z
-x,-y,-z
loop_
_atom_site_type_symbol
_atom_site_label
_atom_site_fract_x
_atom_site_fract_y
_atom_site_fract_z
Si Si1 0.032850 0.705697 0.171217
Si Si2 0.497499 0.459564 0.759779
Si Si3 0.424458 0.796237 0.279475
Si Si4 0.886814 0.456675 0.599454
Si Si5 0.609829 0.041735 0.936907
Si Si6 0.787864 0.699940 0.251129
Si Si7 0.064669 0.980056 0.301868
Si Si8 0.359685 0.750045 0.894913
O O1 0.163501 0.744434 0.159641
O O2 0.168750 0.624314 0.333580
O O3 0.057121 0.863814 0.224015
O O4 0.741400 0.580482 0.971826
O O5 0.569713 0.361667 0.741966
O O6 0.379410 0.567281 0.623484
O O7 0.290904 0.333968 0.694975
O O8 0.425120 0.913624 0.192375
O O9 0.653732 0.887173 0.498882
O O10 0.045030 0.391220 0.650572
O O11 0.062241 0.643304 0.710086
O O12 0.414513 0.859180 0.834559
O O13 0.541613 0.147116 0.953154
O O14 0.896760 0.067732 0.148957
O O15 0.958609 0.884576 0.331115
O O16 0.530910 0.651742 0.016413
#
# Coordination Sequence:
#
# PCOD8000528 Si02
#       8
#     2   2   2   2   2   2   2   2
#     4  11  26  46  64  93 134 174 217 266 315 378
#     4  12  25  40  68  99 125 171 217 269 324 380
#     4  12  25  44  67  94 131 175 221 259 313 390
#     4  11  23  39  66  95 128 169 211 270 324 382
#     4  10  22  38  63  95 130 171 207 264 323 381
#     4  10  21  40  64  96 133 159 210 269 331 378
#     4  10  25  41  67  95 130 173 212 267 324 380
#     4  10  19  39  63  95 136 164 204 265 332 381
#
# _framework density 21.908335000000001
#
# number of rings (size 3 to 8) (size 9 to 14) (size 15 to 20)
#    0.000    1.250    2.500    2.250    5.250    4.500 
#    0.000    0.000    0.000    0.000    0.000    0.000 
#    0.000    0.000    0.000    0.000    0.000    0.000 
#
# Total GULP energy -198399.894834 kJ/mol
# GULP energy per Si atom -12399.993427 kJ/mol
# Density = 2.185847 g / cm^3
# Si number density = 21.908335 Si / 1000 Ang^3
#
#
#
# Elastic Constant Matrix: (Units=GPa)
#
#
# Indices 1 2 3 4 5 6 
#
# 1 124.4563 37.2269 21.4973 -9.2277 -2.0508 0.8592
# 2 37.2269 85.2157 36.4945 -15.9594 -4.9290 -11.0138
# 3 21.4973 36.4945 75.9175 -11.3211 -2.8101 -9.4117
# 4 -9.2277 -15.9594 -11.3211 42.2175 0.5128 -3.0614
# 5 -2.0508 -4.9290 -2.8101 0.5128 20.4759 1.1781
# 6 0.8592 -11.0138 -9.4117 -3.0614 1.1781 31.2462
#
#
#
# Elastic Compliance Matrix: (Units=1/GPa)
#
#
# Indices 1 2 3 4 5 6 
#
# 1 0.009398 -0.003893 -0.001002 0.000175 -0.000028 -0.001914
# 2 -0.003893 0.017633 -0.005999 0.004527 0.002639 0.004859
# 3 -0.001002 -0.005999 0.017114 0.002333 0.000557 0.003276
# 4 0.000175 0.004527 0.002333 0.026409 0.000486 0.004863
# 5 -0.000028 0.002639 0.000557 0.000486 0.049576 -0.000723
# 6 -0.001914 0.004859 0.003276 0.004863 -0.000723 0.035260
#
#
# Mechanical properties :
#
#
# Convention : Reuss Voigt Hill
#
# Bulk Modulus (GPa) = 44.72668 52.89189 48.80929
# Shear Modulus (GPa) = 27.08109 31.47929 29.28019
#
# Velocity S-wave (km/s) = 3.51965 3.79471 3.65976
# Velocity P-wave (km/s) = 6.08087 6.58745 6.33922
#
# Compressibility (1/GPa) = 0.02235802
#
# Stress axis : x y z
#
# Youngs Moduli (GPa) = 106.40385 56.71198 58.43014
#
# Poissons Ratio (x) = 0.22075 0.05856
# Poissons Ratio (y) = 0.41418 0.35052
# Poissons Ratio (z) = 0.10664 0.34022
#
# Static dielectric constant tensor:
#      x y z
#    x 3.827580 0.055710 0.100180 
#    y 0.055710 4.016500 -0.110500 
#    z 0.100180 -0.110500 3.804150 
# 
# 
# High freq. dielectric constant tensor:
#      x y z
#    x 1.854100 -0.000430 0.007560 
#    y -0.000430 1.869330 -0.011430 
#    z 0.007560 -0.011430 1.854230 
# 
# From -- ./inp_files/515711.got.cif
#   From: 2010.06.25/outbox.cif.g09.slc.cpg/sg2_258_cif.got.tgz:515711.got - 2010.06.27 13:26:56.
