data_PCOD8000728
_publ_section_title
;
Structure prediction by ZEFSAII (Michael W. Deem and Ramdas Pophale) SiO2 
 PCOD8000728
Probable space group: P -1
;
_chemical_formula_sum "Si O2"
_cell_formula_units_Z 16
_cell_length_a 16.424980
_cell_length_b 11.158964
_cell_length_c 8.977188
_cell_angle_alpha 88.069722
_cell_angle_beta 126.913186
_cell_angle_gamma 135.187185
_cell_volume 665.471268
_symmetry_space_group_name_H-M "P -1"
_symmetry_group_IT_number 2
_symmetry_cell_setting 'triclinic'
loop_
_space_group_symop_operation_xyz
x,y,z
-x,-y,-z
loop_
_atom_site_type_symbol
_atom_site_label
_atom_site_fract_x
_atom_site_fract_y
_atom_site_fract_z
Si Si1 0.224780 0.959719 0.401826
Si Si2 0.710718 0.474043 0.390294
Si Si3 0.206860 0.767161 0.772779
Si Si4 0.069547 0.207127 0.102513
Si Si5 0.412480 0.920309 0.699545
Si Si6 0.034192 0.818714 0.508147
Si Si7 0.420289 0.509939 0.289538
Si Si8 0.363363 0.293178 0.971364
O O1 0.316563 0.918744 0.477605
O O2 0.067363 0.810635 0.374047
O O3 0.407925 0.238362 0.613142
O O4 0.107424 0.878824 0.126800
O O5 0.861247 0.699973 0.655825
O O6 0.695195 0.318205 0.425732
O O7 0.486956 0.300253 0.157830
O O8 0.800993 0.582662 0.315605
O O9 0.364197 0.934446 0.802856
O O10 0.145138 0.838778 0.744096
O O11 0.000000 0.500000 0.500000
O O12 0.340195 0.839631 0.048203
O O13 0.257641 0.430179 0.192700
O O14 0.000000 0.000000 0.000000
O O15 0.152448 0.060184 0.664068
O O16 0.500000 0.500000 0.500000
O O17 0.305910 0.315646 0.048177
O O18 0.500000 0.500000 0.000000
#
# Coordination Sequence:
#
# PCOD8000728 Si02
#       8
#     2   2   2   2   2   2   2   2
#     4  11  26  44  68 106 134 184 235 284 346 412
#     4  12  25  44  71 102 141 186 226 289 353 411
#     4  10  19  39  68  99 140 182 211 274 358 410
#     4  12  26  47  71  95 138 192 237 278 352 420
#     4  10  23  41  68 102 142 175 235 281 344 422
#     4  11  24  40  69 104 136 172 231 287 347 409
#     4  12  24  47  69  91 138 188 231 284 352 413
#     4  12  25  42  67 105 134 173 240 295 345 402
#
# _framework density 24.043112000000001
#
# number of rings (size 3 to 8) (size 9 to 14) (size 15 to 20)
#    0.000    0.750    6.250    0.750    1.750    3.000 
#    0.000    0.625    0.000    0.000    0.000    0.000 
#    0.000    0.000    0.000    0.000    0.000    0.000 
#
# Total GULP energy -198233.091137 kJ/mol
# GULP energy per Si atom -12389.568196 kJ/mol
# Density = 2.398839 g / cm^3
# Si number density = 24.043112 Si / 1000 Ang^3
#
#
#
# Elastic Constant Matrix: (Units=GPa)
#
#
# Indices 1 2 3 4 5 6 
#
# 1 55.8214 14.7998 -6.3303 2.2372 0.8667 3.1232
# 2 14.7998 91.7528 18.1351 9.1501 5.2578 -9.1765
# 3 -6.3303 18.1351 87.2728 7.8678 10.9361 -6.6374
# 4 2.2372 9.1501 7.8678 38.9778 -3.7617 5.2748
# 5 0.8667 5.2578 10.9361 -3.7617 39.3795 2.2389
# 6 3.1232 -9.1765 -6.6374 5.2748 2.2389 37.3875
#
#
#
# Elastic Compliance Matrix: (Units=1/GPa)
#
#
# Indices 1 2 3 4 5 6 
#
# 1 0.019260 -0.003657 0.002096 -0.000436 -0.000443 -0.002046
# 2 -0.003657 0.012650 -0.002174 -0.002942 -0.001486 0.003528
# 3 0.002096 -0.002174 0.012963 -0.002890 -0.003758 0.002225
# 4 -0.000436 -0.002942 -0.002890 0.028092 0.004196 -0.005413
# 5 -0.000443 -0.001486 -0.003758 0.004196 0.027230 -0.003218
# 6 -0.002046 0.003528 0.002225 -0.005413 -0.003218 0.029135
#
#
# Mechanical properties :
#
#
# Convention : Reuss Voigt Hill
#
# Bulk Modulus (GPa) = 26.73536 32.00623 29.37079
# Shear Modulus (GPa) = 33.49684 37.03177 35.26431
#
# Velocity S-wave (km/s) = 3.73661 3.92883 3.83392
# Velocity P-wave (km/s) = 5.45529 5.82424 5.64278
#
# Compressibility (1/GPa) = 0.03740365
#
# Stress axis : x y z
#
# Youngs Moduli (GPa) = 51.92013 79.05248 77.14306
#
# Poissons Ratio (x) = 0.28908 -0.16170
# Poissons Ratio (y) = 0.18986 0.16771
# Poissons Ratio (z) = -0.10883 0.17186
#
# Static dielectric constant tensor:
#      x y z
#    x 4.232660 -0.314930 0.860340 
#    y -0.314930 4.319560 0.250840 
#    z 0.860340 0.250840 4.578540 
# 
# 
# High freq. dielectric constant tensor:
#      x y z
#    x 1.945700 -0.011450 0.024540 
#    y -0.011450 1.943160 0.011000 
#    z 0.024540 0.011000 1.954360 
# 
# From -- ./inp_files/333286.got.cif
#   From: 2010.06.25/outbox.cif.g09.slc.cpg/sg2_167_cif.got.tgz:333286.got - 2010.06.27 13:26:56.
