data_PCOD8000099
_publ_section_title
;
Structure prediction by ZEFSAII (Michael W. Deem and Ramdas Pophale) SiO2 
 PCOD8000099
Probable space group: P 1
;
_chemical_formula_sum "Si O2"
_cell_formula_units_Z 8
_cell_length_a 11.883003
_cell_length_b 9.255156
_cell_length_c 5.018552
_cell_angle_alpha 74.662966
_cell_angle_beta 65.551061
_cell_angle_gamma 36.623540
_cell_volume 297.398766
_symmetry_space_group_name_H-M "P 1"
_symmetry_group_IT_number 1
_symmetry_cell_setting 'triclinic'
loop_
_space_group_symop_operation_xyz
x,y,z
loop_
_atom_site_type_symbol
_atom_site_label
_atom_site_fract_x
_atom_site_fract_y
_atom_site_fract_z
Si Si1 0.295480 0.486560 0.996310
Si Si2 0.333125 0.877362 0.220836
Si Si3 0.363378 0.244176 0.553440
Si Si4 0.139437 0.930197 0.903081
Si Si5 0.081878 0.371748 0.376124
Si Si6 0.778385 0.422826 0.817863
Si Si7 0.805017 0.909099 0.246283
Si Si8 0.724204 0.176537 0.686713
O O1 0.295587 0.338554 0.878838
O O2 0.111930 0.776039 0.958649
O O3 0.485756 0.405636 0.769500
O O4 0.312976 0.432851 0.317596
O O5 0.276237 0.879827 0.570633
O O6 0.221810 0.143969 0.141397
O O7 0.253103 0.830118 0.120270
O O8 0.571657 0.664296 0.046569
O O9 0.227184 0.241469 0.561323
O O10 0.607129 0.990904 0.436994
O O11 0.923735 0.215574 0.002851
O O12 0.875198 0.481964 0.580458
O O13 0.008072 0.609906 0.233297
O O14 0.779480 0.294870 0.647819
O O15 0.816640 0.034719 0.384976
O O16 0.797434 0.983680 0.922668
#
# Coordination Sequence:
#
# PCOD8000099 Si02
#       8
#     1   1   1   1   1   1   1   1
#     4  10  21  44  72 103 146 185 242 306 366 421
#     4  11  27  48  71 108 152 193 248 302 366 448
#     4  10  24  43  70 104 145 192 240 301 356 446
#     4  11  25  44  74 110 143 194 242 304 376 428
#     4  11  28  49  76 110 153 206 242 297 383 455
#     4  11  27  47  78 111 152 193 250 311 371 443
#     4  10  25  46  74 105 145 194 248 301 369 434
#     4  10  23  45  75 109 142 187 248 316 361 423
#
# _framework density 26.899912
#
# number of rings (size 3 to 8) (size 9 to 14) (size 15 to 20)
#    0.000    1.500    1.250    0.750    7.000   14.000 
#    0.000    0.000    0.000    0.000    0.000    0.000 
#    0.000    0.000    0.000    0.000    0.000    0.000 
#
# Total GULP energy -99155.199729 kJ/mol
# GULP energy per Si atom -12394.399966 kJ/mol
# Density = 2.683869 g / cm^3
# Si number density = 26.899912 Si / 1000 Ang^3
#
#
#
# Elastic Constant Matrix: (Units=GPa)
#
#
# Indices 1 2 3 4 5 6 
#
# 1 111.3163 13.0883 21.9693 15.5033 9.6806 -2.4681
# 2 13.0883 150.0820 44.5328 18.0600 -8.2899 0.3218
# 3 21.9693 44.5328 88.2761 16.6220 10.7742 -9.4873
# 4 15.5033 18.0600 16.6220 34.1401 -13.1801 -13.6424
# 5 9.6806 -8.2899 10.7742 -13.1801 36.6357 -1.2274
# 6 -2.4681 0.3218 -9.4873 -13.6424 -1.2274 62.5559
#
#
#
# Elastic Compliance Matrix: (Units=1/GPa)
#
#
# Indices 1 2 3 4 5 6 
#
# 1 0.010512 -0.000144 -0.000787 -0.006780 -0.005061 -0.001282
# 2 -0.000144 0.008277 -0.004239 -0.001679 0.002520 -0.001008
# 3 -0.000787 -0.004239 0.016365 -0.008514 -0.008612 0.000447
# 4 -0.006780 -0.001679 -0.008514 0.049868 0.022183 0.009760
# 5 -0.005061 0.002520 -0.008612 0.022183 0.039854 0.004101
# 6 -0.001282 -0.001008 0.000447 0.009760 0.004101 0.018217
#
#
# Mechanical properties :
#
#
# Convention : Reuss Voigt Hill
#
# Bulk Modulus (GPa) = 40.30150 56.53947 48.42049
# Shear Modulus (GPa) = 30.92073 44.67194 37.79633
#
# Velocity S-wave (km/s) = 3.39407 4.07956 3.75250
# Velocity P-wave (km/s) = 5.51127 6.57681 6.06748
#
# Compressibility (1/GPa) = 0.02481297
#
# Stress axis : x y z
#
# Youngs Moduli (GPa) = 95.13258 120.81840 61.10671
#
# Poissons Ratio (x) = 0.01742 0.04807
# Poissons Ratio (y) = 0.01372 0.25905
# Poissons Ratio (z) = 0.07484 0.51219
#
# Static dielectric constant tensor:
#      x y z
#    x 5.302590 -0.274280 -0.140680 
#    y -0.274280 5.008170 0.202790 
#    z -0.140680 0.202790 4.573360 
# 
# 
# High freq. dielectric constant tensor:
#      x y z
#    x 2.111910 -0.011830 -0.020300 
#    y -0.011830 2.088320 0.010210 
#    z -0.020300 0.010210 2.080980 
# 
# From -- ./inp_files/2209.got.cif
#   From: 2010.03.12/outbox.cif.g09.slc.cpg/sg1_2_cif.got.tgz:2209.got - 2010.03.29 11:57:58.
