data_PCOD8000679
_publ_section_title
;
Structure prediction by ZEFSAII (Michael W. Deem and Ramdas Pophale) SiO2 
 PCOD8000679
Probable space group: P -1
;
_chemical_formula_sum "Si O2"
_cell_formula_units_Z 14
_cell_length_a 9.955794
_cell_length_b 9.427742
_cell_length_c 11.230242
_cell_angle_alpha 51.566144
_cell_angle_beta 139.496190
_cell_angle_gamma 123.398718
_cell_volume 529.973206
_symmetry_space_group_name_H-M "P -1"
_symmetry_group_IT_number 2
_symmetry_cell_setting 'triclinic'
loop_
_space_group_symop_operation_xyz
x,y,z
-x,-y,-z
loop_
_atom_site_type_symbol
_atom_site_label
_atom_site_fract_x
_atom_site_fract_y
_atom_site_fract_z
Si Si1 0.402487 0.241458 0.372872
Si Si2 0.019054 0.757802 0.046734
Si Si3 0.231499 0.825675 0.808489
Si Si4 0.620843 0.767602 0.225624
Si Si5 0.896692 0.840424 0.166886
Si Si6 0.686797 0.159383 0.414358
Si Si7 0.219187 0.410337 0.363877
O O1 0.173728 0.258125 0.162690
O O2 0.571134 0.292983 0.352474
O O3 0.410390 0.374316 0.423899
O O4 0.441474 0.045226 0.552962
O O5 0.935718 0.715541 0.146792
O O6 0.172629 0.612884 0.199564
O O7 0.146412 0.962141 0.014529
O O8 0.300894 0.774367 0.748714
O O9 0.992145 0.738606 0.718369
O O10 0.266993 0.045324 0.733257
O O11 0.370259 0.750124 0.046345
O O12 0.693219 0.751091 0.146658
O O13 0.688853 0.602970 0.433925
O O14 0.082723 0.851321 0.380165
#
# Coordination Sequence:
#
# PCOD8000679 Si02
#       7
#     2   2   2   2   2   2   2
#     4  10  21  38  64  95 131 176 222 267 331 397
#     4  10  23  41  67  94 137 179 222 279 340 394
#     4  11  22  41  70 101 133 179 225 270 338 405
#     4  11  23  40  72  99 135 175 229 272 334 406
#     4  10  21  44  68  98 128 185 229 272 332 413
#     4  10  19  39  67  93 129 180 224 268 320 404
#     4  12  23  44  67 102 141 171 217 293 337 387
#
# _framework density 26.416428
#
# number of rings (size 3 to 8) (size 9 to 14) (size 15 to 20)
#    0.000    1.429    2.857    3.429    0.000    1.714 
#    5.143    2.143    0.000    0.000    0.000    0.000 
#    0.000    0.000    0.000    0.000    0.000    0.000 
#
# Total GULP energy -173548.277883 kJ/mol
# GULP energy per Si atom -12396.305563 kJ/mol
# Density = 2.635630 g / cm^3
# Si number density = 26.416428 Si / 1000 Ang^3
#
#
#
# Elastic Constant Matrix: (Units=GPa)
#
#
# Indices 1 2 3 4 5 6 
#
# 1 151.0039 43.1761 31.5338 -6.1429 -10.2871 -31.0206
# 2 43.1761 51.0800 22.2307 -17.0329 -11.4974 -20.1947
# 3 31.5338 22.2307 150.8979 -9.9059 1.5736 -2.4757
# 4 -6.1429 -17.0329 -9.9059 24.6846 -15.8876 1.4478
# 5 -10.2871 -11.4974 1.5736 -15.8876 31.0704 6.1312
# 6 -31.0206 -20.1947 -2.4757 1.4478 6.1312 46.4023
#
#
#
# Elastic Compliance Matrix: (Units=1/GPa)
#
#
# Indices 1 2 3 4 5 6 
#
# 1 0.009974 -0.013161 -0.000837 -0.012462 -0.008369 0.002390
# 2 -0.013161 0.105364 -0.005021 0.128413 0.096599 0.020019
# 3 -0.000837 -0.005021 0.007355 -0.002991 -0.003688 -0.001772
# 4 -0.012462 0.128413 -0.002991 0.222226 0.153187 0.020221
# 5 -0.008369 0.096599 -0.003688 0.153187 0.141148 0.012819
# 6 0.002390 0.020019 -0.001772 0.020221 0.012819 0.029442
#
#
# Mechanical properties :
#
#
# Convention : Reuss Voigt Hill
#
# Bulk Modulus (GPa) = 11.81269 60.76254 36.28761
# Shear Modulus (GPa) = 8.59453 37.50087 23.04770
#
# Velocity S-wave (km/s) = 1.80570 3.77185 2.95697
# Velocity P-wave (km/s) = 2.97133 6.48235 5.04231
#
# Compressibility (1/GPa) = 0.08465471
#
# Stress axis : x y z
#
# Youngs Moduli (GPa) = 100.26032 9.49088 135.96741
#
# Poissons Ratio (x) = 0.12491 0.11381
# Poissons Ratio (y) = 1.31950 0.68276
# Poissons Ratio (z) = 0.08392 0.04766
#
# Static dielectric constant tensor:
#      x y z
#    x 4.903290 -0.203610 -0.092470 
#    y -0.203610 4.471090 0.089770 
#    z -0.092470 0.089770 4.747010 
# 
# 
# High freq. dielectric constant tensor:
#      x y z
#    x 2.072640 -0.014460 -0.002660 
#    y -0.014460 2.033510 0.012590 
#    z -0.002660 0.012590 2.070110 
# 
# From -- ./inp_files/416718.got.cif
#   From: 2010.06.25/outbox.cif.g09.slc.cpg/sg2_209_cif.got.tgz:416718.got - 2010.06.27 13:26:56.
