data_PCOD8000145
_publ_section_title
;
Structure prediction by ZEFSAII (Michael W. Deem and Ramdas Pophale) SiO2 
 PCOD8000145
Probable space group: P 1
;
_chemical_formula_sum "Si O2"
_cell_formula_units_Z 8
_cell_length_a 11.452433
_cell_length_b 7.352405
_cell_length_c 8.865029
_cell_angle_alpha 50.667721
_cell_angle_beta 141.288364
_cell_angle_gamma 110.667195
_cell_volume 345.267784
_symmetry_space_group_name_H-M "P 1"
_symmetry_group_IT_number 1
_symmetry_cell_setting 'triclinic'
loop_
_space_group_symop_operation_xyz
x,y,z
loop_
_atom_site_type_symbol
_atom_site_label
_atom_site_fract_x
_atom_site_fract_y
_atom_site_fract_z
Si Si1 0.038640 0.175500 0.228460
Si Si2 0.281357 0.391242 0.154693
Si Si3 0.636739 0.563316 0.550680
Si Si4 0.842821 0.122209 0.645453
Si Si5 0.949465 0.763552 0.203024
Si Si6 0.879462 0.626836 0.513532
Si Si7 0.464095 0.046295 0.258456
Si Si8 0.113261 0.189479 0.631711
O O1 0.187072 0.323002 0.248421
O O2 0.079973 0.093924 0.485144
O O3 0.087991 0.926458 0.309655
O O4 0.809269 0.330400 0.905144
O O5 0.467779 0.478153 0.340531
O O6 0.341085 0.154950 0.227183
O O7 0.107325 0.609119 0.786099
O O8 0.726356 0.733111 0.437666
O O9 0.550634 0.746807 0.507624
O O10 0.875090 0.342190 0.660687
O O11 0.626346 0.189206 0.323503
O O12 0.996376 0.062921 0.695250
O O13 0.846121 0.889141 0.879922
O O14 0.057007 0.483503 0.423596
O O15 0.811330 0.763207 0.212772
O O16 0.337403 0.097875 0.951564
#
# Coordination Sequence:
#
# PCOD8000145 Si02
#       8
#     1   1   1   1   1   1   1   1
#     4  11  25  46  70 102 138 187 229 279 347 411
#     4  11  22  47  70 101 141 178 233 280 341 411
#     4  11  25  43  72 106 138 182 232 285 342 408
#     4  11  22  47  71  96 143 180 226 284 344 403
#     4  11  21  45  74  95 134 188 226 277 346 403
#     4  10  22  44  71  99 139 184 225 281 342 410
#     4  12  24  42  71 103 138 181 225 289 342 400
#     4  11  27  44  67 108 137 180 232 283 342 412
#
# _framework density 23.170421000000001
#
# number of rings (size 3 to 8) (size 9 to 14) (size 15 to 20)
#    0.000    1.000    6.250    0.750    3.500    4.000 
#    2.250    6.250    0.000    0.000    0.000    0.000 
#    0.000    0.000    0.000    0.000    0.000    0.000 
#
# Total GULP energy -99128.157789 kJ/mol
# GULP energy per Si atom -12391.019724 kJ/mol
# Density = 2.311768 g / cm^3
# Si number density = 23.170421 Si / 1000 Ang^3
#
#
#
# Elastic Constant Matrix: (Units=GPa)
#
#
# Indices 1 2 3 4 5 6 
#
# 1 113.6249 27.4733 63.0504 3.9026 -7.8067 4.7357
# 2 27.4733 76.5312 34.5584 6.6154 8.4305 -3.5002
# 3 63.0504 34.5584 110.3182 23.6829 -0.6913 18.7189
# 4 3.9026 6.6154 23.6829 43.6484 10.3494 -1.7339
# 5 -7.8067 8.4305 -0.6913 10.3494 42.7515 1.2675
# 6 4.7357 -3.5002 18.7189 -1.7339 1.2675 40.1094
#
#
#
# Elastic Compliance Matrix: (Units=1/GPa)
#
#
# Indices 1 2 3 4 5 6 
#
# 1 0.013791 -0.001494 -0.008491 0.003260 0.001819 0.002287
# 2 -0.001494 0.016596 -0.005497 0.001770 -0.004193 0.004399
# 3 -0.008491 -0.005497 0.019287 -0.009819 0.002489 -0.008982
# 4 0.003260 0.001770 -0.009819 0.029633 -0.007260 0.005863
# 5 0.001819 -0.004193 0.002489 -0.007260 0.026434 -0.002891
# 6 0.002287 0.004399 -0.008982 0.005863 -0.002891 0.029582
#
#
# Mechanical properties :
#
#
# Convention : Reuss Voigt Hill
#
# Bulk Modulus (GPa) = 53.44977 61.18205 57.31591
# Shear Modulus (GPa) = 28.98158 36.99468 32.98813
#
# Velocity S-wave (km/s) = 3.54050 4.00013 3.77731
# Velocity P-wave (km/s) = 6.31124 6.91355 6.61925
#
# Compressibility (1/GPa) = 0.01870915
#
# Stress axis : x y z
#
# Youngs Moduli (GPa) = 72.50955 60.25709 51.84822
#
# Poissons Ratio (x) = 0.09005 0.44022
# Poissons Ratio (y) = 0.10835 0.28503
# Poissons Ratio (z) = 0.61565 0.33126
#
# Static dielectric constant tensor:
#      x y z
#    x 4.260060 -0.068730 -0.018870 
#    y -0.068730 4.196140 0.096740 
#    z -0.018870 0.096740 4.146900 
# 
# 
# High freq. dielectric constant tensor:
#      x y z
#    x 1.912540 -0.008070 -0.004670 
#    y -0.008070 1.927880 0.012690 
#    z -0.004670 0.012690 1.902360 
# 
# From -- ./inp_files/5350.got.cif
#   From: 2010.03.12/outbox.cif.g09.slc.cpg/sg1_3_cif.got.tgz:5350.got - 2010.03.29 11:57:58.
