data_PCOD8000622
_publ_section_title
;
Structure prediction by ZEFSAII (Michael W. Deem and Ramdas Pophale) SiO2 
 PCOD8000622
Probable space group: P -1
;
_chemical_formula_sum "Si O2"
_cell_formula_units_Z 16
_cell_length_a 12.026969
_cell_length_b 8.739629
_cell_length_c 9.055170
_cell_angle_alpha 100.765141
_cell_angle_beta 50.422162
_cell_angle_gamma 94.704879
_cell_volume 719.838480
_symmetry_space_group_name_H-M "P -1"
_symmetry_group_IT_number 2
_symmetry_cell_setting 'triclinic'
loop_
_space_group_symop_operation_xyz
x,y,z
-x,-y,-z
loop_
_atom_site_type_symbol
_atom_site_label
_atom_site_fract_x
_atom_site_fract_y
_atom_site_fract_z
Si Si1 0.071280 0.017860 0.600100
Si Si2 0.394170 0.888995 0.724209
Si Si3 0.005751 0.166654 0.105570
Si Si4 0.608809 0.608859 0.507255
Si Si5 0.131291 0.732169 0.031993
Si Si6 0.540683 0.426399 0.796214
Si Si7 0.632523 0.097439 0.591734
Si Si8 0.763133 0.604453 0.098414
O O1 0.001186 0.177477 0.756641
O O2 0.041867 0.861377 0.691531
O O3 0.246735 0.018845 0.450084
O O4 0.000000 0.000000 0.500000
O O5 0.538514 0.780564 0.592441
O O6 0.327511 0.896043 0.616356
O O7 0.465495 0.049169 0.741169
O O8 0.274451 0.835271 0.932926
O O9 0.906768 0.288253 0.113908
O O10 0.161676 0.241698 0.994662
O O11 0.000000 0.000000 0.000000
O O12 0.500000 0.500000 0.500000
O O13 0.631533 0.548541 0.645387
O O14 0.755951 0.605884 0.285042
O O15 0.158836 0.560946 0.048164
O O16 0.638885 0.266296 0.695464
O O17 0.396317 0.384749 0.827671
O O18 0.500000 0.500000 0.000000
#
# Coordination Sequence:
#
# PCOD8000622 Si02
#       8
#     2   2   2   2   2   2   2   2
#     4  11  27  45  61  91 144 184 216 267 333 416
#     4  11  21  39  72 105 126 166 233 292 326 381
#     4  10  24  41  67  94 131 174 224 276 329 395
#     4  10  19  39  65  98 132 162 218 282 331 386
#     4  11  22  42  67  98 132 172 222 277 334 396
#     4  11  24  42  67 100 140 172 217 276 342 405
#     4  11  24  40  70 102 130 175 227 280 337 388
#     4  11  22  42  69 101 128 174 225 283 337 391
#
# _framework density 22.227207
#
# number of rings (size 3 to 8) (size 9 to 14) (size 15 to 20)
#    0.000    1.250    6.250    0.375    8.750    0.000 
#    2.250    1.875    0.000    0.000    0.000    0.000 
#    0.000    0.000    0.000    0.000    0.000    0.000 
#
# Total GULP energy -198252.977778 kJ/mol
# GULP energy per Si atom -12390.811111 kJ/mol
# Density = 2.217662 g / cm^3
# Si number density = 22.227207 Si / 1000 Ang^3
#
#
#
# Elastic Constant Matrix: (Units=GPa)
#
#
# Indices 1 2 3 4 5 6 
#
# 1 86.4280 26.1399 37.7195 1.7688 1.4909 -3.6923
# 2 26.1399 76.3201 23.5964 5.2578 0.6554 -3.3657
# 3 37.7195 23.5964 83.3813 7.7032 7.8749 -0.8789
# 4 1.7688 5.2578 7.7032 38.3687 -8.5048 -13.5940
# 5 1.4909 0.6554 7.8749 -8.5048 35.3277 -0.3012
# 6 -3.6923 -3.3657 -0.8789 -13.5940 -0.3012 29.8548
#
#
#
# Elastic Compliance Matrix: (Units=1/GPa)
#
#
# Indices 1 2 3 4 5 6 
#
# 1 0.015373 -0.003374 -0.006301 0.002142 0.001354 0.002324
# 2 -0.003374 0.015193 -0.002685 -0.001086 0.000204 0.000724
# 3 -0.006301 -0.002685 0.016422 -0.004601 -0.004476 -0.002739
# 4 0.002142 -0.001086 -0.004601 0.034782 0.009465 0.015940
# 5 0.001354 0.000204 -0.004476 0.009465 0.031562 0.004687
# 6 0.002324 0.000724 -0.002739 0.015940 0.004687 0.041089
#
#
# Mechanical properties :
#
#
# Convention : Reuss Voigt Hill
#
# Bulk Modulus (GPa) = 44.90438 46.78235 45.84336
# Shear Modulus (GPa) = 26.80060 31.28849 29.04455
#
# Velocity S-wave (km/s) = 3.47617 3.75596 3.61877
# Velocity P-wave (km/s) = 6.02976 6.31686 6.17497
#
# Compressibility (1/GPa) = 0.02226954
#
# Stress axis : x y z
#
# Youngs Moduli (GPa) = 65.05073 65.81850 60.89384
#
# Poissons Ratio (x) = 0.22206 0.38367
# Poissons Ratio (y) = 0.21947 0.16348
# Poissons Ratio (z) = 0.40986 0.17670
#
# Static dielectric constant tensor:
#      x y z
#    x 3.917400 -0.206950 -0.018490 
#    y -0.206950 4.137100 -0.334460 
#    z -0.018490 -0.334460 4.308210 
# 
# 
# High freq. dielectric constant tensor:
#      x y z
#    x 1.850830 -0.008740 -0.024140 
#    y -0.008740 1.885220 -0.001810 
#    z -0.024140 -0.001810 1.854410 
# 
# From -- ./inp_files/244362.got.cif
#   From: 2010.06.25/outbox.cif.g09.slc.cpg/sg2_123_cif.got.tgz:244362.got - 2010.06.27 13:26:56.
