data_PCOD8000108
_publ_section_title
;
Structure prediction by ZEFSAII (Michael W. Deem and Ramdas Pophale) SiO2 
 PCOD8000108
Probable space group: P 1
;
_chemical_formula_sum "Si O2"
_cell_formula_units_Z 8
_cell_length_a 7.742852
_cell_length_b 8.920001
_cell_length_c 10.462936
_cell_angle_alpha 43.985680
_cell_angle_beta 97.704695
_cell_angle_gamma 75.031447
_cell_volume 426.160595
_symmetry_space_group_name_H-M "P 1"
_symmetry_group_IT_number 1
_symmetry_cell_setting 'triclinic'
loop_
_space_group_symop_operation_xyz
x,y,z
loop_
_atom_site_type_symbol
_atom_site_label
_atom_site_fract_x
_atom_site_fract_y
_atom_site_fract_z
Si Si1 0.308340 0.102290 0.601380
Si Si2 0.927519 0.440652 0.224893
Si Si3 0.731986 0.760097 0.459192
Si Si4 0.711070 0.002419 0.816033
Si Si5 0.914664 0.302966 0.574853
Si Si6 0.428845 0.714662 0.640498
Si Si7 0.981262 0.995155 0.340466
Si Si8 0.672777 0.130656 0.027692
O O1 0.487356 0.137418 0.649884
O O2 0.170835 0.320444 0.349045
O O3 0.160743 0.131073 0.687926
O O4 0.392005 0.833697 0.705149
O O5 0.819688 0.470698 0.333845
O O6 0.891264 0.252904 0.251563
O O7 0.831489 0.704985 0.981254
O O8 0.854378 0.480473 0.583112
O O9 0.586089 0.767005 0.550252
O O10 0.893576 0.826691 0.496017
O O11 0.604290 0.969079 0.207583
O O12 0.831562 0.115861 0.692023
O O13 0.697804 0.043605 0.939532
O O14 0.507240 0.423135 0.844838
O O15 0.224214 0.834875 0.462181
O O16 0.894210 0.069333 0.140939
#
# Coordination Sequence:
#
# PCOD8000108 Si02
#       8
#     1   1   1   1   1   1   1   1
#     4   9  24  40  61  91 120 156 204 244 293 361
#     4   9  20  44  57  89 122 151 205 245 288 360
#     4  10  22  41  62  89 121 158 202 241 303 350
#     4  12  21  40  65  84 127 160 192 251 299 350
#     4  10  22  42  59  92 119 160 202 238 304 353
#     4  11  21  43  61  89 122 158 200 245 301 351
#     4   9  22  42  60  86 128 152 197 258 284 357
#     4  10  22  38  59  92 119 157 200 242 294 362
#
# _framework density 18.772264
#
# number of rings (size 3 to 8) (size 9 to 14) (size 15 to 20)
#    1.500    0.500    2.500    0.750    3.500    0.000 
#   11.250    0.000    0.000    0.000    0.000    0.000 
#    0.000    0.000    0.000    0.000    0.000    0.000 
#
# Total GULP energy -99124.993084 kJ/mol
# GULP energy per Si atom -12390.624136 kJ/mol
# Density = 1.872954 g / cm^3
# Si number density = 18.772264 Si / 1000 Ang^3
#
#
#
# Elastic Constant Matrix: (Units=GPa)
#
#
# Indices 1 2 3 4 5 6 
#
# 1 115.2008 48.1696 43.7029 -19.8594 -2.3460 5.2338
# 2 48.1696 92.2820 31.7737 -15.5983 8.3777 8.9022
# 3 43.7029 31.7737 80.1822 -18.2598 -4.3823 2.2346
# 4 -19.8594 -15.5983 -18.2598 29.1292 7.1471 3.6058
# 5 -2.3460 8.3777 -4.3823 7.1471 30.2746 1.8236
# 6 5.2338 8.9022 2.2346 3.6058 1.8236 30.3249
#
#
#
# Elastic Compliance Matrix: (Units=1/GPa)
#
#
# Indices 1 2 3 4 5 6 
#
# 1 0.012940 -0.004650 -0.004330 0.003525 0.000892 -0.001022
# 2 -0.004650 0.016173 -0.002787 0.005806 -0.006366 -0.004047
# 3 -0.004330 -0.002787 0.017443 0.006181 0.001535 -0.000547
# 4 0.003525 0.005806 0.006181 0.047414 -0.011166 -0.007734
# 5 0.000892 -0.006366 0.001535 -0.011166 0.037680 0.000664
# 6 -0.001022 -0.004047 -0.000547 -0.007734 0.000664 0.035261
#
#
# Mechanical properties :
#
#
# Convention : Reuss Voigt Hill
#
# Bulk Modulus (GPa) = 43.43904 59.43973 51.43938
# Shear Modulus (GPa) = 25.23737 28.88031 27.05884
#
# Velocity S-wave (km/s) = 3.67058 3.92657 3.80073
# Velocity P-wave (km/s) = 6.41517 7.23116 6.83535
#
# Compressibility (1/GPa) = 0.02302077
#
# Stress axis : x y z
#
# Youngs Moduli (GPa) = 77.28081 61.83121 57.33007
#
# Poissons Ratio (x) = 0.28751 0.24824
# Poissons Ratio (y) = 0.35936 0.15980
# Poissons Ratio (z) = 0.33463 0.17235
#
# Static dielectric constant tensor:
#      x y z
#    x 3.273210 0.083910 0.043630 
#    y 0.083910 3.447290 -0.090270 
#    z 0.043630 -0.090270 3.352480 
# 
# 
# High freq. dielectric constant tensor:
#      x y z
#    x 1.711890 0.007680 0.004520 
#    y 0.007680 1.740800 -0.011950 
#    z 0.004520 -0.011950 1.718640 
# 
# From -- ./inp_files/4526.got.cif
#   From: 2010.03.12/outbox.cif.g09.slc.cpg/sg1_3_cif.got.tgz:4526.got - 2010.03.29 11:57:58.
