data_PCOD8000488
_publ_section_title
;
Structure prediction by ZEFSAII (Michael W. Deem and Ramdas Pophale) SiO2 
 PCOD8000488
Probable space group: P -1
;
_chemical_formula_sum "Si O2"
_cell_formula_units_Z 16
_cell_length_a 11.995600
_cell_length_b 11.138322
_cell_length_c 9.138824
_cell_angle_alpha 69.276704
_cell_angle_beta 52.832035
_cell_angle_gamma 56.523564
_cell_volume 811.211840
_symmetry_space_group_name_H-M "P -1"
_symmetry_group_IT_number 2
_symmetry_cell_setting 'triclinic'
loop_
_space_group_symop_operation_xyz
x,y,z
-x,-y,-z
loop_
_atom_site_type_symbol
_atom_site_label
_atom_site_fract_x
_atom_site_fract_y
_atom_site_fract_z
Si Si1 0.958050 0.812891 0.590567
Si Si2 0.512989 0.617459 0.840112
Si Si3 0.134936 0.514344 0.475697
Si Si4 0.218057 0.880700 0.456331
Si Si5 0.592324 0.131959 0.967748
Si Si6 0.836693 0.538409 0.185856
Si Si7 0.636437 0.380829 0.350754
Si Si8 0.288056 0.190685 0.011689
O O1 0.874606 0.746691 0.794726
O O2 0.078745 0.686416 0.445642
O O3 0.056246 0.870148 0.586167
O O4 0.826538 0.951121 0.546405
O O5 0.696828 0.572832 0.695062
O O6 0.423156 0.621138 0.762234
O O7 0.500000 0.500000 0.000000
O O8 0.422711 0.774030 0.917624
O O9 0.152022 0.455474 0.651805
O O10 0.000000 0.500000 0.500000
O O11 0.308779 0.835441 0.249350
O O12 0.321624 0.775679 0.547460
O O13 0.676552 0.963822 0.019540
O O14 0.419820 0.174928 0.028604
O O15 0.780617 0.421209 0.225748
O O16 0.717828 0.699841 0.157440
O O17 0.000000 0.500000 0.000000
O O18 0.500000 0.500000 0.500000
#
# Coordination Sequence:
#
# PCOD8000488 Si02
#       8
#     2   2   2   2   2   2   2   2
#     4  10  19  39  63  86 118 156 206 244 303 362
#     4  12  25  40  63  93 128 160 205 260 309 362
#     4  12  25  41  60  92 125 162 204 254 310 362
#     4  10  20  38  66  87 115 160 204 254 297 365
#     4  10  22  39  63  89 123 160 201 252 308 364
#     4  12  23  40  66  90 121 162 210 252 299 372
#     4  12  22  40  64  93 122 162 210 255 307 362
#     4  10  20  39  65  88 118 163 205 245 306 369
#
# _framework density 19.723578
#
# number of rings (size 3 to 8) (size 9 to 14) (size 15 to 20)
#    0.000    1.000    3.750    3.750    1.750    0.000 
#    2.250    0.625    0.000    3.750    0.000    0.000 
#    0.000    0.000    0.000    0.000    0.000    0.000 
#
# Total GULP energy -198370.265673 kJ/mol
# GULP energy per Si atom -12398.141605 kJ/mol
# Density = 1.967869 g / cm^3
# Si number density = 19.723578 Si / 1000 Ang^3
#
#
#
# Elastic Constant Matrix: (Units=GPa)
#
#
# Indices 1 2 3 4 5 6 
#
# 1 102.0352 22.9595 39.4877 -8.5000 11.7275 0.6350
# 2 22.9595 131.8353 38.3947 -14.3440 26.7787 -1.1111
# 3 39.4877 38.3947 99.4925 -4.1755 -2.3430 -4.3914
# 4 -8.5000 -14.3440 -4.1755 35.1282 -3.4681 2.9838
# 5 11.7275 26.7787 -2.3430 -3.4681 40.3373 0.3497
# 6 0.6350 -1.1111 -4.3914 2.9838 0.3497 27.2833
#
#
#
# Elastic Compliance Matrix: (Units=1/GPa)
#
#
# Indices 1 2 3 4 5 6 
#
# 1 0.012335 0.000365 -0.005091 0.002251 -0.003919 -0.001288
# 2 0.000365 0.010550 -0.004270 0.003235 -0.007075 -0.000529
# 3 -0.005091 -0.004270 0.013893 -0.001018 0.005015 0.002228
# 4 0.002251 0.003235 -0.001018 0.030481 -0.000211 -0.003415
# 5 -0.003919 -0.007075 0.005015 -0.000211 0.030898 0.000237
# 6 -0.001288 -0.000529 0.002228 -0.003415 0.000237 0.037390
#
#
# Mechanical properties :
#
#
# Convention : Reuss Voigt Hill
#
# Bulk Modulus (GPa) = 53.23448 59.44963 56.34205
# Shear Modulus (GPa) = 31.28879 36.05119 33.66999
#
# Velocity S-wave (km/s) = 3.98724 4.27994 4.13618
# Velocity P-wave (km/s) = 6.94596 7.39126 7.17206
#
# Compressibility (1/GPa) = 0.01878482
#
# Stress axis : x y z
#
# Youngs Moduli (GPa) = 81.07252 94.78687 71.97799
#
# Poissons Ratio (x) = -0.03456 0.36643
# Poissons Ratio (y) = -0.02956 0.30736
# Poissons Ratio (z) = 0.41273 0.40476
#
# Static dielectric constant tensor:
#      x y z
#    x 3.441870 -0.149460 -0.251800 
#    y -0.149460 4.203100 -0.324070 
#    z -0.251800 -0.324070 3.780870 
# 
# 
# High freq. dielectric constant tensor:
#      x y z
#    x 1.758350 -0.008440 -0.026050 
#    y -0.008440 1.788370 -0.003390 
#    z -0.026050 -0.003390 1.768370 
# 
# From -- ./inp_files/185074.got.cif
#   From: 2010.06.25/outbox.cif.g09.slc.cpg/sg2_93_cif.got.tgz:185074.got - 2010.06.27 13:26:56.
