data_PCOD8000697
_publ_section_title
;
Structure prediction by ZEFSAII (Michael W. Deem and Ramdas Pophale) SiO2 
 PCOD8000697
Probable space group: P -1
;
_chemical_formula_sum "Si O2"
_cell_formula_units_Z 16
_cell_length_a 11.031410
_cell_length_b 14.255558
_cell_length_c 9.784559
_cell_angle_alpha 83.146063
_cell_angle_beta 85.321523
_cell_angle_gamma 148.521751
_cell_volume 746.185842
_symmetry_space_group_name_H-M "P -1"
_symmetry_group_IT_number 2
_symmetry_cell_setting 'triclinic'
loop_
_space_group_symop_operation_xyz
x,y,z
-x,-y,-z
loop_
_atom_site_type_symbol
_atom_site_label
_atom_site_fract_x
_atom_site_fract_y
_atom_site_fract_z
Si Si1 0.754167 0.810251 0.135647
Si Si2 0.563290 0.940840 0.058060
Si Si3 0.978526 0.172630 0.768320
Si Si4 0.728594 0.456070 0.251139
Si Si5 0.956455 0.497301 0.850483
Si Si6 0.750292 0.541820 0.922832
Si Si7 0.810354 0.956915 0.549733
Si Si8 0.160379 0.947901 0.756203
O O1 0.790793 0.735843 0.221862
O O2 0.517905 0.641802 0.089108
O O3 0.732467 0.878683 0.236144
O O4 0.000000 0.000000 0.000000
O O5 0.318147 0.715088 0.132293
O O6 0.678981 0.024050 0.185416
O O7 0.500000 0.000000 0.000000
O O8 0.755800 0.018634 0.925974
O O9 0.089529 0.353157 0.710587
O O10 0.872089 0.062088 0.656148
O O11 0.455515 0.272422 0.369542
O O12 0.835673 0.421216 0.265117
O O13 0.726232 0.493718 0.090239
O O14 0.950016 0.606821 0.816495
O O15 0.000000 0.500000 0.000000
O O16 0.871916 0.728884 0.862719
O O17 0.811792 0.032967 0.412493
O O18 0.000000 0.000000 0.500000
#
# Coordination Sequence:
#
# PCOD8000697 Si02
#       8
#     2   2   2   2   2   2   2   2
#     4  12  22  38  68 106 138 174 236 295 346 404
#     4  12  21  44  75 104 138 175 232 298 344 405
#     4  12  24  43  72 102 138 189 229 283 355 416
#     4  11  24  44  70 101 135 185 237 282 350 419
#     4  10  19  39  68 104 134 170 229 289 343 406
#     4  11  23  41  73 105 136 178 237 296 346 409
#     4  12  29  47  66  99 153 189 227 284 352 417
#     4  12  26  45  66 107 138 182 234 291 345 410
#
# _framework density 21.44238
#
# number of rings (size 3 to 8) (size 9 to 14) (size 15 to 20)
#    0.000    0.500    6.250    3.000    1.750    2.500 
#    0.000    3.125    0.000    0.000    0.000    0.000 
#    0.000    0.000    0.000    0.000    0.000    0.000 
#
# Total GULP energy -198303.626807 kJ/mol
# GULP energy per Si atom -12393.976675 kJ/mol
# Density = 2.139358 g / cm^3
# Si number density = 21.442380 Si / 1000 Ang^3
#
#
#
# Elastic Constant Matrix: (Units=GPa)
#
#
# Indices 1 2 3 4 5 6 
#
# 1 111.3755 21.4116 35.5046 4.7645 0.7286 10.7018
# 2 21.4116 127.4476 39.4435 1.9162 -4.4995 20.9510
# 3 35.5046 39.4435 101.5285 -1.4932 14.2890 15.2018
# 4 4.7645 1.9162 -1.4932 36.1076 7.6077 -1.1424
# 5 0.7286 -4.4995 14.2890 7.6077 31.5488 0.0421
# 6 10.7018 20.9510 15.2018 -1.1424 0.0421 28.5996
#
#
#
# Elastic Compliance Matrix: (Units=1/GPa)
#
#
# Indices 1 2 3 4 5 6 
#
# 1 0.010410 -0.000246 -0.003540 -0.001947 0.001800 -0.001914
# 2 -0.000246 0.010004 -0.003484 -0.001528 0.003386 -0.005451
# 3 -0.003540 -0.003484 0.014044 0.002686 -0.007419 -0.003470
# 4 -0.001947 -0.001528 0.002686 0.030014 -0.008629 0.001632
# 5 0.001800 0.003386 -0.007419 -0.008629 0.037579 0.000389
# 6 -0.001914 -0.005451 -0.003470 0.001632 0.000389 0.041584
#
#
# Mechanical properties :
#
#
# Convention : Reuss Voigt Hill
#
# Bulk Modulus (GPa) = 50.20291 59.23012 54.71651
# Shear Modulus (GPa) = 30.33721 35.51733 32.92727
#
# Velocity S-wave (km/s) = 3.76550 4.07431 3.92295
# Velocity P-wave (km/s) = 6.50915 7.05806 6.78916
#
# Compressibility (1/GPa) = 0.01991916
#
# Stress axis : x y z
#
# Youngs Moduli (GPa) = 96.06271 99.95584 71.20456
#
# Poissons Ratio (x) = 0.02457 0.25208
# Poissons Ratio (y) = 0.02361 0.24804
# Poissons Ratio (z) = 0.34009 0.34820
#
# Static dielectric constant tensor:
#      x y z
#    x 4.529880 -0.089630 -0.124450 
#    y -0.089630 4.085580 0.173110 
#    z -0.124450 0.173110 3.704490 
# 
# 
# High freq. dielectric constant tensor:
#      x y z
#    x 1.853950 0.001820 -0.000430 
#    y 0.001820 1.864790 0.012150 
#    z -0.000430 0.012150 1.802710 
# 
# From -- ./inp_files/273160.got.cif
#   From: 2010.06.25/outbox.cif.g09.slc.cpg/sg2_137_cif.got.tgz:273160.got - 2010.06.27 13:26:56.
