data_PCOD8000315
_publ_section_title
;
Structure prediction by ZEFSAII (Michael W. Deem and Ramdas Pophale) SiO2 
 PCOD8000315
Probable space group: P -1
;
_chemical_formula_sum "Si O2"
_cell_formula_units_Z 14
_cell_length_a 15.500008
_cell_length_b 18.211949
_cell_length_c 7.841726
_cell_angle_alpha 66.970647
_cell_angle_beta 122.202325
_cell_angle_gamma 157.722771
_cell_volume 673.262506
_symmetry_space_group_name_H-M "P -1"
_symmetry_group_IT_number 2
_symmetry_cell_setting 'triclinic'
loop_
_space_group_symop_operation_xyz
x,y,z
-x,-y,-z
loop_
_atom_site_type_symbol
_atom_site_label
_atom_site_fract_x
_atom_site_fract_y
_atom_site_fract_z
Si Si1 0.275443 0.687919 0.799473
Si Si2 0.183244 0.352337 0.582347
Si Si3 0.310110 0.711437 0.442326
Si Si4 0.367763 0.245631 0.531723
Si Si5 0.616983 0.928948 0.252766
Si Si6 0.207641 0.187770 0.774875
Si Si7 0.623071 0.390122 0.210145
O O1 0.332998 0.771432 0.598636
O O2 0.274305 0.590133 0.857935
O O3 0.992945 0.510464 0.731756
O O4 0.492586 0.871987 0.997270
O O5 0.418541 0.554198 0.533673
O O6 0.232859 0.298717 0.746389
O O7 0.164103 0.391167 0.701003
O O8 0.921003 0.169625 0.358981
O O9 0.476674 0.870675 0.320703
O O10 0.424219 0.703457 0.593330
O O11 0.438618 0.205023 0.679010
O O12 0.348370 0.276946 0.661837
O O13 0.091621 0.055323 0.317891
O O14 0.351852 0.238546 0.022250
#
# Coordination Sequence:
#
# PCOD8000315 Si02
#       7
#     2   2   2   2   2   2   2
#     4   9  19  38  67  85 111 161 197 233 299 346
#     4  11  23  36  56  92 119 147 199 241 284 354
#     4   9  19  38  66  85 113 155 200 239 287 351
#     4  10  19  39  57  83 119 154 195 242 279 355
#     4  11  20  39  63  86 119 157 190 240 298 342
#     4  10  21  35  60  84 115 159 195 230 298 342
#     4  10  19  39  57  84 121 151 192 246 287 341
#
# _framework density 20.794266
#
# number of rings (size 3 to 8) (size 9 to 14) (size 15 to 20)
#    0.857    1.143    2.857    1.286    0.000    0.571 
#    5.143    1.429    0.000    0.000    0.000    0.000 
#    0.000    0.000    0.000    0.000    0.000    0.000 
#
# Total GULP energy -173476.341464 kJ/mol
# GULP energy per Si atom -12391.167247 kJ/mol
# Density = 2.074694 g / cm^3
# Si number density = 20.794266 Si / 1000 Ang^3
#
#
#
# Elastic Constant Matrix: (Units=GPa)
#
#
# Indices 1 2 3 4 5 6 
#
# 1 53.0638 35.6318 24.4561 3.3102 -18.9925 10.5076
# 2 35.6318 96.1742 40.0008 16.0669 -8.2127 12.3875
# 3 24.4561 40.0008 134.3221 29.6356 -6.1858 6.7426
# 4 3.3102 16.0669 29.6356 20.1638 1.2479 0.3198
# 5 -18.9925 -8.2127 -6.1858 1.2479 23.2816 5.7339
# 6 10.5076 12.3875 6.7426 0.3198 5.7339 23.4430
#
#
#
# Elastic Compliance Matrix: (Units=1/GPa)
#
#
# Indices 1 2 3 4 5 6 
#
# 1 0.044620 -0.009480 -0.002949 0.002589 0.037909 -0.023450
# 2 -0.009480 0.016384 -0.000696 -0.010376 -0.000618 -0.003916
# 3 -0.002949 -0.000696 0.012094 -0.016826 0.001966 -0.002040
# 4 0.002589 -0.010376 -0.016826 0.082807 -0.013233 0.011269
# 5 0.037909 -0.000618 0.001966 -0.013233 0.084160 -0.037635
# 6 -0.023450 -0.003916 -0.002040 0.011269 -0.037635 0.064875
#
#
# Mechanical properties :
#
#
# Convention : Reuss Voigt Hill
#
# Bulk Modulus (GPa) = 21.34509 53.74862 37.54685
# Shear Modulus (GPa) = 14.41725 25.60912 20.01318
#
# Velocity S-wave (km/s) = 2.63597 3.51315 3.10568
# Velocity P-wave (km/s) = 4.42172 6.50847 5.56380
#
# Compressibility (1/GPa) = 0.04684919
#
# Stress axis : x y z
#
# Youngs Moduli (GPa) = 22.41134 61.03361 82.68302
#
# Poissons Ratio (x) = 0.57858 0.24386
# Poissons Ratio (y) = 0.21245 0.05754
# Poissons Ratio (z) = 0.06610 0.04247
#
# Static dielectric constant tensor:
#      x y z
#    x 3.915060 0.020680 -0.055950 
#    y 0.020680 3.283360 0.173500 
#    z -0.055950 0.173500 3.811930 
# 
# 
# High freq. dielectric constant tensor:
#      x y z
#    x 1.820260 0.009610 -0.002800 
#    y 0.009610 1.771930 0.015230 
#    z -0.002800 0.015230 1.822130 
# 
# From -- ./inp_files/36841.got.cif
#   From: 2010.06.25/outbox.cif.g09.slc.cpg/sg2_19_cif.got.tgz:36841.got - 2010.06.27 13:26:56.
