data_PCOD8000542
_publ_section_title
;
Structure prediction by ZEFSAII (Michael W. Deem and Ramdas Pophale) SiO2 
 PCOD8000542
Probable space group: P -1
;
_chemical_formula_sum "Si O2"
_cell_formula_units_Z 16
_cell_length_a 8.976939
_cell_length_b 11.383923
_cell_length_c 8.539338
_cell_angle_alpha 122.870940
_cell_angle_beta 70.152028
_cell_angle_gamma 107.165504
_cell_volume 682.581691
_symmetry_space_group_name_H-M "P -1"
_symmetry_group_IT_number 2
_symmetry_cell_setting 'triclinic'
loop_
_space_group_symop_operation_xyz
x,y,z
-x,-y,-z
loop_
_atom_site_type_symbol
_atom_site_label
_atom_site_fract_x
_atom_site_fract_y
_atom_site_fract_z
Si Si1 0.268804 0.101455 0.888848
Si Si2 0.031415 0.817394 0.069812
Si Si3 0.577928 0.635339 0.166868
Si Si4 0.056944 0.562733 0.690175
Si Si5 0.618260 0.439054 0.533164
Si Si6 0.380851 0.883958 0.869515
Si Si7 0.677932 0.744183 0.707705
Si Si8 0.869593 0.679680 0.305240
O O1 0.258561 0.137911 0.103909
O O2 0.090057 0.072711 0.857709
O O3 0.390366 0.221021 0.842306
O O4 0.338599 0.950660 0.762939
O O5 0.965920 0.683797 0.882643
O O6 0.219648 0.858363 0.012574
O O7 0.003539 0.783549 0.239126
O O8 0.454484 0.656269 0.365831
O O9 0.741120 0.606217 0.171160
O O10 0.500000 0.500000 0.000000
O O11 0.242809 0.636961 0.653718
O O12 0.042689 0.439669 0.734163
O O13 0.000000 0.500000 0.500000
O O14 0.500000 0.500000 0.500000
O O15 0.702224 0.595514 0.675177
O O16 0.489261 0.752851 0.722912
O O17 0.500000 0.000000 0.000000
O O18 0.785406 0.767357 0.529050
#
# Coordination Sequence:
#
# PCOD8000542 Si02
#       8
#     2   2   2   2   2   2   2   2
#     4  10  22  40  61  88 122 164 208 253 307 376
#     4  11  22  40  63  88 128 164 205 258 313 369
#     4  11  21  34  63  93 123 160 207 254 316 364
#     4  11  23  38  61  96 129 164 204 249 321 382
#     4  11  19  36  61  88 126 162 200 252 316 367
#     4  10  23  41  65  88 116 167 217 256 305 366
#     4  10  19  39  64  86 122 161 208 253 307 364
#     4  10  23  38  61  93 128 162 202 259 317 377
#
# _framework density 23.44042
#
# number of rings (size 3 to 8) (size 9 to 14) (size 15 to 20)
#    0.000    1.500    3.750    3.000    1.750    0.000 
#    4.500    5.000    2.750    0.000    0.000    0.000 
#    0.000    0.000    0.000    0.000    0.000    0.000 
#
# Total GULP energy -198216.963440 kJ/mol
# GULP energy per Si atom -12388.560215 kJ/mol
# Density = 2.338707 g / cm^3
# Si number density = 23.440420 Si / 1000 Ang^3
#
#
#
# Elastic Constant Matrix: (Units=GPa)
#
#
# Indices 1 2 3 4 5 6 
#
# 1 93.1731 41.3624 24.5619 -18.9294 -10.8270 -7.3963
# 2 41.3624 114.2503 46.8944 -40.8039 -20.0584 -13.0546
# 3 24.5619 46.8944 91.4394 -31.6399 -7.0508 2.2716
# 4 -18.9294 -40.8039 -31.6399 38.5027 1.8198 -7.5976
# 5 -10.8270 -20.0584 -7.0508 1.8198 40.9449 -1.9639
# 6 -7.3963 -13.0546 2.2716 -7.5976 -1.9639 44.2941
#
#
#
# Elastic Compliance Matrix: (Units=1/GPa)
#
#
# Indices 1 2 3 4 5 6 
#
# 1 0.013217 -0.002642 -0.000982 0.003215 0.001990 0.002118
# 2 -0.002642 0.020280 -0.002495 0.019600 0.008386 0.009397
# 3 -0.000982 -0.002495 0.015998 0.009986 0.000830 0.000030
# 4 0.003215 0.019600 0.009986 0.059284 0.010324 0.016428
# 5 0.001990 0.008386 0.000830 0.010324 0.029021 0.005819
# 6 0.002118 0.009397 0.000030 0.016428 0.005819 0.028774
#
#
# Mechanical properties :
#
#
# Convention : Reuss Voigt Hill
#
# Bulk Modulus (GPa) = 26.84158 58.27780 42.55969
# Shear Modulus (GPa) = 26.14623 37.15129 31.64876
#
# Velocity S-wave (km/s) = 3.34343 3.98543 3.67846
# Velocity P-wave (km/s) = 5.13620 6.78928 6.01975
#
# Compressibility (1/GPa) = 0.03725563
#
# Stress axis : x y z
#
# Youngs Moduli (GPa) = 75.65922 49.31041 62.50603
#
# Poissons Ratio (x) = 0.13030 0.06138
# Poissons Ratio (y) = 0.19993 0.15598
# Poissons Ratio (z) = 0.07429 0.12305
#
# Static dielectric constant tensor:
#      x y z
#    x 4.515260 -0.167190 -0.281150 
#    y -0.167190 4.127460 0.061210 
#    z -0.281150 0.061210 4.521460 
# 
# 
# High freq. dielectric constant tensor:
#      x y z
#    x 1.939780 -0.000040 -0.003200 
#    y -0.000040 1.927510 -0.003870 
#    z -0.003200 -0.003870 1.920260 
# 
# From -- ./inp_files/181326.got.cif
#   From: 2010.06.25/outbox.cif.g09.slc.cpg/sg2_91_cif.got.tgz:181326.got - 2010.06.27 13:26:56.
