data_PCOD8000942
_publ_section_title
;
Structure prediction by ZEFSAII (Michael W. Deem and Ramdas Pophale) SiO2 
 PCOD8000942
Probable space group: P -1
;
_chemical_formula_sum "Si O2"
_cell_formula_units_Z 14
_cell_length_a 11.767151
_cell_length_b 22.136614
_cell_length_c 8.519181
_cell_angle_alpha 37.716434
_cell_angle_beta 121.529417
_cell_angle_gamma 150.068421
_cell_volume 573.263547
_symmetry_space_group_name_H-M "P -1"
_symmetry_group_IT_number 2
_symmetry_cell_setting 'triclinic'
loop_
_space_group_symop_operation_xyz
x,y,z
-x,-y,-z
loop_
_atom_site_type_symbol
_atom_site_label
_atom_site_fract_x
_atom_site_fract_y
_atom_site_fract_z
Si Si1 0.067303 0.159619 0.142152
Si Si2 0.859899 0.495927 0.123763
Si Si3 0.541446 0.136679 0.195083
Si Si4 0.528961 0.810744 0.273123
Si Si5 0.418040 0.233449 0.099640
Si Si6 0.803922 0.682490 0.778599
Si Si7 0.478942 0.391239 0.514799
O O1 0.212490 0.144501 0.266152
O O2 0.999797 0.135989 0.327570
O O3 0.259675 0.371779 0.788508
O O4 0.808344 0.992771 0.190563
O O5 0.705303 0.327482 0.483299
O O6 0.704759 0.400055 0.044451
O O7 0.896790 0.630202 0.939798
O O8 0.149842 0.633307 0.024313
O O9 0.345648 0.084286 0.262362
O O10 0.500000 0.000000 0.500000
O O11 0.476836 0.102991 0.032411
O O12 0.472775 0.674282 0.419944
O O13 0.427755 0.329223 0.784918
O O14 0.789262 0.725979 0.507334
O O15 0.500000 0.500000 0.000000
#
# Coordination Sequence:
#
# PCOD8000942 Si02
#       7
#     2   2   2   2   2   2   2
#     4  11  22  41  73 108 137 171 233 282 353 416
#     4  12  23  46  72  97 147 180 230 284 342 416
#     4  11  29  49  66  98 139 191 238 280 335 417
#     4  11  25  45  73 103 135 186 229 290 346 401
#     4  11  24  43  71 102 140 187 222 285 356 404
#     4  10  19  40  67 105 137 176 216 288 345 399
#     4  10  21  41  65 107 144 173 220 287 351 403
#
# _framework density 24.421576000000002
#
# number of rings (size 3 to 8) (size 9 to 14) (size 15 to 20)
#    0.000    1.143    5.714    1.286    2.000    6.857 
#    0.000    1.429    0.000    0.000    0.000    0.000 
#    0.000    0.000    0.000    0.000    0.000    0.000 
#
# Total GULP energy -173595.185186 kJ/mol
# GULP energy per Si atom -12399.656085 kJ/mol
# Density = 2.436599 g / cm^3
# Si number density = 24.421576 Si / 1000 Ang^3
#
#
#
# Elastic Constant Matrix: (Units=GPa)
#
#
# Indices 1 2 3 4 5 6 
#
# 1 98.6634 32.5108 39.4391 8.1872 -5.2253 -8.7963
# 2 32.5108 167.2079 41.3991 20.9024 -5.9078 -8.9399
# 3 39.4391 41.3991 94.1992 16.4857 24.7545 -11.2365
# 4 8.1872 20.9024 16.4857 49.1183 -2.0944 0.7613
# 5 -5.2253 -5.9078 24.7545 -2.0944 31.8134 -2.6039
# 6 -8.7963 -8.9399 -11.2365 0.7613 -2.6039 37.5062
#
#
#
# Elastic Compliance Matrix: (Units=1/GPa)
#
#
# Indices 1 2 3 4 5 6 
#
# 1 0.013923 -0.000509 -0.007808 0.000855 0.008437 0.001373
# 2 -0.000509 0.007406 -0.003749 -0.001644 0.004170 0.000846
# 3 -0.007808 -0.003749 0.021768 -0.005262 -0.019052 0.002581
# 4 0.000855 -0.001644 -0.005262 0.022936 0.005287 -0.001866
# 5 0.008437 0.004170 -0.019052 0.005287 0.048810 0.000546
# 6 0.001373 0.000846 0.002581 -0.001866 0.000546 0.028035
#
#
# Mechanical properties :
#
#
# Convention : Reuss Voigt Hill
#
# Bulk Modulus (GPa) = 52.73220 65.19648 58.96434
# Shear Modulus (GPa) = 28.84650 40.13569 34.49110
#
# Velocity S-wave (km/s) = 3.44057 4.05835 3.76216
# Velocity P-wave (km/s) = 6.11741 6.97958 6.56267
#
# Compressibility (1/GPa) = 0.01896375
#
# Stress axis : x y z
#
# Youngs Moduli (GPa) = 71.82474 135.03060 45.93972
#
# Poissons Ratio (x) = 0.06876 0.35871
# Poissons Ratio (y) = 0.03657 0.17221
# Poissons Ratio (z) = 0.56083 0.50619
#
# Static dielectric constant tensor:
#      x y z
#    x 4.609820 -0.206130 -0.221550 
#    y -0.206130 4.895410 0.297890 
#    z -0.221550 0.297890 4.670340 
# 
# 
# High freq. dielectric constant tensor:
#      x y z
#    x 1.964330 -0.014460 -0.002840 
#    y -0.014460 1.984010 0.005880 
#    z -0.002840 0.005880 1.984850 
# 
# From -- ./inp_files/282784.got.cif
#   From: 2010.06.25/outbox.cif.g09.slc.cpg/sg2_142_cif.got.tgz:282784.got - 2010.06.27 13:26:56.
