data_PCOD8000901
_publ_section_title
;
Structure prediction by ZEFSAII (Michael W. Deem and Ramdas Pophale) SiO2 
 PCOD8000901
Probable space group: P -1
;
_chemical_formula_sum "Si O2"
_cell_formula_units_Z 16
_cell_length_a 9.181348
_cell_length_b 15.024822
_cell_length_c 8.957419
_cell_angle_alpha 103.901792
_cell_angle_beta 96.562834
_cell_angle_gamma 38.750499
_cell_volume 745.331298
_symmetry_space_group_name_H-M "P -1"
_symmetry_group_IT_number 2
_symmetry_cell_setting 'triclinic'
loop_
_space_group_symop_operation_xyz
x,y,z
-x,-y,-z
loop_
_atom_site_type_symbol
_atom_site_label
_atom_site_fract_x
_atom_site_fract_y
_atom_site_fract_z
Si Si1 0.654155 0.095360 0.903966
Si Si2 0.727765 0.146198 0.498067
Si Si3 0.566158 0.868872 0.393871
Si Si4 0.913431 0.232838 0.075837
Si Si5 0.025740 0.568150 0.237613
Si Si6 0.454036 0.714175 0.785329
Si Si7 0.665118 0.269974 0.819968
Si Si8 0.131068 0.547707 0.908858
O O1 0.489097 0.116456 0.783805
O O2 0.768583 0.121149 0.829876
O O3 0.516923 0.211348 0.071830
O O4 0.847059 0.934152 0.927790
O O5 0.577032 0.132222 0.523040
O O6 0.677682 0.190710 0.339638
O O7 0.655634 0.270788 0.639592
O O8 0.000000 0.000000 0.500000
O O9 0.847008 0.715695 0.376842
O O10 0.500000 0.000000 0.500000
O O11 0.699632 0.292444 0.165532
O O12 0.940478 0.327814 0.146199
O O13 0.845227 0.257521 0.900686
O O14 0.287545 0.451089 0.286522
O O15 0.943901 0.502635 0.218037
O O16 0.006691 0.608025 0.079142
O O17 0.409067 0.410625 0.915688
#
# Coordination Sequence:
#
# PCOD8000901 Si02
#       8
#     2   2   2   2   2   2   2   2
#     4  10  19  41  67  95 129 169 218 272 315 382
#     4  11  23  43  66  94 135 178 211 269 343 385
#     4  11  25  46  67  94 133 176 222 267 332 400
#     4  11  22  37  68 104 126 165 231 277 306 387
#     4  11  22  43  67  92 131 179 212 271 335 396
#     4  11  22  40  69 100 130 173 224 267 329 389
#     4  10  19  40  65  91 135 169 212 263 332 384
#     4  11  21  41  69  96 131 170 220 269 329 388
#
# _framework density 21.466963
#
# number of rings (size 3 to 8) (size 9 to 14) (size 15 to 20)
#    0.000    1.250    5.000    4.875    0.000    3.500 
#    2.250    2.500    0.000    0.000    0.000    0.000 
#    0.000    0.000    0.000    0.000    0.000    0.000 
#
# Total GULP energy -198344.287881 kJ/mol
# GULP energy per Si atom -12396.517993 kJ/mol
# Density = 2.141810 g / cm^3
# Si number density = 21.466963 Si / 1000 Ang^3
#
#
#
# Elastic Constant Matrix: (Units=GPa)
#
#
# Indices 1 2 3 4 5 6 
#
# 1 74.4569 53.1036 31.9680 13.4558 -3.1416 5.1124
# 2 53.1036 137.5275 36.9876 19.3931 -7.5308 -3.0952
# 3 31.9680 36.9876 110.1268 4.2662 10.0864 3.1281
# 4 13.4558 19.3931 4.2662 36.8135 -3.9585 2.4306
# 5 -3.1416 -7.5308 10.0864 -3.9585 22.6745 3.1185
# 6 5.1124 -3.0952 3.1281 2.4306 3.1185 36.6029
#
#
#
# Elastic Compliance Matrix: (Units=1/GPa)
#
#
# Indices 1 2 3 4 5 6 
#
# 1 0.020509 -0.006382 -0.003805 -0.003247 0.002268 -0.003057
# 2 -0.006382 0.010897 -0.002006 -0.002998 0.002837 0.001942
# 3 -0.003805 -0.002006 0.011409 0.000470 -0.006170 -0.000119
# 4 -0.003247 -0.002998 0.000470 0.030447 0.003963 -0.002200
# 5 0.002268 0.002837 -0.006170 0.003963 0.049348 -0.004017
# 6 -0.003057 0.001942 -0.000119 -0.002200 -0.004017 0.028410
#
#
# Mechanical properties :
#
#
# Convention : Reuss Voigt Hill
#
# Bulk Modulus (GPa) = 54.26467 62.91443 58.58955
# Shear Modulus (GPa) = 27.54077 32.55496 30.04787
#
# Velocity S-wave (km/s) = 3.58570 3.89847 3.74535
# Velocity P-wave (km/s) = 6.51737 7.04523 6.78643
#
# Compressibility (1/GPa) = 0.01842820
#
# Stress axis : x y z
#
# Youngs Moduli (GPa) = 48.75997 91.76767 87.65038
#
# Poissons Ratio (x) = 0.58570 0.33349
# Poissons Ratio (y) = 0.31121 0.17583
# Poissons Ratio (z) = 0.18552 0.18409
#
# Static dielectric constant tensor:
#      x y z
#    x 3.818560 -0.052980 0.034550 
#    y -0.052980 3.867230 0.049990 
#    z 0.034550 0.049990 4.023740 
# 
# 
# High freq. dielectric constant tensor:
#      x y z
#    x 1.830270 -0.010540 0.000870 
#    y -0.010540 1.847240 0.006150 
#    z 0.000870 0.006150 1.830090 
# 
# From -- ./inp_files/207777.got.cif
#   From: 2010.06.25/outbox.cif.g09.slc.cpg/sg2_104_cif.got.tgz:207777.got - 2010.06.27 13:26:56.
