data_PCOD8000350
_publ_section_title
;
Structure prediction by ZEFSAII (Michael W. Deem and Ramdas Pophale) SiO2 
 PCOD8000350
Probable space group: P -1
;
_chemical_formula_sum "Si O2"
_cell_formula_units_Z 16
_cell_length_a 10.309178
_cell_length_b 10.018017
_cell_length_c 9.000683
_cell_angle_alpha 84.837883
_cell_angle_beta 123.766124
_cell_angle_gamma 108.579217
_cell_volume 727.999204
_symmetry_space_group_name_H-M "P -1"
_symmetry_group_IT_number 2
_symmetry_cell_setting 'triclinic'
loop_
_space_group_symop_operation_xyz
x,y,z
-x,-y,-z
loop_
_atom_site_type_symbol
_atom_site_label
_atom_site_fract_x
_atom_site_fract_y
_atom_site_fract_z
Si Si1 0.623085 0.359620 0.519985
Si Si2 0.416834 0.246228 0.798885
Si Si3 0.235076 0.530056 0.947186
Si Si4 0.191979 0.428992 0.605121
Si Si5 0.570799 0.097887 0.675382
Si Si6 0.328881 0.999665 0.961994
Si Si7 0.719754 0.636916 0.743332
Si Si8 0.038289 0.723512 0.763360
O O1 0.732398 0.416590 0.438605
O O2 0.685058 0.241851 0.654062
O O3 0.649638 0.483279 0.641975
O O4 0.427636 0.294605 0.357649
O O5 0.314855 0.340179 0.657471
O O6 0.441214 0.145472 0.690746
O O7 0.316059 0.150089 0.883029
O O8 0.585481 0.352351 0.962335
O O9 0.170802 0.453612 0.759570
O O10 0.112402 0.615894 0.910166
O O11 0.229684 0.395977 0.057083
O O12 0.016762 0.341862 0.429110
O O13 0.500000 0.000000 0.500000
O O14 0.667943 0.021786 0.854257
O O15 0.173947 0.875721 0.810645
O O16 0.500000 0.000000 0.000000
O O17 0.881699 0.738003 0.752743
#
# Coordination Sequence:
#
# PCOD8000350 Si02
#       8
#     2   2   2   2   2   2   2   2
#     4  10  19  39  59  94 130 160 213 256 315 372
#     4  11  22  43  64  91 131 168 214 256 314 378
#     4  12  21  39  65  99 129 165 210 262 319 376
#     4  11  25  37  68 100 125 168 209 264 318 373
#     4  11  22  36  63  93 120 166 215 256 304 372
#     4  10  22  42  64  85 128 175 206 254 313 378
#     4  10  20  36  66  90 129 167 199 265 319 368
#     4  11  22  40  61  94 134 165 208 260 321 371
#
# _framework density 21.978045999999999
#
# number of rings (size 3 to 8) (size 9 to 14) (size 15 to 20)
#    0.000    1.250    5.000    2.625    1.750    1.500 
#    0.000    2.500    0.000    3.750    0.000    0.000 
#    0.000    0.000    0.000    0.000    0.000    0.000 
#
# Total GULP energy -198271.349329 kJ/mol
# GULP energy per Si atom -12391.959333 kJ/mol
# Density = 2.192802 g / cm^3
# Si number density = 21.978046 Si / 1000 Ang^3
#
#
#
# Elastic Constant Matrix: (Units=GPa)
#
#
# Indices 1 2 3 4 5 6 
#
# 1 47.0681 23.2730 28.3382 9.5951 2.3867 15.5384
# 2 23.2730 102.4089 46.0238 -4.3093 -4.6640 28.4586
# 3 28.3382 46.0238 123.2710 -1.7908 -5.5340 24.8617
# 4 9.5951 -4.3093 -1.7908 41.3162 10.4992 1.8850
# 5 2.3867 -4.6640 -5.5340 10.4992 38.0167 1.1088
# 6 15.5384 28.4586 24.8617 1.8850 1.1088 31.4215
#
#
#
# Elastic Compliance Matrix: (Units=1/GPa)
#
#
# Indices 1 2 3 4 5 6 
#
# 1 0.029247 -0.002818 -0.004146 -0.006716 -0.000691 -0.008204
# 2 -0.002818 0.014479 -0.002703 0.002177 0.001243 -0.009756
# 3 -0.004146 -0.002703 0.011025 0.001005 0.001382 -0.004334
# 4 -0.006716 0.002177 0.001005 0.027807 -0.006819 -0.000873
# 5 -0.000691 0.001243 0.001382 -0.006819 0.028657 -0.002480
# 6 -0.008204 -0.009756 -0.004334 -0.000873 -0.002480 0.048288
#
#
# Mechanical properties :
#
#
# Convention : Reuss Voigt Hill
#
# Bulk Modulus (GPa) = 28.23341 52.00200 40.11771
# Shear Modulus (GPa) = 26.22708 33.82507 30.02608
#
# Velocity S-wave (km/s) = 3.45821 3.92731 3.70020
# Velocity P-wave (km/s) = 5.36840 6.65412 6.04554
#
# Compressibility (1/GPa) = 0.03541903
#
# Stress axis : x y z
#
# Youngs Moduli (GPa) = 34.19106 69.06403 90.70104
#
# Poissons Ratio (x) = 0.19462 0.37600
# Poissons Ratio (y) = 0.09635 0.24517
# Poissons Ratio (z) = 0.14174 0.18668
#
# Static dielectric constant tensor:
#      x y z
#    x 3.799490 0.144200 0.062780 
#    y 0.144200 4.478240 -0.570140 
#    z 0.062780 -0.570140 4.448060 
# 
# 
# High freq. dielectric constant tensor:
#      x y z
#    x 1.830100 0.008440 -0.002640 
#    y 0.008440 1.857370 -0.019670 
#    z -0.002640 -0.019670 1.879890 
# 
# From -- ./inp_files/258278.got.cif
#   From: 2010.06.25/outbox.cif.g09.slc.cpg/sg2_130_cif.got.tgz:258278.got - 2010.06.27 13:26:56.
