data_PCOD8000626
_publ_section_title
;
Structure prediction by ZEFSAII (Michael W. Deem and Ramdas Pophale) SiO2 
 PCOD8000626
Probable space group: P -1
;
_chemical_formula_sum "Si O2"
_cell_formula_units_Z 16
_cell_length_a 17.902993
_cell_length_b 9.549101
_cell_length_c 18.403878
_cell_angle_alpha 150.117619
_cell_angle_beta 152.601599
_cell_angle_gamma 40.852469
_cell_volume 720.112166
_symmetry_space_group_name_H-M "P -1"
_symmetry_group_IT_number 2
_symmetry_cell_setting 'triclinic'
loop_
_space_group_symop_operation_xyz
x,y,z
-x,-y,-z
loop_
_atom_site_type_symbol
_atom_site_label
_atom_site_fract_x
_atom_site_fract_y
_atom_site_fract_z
Si Si1 0.864260 0.475835 0.310002
Si Si2 0.694579 0.934578 0.865273
Si Si3 0.377270 0.859496 0.886011
Si Si4 0.398964 0.290747 0.717927
Si Si5 0.325985 0.951667 0.364829
Si Si6 0.229779 0.321588 0.329904
Si Si7 0.942389 0.283508 0.545413
Si Si8 0.409102 0.397377 0.244389
O O1 0.717160 0.665828 0.293622
O O2 0.000000 0.500000 0.500000
O O3 0.916259 0.578898 0.321353
O O4 0.808962 0.146017 0.107540
O O5 0.548599 0.108935 0.786140
O O6 0.798903 0.808187 0.832975
O O7 0.623320 0.657903 0.722928
O O8 0.458922 0.599483 0.878894
O O9 0.213429 0.753889 0.657427
O O10 0.500000 0.000000 0.000000
O O11 0.347380 0.096648 0.025039
O O12 0.301943 0.132041 0.497778
O O13 0.206247 0.061152 0.249540
O O14 0.500000 0.000000 0.500000
O O15 0.292851 0.625640 0.212168
O O16 0.093344 0.529898 0.330417
O O17 0.405143 0.496782 0.563457
O O18 0.000000 0.000000 0.500000
#
# Coordination Sequence:
#
# PCOD8000626 Si02
#       8
#     2   2   2   2   2   2   2   2
#     4  12  26  48  65  94 149 190 227 280 355 424
#     4  12  26  40  74 106 134 180 240 296 340 410
#     4  12  23  42  74 102 137 180 237 289 341 408
#     4  12  23  42  73 104 136 187 237 285 349 401
#     4  10  19  39  66 100 139 175 215 293 353 392
#     4  11  23  44  68 101 140 179 230 292 353 402
#     4  12  28  45  68 103 140 187 231 285 346 423
#     4  11  22  39  68 107 135 167 230 299 343 394
#
# _framework density 22.21876
#
# number of rings (size 3 to 8) (size 9 to 14) (size 15 to 20)
#    0.000    0.500    7.500    1.500    3.500    0.500 
#    0.000    1.250    0.000    5.250    0.000    0.000 
#    0.000    0.000    0.000    0.000    0.000    0.000 
#
# Total GULP energy -198326.489258 kJ/mol
# GULP energy per Si atom -12395.405579 kJ/mol
# Density = 2.216819 g / cm^3
# Si number density = 22.218760 Si / 1000 Ang^3
#
#
#
# Elastic Constant Matrix: (Units=GPa)
#
#
# Indices 1 2 3 4 5 6 
#
# 1 174.2656 62.4432 29.8153 20.6882 -3.1646 1.9209
# 2 62.4432 142.6234 8.6654 33.1039 4.9227 21.8982
# 3 29.8153 8.6654 49.5549 10.2488 -10.4517 6.0661
# 4 20.6882 33.1039 10.2488 33.7663 1.2540 3.2029
# 5 -3.1646 4.9227 -10.4517 1.2540 41.7765 12.8644
# 6 1.9209 21.8982 6.0661 3.2029 12.8644 42.3431
#
#
#
# Elastic Compliance Matrix: (Units=1/GPa)
#
#
# Indices 1 2 3 4 5 6 
#
# 1 0.007694 -0.003364 -0.004446 -0.000254 -0.000834 0.002300
# 2 -0.003364 0.011347 0.002962 -0.009458 0.001217 -0.005794
# 3 -0.004446 0.002962 0.026608 -0.007895 0.008393 -0.007095
# 4 -0.000254 -0.009458 -0.007895 0.041191 -0.003326 0.003929
# 5 -0.000834 0.001217 0.008393 -0.003326 0.029130 -0.010393
# 6 0.002300 -0.005794 -0.007095 0.003929 -0.010393 0.030386
#
#
# Mechanical properties :
#
#
# Convention : Reuss Voigt Hill
#
# Bulk Modulus (GPa) = 27.81377 63.14352 45.47864
# Shear Modulus (GPa) = 29.75559 41.27851 35.51705
#
# Velocity S-wave (km/s) = 3.66349 4.31492 4.00248
# Velocity P-wave (km/s) = 5.51727 7.30106 6.47092
#
# Compressibility (1/GPa) = 0.03595342
#
# Stress axis : x y z
#
# Youngs Moduli (GPa) = 129.97096 88.12689 37.58282
#
# Poissons Ratio (x) = 0.29645 0.16709
# Poissons Ratio (y) = 0.43721 -0.11131
# Poissons Ratio (z) = 0.57783 -0.26102
#
# Static dielectric constant tensor:
#      x y z
#    x 4.215280 0.108540 -0.197120 
#    y 0.108540 4.366410 0.307500 
#    z -0.197120 0.307500 3.829970 
# 
# 
# High freq. dielectric constant tensor:
#      x y z
#    x 1.897780 0.010130 -0.014070 
#    y 0.010130 1.871120 0.024550 
#    z -0.014070 0.024550 1.859030 
# 
# From -- ./inp_files/575629.got.cif
#   From: 2010.06.25/outbox.cif.g09.slc.cpg/sg2_288_cif.got.tgz:575629.got - 2010.06.27 13:26:56.
