data_PCOD8000722
_publ_section_title
;
Structure prediction by ZEFSAII (Michael W. Deem and Ramdas Pophale) SiO2 
 PCOD8000722
Probable space group: P -1
;
_chemical_formula_sum "Si O2"
_cell_formula_units_Z 16
_cell_length_a 8.035642
_cell_length_b 18.861905
_cell_length_c 8.139517
_cell_angle_alpha 101.089118
_cell_angle_beta 135.639932
_cell_angle_gamma 60.238195
_cell_volume 721.418168
_symmetry_space_group_name_H-M "P -1"
_symmetry_group_IT_number 2
_symmetry_cell_setting 'triclinic'
loop_
_space_group_symop_operation_xyz
x,y,z
-x,-y,-z
loop_
_atom_site_type_symbol
_atom_site_label
_atom_site_fract_x
_atom_site_fract_y
_atom_site_fract_z
Si Si1 0.153834 0.803972 0.103016
Si Si2 0.226909 0.948062 0.272036
Si Si3 0.865952 0.270441 0.428774
Si Si4 0.785766 0.664071 0.444415
Si Si5 0.270462 0.385241 0.955986
Si Si6 0.756135 0.453037 0.034467
Si Si7 0.911211 0.323172 0.831623
Si Si8 0.161651 0.107078 0.413891
O O1 0.176178 0.873387 0.262155
O O2 0.459834 0.719823 0.277527
O O3 0.968120 0.769529 0.040252
O O4 0.022576 0.844320 0.854485
O O5 0.532316 0.907256 0.390248
O O6 0.187990 0.015759 0.416157
O O7 0.000000 0.000000 0.000000
O O8 0.598241 0.317116 0.145092
O O9 0.778384 0.317703 0.563673
O O10 0.111397 0.273594 0.510255
O O11 0.993794 0.168391 0.477851
O O12 0.954172 0.609905 0.697192
O O13 0.849981 0.601437 0.307626
O O14 0.211711 0.476775 0.011448
O O15 0.150685 0.344574 0.978512
O O16 0.500000 0.500000 0.000000
O O17 0.693238 0.399578 0.832471
#
# Coordination Sequence:
#
# PCOD8000722 Si02
#       8
#     2   2   2   2   2   2   2   2
#     4  11  21  40  64  96 128 164 215 257 309 377
#     4   9  20  34  67 103 126 156 208 265 304 363
#     4  11  22  42  64  91 131 169 208 260 322 378
#     4  11  22  40  68  93 116 169 222 265 311 370
#     4  11  24  44  61  92 128 170 209 268 325 374
#     4  12  24  45  65  90 123 166 225 274 312 365
#     4  11  28  39  61  95 130 172 207 259 325 384
#     4  10  19  39  68  98 126 161 212 258 310 369
#
# _framework density 22.178539000000001
#
# number of rings (size 3 to 8) (size 9 to 14) (size 15 to 20)
#    0.000    1.250    3.750    2.250    1.750    0.500 
#    0.000    0.625    0.000    7.500    0.000    0.000 
#    0.000    0.000    0.000    0.000    0.000    0.000 
#
# Total GULP energy -198245.701000 kJ/mol
# GULP energy per Si atom -12390.356313 kJ/mol
# Density = 2.212806 g / cm^3
# Si number density = 22.178539 Si / 1000 Ang^3
#
#
#
# Elastic Constant Matrix: (Units=GPa)
#
#
# Indices 1 2 3 4 5 6 
#
# 1 70.2927 65.5293 31.0412 6.5465 -9.1019 7.8671
# 2 65.5293 209.3675 40.2139 17.0374 -2.1566 8.4429
# 3 31.0412 40.2139 87.2646 -5.1716 15.2220 -15.5805
# 4 6.5465 17.0374 -5.1716 34.0768 -3.4808 2.5960
# 5 -9.1019 -2.1566 15.2220 -3.4808 17.7857 2.5146
# 6 7.8671 8.4429 -15.5805 2.5960 2.5146 43.3014
#
#
#
# Elastic Compliance Matrix: (Units=1/GPa)
#
#
# Indices 1 2 3 4 5 6 
#
# 1 0.033209 -0.006159 -0.016965 -0.001612 0.032250 -0.012713
# 2 -0.006159 0.007101 -0.000961 -0.002686 -0.001946 -0.000337
# 3 -0.016965 -0.000961 0.026449 0.003295 -0.032840 0.014496
# 4 -0.001612 -0.002686 0.003295 0.031730 0.002243 -0.000030
# 5 0.032250 -0.001946 -0.032840 0.002243 0.104359 -0.023491
# 6 -0.012713 -0.000337 0.014496 -0.000030 -0.023491 0.032051
#
#
# Mechanical properties :
#
#
# Convention : Reuss Voigt Hill
#
# Bulk Modulus (GPa) = 53.80090 71.16595 62.48342
# Shear Modulus (GPa) = 17.28510 34.37546 25.83028
#
# Velocity S-wave (km/s) = 2.79473 3.94120 3.41640
# Velocity P-wave (km/s) = 5.89278 7.27105 6.61789
#
# Compressibility (1/GPa) = 0.01858705
#
# Stress axis : x y z
#
# Youngs Moduli (GPa) = 30.11243 140.82900 37.80859
#
# Poissons Ratio (x) = 0.86741 0.64144
# Poissons Ratio (y) = 0.18547 0.03634
# Poissons Ratio (z) = 0.51087 0.13536
#
# Static dielectric constant tensor:
#      x y z
#    x 3.706590 0.172410 0.135210 
#    y 0.172410 4.820470 0.271020 
#    z 0.135210 0.271020 3.914370 
# 
# 
# High freq. dielectric constant tensor:
#      x y z
#    x 1.839840 0.006330 0.015630 
#    y 0.006330 1.902530 0.014700 
#    z 0.015630 0.014700 1.864130 
# 
# From -- ./inp_files/39001.got.cif
#   From: 2010.06.25/outbox.cif.g09.slc.cpg/sg2_20_cif.got.tgz:39001.got - 2010.06.27 13:26:56.
