data_PCOD8000338
_publ_section_title
;
Structure prediction by ZEFSAII (Michael W. Deem and Ramdas Pophale) SiO2 
 PCOD8000338
Probable space group: P -1
;
_chemical_formula_sum "Si O2"
_cell_formula_units_Z 16
_cell_length_a 9.452707
_cell_length_b 16.009948
_cell_length_c 5.322524
_cell_angle_alpha 98.551924
_cell_angle_beta 71.677807
_cell_angle_gamma 102.197339
_cell_volume 744.454439
_symmetry_space_group_name_H-M "P -1"
_symmetry_group_IT_number 2
_symmetry_cell_setting 'triclinic'
loop_
_space_group_symop_operation_xyz
x,y,z
-x,-y,-z
loop_
_atom_site_type_symbol
_atom_site_label
_atom_site_fract_x
_atom_site_fract_y
_atom_site_fract_z
Si Si1 0.810655 0.447520 0.328030
Si Si2 0.890436 0.053487 0.808115
Si Si3 0.340799 0.295582 0.999613
Si Si4 0.596131 0.108442 0.220688
Si Si5 0.322999 0.003763 0.469927
Si Si6 0.532720 0.296123 0.383618
Si Si7 0.845471 0.554227 0.856457
Si Si8 0.823327 0.886874 0.069166
O O1 0.682460 0.364806 0.372015
O O2 0.791204 0.503127 0.610146
O O3 0.973272 0.417847 0.227662
O O4 0.789373 0.498982 0.109182
O O5 0.040077 0.122433 0.813414
O O6 0.853044 0.032536 0.526101
O O7 0.739699 0.091671 0.978308
O O8 0.898153 0.959291 0.867089
O O9 0.444432 0.320956 0.197791
O O10 0.227956 0.361642 0.057190
O O11 0.433458 0.292473 0.689212
O O12 0.236908 0.203333 0.068953
O O13 0.433582 0.049534 0.203318
O O14 0.587890 0.207505 0.258273
O O15 0.611623 0.076007 0.484684
O O16 0.316263 0.081005 0.702940
#
# Coordination Sequence:
#
# PCOD8000338 Si02
#       8
#     2   2   2   2   2   2   2   2
#     4  10  23  46  72  99 130 168 210 267 313 403
#     4  10  21  37  61  83 122 174 219 264 318 378
#     4  12  26  43  66  99 133 173 209 273 320 385
#     4  10  22  35  58  91 119 171 211 266 310 376
#     4  10  19  39  59  82 125 167 215 266 317 376
#     4  12  26  42  67  99 136 166 221 262 321 382
#     4  10  23  46  72  98 132 168 210 258 336 376
#     4  10  22  38  57  90 124 165 220 266 321 373
#
# _framework density 21.492246999999999
#
# number of rings (size 3 to 8) (size 9 to 14) (size 15 to 20)
#    0.000    1.500    1.250    3.000    3.500    3.000 
#    0.000    1.250    0.000    0.000    0.000    0.000 
#    0.000    0.000    0.000    0.000    0.000    0.000 
#
# Total GULP energy -198252.853653 kJ/mol
# GULP energy per Si atom -12390.803353 kJ/mol
# Density = 2.144333 g / cm^3
# Si number density = 21.492247 Si / 1000 Ang^3
#
#
#
# Elastic Constant Matrix: (Units=GPa)
#
#
# Indices 1 2 3 4 5 6 
#
# 1 95.5537 42.8752 15.9009 3.5277 0.3140 7.0985
# 2 42.8752 99.0799 22.2638 1.7078 -6.7100 -7.2006
# 3 15.9009 22.2638 90.0643 -3.3512 9.1792 -4.0193
# 4 3.5277 1.7078 -3.3512 20.4874 1.0736 -3.3878
# 5 0.3140 -6.7100 9.1792 1.0736 23.0424 3.9342
# 6 7.0985 -7.2006 -4.0193 -3.3878 3.9342 39.8785
#
#
#
# Elastic Compliance Matrix: (Units=1/GPa)
#
#
# Indices 1 2 3 4 5 6 
#
# 1 0.013707 -0.005951 -0.001145 -0.002641 -0.000694 -0.003786
# 2 -0.005951 0.013812 -0.002736 -0.000363 0.004735 0.002779
# 3 -0.001145 -0.002736 0.012833 0.003172 -0.006366 0.001901
# 4 -0.002641 -0.000363 0.003172 0.050970 -0.004650 0.005513
# 5 -0.000694 0.004735 -0.006366 -0.004650 0.048364 -0.004829
# 6 -0.003786 0.002779 0.001901 0.005513 -0.004829 0.027388
#
#
# Mechanical properties :
#
#
# Convention : Reuss Voigt Hill
#
# Bulk Modulus (GPa) = 48.33661 49.64197 48.98929
# Shear Modulus (GPa) = 25.82198 30.25886 28.04042
#
# Velocity S-wave (km/s) = 3.46996 3.75627 3.61595
# Velocity P-wave (km/s) = 6.21235 6.47769 6.34641
#
# Compressibility (1/GPa) = 0.02068825
#
# Stress axis : x y z
#
# Youngs Moduli (GPa) = 72.95509 72.40304 77.92214
#
# Poissons Ratio (x) = 0.43085 0.08926
# Poissons Ratio (y) = 0.43413 0.21317
# Poissons Ratio (z) = 0.08357 0.19807
#
# Static dielectric constant tensor:
#      x y z
#    x 4.380090 0.023310 0.116460 
#    y 0.023310 3.652520 -0.032510 
#    z 0.116460 -0.032510 4.084050 
# 
# 
# High freq. dielectric constant tensor:
#      x y z
#    x 1.871580 -0.000930 -0.002750 
#    y -0.000930 1.823990 0.004830 
#    z -0.002750 0.004830 1.853260 
# 
# From -- ./inp_files/37771.got.cif
#   From: 2010.06.25/outbox.cif.g09.slc.cpg/sg2_19_cif.got.tgz:37771.got - 2010.06.27 13:26:56.
