data_PCOD8000788
_publ_section_title
;
Structure prediction by ZEFSAII (Michael W. Deem and Ramdas Pophale) SiO2 
 PCOD8000788
Probable space group: P -1
;
_chemical_formula_sum "Si O2"
_cell_formula_units_Z 16
_cell_length_a 15.835182
_cell_length_b 12.887268
_cell_length_c 9.158784
_cell_angle_alpha 82.918541
_cell_angle_beta 77.053793
_cell_angle_gamma 26.186001
_cell_volume 790.573859
_symmetry_space_group_name_H-M "P -1"
_symmetry_group_IT_number 2
_symmetry_cell_setting 'triclinic'
loop_
_space_group_symop_operation_xyz
x,y,z
-x,-y,-z
loop_
_atom_site_type_symbol
_atom_site_label
_atom_site_fract_x
_atom_site_fract_y
_atom_site_fract_z
Si Si1 0.589563 0.303751 0.080252
Si Si2 0.249058 0.336794 0.652388
Si Si3 0.521992 0.450562 0.666966
Si Si4 0.811564 0.818859 0.790544
Si Si5 0.709927 0.503139 0.231835
Si Si6 0.645784 0.817684 0.676417
Si Si7 0.863577 0.994373 0.775097
Si Si8 0.438636 0.257065 0.045678
O O1 0.610744 0.317970 0.237905
O O2 0.454914 0.346222 0.116847
O O3 0.500000 0.500000 0.000000
O O4 0.793021 0.060046 0.959730
O O5 0.329201 0.365380 0.656027
O O6 0.226266 0.358380 0.481755
O O7 0.040669 0.534986 0.780617
O O8 0.412304 0.074859 0.683102
O O9 0.500000 0.500000 0.500000
O O10 0.459864 0.398889 0.729817
O O11 0.748155 0.207728 0.686290
O O12 0.725321 0.845071 0.686661
O O13 0.831730 0.918209 0.718587
O O14 0.656370 0.978291 0.958096
O O15 0.708515 0.562763 0.065217
O O16 0.907117 0.226851 0.252418
O O17 0.670807 0.709865 0.818694
#
# Coordination Sequence:
#
# PCOD8000788 Si02
#       8
#     2   2   2   2   2   2   2   2
#     4   9  18  40  58  82 114 149 191 241 288 342
#     4  10  23  38  60  86 121 159 190 247 293 351
#     4  11  22  38  62  85 118 153 188 239 298 348
#     4  10  19  40  61  80 120 156 195 234 298 343
#     4  11  21  40  61  83 116 158 193 238 299 340
#     4  11  22  38  58  89 120 153 200 242 295 344
#     4   9  20  39  61  84 113 152 194 239 286 351
#     4  11  21  38  63  86 118 157 198 250 283 350
#
# _framework density 20.238462999999999
#
# number of rings (size 3 to 8) (size 9 to 14) (size 15 to 20)
#    0.000    1.750    5.000    0.750    1.750    1.500 
#    4.500    2.500    0.000    0.000    0.000    0.000 
#    0.000    0.000    0.000    0.000    0.000    0.000 
#
# Total GULP energy -198235.544323 kJ/mol
# GULP energy per Si atom -12389.721520 kJ/mol
# Density = 2.019240 g / cm^3
# Si number density = 20.238463 Si / 1000 Ang^3
#
#
#
# Elastic Constant Matrix: (Units=GPa)
#
#
# Indices 1 2 3 4 5 6 
#
# 1 81.3006 19.4748 38.7293 9.5661 23.8905 2.8056
# 2 19.4748 97.6832 36.7087 -3.9103 -2.5918 -12.6211
# 3 38.7293 36.7087 112.9878 -11.2391 25.6050 6.7744
# 4 9.5661 -3.9103 -11.2391 25.0435 5.7084 2.6031
# 5 23.8905 -2.5918 25.6050 5.7084 32.9269 5.5206
# 6 2.8056 -12.6211 6.7744 2.6031 5.5206 23.5675
#
#
#
# Elastic Compliance Matrix: (Units=1/GPa)
#
#
# Indices 1 2 3 4 5 6 
#
# 1 0.018431 -0.002570 -0.004162 -0.007279 -0.009173 0.000579
# 2 -0.002570 0.014101 -0.005824 -0.001750 0.006429 0.008219
# 3 -0.004162 -0.005824 0.016076 0.010984 -0.010852 -0.005915
# 4 -0.007279 -0.001750 0.010984 0.050546 -0.011120 -0.006206
# 5 -0.009173 0.006429 -0.010852 -0.011120 0.048307 -0.002433
# 6 0.000579 0.008219 -0.005915 -0.006206 -0.002433 0.049720
#
#
# Mechanical properties :
#
#
# Convention : Reuss Voigt Hill
#
# Bulk Modulus (GPa) = 42.56419 53.53302 48.04861
# Shear Modulus (GPa) = 21.72742 29.44483 25.58613
#
# Velocity S-wave (km/s) = 3.28009 3.81845 3.55946
# Velocity P-wave (km/s) = 5.95167 6.77859 6.37854
#
# Compressibility (1/GPa) = 0.02349393
#
# Stress axis : x y z
#
# Youngs Moduli (GPa) = 54.25764 70.91895 62.20524
#
# Poissons Ratio (x) = 0.18228 0.25892
# Poissons Ratio (y) = 0.13946 0.36228
# Poissons Ratio (z) = 0.22584 0.41303
#
# Static dielectric constant tensor:
#      x y z
#    x 3.843210 0.282390 0.492120 
#    y 0.282390 4.116070 0.448410 
#    z 0.492120 0.448410 3.880900 
# 
# 
# High freq. dielectric constant tensor:
#      x y z
#    x 1.789910 0.003340 0.026440 
#    y 0.003340 1.783640 0.013330 
#    z 0.026440 0.013330 1.771340 
# 
# From -- ./inp_files/207174.got.cif
#   From: 2010.06.25/outbox.cif.g09.slc.cpg/sg2_104_cif.got.tgz:207174.got - 2010.06.27 13:26:56.
