data_PCOD8000541
_publ_section_title
;
Structure prediction by ZEFSAII (Michael W. Deem and Ramdas Pophale) SiO2 
 PCOD8000541
Probable space group: P -1
;
_chemical_formula_sum "Si O2"
_cell_formula_units_Z 14
_cell_length_a 11.423111
_cell_length_b 9.283640
_cell_length_c 15.141011
_cell_angle_alpha 118.292693
_cell_angle_beta 142.023854
_cell_angle_gamma 45.226303
_cell_volume 689.166458
_symmetry_space_group_name_H-M "P -1"
_symmetry_group_IT_number 2
_symmetry_cell_setting 'triclinic'
loop_
_space_group_symop_operation_xyz
x,y,z
-x,-y,-z
loop_
_atom_site_type_symbol
_atom_site_label
_atom_site_fract_x
_atom_site_fract_y
_atom_site_fract_z
Si Si1 0.024452 0.885738 0.894205
Si Si2 0.647598 0.872742 0.746408
Si Si3 0.262761 0.520843 0.353413
Si Si4 0.452894 0.815487 0.072860
Si Si5 0.011712 0.467196 0.644173
Si Si6 0.047036 0.037818 0.778171
Si Si7 0.873927 0.812750 0.534087
O O1 0.879787 0.794391 0.799406
O O2 0.913232 0.045113 0.790750
O O3 0.315668 0.722910 0.002733
O O4 0.000000 0.000000 0.000000
O O5 0.680016 0.664671 0.729273
O O6 0.622829 0.989941 0.854604
O O7 0.412434 0.021754 0.590073
O O8 0.500000 0.500000 0.500000
O O9 0.187395 0.495543 0.397439
O O10 0.053771 0.736291 0.247595
O O11 0.735904 0.642899 0.186118
O O12 0.333375 0.911426 0.932781
O O13 0.028539 0.328395 0.535247
O O14 0.943920 0.679471 0.626300
O O15 0.000806 0.924056 0.643107
#
# Coordination Sequence:
#
# PCOD8000541 Si02
#       7
#     2   2   2   2   2   2   2
#     4   8  17  36  62  87 116 151 193 251 291 342
#     4  10  19  39  64  86 121 156 196 250 293 344
#     4  12  25  38  58  94 122 160 199 243 296 362
#     4   8  20  40  61  87 117 152 199 246 293 355
#     4  10  23  40  63  86 121 155 206 244 299 352
#     4  10  21  38  61  86 124 153 203 236 304 350
#     4  10  21  40  64  89 112 162 202 251 294 343
#
# _framework density 20.314395999999999
#
# number of rings (size 3 to 8) (size 9 to 14) (size 15 to 20)
#    0.857    1.429    1.429    0.857    2.000    3.429 
#    0.000    0.000    0.000    0.000    0.000    0.000 
#    0.000    0.000    0.000    0.000    0.000    0.000 
#
# Total GULP energy -173439.756222 kJ/mol
# GULP energy per Si atom -12388.554016 kJ/mol
# Density = 2.026816 g / cm^3
# Si number density = 20.314396 Si / 1000 Ang^3
#
#
#
# Elastic Constant Matrix: (Units=GPa)
#
#
# Indices 1 2 3 4 5 6 
#
# 1 53.2310 11.0963 17.6641 0.8322 13.5851 3.9697
# 2 11.0963 100.1417 43.3638 1.8935 7.2533 17.5120
# 3 17.6641 43.3638 129.7945 -7.0693 10.1369 3.2217
# 4 0.8322 1.8935 -7.0693 31.1822 1.9534 2.7070
# 5 13.5851 7.2533 10.1369 1.9534 29.5644 -4.5952
# 6 3.9697 17.5120 3.2217 2.7070 -4.5952 22.3538
#
#
#
# Elastic Compliance Matrix: (Units=1/GPa)
#
#
# Indices 1 2 3 4 5 6 
#
# 1 0.022633 0.000282 -0.002183 0.000085 -0.010679 -0.006131
# 2 0.000282 0.013995 -0.004172 -0.000598 -0.003822 -0.011126
# 3 -0.002183 -0.004172 0.009572 0.002401 -0.001142 0.001751
# 4 0.000085 -0.000598 0.002401 0.033282 -0.003641 -0.004672
# 5 -0.010679 -0.003822 -0.001142 -0.003641 0.042514 0.014236
# 6 -0.006131 -0.011126 0.001751 -0.004672 0.014236 0.057779
#
#
# Mechanical properties :
#
#
# Convention : Reuss Voigt Hill
#
# Bulk Modulus (GPa) = 29.36639 47.49063 38.42851
# Shear Modulus (GPa) = 24.59742 30.68961 27.64352
#
# Velocity S-wave (km/s) = 3.48348 3.89103 3.69288
# Velocity P-wave (km/s) = 5.53777 6.60420 6.09435
#
# Compressibility (1/GPa) = 0.03405253
#
# Stress axis : x y z
#
# Youngs Moduli (GPa) = 44.18297 71.45463 104.47228
#
# Poissons Ratio (x) = -0.02012 0.22811
# Poissons Ratio (y) = -0.01244 0.43584
# Poissons Ratio (z) = 0.09647 0.29810
#
# Static dielectric constant tensor:
#      x y z
#    x 3.569370 0.095910 0.193650 
#    y 0.095910 3.662780 0.198520 
#    z 0.193650 0.198520 4.175850 
# 
# 
# High freq. dielectric constant tensor:
#      x y z
#    x 1.768460 -0.004390 -0.001480 
#    y -0.004390 1.784580 0.014150 
#    z -0.001480 0.014150 1.813180 
# 
# From -- ./inp_files/341926.got.cif
#   From: 2010.06.25/outbox.cif.g09.slc.cpg/sg2_171_cif.got.tgz:341926.got - 2010.06.27 13:26:56.
