data_PCOD8000436
_publ_section_title
;
Structure prediction by ZEFSAII (Michael W. Deem and Ramdas Pophale) SiO2 
 PCOD8000436
Probable space group: P -1
;
_chemical_formula_sum "Si O2"
_cell_formula_units_Z 16
_cell_length_a 12.234625
_cell_length_b 9.367813
_cell_length_c 18.303622
_cell_angle_alpha 148.139171
_cell_angle_beta 46.056647
_cell_angle_gamma 124.250271
_cell_volume 795.364709
_symmetry_space_group_name_H-M "P -1"
_symmetry_group_IT_number 2
_symmetry_cell_setting 'triclinic'
loop_
_space_group_symop_operation_xyz
x,y,z
-x,-y,-z
loop_
_atom_site_type_symbol
_atom_site_label
_atom_site_fract_x
_atom_site_fract_y
_atom_site_fract_z
Si Si1 0.658181 0.466317 0.710948
Si Si2 0.880058 0.811093 0.436707
Si Si3 0.964028 0.747968 0.858878
Si Si4 0.856562 0.962813 0.348730
Si Si5 0.696393 0.577715 0.004659
Si Si6 0.855060 0.950255 0.842830
Si Si7 0.697757 0.510742 0.138315
Si Si8 0.613348 0.193305 0.761229
O O1 0.731208 0.749570 0.785107
O O2 0.484469 0.481634 0.770992
O O3 0.672542 0.396204 0.759882
O O4 0.752727 0.240221 0.521957
O O5 0.894665 0.830844 0.351818
O O6 0.904594 0.496389 0.310850
O O7 0.709396 0.905920 0.584370
O O8 0.000000 0.000000 0.500000
O O9 0.937505 0.841158 0.829697
O O10 0.820516 0.630504 0.911068
O O11 0.000000 0.000000 0.000000
O O12 0.760441 0.763734 0.259758
O O13 0.016737 0.021768 0.265035
O O14 0.761249 0.513805 0.027087
O O15 0.567186 0.830218 0.179475
O O16 0.624655 0.310198 0.889000
O O17 0.766715 0.238135 0.026123
#
# Coordination Sequence:
#
# PCOD8000436 Si02
#       8
#     2   2   2   2   2   2   2   2
#     4  10  21  40  62  88 117 155 198 249 294 343
#     4  11  21  40  64  87 111 160 206 237 283 357
#     4  12  23  38  59  88 125 155 191 247 301 343
#     4  11  23  41  60  89 122 154 196 245 297 358
#     4  10  19  39  62  86 113 157 200 237 288 349
#     4  12  23  39  57  93 122 153 195 248 296 347
#     4  11  23  39  63  87 119 160 197 238 301 359
#     4   9  19  37  65  86 109 152 210 243 270 352
#
# _framework density 20.116557
#
# number of rings (size 3 to 8) (size 9 to 14) (size 15 to 20)
#    0.000    1.250    2.500    4.500    0.000    0.000 
#    0.000    0.625    0.000    0.000    0.000    0.000 
#    0.000    0.000    0.000    0.000    0.000    0.000 
#
# Total GULP energy -198392.269563 kJ/mol
# GULP energy per Si atom -12399.516848 kJ/mol
# Density = 2.007077 g / cm^3
# Si number density = 20.116557 Si / 1000 Ang^3
#
#
#
# Elastic Constant Matrix: (Units=GPa)
#
#
# Indices 1 2 3 4 5 6 
#
# 1 90.0203 34.1218 35.4101 -4.6973 5.9980 -10.6549
# 2 34.1218 40.1186 28.4149 0.3891 -0.6597 -1.0460
# 3 35.4101 28.4149 122.4573 9.0459 -14.7573 0.6327
# 4 -4.6973 0.3891 9.0459 30.2884 1.6153 -1.5381
# 5 5.9980 -0.6597 -14.7573 1.6153 47.4116 1.2259
# 6 -10.6549 -1.0460 0.6327 -1.5381 1.2259 31.7388
#
#
#
# Elastic Compliance Matrix: (Units=1/GPa)
#
#
# Indices 1 2 3 4 5 6 
#
# 1 0.018748 -0.013717 -0.003067 0.004522 -0.003833 0.006270
# 2 -0.013717 0.040176 -0.005143 -0.001318 0.000823 -0.003274
# 3 -0.003067 -0.005143 0.011024 -0.004001 0.003930 -0.001764
# 4 0.004522 -0.001318 -0.004001 0.035268 -0.003125 0.003384
# 5 -0.003833 0.000823 0.003930 -0.003125 0.022979 -0.002377
# 6 0.006270 -0.003274 -0.001764 0.003384 -0.002377 0.033795
#
#
# Mechanical properties :
#
#
# Convention : Reuss Voigt Hill
#
# Bulk Modulus (GPa) = 38.32015 49.83220 44.07618
# Shear Modulus (GPa) = 23.30559 32.19773 27.75166
#
# Velocity S-wave (km/s) = 3.40741 4.00504 3.71825
# Velocity P-wave (km/s) = 5.87971 6.79799 6.35545
#
# Compressibility (1/GPa) = 0.02609593
#
# Stress axis : x y z
#
# Youngs Moduli (GPa) = 53.33981 24.89064 90.70754
#
# Poissons Ratio (x) = 0.34142 0.27818
# Poissons Ratio (y) = 0.73165 0.46647
# Poissons Ratio (z) = 0.16358 0.12800
#
# Static dielectric constant tensor:
#      x y z
#    x 3.370020 -0.361640 -0.408690 
#    y -0.361640 3.252880 -0.294070 
#    z -0.408690 -0.294070 3.718050 
# 
# 
# High freq. dielectric constant tensor:
#      x y z
#    x 1.796380 -0.004600 -0.005910 
#    y -0.004600 1.765750 -0.012070 
#    z -0.005910 -0.012070 1.801250 
# 
# From -- ./inp_files/277782.got.cif
#   From: 2010.06.25/outbox.cif.g09.slc.cpg/sg2_139_cif.got.tgz:277782.got - 2010.06.27 13:26:56.
