data_PCOD8000115
_publ_section_title
;
Structure prediction by ZEFSAII (Michael W. Deem and Ramdas Pophale) SiO2 
 PCOD8000115
Probable space group: P 1
;
_chemical_formula_sum "Si O2"
_cell_formula_units_Z 8
_cell_length_a 15.406124
_cell_length_b 14.651400
_cell_length_c 11.648531
_cell_angle_alpha 152.307095
_cell_angle_beta 154.128514
_cell_angle_gamma 19.109047
_cell_volume 363.973865
_symmetry_space_group_name_H-M "P 1"
_symmetry_group_IT_number 1
_symmetry_cell_setting 'triclinic'
loop_
_space_group_symop_operation_xyz
x,y,z
loop_
_atom_site_type_symbol
_atom_site_label
_atom_site_fract_x
_atom_site_fract_y
_atom_site_fract_z
Si Si1 0.881250 0.890620 0.514840
Si Si2 0.366259 0.781269 0.893583
Si Si3 0.938532 0.404776 0.046433
Si Si4 0.379540 0.628427 0.110466
Si Si5 0.720487 0.782262 0.657189
Si Si6 0.723556 0.057294 0.764019
Si Si7 0.541007 0.391690 0.486955
Si Si8 0.379778 0.353935 0.009653
O O1 0.180278 0.802766 0.794278
O O2 0.703047 0.017996 0.562769
O O3 0.675433 0.127758 0.436091
O O4 0.966417 0.607392 0.265501
O O5 0.721191 0.535059 0.046568
O O6 0.291282 0.697363 0.598192
O O7 0.256010 0.086561 0.095777
O O8 0.796044 0.369552 0.737810
O O9 0.447146 0.495864 0.170308
O O10 0.554842 0.699067 0.378592
O O11 0.037661 0.919144 0.017311
O O12 0.475316 0.396833 0.872904
O O13 0.661811 0.906114 0.596944
O O14 0.060700 0.498669 0.766175
O O15 0.610444 0.017024 0.882017
O O16 0.405226 0.393228 0.215902
#
# Coordination Sequence:
#
# PCOD8000115 Si02
#       8
#     1   1   1   1   1   1   1   1
#     4  11  23  40  64  90 129 168 197 247 313 363
#     4   9  22  38  55  86 123 163 202 244 285 362
#     4   9  22  38  57  85 125 163 205 238 293 365
#     4  10  22  44  63  88 118 159 203 259 308 343
#     4  10  22  41  65  90 115 160 206 253 305 356
#     4  10  24  38  64  90 122 155 207 252 296 365
#     4   9  23  41  59  94 130 159 201 253 299 371
#     4  10  22  40  63  91 122 153 207 252 297 365
#
# _framework density 21.979599
#
# number of rings (size 3 to 8) (size 9 to 14) (size 15 to 20)
#    0.750    1.500    0.000    0.750    7.000    4.000 
#    0.000    0.000    0.000    0.000    0.000    0.000 
#    0.000    0.000    0.000    0.000    0.000    0.000 
#
# Total GULP energy -99119.838952 kJ/mol
# GULP energy per Si atom -12389.979869 kJ/mol
# Density = 2.192957 g / cm^3
# Si number density = 21.979599 Si / 1000 Ang^3
#
#
#
# Elastic Constant Matrix: (Units=GPa)
#
#
# Indices 1 2 3 4 5 6 
#
# 1 94.9276 30.4700 44.2572 13.2037 11.0881 9.4376
# 2 30.4700 101.1434 14.8937 17.9764 8.3857 -6.1717
# 3 44.2572 14.8937 70.6966 16.0572 29.3814 20.4370
# 4 13.2037 17.9764 16.0572 32.5997 -3.8723 4.4151
# 5 11.0881 8.3857 29.3814 -3.8723 43.3758 1.3692
# 6 9.4376 -6.1717 20.4370 4.4151 1.3692 30.4079
#
#
#
# Elastic Compliance Matrix: (Units=1/GPa)
#
#
# Indices 1 2 3 4 5 6 
#
# 1 0.016668 -0.003785 -0.012999 0.002075 0.005390 0.002251
# 2 -0.003785 0.012559 0.001597 -0.007089 -0.003296 0.003828
# 3 -0.012999 0.001597 0.043202 -0.017281 -0.027131 -0.020947
# 4 0.002075 -0.007089 -0.017281 0.043874 0.016386 0.002424
# 5 0.005390 -0.003296 -0.027131 0.016386 0.041787 0.011632
# 6 0.002251 0.003828 -0.020947 0.002424 0.011632 0.046167
#
#
# Mechanical properties :
#
#
# Convention : Reuss Voigt Hill
#
# Bulk Modulus (GPa) = 23.77905 49.55661 36.66783
# Shear Modulus (GPa) = 20.10865 33.08644 26.59754
#
# Velocity S-wave (km/s) = 3.02798 3.88406 3.48242
# Velocity P-wave (km/s) = 4.80281 6.53530 5.73486
#
# Compressibility (1/GPa) = 0.04205383
#
# Stress axis : x y z
#
# Youngs Moduli (GPa) = 59.99577 79.62489 23.14704
#
# Poissons Ratio (x) = 0.30141 0.30089
# Poissons Ratio (y) = 0.22711 -0.03697
# Poissons Ratio (z) = 0.77989 -0.12717
#
# Static dielectric constant tensor:
#      x y z
#    x 3.846630 -0.213350 0.174730 
#    y -0.213350 4.077220 0.206970 
#    z 0.174730 0.206970 3.686970 
# 
# 
# High freq. dielectric constant tensor:
#      x y z
#    x 1.848590 -0.017520 0.020850 
#    y -0.017520 1.877700 0.014980 
#    z 0.020850 0.014980 1.853770 
# 
# From -- ./inp_files/6856.got.cif
#   From: 2010.03.12/outbox.cif.g09.slc.cpg/sg1_4_cif.got.tgz:6856.got - 2010.03.29 11:57:58.
