data_PCOD8000110
_publ_section_title
;
Structure prediction by ZEFSAII (Michael W. Deem and Ramdas Pophale) SiO2 
 PCOD8000110
Probable space group: P 1
;
_chemical_formula_sum "Si O2"
_cell_formula_units_Z 8
_cell_length_a 12.975724
_cell_length_b 5.135216
_cell_length_c 10.453300
_cell_angle_alpha 89.995702
_cell_angle_beta 142.972575
_cell_angle_gamma 101.422934
_cell_volume 396.133546
_symmetry_space_group_name_H-M "P 1"
_symmetry_group_IT_number 1
_symmetry_cell_setting 'triclinic'
loop_
_space_group_symop_operation_xyz
x,y,z
loop_
_atom_site_type_symbol
_atom_site_label
_atom_site_fract_x
_atom_site_fract_y
_atom_site_fract_z
Si Si1 0.250000 0.559960 0.454670
Si Si2 0.586428 0.225429 0.151981
Si Si3 0.377911 0.121157 0.685224
Si Si4 0.416909 0.932759 0.217814
Si Si5 0.012740 0.761446 0.871094
Si Si6 0.547077 0.997807 0.618950
Si Si7 0.951320 0.230633 0.966060
Si Si8 0.714056 0.792034 0.382403
O O1 0.282479 0.352748 0.592311
O O2 0.421935 0.680901 0.527887
O O3 0.227924 0.817846 0.513256
O O4 0.070542 0.402255 0.199150
O O5 0.681897 0.552506 0.245044
O O6 0.446737 0.157209 0.133819
O O7 0.736344 0.072134 0.324052
O O8 0.482338 0.117903 0.918702
O O9 0.517355 0.192561 0.703005
O O10 0.482079 0.080568 0.418452
O O11 0.541853 0.740772 0.308687
O O12 0.205600 0.755830 0.011782
O O13 0.918324 0.456637 0.836584
O O14 0.893304 0.813874 0.637956
O O15 0.045879 0.020425 0.000753
O O16 0.758340 0.031930 0.825019
#
# Coordination Sequence:
#
# PCOD8000110 Si02
#       8
#     1   1   1   1   1   1   1   1
#     4  10  22  39  61  93 126 166 218 253 320 380
#     4  10  22  42  65  88 130 173 212 258 324 380
#     4  10  22  42  65  88 130 173 212 258 324 380
#     4  10  22  40  64  96 127 164 212 266 321 373
#     4  12  23  38  63  98 137 163 209 271 325 381
#     4  10  22  40  64  96 127 164 212 266 321 373
#     4  12  23  38  63  98 137 163 209 271 325 381
#     4  10  22  39  61  93 126 166 218 253 320 380
#
# _framework density 20.195211
#
# number of rings (size 3 to 8) (size 9 to 14) (size 15 to 20)
#    1.500    0.000    2.500    3.750    3.500    1.000 
#    0.000    2.500    0.000    0.000    0.000    0.000 
#    0.000    0.000    0.000    0.000    0.000    0.000 
#
# Total GULP energy -99116.073861 kJ/mol
# GULP energy per Si atom -12389.509233 kJ/mol
# Density = 2.014925 g / cm^3
# Si number density = 20.195211 Si / 1000 Ang^3
#
#
#
# Elastic Constant Matrix: (Units=GPa)
#
#
# Indices 1 2 3 4 5 6 
#
# 1 55.6275 17.1006 41.0148 1.3855 -14.4443 0.0455
# 2 17.1006 102.5346 20.9122 -4.9755 -4.6509 -10.2591
# 3 41.0148 20.9122 138.3599 0.3695 -3.8272 4.2264
# 4 1.3855 -4.9755 0.3695 32.0197 2.5119 -8.8675
# 5 -14.4443 -4.6509 -3.8272 2.5119 43.4774 0.6161
# 6 0.0455 -10.2591 4.2264 -8.8675 0.6161 20.2301
#
#
#
# Elastic Compliance Matrix: (Units=1/GPa)
#
#
# Indices 1 2 3 4 5 6 
#
# 1 0.026177 -0.002819 -0.007067 -0.002484 0.007936 -0.001343
# 2 -0.002819 0.011433 -0.001147 0.004097 -0.000162 0.007845
# 3 -0.007067 -0.001147 0.009540 -0.000633 -0.001555 -0.002789
# 4 -0.002484 0.004097 -0.000633 0.037383 -0.002867 0.018689
# 5 0.007936 -0.000162 -0.001555 -0.002867 0.025674 -0.001814
# 6 -0.001343 0.007845 -0.002789 0.018689 -0.001814 0.062243
#
#
# Mechanical properties :
#
#
# Convention : Reuss Voigt Hill
#
# Bulk Modulus (GPa) = 39.86690 50.50858 45.18774
# Shear Modulus (GPa) = 24.64540 33.64506 29.14523
#
# Velocity S-wave (km/s) = 3.49715 4.08608 3.80304
# Velocity P-wave (km/s) = 6.00753 6.87938 6.45819
#
# Compressibility (1/GPa) = 0.02508347
#
# Stress axis : x y z
#
# Youngs Moduli (GPa) = 38.20114 87.46296 104.82610
#
# Poissons Ratio (x) = 0.24660 0.74076
# Poissons Ratio (y) = 0.10771 0.12027
# Poissons Ratio (z) = 0.26995 0.10035
#
# Static dielectric constant tensor:
#      x y z
#    x 3.362140 -0.062580 -0.060590 
#    y -0.062580 3.671740 -0.015200 
#    z -0.060590 -0.015200 3.506140 
# 
# 
# High freq. dielectric constant tensor:
#      x y z
#    x 1.753180 -0.007610 -0.012480 
#    y -0.007610 1.790250 -0.002400 
#    z -0.012480 -0.002400 1.791400 
# 
# From -- ./inp_files/2686.got.cif
#   From: 2010.03.12/outbox.cif.g09.slc.cpg/sg1_2_cif.got.tgz:2686.got - 2010.03.29 11:57:58.
