data_PCOD8000239
_publ_section_title
;
Structure prediction by ZEFSAII (Michael W. Deem and Ramdas Pophale) SiO2 
 PCOD8000239
Probable space group: P 1
;
_chemical_formula_sum "Si O2"
_cell_formula_units_Z 8
_cell_length_a 12.899199
_cell_length_b 4.994802
_cell_length_c 5.997854
_cell_angle_alpha 85.128059
_cell_angle_beta 94.235932
_cell_angle_gamma 121.493679
_cell_volume 328.124173
_symmetry_space_group_name_H-M "P 1"
_symmetry_group_IT_number 1
_symmetry_cell_setting 'triclinic'
loop_
_space_group_symop_operation_xyz
x,y,z
loop_
_atom_site_type_symbol
_atom_site_label
_atom_site_fract_x
_atom_site_fract_y
_atom_site_fract_z
Si Si1 0.170960 0.692460 0.928270
Si Si2 0.488662 0.913521 0.237136
Si Si3 0.946238 0.663740 0.991340
Si Si4 0.770097 0.307919 0.353290
Si Si5 0.109649 0.182446 0.313507
Si Si6 0.320691 0.561350 0.603970
Si Si7 0.394596 0.302998 0.997343
Si Si8 0.881968 0.949402 0.573531
O O1 0.242317 0.657657 0.737383
O O2 0.030811 0.590255 0.847410
O O3 0.166236 0.482630 0.144613
O O4 0.248483 0.054044 0.006477
O O5 0.406235 0.865781 0.443571
O O6 0.445786 0.560883 0.180529
O O7 0.628448 0.093124 0.307280
O O8 0.464553 0.110323 0.031839
O O9 0.896741 0.854591 0.834286
O O10 0.836042 0.359775 0.117580
O O11 0.042304 0.861225 0.188199
O O12 0.801283 0.638920 0.434730
O O13 0.810984 0.137454 0.551234
O O14 0.224699 0.241954 0.476417
O O15 0.012093 0.178821 0.468546
O O16 0.412666 0.486361 0.755231
#
# Coordination Sequence:
#
# PCOD8000239 Si02
#       8
#     1   1   1   1   1   1   1   1
#     4  12  23  44  72 110 143 188 233 294 358 425
#     4  12  28  50  74 102 147 188 245 292 353 417
#     4  11  26  45  75 105 148 185 236 295 359 424
#     4  11  27  49  74 105 140 190 242 297 345 424
#     4  11  23  45  69 108 148 185 230 296 356 431
#     4  12  26  44  74 107 149 187 236 288 363 423
#     4  12  26  49  72 108 141 193 236 298 351 421
#     4  11  25  46  76 107 140 186 238 294 361 415
#
# _framework density 24.381011999999998
#
# number of rings (size 3 to 8) (size 9 to 14) (size 15 to 20)
#    0.000    0.500    3.750    3.750    5.250    3.000 
#    2.250    0.000    0.000    0.000    0.000    0.000 
#    0.000    0.000    0.000    0.000    0.000    0.000 
#
# Total GULP energy -99186.666076 kJ/mol
# GULP energy per Si atom -12398.333259 kJ/mol
# Density = 2.432552 g / cm^3
# Si number density = 24.381012 Si / 1000 Ang^3
#
#
#
# Elastic Constant Matrix: (Units=GPa)
#
#
# Indices 1 2 3 4 5 6 
#
# 1 125.1908 41.8021 51.0420 -11.8563 17.4034 25.4445
# 2 41.8021 109.8477 34.8201 -4.6708 -8.3042 17.8019
# 3 51.0420 34.8201 108.0959 -9.9509 8.7020 18.6033
# 4 -11.8563 -4.6708 -9.9509 21.6755 -3.9873 9.0414
# 5 17.4034 -8.3042 8.7020 -3.9873 34.3155 -5.0049
# 6 25.4445 17.8019 18.6033 9.0414 -5.0049 47.5763
#
#
#
# Elastic Compliance Matrix: (Units=1/GPa)
#
#
# Indices 1 2 3 4 5 6 
#
# 1 0.013223 -0.003277 -0.002843 0.006754 -0.006978 -0.006752
# 2 -0.003277 0.011738 -0.002274 0.001221 0.005009 -0.001455
# 3 -0.002843 -0.002274 0.012598 0.004871 -0.002280 -0.003720
# 4 0.006754 0.001221 0.004871 0.059546 0.000033 -0.017287
# 5 -0.006978 0.005009 -0.002280 0.000033 0.035418 0.006469
# 6 -0.006752 -0.001455 -0.003720 -0.017287 0.006469 0.030595
#
#
# Mechanical properties :
#
#
# Convention : Reuss Voigt Hill
#
# Bulk Modulus (GPa) = 48.14232 66.49584 57.31908
# Shear Modulus (GPa) = 26.76243 35.07814 30.92029
#
# Velocity S-wave (km/s) = 3.31671 3.79720 3.56506
# Velocity P-wave (km/s) = 5.86993 6.82333 6.36451
#
# Compressibility (1/GPa) = 0.02077174
#
# Stress axis : x y z
#
# Youngs Moduli (GPa) = 75.62524 85.19451 79.37727
#
# Poissons Ratio (x) = 0.27919 0.22564
# Poissons Ratio (y) = 0.24783 0.18050
# Poissons Ratio (z) = 0.21498 0.19373
#
# Static dielectric constant tensor:
#      x y z
#    x 4.306830 0.127480 0.072310 
#    y 0.127480 4.387270 -0.046090 
#    z 0.072310 -0.046090 4.563900 
# 
# 
# High freq. dielectric constant tensor:
#      x y z
#    x 1.955030 0.002380 0.011330 
#    y 0.002380 1.974350 -0.003270 
#    z 0.011330 -0.003270 1.973610 
# 
# From -- ./inp_files/523.got.cif
#   From: 2010.03.12/outbox.cif.g09.slc.cpg/sg1_1_cif.got.tgz:523.got - 2010.03.29 11:57:58.
