data_PCOD8000137
_publ_section_title
;
Structure prediction by ZEFSAII (Michael W. Deem and Ramdas Pophale) SiO2 
 PCOD8000137
Probable space group: P 1
;
_chemical_formula_sum "Si O2"
_cell_formula_units_Z 8
_cell_length_a 5.068398
_cell_length_b 11.517688
_cell_length_c 12.838753
_cell_angle_alpha 151.879812
_cell_angle_beta 110.361712
_cell_angle_gamma 70.406038
_cell_volume 330.484783
_symmetry_space_group_name_H-M "P 1"
_symmetry_group_IT_number 1
_symmetry_cell_setting 'triclinic'
loop_
_space_group_symop_operation_xyz
x,y,z
loop_
_atom_site_type_symbol
_atom_site_label
_atom_site_fract_x
_atom_site_fract_y
_atom_site_fract_z
Si Si1 0.469100 0.881100 0.490970
Si Si2 0.463983 0.356449 0.130364
Si Si3 0.000008 0.281301 0.737573
Si Si4 0.874489 0.208486 0.884716
Si Si5 0.295465 0.401379 0.544255
Si Si6 0.709812 0.255539 0.306340
Si Si7 0.557843 0.954585 0.336301
Si Si8 0.699030 0.731685 0.966949
O O1 0.352355 0.647568 0.350532
O O2 0.462749 0.811139 0.312236
O O3 0.776519 0.933958 0.624131
O O4 0.310839 0.154908 0.702234
O O5 0.633969 0.275025 0.191332
O O6 0.680716 0.336447 0.048323
O O7 0.199832 0.186503 0.950341
O O8 0.862960 0.360600 0.893842
O O9 0.960809 0.522046 0.847208
O O10 0.859148 0.057967 0.483665
O O11 0.436456 0.319782 0.389364
O O12 0.436636 0.647634 0.795802
O O13 0.958286 0.438529 0.510667
O O14 0.343080 0.191674 0.472959
O O15 0.821098 0.972405 0.122388
O O16 0.573596 0.775498 0.099072
#
# Coordination Sequence:
#
# PCOD8000137 Si02
#       8
#     1   1   1   1   1   1   1   1
#     4  11  25  43  70 103 147 171 222 286 336 403
#     4  12  27  44  75  96 137 185 230 275 336 403
#     4  10  22  43  68 109 137 174 223 280 343 406
#     4  11  25  46  69 106 132 182 229 273 343 404
#     4  10  24  45  69 100 136 174 230 282 339 393
#     4  11  26  48  66 103 133 180 235 277 332 400
#     4   9  22  40  67 104 136 177 223 275 344 408
#     4  10  23  45  72  97 140 181 220 284 339 405
#
# _framework density 24.206862000000001
#
# number of rings (size 3 to 8) (size 9 to 14) (size 15 to 20)
#    0.000    1.500    1.250    1.500   10.500    4.000 
#    9.000    0.000    0.000    0.000    0.000    0.000 
#    0.000    0.000    0.000    0.000    0.000    0.000 
#
# Total GULP energy -99155.727082 kJ/mol
# GULP energy per Si atom -12394.465885 kJ/mol
# Density = 2.415177 g / cm^3
# Si number density = 24.206862 Si / 1000 Ang^3
#
#
#
# Elastic Constant Matrix: (Units=GPa)
#
#
# Indices 1 2 3 4 5 6 
#
# 1 104.5131 38.4125 29.9850 -8.6604 12.6297 -4.4201
# 2 38.4125 114.2364 53.5247 -14.7344 -3.9097 8.8424
# 3 29.9850 53.5247 100.4481 -18.3456 5.9362 2.8192
# 4 -8.6604 -14.7344 -18.3456 32.3716 -13.2345 6.2828
# 5 12.6297 -3.9097 5.9362 -13.2345 32.6675 -6.9654
# 6 -4.4201 8.8424 2.8192 6.2828 -6.9654 26.7685
#
#
#
# Elastic Compliance Matrix: (Units=1/GPa)
#
#
# Indices 1 2 3 4 5 6 
#
# 1 0.012040 -0.003920 -0.001661 -0.002105 -0.005116 0.002621
# 2 -0.003920 0.013815 -0.005429 0.005202 0.005308 -0.004479
# 3 -0.001661 -0.005429 0.014377 0.005170 -0.000829 -0.001424
# 4 -0.002105 0.005202 0.005170 0.044050 0.016497 -0.008657
# 5 -0.005116 0.005308 -0.000829 0.016497 0.040971 0.004278
# 6 0.002621 -0.004479 -0.001424 -0.008657 0.004278 0.042565
#
#
# Mechanical properties :
#
#
# Convention : Reuss Voigt Hill
#
# Bulk Modulus (GPa) = 54.90749 62.56022 58.73385
# Shear Modulus (GPa) = 25.52208 31.51321 28.51765
#
# Velocity S-wave (km/s) = 3.25057 3.61200 3.43604
# Velocity P-wave (km/s) = 6.06796 6.57993 6.32913
#
# Compressibility (1/GPa) = 0.01821245
#
# Stress axis : x y z
#
# Youngs Moduli (GPa) = 83.05643 72.38582 69.55341
#
# Poissons Ratio (x) = 0.28372 0.11553
# Poissons Ratio (y) = 0.32555 0.37762
# Poissons Ratio (z) = 0.13796 0.39300
#
# Static dielectric constant tensor:
#      x y z
#    x 4.160190 0.011110 0.185910 
#    y 0.011110 4.228470 -0.244830 
#    z 0.185910 -0.244830 4.365830 
# 
# 
# High freq. dielectric constant tensor:
#      x y z
#    x 1.951840 0.002700 0.010710 
#    y 0.002700 1.945710 -0.022170 
#    z 0.010710 -0.022170 1.966280 
# 
# From -- ./inp_files/348.got.cif
#   From: 2010.03.12/outbox.cif.g09.slc.cpg/sg1_1_cif.got.tgz:348.got - 2010.03.29 11:57:58.
