data_PCOD8000744
_publ_section_title
;
Structure prediction by ZEFSAII (Michael W. Deem and Ramdas Pophale) SiO2 
 PCOD8000744
Probable space group: P -1
;
_chemical_formula_sum "Si O2"
_cell_formula_units_Z 12
_cell_length_a 8.781116
_cell_length_b 12.865900
_cell_length_c 9.976440
_cell_angle_alpha 38.568479
_cell_angle_beta 104.564854
_cell_angle_gamma 127.159868
_cell_volume 501.678812
_symmetry_space_group_name_H-M "P -1"
_symmetry_group_IT_number 2
_symmetry_cell_setting 'triclinic'
loop_
_space_group_symop_operation_xyz
x,y,z
-x,-y,-z
loop_
_atom_site_type_symbol
_atom_site_label
_atom_site_fract_x
_atom_site_fract_y
_atom_site_fract_z
Si Si1 0.051348 0.119115 0.529314
Si Si2 0.514034 0.445047 0.907674
Si Si3 0.183718 0.009746 0.910505
Si Si4 0.246681 0.730275 0.322707
Si Si5 0.741885 0.621084 0.311852
Si Si6 0.357003 0.977226 0.374370
O O1 0.270247 0.372192 0.309088
O O2 0.874833 0.128571 0.519683
O O3 0.075636 0.980099 0.776252
O O4 0.000000 0.000000 0.500000
O O5 0.326828 0.408236 0.827576
O O6 0.500000 0.500000 0.000000
O O7 0.486762 0.230110 0.102565
O O8 0.333864 0.275422 0.718671
O O9 0.308903 0.920087 0.034226
O O10 0.001544 0.830278 0.162987
O O11 0.351959 0.625856 0.410545
O O12 0.327164 0.833568 0.386352
O O13 0.000000 0.500000 0.500000
O O14 0.500000 0.000000 0.500000
#
# Coordination Sequence:
#
# PCOD8000744 Si02
#       6
#     2   2   2   2   2   2
#     4  12  25  43  72 102 137 191 237 291 363 425
#     4  12  23  43  71  99 138 190 232 290 361 420
#     4  10  19  41  68 102 138 182 238 291 347 423
#     4  10  21  39  74 105 139 189 233 291 357 415
#     4  10  19  39  70 100 139 183 228 288 354 413
#     4  12  25  46  72 106 148 182 240 297 354 427
#
# _framework density 23.919687
#
# number of rings (size 3 to 8) (size 9 to 14) (size 15 to 20)
#    0.000    1.000    5.000    3.000    0.000    2.667 
#    0.000    2.500    0.000    0.000    0.000    0.000 
#    0.000    0.000    0.000    0.000    0.000    0.000 
#
# Total GULP energy -148661.011526 kJ/mol
# GULP energy per Si atom -12388.417627 kJ/mol
# Density = 2.386525 g / cm^3
# Si number density = 23.919687 Si / 1000 Ang^3
#
#
#
# Elastic Constant Matrix: (Units=GPa)
#
#
# Indices 1 2 3 4 5 6 
#
# 1 107.1279 37.2237 61.1088 0.1032 31.1185 -6.4427
# 2 37.2237 157.7500 57.4134 -3.5807 33.2998 -8.3810
# 3 61.1088 57.4134 164.6731 -22.7720 51.0518 -8.3829
# 4 0.1032 -3.5807 -22.7720 52.5101 -1.6898 13.4834
# 5 31.1185 33.2998 51.0518 -1.6898 52.8273 -4.5622
# 6 -6.4427 -8.3810 -8.3829 13.4834 -4.5622 34.2158
#
#
#
# Elastic Compliance Matrix: (Units=1/GPa)
#
#
# Indices 1 2 3 4 5 6 
#
# 1 0.012802 -0.000960 -0.003577 -0.002190 -0.003401 0.001709
# 2 -0.000960 0.007749 -0.001490 -0.000509 -0.002794 0.001180
# 3 -0.003577 -0.001490 0.010769 0.004651 -0.007317 -0.001208
# 4 -0.002190 -0.000509 0.004651 0.023233 -0.002913 -0.008941
# 5 -0.003401 -0.002794 -0.007317 -0.002913 0.029846 0.002010
# 6 0.001709 0.001180 -0.001208 -0.008941 0.002010 0.033332
#
#
# Mechanical properties :
#
#
# Convention : Reuss Voigt Hill
#
# Bulk Modulus (GPa) = 51.90349 82.33810 67.12079
# Shear Modulus (GPa) = 36.70911 46.16432 41.43672
#
# Velocity S-wave (km/s) = 3.92175 4.39791 4.16664
# Velocity P-wave (km/s) = 6.50023 7.76442 7.16028
#
# Compressibility (1/GPa) = 0.01926653
#
# Stress axis : x y z
#
# Youngs Moduli (GPa) = 78.11510 129.05466 92.85492
#
# Poissons Ratio (x) = 0.12385 0.33218
# Poissons Ratio (y) = 0.07497 0.13831
# Poissons Ratio (z) = 0.27945 0.19223
#
# Static dielectric constant tensor:
#      x y z
#    x 4.499900 0.018700 0.565820 
#    y 0.018700 4.476430 -0.383250 
#    z 0.565820 -0.383250 4.721930 
# 
# 
# High freq. dielectric constant tensor:
#      x y z
#    x 1.951980 0.013170 0.011270 
#    y 0.013170 1.961460 -0.015160 
#    z 0.011270 -0.015160 1.962940 
# 
# From -- ./inp_files/183875.got.cif
#   From: 2010.06.25/outbox.cif.g09.slc.cpg/sg2_92_cif.got.tgz:183875.got - 2010.06.27 13:26:56.
