data_PCOD8000724
_publ_section_title
;
Structure prediction by ZEFSAII (Michael W. Deem and Ramdas Pophale) SiO2 
 PCOD8000724
Probable space group: P -1
;
_chemical_formula_sum "Si O2"
_cell_formula_units_Z 16
_cell_length_a 8.952180
_cell_length_b 14.218914
_cell_length_c 15.653872
_cell_angle_alpha 125.042653
_cell_angle_beta 37.130549
_cell_angle_gamma 139.630287
_cell_volume 776.249031
_symmetry_space_group_name_H-M "P -1"
_symmetry_group_IT_number 2
_symmetry_cell_setting 'triclinic'
loop_
_space_group_symop_operation_xyz
x,y,z
-x,-y,-z
loop_
_atom_site_type_symbol
_atom_site_label
_atom_site_fract_x
_atom_site_fract_y
_atom_site_fract_z
Si Si1 0.172195 0.046792 0.358923
Si Si2 0.830516 0.540069 0.344606
Si Si3 0.134856 0.243755 0.855025
Si Si4 0.856311 0.387145 0.584321
Si Si5 0.289821 0.102313 0.110971
Si Si6 0.754929 0.288473 0.153320
Si Si7 0.862828 0.126697 0.407366
Si Si8 0.843569 0.217455 0.810729
O O1 0.543599 0.181661 0.273217
O O2 0.002969 0.092679 0.402136
O O3 0.138505 0.913543 0.264894
O O4 0.000000 0.000000 0.500000
O O5 0.500000 0.500000 0.500000
O O6 0.817854 0.439613 0.224140
O O7 0.985300 0.533690 0.356549
O O8 0.044126 0.699655 0.287365
O O9 0.486781 0.298809 0.718962
O O10 0.073563 0.308435 0.833827
O O11 0.885567 0.068536 0.883129
O O12 0.077073 0.309720 0.999428
O O13 0.937427 0.279731 0.470003
O O14 0.000000 0.500000 0.500000
O O15 0.535075 0.200524 0.125809
O O16 0.032333 0.131826 0.244852
O O17 0.485818 0.157205 0.961734
O O18 0.500000 0.000000 0.500000
#
# Coordination Sequence:
#
# PCOD8000724 Si02
#       8
#     2   2   2   2   2   2   2   2
#     4  11  20  35  61  92 122 160 210 257 306 366
#     4  12  26  43  61  96 136 166 213 261 318 384
#     4  11  20  41  70  91 129 167 214 265 312 376
#     4  12  27  45  64  91 132 173 210 263 324 379
#     4  10  19  39  68  98 127 159 219 263 311 379
#     4  10  21  38  64  93 127 171 209 257 314 379
#     4  11  21  38  64  92 119 163 212 257 307 371
#     4  11  20  39  68  96 124 166 209 267 316 367
#
# _framework density 20.611943
#
# number of rings (size 3 to 8) (size 9 to 14) (size 15 to 20)
#    0.000    1.000    5.000    4.500    0.000    4.500 
#    0.000    1.875    0.000    0.000    0.000    0.000 
#    0.000    0.000    0.000    0.000    0.000    0.000 
#
# Total GULP energy -198235.055243 kJ/mol
# GULP energy per Si atom -12389.690953 kJ/mol
# Density = 2.056503 g / cm^3
# Si number density = 20.611943 Si / 1000 Ang^3
#
#
#
# Elastic Constant Matrix: (Units=GPa)
#
#
# Indices 1 2 3 4 5 6 
#
# 1 85.8803 37.1686 56.1328 -10.3093 -2.4820 -9.3016
# 2 37.1686 103.7301 48.3852 9.1093 -5.6190 -14.6636
# 3 56.1328 48.3852 191.0855 -3.6751 -19.3422 -16.1326
# 4 -10.3093 9.1093 -3.6751 45.7089 -8.8242 -1.3738
# 5 -2.4820 -5.6190 -19.3422 -8.8242 24.9058 -1.5999
# 6 -9.3016 -14.6636 -16.1326 -1.3738 -1.5999 28.6057
#
#
#
# Elastic Compliance Matrix: (Units=1/GPa)
#
#
# Indices 1 2 3 4 5 6 
#
# 1 0.016571 -0.004489 -0.003603 0.004270 -0.000568 0.001229
# 2 -0.004489 0.012921 -0.001660 -0.003565 0.000176 0.004066
# 3 -0.003603 -0.001660 0.007541 0.001315 0.005756 0.002615
# 4 0.004270 -0.003565 0.001315 0.025622 0.009854 0.002084
# 5 -0.000568 0.000176 0.005756 0.009854 0.048503 0.006338
# 6 0.001229 0.004066 0.002615 0.002084 0.006338 0.039371
#
#
# Mechanical properties :
#
#
# Convention : Reuss Voigt Hill
#
# Bulk Modulus (GPa) = 57.05202 73.78545 65.41873
# Shear Modulus (GPa) = 28.42904 35.77804 32.10354
#
# Velocity S-wave (km/s) = 3.71786 4.17080 3.95083
# Velocity P-wave (km/s) = 6.79479 7.68565 7.25391
#
# Compressibility (1/GPa) = 0.01752786
#
# Stress axis : x y z
#
# Youngs Moduli (GPa) = 60.34603 77.39420 132.61223
#
# Poissons Ratio (x) = 0.34744 0.47777
# Poissons Ratio (y) = 0.27091 0.22019
# Poissons Ratio (z) = 0.21741 0.12851
#
# Static dielectric constant tensor:
#      x y z
#    x 3.294120 -0.056880 -0.202710 
#    y -0.056880 3.709300 0.141670 
#    z -0.202710 0.141670 5.260360 
# 
# 
# High freq. dielectric constant tensor:
#      x y z
#    x 1.765230 -0.005650 -0.007580 
#    y -0.005650 1.805400 0.003730 
#    z -0.007580 0.003730 1.845810 
# 
# From -- ./inp_files/504177.got.cif
#   From: 2010.06.25/outbox.cif.g09.slc.cpg/sg2_253_cif.got.tgz:504177.got - 2010.06.27 13:26:56.
