data_PCOD8000084
_publ_section_title
;
Structure prediction by ZEFSAII (Michael W. Deem and Ramdas Pophale) SiO2 
 PCOD8000084
Probable space group: P 1
;
_chemical_formula_sum "Si O2"
_cell_formula_units_Z 8
_cell_length_a 11.366414
_cell_length_b 6.663106
_cell_length_c 7.914229
_cell_angle_alpha 107.248250
_cell_angle_beta 40.639013
_cell_angle_gamma 96.065828
_cell_volume 365.895687
_symmetry_space_group_name_H-M "P 1"
_symmetry_group_IT_number 1
_symmetry_cell_setting 'triclinic'
loop_
_space_group_symop_operation_xyz
x,y,z
loop_
_atom_site_type_symbol
_atom_site_label
_atom_site_fract_x
_atom_site_fract_y
_atom_site_fract_z
Si Si1 0.282070 0.935830 0.846060
Si Si2 0.442622 0.552423 0.008295
Si Si3 0.865440 0.524530 0.802029
Si Si4 0.110590 0.409712 0.187285
Si Si5 0.629022 0.185477 0.944730
Si Si6 0.001143 0.622313 0.019576
Si Si7 0.508380 0.890733 0.256053
Si Si8 0.640053 0.784973 0.623027
O O1 0.396436 0.969416 0.564247
O O2 0.430426 0.851234 0.806037
O O3 0.143139 0.779112 0.921213
O O4 0.162454 0.157124 0.097172
O O5 0.283241 0.526803 0.046476
O O6 0.385729 0.764920 0.239399
O O7 0.482886 0.343110 0.029206
O O8 0.626794 0.583070 0.710762
O O9 0.790064 0.305830 0.856328
O O10 0.962995 0.518725 0.513166
O O11 0.013551 0.526835 0.792538
O O12 0.703309 0.732908 0.039683
O O13 0.037591 0.446674 0.084594
O O14 0.708295 0.972476 0.699444
O O15 0.533863 0.113360 0.198115
O O16 0.785895 0.732091 0.300981
#
# Coordination Sequence:
#
# PCOD8000084 Si02
#       8
#     1   1   1   1   1   1   1   1
#     4  12  25  44  69 104 136 180 232 282 341 408
#     4  10  21  41  69  97 136 182 226 279 344 408
#     4  11  25  45  68 102 142 182 229 283 346 411
#     4  12  25  43  68 108 139 178 233 286 341 410
#     4  10  21  42  69  98 132 186 225 279 344 404
#     4  12  26  45  71 103 144 180 228 288 345 410
#     4  10  23  43  69 100 135 185 228 280 348 407
#     4  11  22  45  71  98 140 181 225 285 345 406
#
# _framework density 21.864155
#
# number of rings (size 3 to 8) (size 9 to 14) (size 15 to 20)
#    0.000    1.000    3.750    3.750    0.000    5.000 
#    2.250    0.000    0.000    0.000    0.000    0.000 
#    0.000    0.000    0.000    0.000    0.000    0.000 
#
# Total GULP energy -99182.762776 kJ/mol
# GULP energy per Si atom -12397.845347 kJ/mol
# Density = 2.181439 g / cm^3
# Si number density = 21.864155 Si / 1000 Ang^3
#
#
#
# Elastic Constant Matrix: (Units=GPa)
#
#
# Indices 1 2 3 4 5 6 
#
# 1 131.2684 39.1563 20.7600 0.1886 -5.4179 4.4613
# 2 39.1563 127.9182 31.0320 -17.6589 -8.1372 0.6236
# 3 20.7600 31.0320 92.3755 -7.9010 1.5478 -7.1286
# 4 0.1886 -17.6589 -7.9010 26.0734 -4.0111 2.7705
# 5 -5.4179 -8.1372 1.5478 -4.0111 32.5376 -7.2301
# 6 4.4613 0.6236 -7.1286 2.7705 -7.2301 34.7671
#
#
#
# Elastic Compliance Matrix: (Units=1/GPa)
#
#
# Indices 1 2 3 4 5 6 
#
# 1 0.008655 -0.002576 -0.001345 -0.002042 0.000364 -0.001102
# 2 -0.002576 0.010313 -0.002376 0.006778 0.003043 -0.000249
# 3 -0.001345 -0.002376 0.012277 0.001761 -0.000639 0.002459
# 4 -0.002042 0.006778 0.001761 0.044659 0.006393 -0.001728
# 5 0.000364 0.003043 -0.000639 0.006393 0.033770 0.006281
# 6 -0.001102 -0.000249 0.002459 -0.001728 0.006281 0.030857
#
#
# Mechanical properties :
#
#
# Convention : Reuss Voigt Hill
#
# Bulk Modulus (GPa) = 53.62038 59.27317 56.44678
# Shear Modulus (GPa) = 31.37906 36.04988 33.71447
#
# Velocity S-wave (km/s) = 3.79249 4.06496 3.93109
# Velocity P-wave (km/s) = 6.61475 7.01431 6.81745
#
# Compressibility (1/GPa) = 0.01864963
#
# Stress axis : x y z
#
# Youngs Moduli (GPa) = 115.54529 96.96520 81.45294
#
# Poissons Ratio (x) = 0.24980 0.10958
# Poissons Ratio (y) = 0.29767 0.19353
# Poissons Ratio (z) = 0.15545 0.23039
#
# Static dielectric constant tensor:
#      x y z
#    x 4.118940 0.037880 0.068250 
#    y 0.037880 3.932340 -0.165340 
#    z 0.068250 -0.165340 3.805820 
# 
# 
# High freq. dielectric constant tensor:
#      x y z
#    x 1.874260 0.000660 0.006370 
#    y 0.000660 1.862430 -0.016170 
#    z 0.006370 -0.016170 1.848510 
# 
# From -- ./inp_files/2182.got.cif
#   From: 2010.03.12/outbox.cif.g09.slc.cpg/sg1_2_cif.got.tgz:2182.got - 2010.03.29 11:57:58.
