data_PCOD8000550
_publ_section_title
;
Structure prediction by ZEFSAII (Michael W. Deem and Ramdas Pophale) SiO2 
 PCOD8000550
Probable space group: P -1
;
_chemical_formula_sum "Si O2"
_cell_formula_units_Z 16
_cell_length_a 8.960977
_cell_length_b 9.512288
_cell_length_c 18.246896
_cell_angle_alpha 34.402253
_cell_angle_beta 103.763641
_cell_angle_gamma 112.071070
_cell_volume 806.614972
_symmetry_space_group_name_H-M "P -1"
_symmetry_group_IT_number 2
_symmetry_cell_setting 'triclinic'
loop_
_space_group_symop_operation_xyz
x,y,z
-x,-y,-z
loop_
_atom_site_type_symbol
_atom_site_label
_atom_site_fract_x
_atom_site_fract_y
_atom_site_fract_z
Si Si1 0.940017 0.463620 0.425627
Si Si2 0.406307 0.673143 0.706278
Si Si3 0.979187 0.760646 0.046024
Si Si4 0.872116 0.529304 0.704336
Si Si5 0.457759 0.921969 0.112336
Si Si6 0.385770 0.411616 0.956450
Si Si7 0.231413 0.175051 0.811993
Si Si8 0.266474 0.043813 0.452465
O O1 0.858209 0.691250 0.312397
O O2 0.000000 0.500000 0.500000
O O3 0.074412 0.501793 0.359919
O O4 0.811848 0.169544 0.528670
O O5 0.288045 0.378292 0.799709
O O6 0.571013 0.739681 0.650602
O O7 0.313659 0.884751 0.593109
O O8 0.448324 0.658574 0.802231
O O9 0.004022 0.521818 0.199158
O O10 0.808800 0.658497 0.026021
O O11 0.000000 0.000000 0.000000
O O12 0.118658 0.883799 0.948946
O O13 0.695756 0.332903 0.785135
O O14 0.861626 0.821427 0.590623
O O15 0.611980 0.864560 0.191756
O O16 0.419929 0.154765 0.046198
O O17 0.500000 0.000000 0.000000
O O18 0.500000 0.500000 0.000000
#
# Coordination Sequence:
#
# PCOD8000550 Si02
#       8
#     2   2   2   2   2   2   2   2
#     4  11  25  42  58  87 133 173 205 261 324 372
#     4  10  19  39  64  88 125 162 211 261 310 367
#     4  12  19  39  70  93 119 166 212 260 314 382
#     4  12  21  39  71  94 118 162 227 260 306 379
#     4  12  20  39  70  97 119 161 218 265 311 385
#     4  12  25  40  60  97 132 162 202 266 330 369
#     4  11  20  39  67  93 117 162 219 257 310 378
#     4  10  22  38  65  90 117 166 221 264 294 369
#
# _framework density 19.835981
#
# number of rings (size 3 to 8) (size 9 to 14) (size 15 to 20)
#    0.000    0.750    7.500    1.125    0.000    2.000 
#    4.500    1.250    0.000    0.000    0.000    0.000 
#    0.000    0.000    0.000    0.000    0.000    0.000 
#
# Total GULP energy -198297.796068 kJ/mol
# GULP energy per Si atom -12393.612254 kJ/mol
# Density = 1.979083 g / cm^3
# Si number density = 19.835981 Si / 1000 Ang^3
#
#
#
# Elastic Constant Matrix: (Units=GPa)
#
#
# Indices 1 2 3 4 5 6 
#
# 1 137.4712 38.9351 60.5772 1.7732 18.2235 9.1373
# 2 38.9351 55.0373 48.8222 14.1469 7.4772 13.7882
# 3 60.5772 48.8222 121.3158 10.0675 12.7258 6.5707
# 4 1.7732 14.1469 10.0675 30.1705 6.6533 8.9668
# 5 18.2235 7.4772 12.7258 6.6533 41.2760 -9.3718
# 6 9.1373 13.7882 6.5707 8.9668 -9.3718 28.4957
#
#
#
# Elastic Compliance Matrix: (Units=1/GPa)
#
#
# Indices 1 2 3 4 5 6 
#
# 1 0.010730 -0.004316 -0.003342 0.004517 -0.004439 -0.003463
# 2 -0.004316 0.036514 -0.010876 -0.009198 -0.002533 -0.011715
# 3 -0.003342 -0.010876 0.014164 -0.000320 -0.000162 0.003116
# 4 0.004517 -0.009198 -0.000320 0.043830 -0.010512 -0.014173
# 5 -0.004439 -0.002533 -0.000162 -0.010512 0.032152 0.016568
# 6 -0.003463 -0.011715 0.003116 -0.014173 0.016568 0.051062
#
#
# Mechanical properties :
#
#
# Convention : Reuss Voigt Hill
#
# Bulk Modulus (GPa) = 41.08701 67.83258 54.45979
# Shear Modulus (GPa) = 21.40108 31.02108 26.21108
#
# Velocity S-wave (km/s) = 3.28823 3.95888 3.63904
# Velocity P-wave (km/s) = 5.93085 7.42751 6.72097
#
# Compressibility (1/GPa) = 0.02433859
#
# Stress axis : x y z
#
# Youngs Moduli (GPa) = 93.19778 27.38687 70.60324
#
# Poissons Ratio (x) = 0.11820 0.23599
# Poissons Ratio (y) = 0.40224 0.76788
# Poissons Ratio (z) = 0.31151 0.29786
#
# Static dielectric constant tensor:
#      x y z
#    x 4.103920 0.118280 0.160320 
#    y 0.118280 3.039830 -0.187980 
#    z 0.160320 -0.187980 3.929020 
# 
# 
# High freq. dielectric constant tensor:
#      x y z
#    x 1.797300 0.010550 0.005830 
#    y 0.010550 1.729110 -0.022430 
#    z 0.005830 -0.022430 1.787990 
# 
# From -- ./inp_files/177563.got.cif
#   From: 2010.06.25/outbox.cif.g09.slc.cpg/sg2_89_cif.got.tgz:177563.got - 2010.06.27 13:26:56.
