data_PCOD8000794
_publ_section_title
;
Structure prediction by ZEFSAII (Michael W. Deem and Ramdas Pophale) SiO2 
 PCOD8000794
Probable space group: P -1
;
_chemical_formula_sum "Si O2"
_cell_formula_units_Z 16
_cell_length_a 11.402429
_cell_length_b 20.984088
_cell_length_c 9.235454
_cell_angle_alpha 29.291518
_cell_angle_beta 54.168651
_cell_angle_gamma 55.976316
_cell_volume 869.813685
_symmetry_space_group_name_H-M "P -1"
_symmetry_group_IT_number 2
_symmetry_cell_setting 'triclinic'
loop_
_space_group_symop_operation_xyz
x,y,z
-x,-y,-z
loop_
_atom_site_type_symbol
_atom_site_label
_atom_site_fract_x
_atom_site_fract_y
_atom_site_fract_z
Si Si1 0.347573 0.600394 0.270898
Si Si2 0.546622 0.038768 0.231508
Si Si3 0.250846 0.736447 0.628115
Si Si4 0.913807 0.380375 0.780319
Si Si5 0.443359 0.661875 0.383721
Si Si6 0.972363 0.108754 0.184265
Si Si7 0.126458 0.977615 0.069892
Si Si8 0.643089 0.153803 0.384663
O O1 0.187025 0.594531 0.337468
O O2 0.337966 0.646766 0.352944
O O3 0.424407 0.452736 0.492295
O O4 0.428517 0.707009 0.909596
O O5 0.500000 0.000000 0.500000
O O6 0.457483 0.961185 0.334745
O O7 0.501621 0.194590 0.938785
O O8 0.718863 0.997695 0.160177
O O9 0.360531 0.646027 0.625177
O O10 0.332411 0.828475 0.495930
O O11 0.140450 0.831518 0.418098
O O12 0.173432 0.633560 0.980496
O O13 0.000000 0.500000 0.500000
O O14 0.017163 0.244263 0.948953
O O15 0.798373 0.121907 0.250959
O O16 0.075375 0.081096 0.026867
O O17 0.000000 0.000000 0.500000
O O18 0.000000 0.000000 0.000000
#
# Coordination Sequence:
#
# PCOD8000794 Si02
#       8
#     2   2   2   2   2   2   2   2
#     4   9  20  39  58  79 114 160 186 233 304 348
#     4  11  22  38  60  93 119 151 200 252 285 345
#     4   9  21  39  60  85 117 154 194 243 296 351
#     4  10  22  40  58  83 117 153 198 240 289 349
#     4  10  20  37  60  82 115 151 196 235 302 345
#     4  10  19  40  61  84 121 160 188 241 301 355
#     4  11  22  37  61  90 119 159 194 237 305 358
#     4  10  20  38  62  84 124 150 197 247 291 346
#
# _framework density 18.394743999999999
#
# number of rings (size 3 to 8) (size 9 to 14) (size 15 to 20)
#    0.000    2.250    3.750    0.750    5.250    5.000 
#    6.750    0.625    0.000    0.000    0.000    0.000 
#    0.000    0.000    0.000    0.000    0.000    0.000 
#
# Total GULP energy -198288.970839 kJ/mol
# GULP energy per Si atom -12393.060677 kJ/mol
# Density = 1.835288 g / cm^3
# Si number density = 18.394744 Si / 1000 Ang^3
#
#
#
# Elastic Constant Matrix: (Units=GPa)
#
#
# Indices 1 2 3 4 5 6 
#
# 1 106.5847 44.5889 65.3176 -8.1813 -7.3228 14.3001
# 2 44.5889 134.0813 62.1466 3.8086 -8.1083 9.7059
# 3 65.3176 62.1466 122.2968 -12.0762 -11.9829 11.4640
# 4 -8.1813 3.8086 -12.0762 39.4419 6.1220 -0.6652
# 5 -7.3228 -8.1083 -11.9829 6.1220 35.4771 -0.5854
# 6 14.3001 9.7059 11.4640 -0.6652 -0.5854 27.3913
#
#
#
# Elastic Compliance Matrix: (Units=1/GPa)
#
#
# Indices 1 2 3 4 5 6 
#
# 1 0.014725 -0.001575 -0.006525 0.001102 0.000213 -0.004367
# 2 -0.001575 0.010265 -0.004467 -0.002856 0.000989 -0.000994
# 3 -0.006525 -0.004467 0.014533 0.003205 0.001972 -0.000973
# 4 0.001102 -0.002856 0.003205 0.027468 -0.004088 -0.000325
# 5 0.000213 0.000989 0.001972 -0.004088 0.029816 -0.000749
# 6 -0.004367 -0.000994 -0.000973 -0.000325 -0.000749 0.039523
#
#
# Mechanical properties :
#
#
# Convention : Reuss Voigt Hill
#
# Bulk Modulus (GPa) = 69.49934 78.56323 74.03128
# Shear Modulus (GPa) = 30.07307 33.18939 31.63123
#
# Velocity S-wave (km/s) = 4.04774 4.25230 4.15128
# Velocity P-wave (km/s) = 7.72721 8.17996 7.95681
#
# Compressibility (1/GPa) = 0.01438863
#
# Stress axis : x y z
#
# Youngs Moduli (GPa) = 67.91229 97.41554 68.80931
#
# Poissons Ratio (x) = 0.15339 0.44899
# Poissons Ratio (y) = 0.10694 0.30740
# Poissons Ratio (z) = 0.44314 0.43520
#
# Static dielectric constant tensor:
#      x y z
#    x 3.443070 -0.286040 0.208770 
#    y -0.286040 5.030480 -0.196200 
#    z 0.208770 -0.196200 3.461310 
# 
# 
# High freq. dielectric constant tensor:
#      x y z
#    x 1.698810 0.011410 0.020270 
#    y 0.011410 1.723600 -0.004500 
#    z 0.020270 -0.004500 1.712600 
# 
# From -- ./inp_files/281394.got.cif
#   From: 2010.06.25/outbox.cif.g09.slc.cpg/sg2_141_cif.got.tgz:281394.got - 2010.06.27 13:26:56.
