data_PCOD8000265
_publ_section_title
;
Structure prediction by ZEFSAII (Michael W. Deem and Ramdas Pophale) SiO2 
 PCOD8000265
Probable space group: P 1
;
_chemical_formula_sum "Si O2"
_cell_formula_units_Z 8
_cell_length_a 4.946882
_cell_length_b 13.376521
_cell_length_c 4.721335
_cell_angle_alpha 62.260492
_cell_angle_beta 83.869491
_cell_angle_gamma 106.521619
_cell_volume 254.350898
_symmetry_space_group_name_H-M "P 1"
_symmetry_group_IT_number 1
_symmetry_cell_setting 'triclinic'
loop_
_space_group_symop_operation_xyz
x,y,z
loop_
_atom_site_type_symbol
_atom_site_label
_atom_site_fract_x
_atom_site_fract_y
_atom_site_fract_z
Si Si1 0.352670 0.757920 0.032750
Si Si2 0.023609 0.566609 0.903766
Si Si3 0.835425 0.184782 0.805489
Si Si4 0.328668 0.402080 0.259401
Si Si5 0.415904 0.018526 0.646354
Si Si6 0.765002 0.723063 0.474769
Si Si7 0.015325 0.985562 0.237707
Si Si8 0.707992 0.404876 0.703509
O O1 0.496662 0.695161 0.324597
O O2 0.038136 0.735250 0.228511
O O3 0.301984 0.690177 0.812821
O O4 0.524937 0.904179 0.786203
O O5 0.737696 0.610450 0.844370
O O6 0.009952 0.504182 0.676628
O O7 0.079958 0.462986 0.239691
O O8 0.701302 0.268694 0.878505
O O9 0.172724 0.264716 0.579141
O O10 0.668729 0.136586 0.592141
O O11 0.825626 0.072052 0.163864
O O12 0.636503 0.458235 0.338754
O O13 0.426038 0.395222 0.938067
O O14 0.314992 0.039589 0.314786
O O15 0.115539 0.986955 0.900101
O O16 0.820998 0.842475 0.512451
#
# Coordination Sequence:
#
# PCOD8000265 Si02
#       8
#     1   1   1   1   1   1   1   1
#     4  11  26  50  81 123 167 216 276 346 423 507
#     4  12  28  48  84 116 168 218 276 346 426 496
#     4  12  28  54  84 118 168 222 282 346 426 502
#     4  12  30  52  80 122 166 223 285 347 420 501
#     4  11  26  50  79 120 163 214 271 345 417 504
#     4  11  26  50  81 123 167 216 276 346 423 507
#     4  11  26  50  79 120 163 214 271 345 417 504
#     4  12  30  52  80 122 166 223 285 347 420 501
#
# _framework density 31.452611000000001
#
# number of rings (size 3 to 8) (size 9 to 14) (size 15 to 20)
#    0.000    0.500    2.500    3.000    8.750   11.000 
#    0.000    0.000    0.000    0.000    0.000    0.000 
#    0.000    0.000    0.000    0.000    0.000    0.000 
#
# Total GULP energy -99145.406033 kJ/mol
# GULP energy per Si atom -12393.175754 kJ/mol
# Density = 3.138102 g / cm^3
# Si number density = 31.452611 Si / 1000 Ang^3
#
#
#
# Elastic Constant Matrix: (Units=GPa)
#
#
# Indices 1 2 3 4 5 6 
#
# 1 135.6546 82.2508 67.4546 7.4298 53.6543 -4.8718
# 2 82.2508 267.5392 105.3688 -5.1941 42.3261 -4.2630
# 3 67.4546 105.3688 206.6842 -7.6290 46.4484 -16.3688
# 4 7.4298 -5.1941 -7.6290 65.1437 1.1509 9.3539
# 5 53.6543 42.3261 46.4484 1.1509 52.0521 6.3137
# 6 -4.8718 -4.2630 -16.3688 9.3539 6.3137 48.5256
#
#
#
# Elastic Compliance Matrix: (Units=1/GPa)
#
#
# Indices 1 2 3 4 5 6 
#
# 1 0.014199 -0.002136 -0.000500 -0.002072 -0.012787 0.003132
# 2 -0.002136 0.005191 -0.001906 0.000506 -0.000274 -0.000463
# 3 -0.000500 -0.001906 0.007284 0.000444 -0.004781 0.002776
# 4 -0.002072 0.000506 0.000444 0.016129 0.001372 -0.003302
# 5 -0.012787 -0.000274 -0.004781 0.001372 0.037835 -0.008108
# 6 0.003132 -0.000463 0.002776 -0.003302 -0.008108 0.023509
#
#
# Mechanical properties :
#
#
# Convention : Reuss Voigt Hill
#
# Bulk Modulus (GPa) = 56.84847 124.44736 90.64791
# Shear Modulus (GPa) = 41.98435 56.79787 49.39111
#
# Velocity S-wave (km/s) = 3.65752 4.25411 3.96704
# Velocity P-wave (km/s) = 5.99584 7.98639 7.06161
#
# Compressibility (1/GPa) = 0.01759062
#
# Stress axis : x y z
#
# Youngs Moduli (GPa) = 70.42877 192.65436 137.29299
#
# Poissons Ratio (x) = 0.41143 0.06864
# Poissons Ratio (y) = 0.15041 0.26164
# Poissons Ratio (z) = 0.03521 0.36714
#
# Static dielectric constant tensor:
#      x y z
#    x 5.820000 -0.184940 0.195070 
#    y -0.184940 6.532230 -0.227760 
#    z 0.195070 -0.227760 6.033700 
# 
# 
# High freq. dielectric constant tensor:
#      x y z
#    x 2.335590 -0.004770 -0.004850 
#    y -0.004770 2.311870 -0.004960 
#    z -0.004850 -0.004960 2.314380 
# 
# From -- ./inp_files/638.got.cif
#   From: 2010.03.12/outbox.cif.g09.slc.cpg/sg1_1_cif.got.tgz:638.got - 2010.03.29 11:57:58.
