data_PCOD8000172
_publ_section_title
;
Structure prediction by ZEFSAII (Michael W. Deem and Ramdas Pophale) SiO2 
 PCOD8000172
Probable space group: P 1
;
_chemical_formula_sum "Si O2"
_cell_formula_units_Z 8
_cell_length_a 7.969568
_cell_length_b 7.969566
_cell_length_c 9.114381
_cell_angle_alpha 46.233013
_cell_angle_beta 115.215405
_cell_angle_gamma 106.159474
_cell_volume 378.097227
_symmetry_space_group_name_H-M "P 1"
_symmetry_group_IT_number 1
_symmetry_cell_setting 'triclinic'
loop_
_space_group_symop_operation_xyz
x,y,z
loop_
_atom_site_type_symbol
_atom_site_label
_atom_site_fract_x
_atom_site_fract_y
_atom_site_fract_z
Si Si1 0.372240 0.317110 0.859640
Si Si2 0.040515 0.130138 0.714887
Si Si3 0.215815 0.639880 0.082936
Si Si4 0.894425 0.352593 0.240050
Si Si5 0.630763 0.090879 0.617288
Si Si6 0.624622 0.988363 0.334477
Si Si7 0.494450 0.509859 0.491592
Si Si8 0.509097 0.629265 0.957236
O O1 0.152205 0.277797 0.787262
O O2 0.458392 0.340220 0.715989
O O3 0.410000 0.553494 0.816165
O O4 0.460439 0.096567 0.109770
O O5 0.010925 0.292070 0.464756
O O6 0.847606 0.048900 0.758362
O O7 0.161058 0.900335 0.858539
O O8 0.303320 0.626680 0.287264
O O9 0.033060 0.479720 0.103217
O O10 0.376022 0.550036 0.086356
O O11 0.818215 0.111786 0.287264
O O12 0.713967 0.511610 0.118660
O O13 0.586993 0.047438 0.455860
O O14 0.580874 0.353073 0.488172
O O15 0.522695 0.907306 0.787261
O O16 0.634328 0.712894 0.471313
#
# Coordination Sequence:
#
# PCOD8000172 Si02
#       8
#     1   1   1   1   1   1   1   1
#     4  11  22  43  67 100 137 172 228 282 327 397
#     4  11  22  43  67 100 137 172 228 282 327 397
#     4  12  23  42  72  99 135 179 224 274 339 401
#     4  10  23  44  69  94 139 175 224 280 332 398
#     4  11  24  45  70  99 138 183 220 273 343 400
#     4  10  23  44  69  94 139 175 224 280 332 398
#     4  12  23  42  72  99 135 179 224 274 339 401
#     4  11  24  45  70  99 138 183 220 273 343 400
#
# _framework density 21.158581000000002
#
# number of rings (size 3 to 8) (size 9 to 14) (size 15 to 20)
#    0.000    1.000    5.000    3.000    0.000    0.000 
#    9.000    0.000    0.000    0.000    0.000    0.000 
#    0.000    0.000    0.000    0.000    0.000    0.000 
#
# Total GULP energy -99165.120524 kJ/mol
# GULP energy per Si atom -12395.640066 kJ/mol
# Density = 2.111042 g / cm^3
# Si number density = 21.158581 Si / 1000 Ang^3
#
#
#
# Elastic Constant Matrix: (Units=GPa)
#
#
# Indices 1 2 3 4 5 6 
#
# 1 128.9372 54.4197 51.7058 -1.6481 -8.7605 15.3230
# 2 54.4197 147.8770 57.1841 -7.3866 2.3174 8.3063
# 3 51.7058 57.1841 110.8051 9.5779 7.1545 9.9715
# 4 -1.6481 -7.3866 9.5779 37.4261 7.6043 3.0874
# 5 -8.7605 2.3174 7.1545 7.6043 33.7737 -0.4593
# 6 15.3230 8.3063 9.9715 3.0874 -0.4593 34.5752
#
#
#
# Elastic Compliance Matrix: (Units=1/GPa)
#
#
# Indices 1 2 3 4 5 6 
#
# 1 0.010947 -0.002384 -0.003875 0.000519 0.003664 -0.003159
# 2 -0.002384 0.009313 -0.003847 0.002974 -0.001117 -0.000352
# 3 -0.003875 -0.003847 0.013402 -0.003723 -0.002754 -0.000928
# 4 0.000519 0.002974 -0.003723 0.029717 -0.006007 -0.002604
# 5 0.003664 -0.001117 -0.002754 -0.006007 0.032577 0.000408
# 6 -0.003159 -0.000352 -0.000928 -0.002604 0.000408 0.030912
#
#
# Mechanical properties :
#
#
# Convention : Reuss Voigt Hill
#
# Bulk Modulus (GPa) = 74.35352 79.35983 76.85667
# Shear Modulus (GPa) = 32.98927 36.10898 34.54912
#
# Velocity S-wave (km/s) = 3.95288 4.13557 4.04526
# Velocity P-wave (km/s) = 7.48673 7.77126 7.63032
#
# Compressibility (1/GPa) = 0.01344926
#
# Stress axis : x y z
#
# Youngs Moduli (GPa) = 91.35004 107.37442 74.61743
#
# Poissons Ratio (x) = 0.25599 0.28915
# Poissons Ratio (y) = 0.21779 0.28706
# Poissons Ratio (z) = 0.35399 0.41308
#
# Static dielectric constant tensor:
#      x y z
#    x 3.674060 0.402360 -0.009590 
#    y 0.402360 3.970170 -0.044980 
#    z -0.009590 -0.044980 3.929350 
# 
# 
# High freq. dielectric constant tensor:
#      x y z
#    x 1.809280 0.027740 -0.001790 
#    y 0.027740 1.829900 -0.005810 
#    z -0.001790 -0.005810 1.845780 
# 
# From -- ./inp_files/4129.got.cif
#   From: 2010.03.12/outbox.cif.g09.slc.cpg/sg1_3_cif.got.tgz:4129.got - 2010.03.29 11:57:58.
