data_PCOD8000720
_publ_section_title
;
Structure prediction by ZEFSAII (Michael W. Deem and Ramdas Pophale) SiO2 
 PCOD8000720
Probable space group: P -1
;
_chemical_formula_sum "Si O2"
_cell_formula_units_Z 16
_cell_length_a 12.062770
_cell_length_b 8.336504
_cell_length_c 16.786596
_cell_angle_alpha 148.619210
_cell_angle_beta 120.079149
_cell_angle_gamma 71.802370
_cell_volume 735.197057
_symmetry_space_group_name_H-M "P -1"
_symmetry_group_IT_number 2
_symmetry_cell_setting 'triclinic'
loop_
_space_group_symop_operation_xyz
x,y,z
-x,-y,-z
loop_
_atom_site_type_symbol
_atom_site_label
_atom_site_fract_x
_atom_site_fract_y
_atom_site_fract_z
Si Si1 0.753765 0.546562 0.147606
Si Si2 0.451978 0.728026 0.478889
Si Si3 0.603429 0.309567 0.137779
Si Si4 0.975695 0.622051 0.834779
Si Si5 0.386528 0.627018 0.140403
Si Si6 0.695939 0.575889 0.444630
Si Si7 0.754878 0.278401 0.729127
Si Si8 0.777294 0.278977 0.494776
O O1 0.694732 0.281272 0.082129
O O2 0.892327 0.487483 0.146220
O O3 0.764805 0.901622 0.335956
O O4 0.659606 0.496014 0.015550
O O5 0.538908 0.490640 0.378455
O O6 0.377508 0.828918 0.418615
O O7 0.339973 0.602213 0.451979
O O8 0.569789 0.992670 0.675159
O O9 0.521993 0.545376 0.175895
O O10 0.702675 0.448642 0.303943
O O11 0.500000 0.000000 0.000000
O O12 0.879443 0.487854 0.816563
O O13 0.915102 0.464590 0.663186
O O14 0.000000 0.000000 0.000000
O O15 0.272208 0.504676 0.114393
O O16 0.775583 0.386566 0.448557
O O17 0.776669 0.947481 0.630168
#
# Coordination Sequence:
#
# PCOD8000720 Si02
#       8
#     2   2   2   2   2   2   2   2
#     4  12  27  46  66  96 142 181 213 276 336 395
#     4  10  19  39  68  97 137 174 210 272 329 395
#     4  12  24  38  65 101 140 170 215 269 338 398
#     4  11  28  49  70  92 128 183 233 274 323 395
#     4  11  21  40  68 100 134 167 216 268 338 393
#     4  11  21  39  67 104 131 173 219 274 334 393
#     4  10  21  44  69  95 133 174 225 277 321 384
#     4  11  24  44  68  98 134 178 224 267 339 395
#
# _framework density 21.762874
#
# number of rings (size 3 to 8) (size 9 to 14) (size 15 to 20)
#    0.000    1.000    3.750    3.375    7.000    0.500 
#    0.000    1.250    0.000    0.000    0.000    0.000 
#    0.000    0.000    0.000    0.000    0.000    0.000 
#
# Total GULP energy -198319.530324 kJ/mol
# GULP energy per Si atom -12394.970645 kJ/mol
# Density = 2.171334 g / cm^3
# Si number density = 21.762874 Si / 1000 Ang^3
#
#
#
# Elastic Constant Matrix: (Units=GPa)
#
#
# Indices 1 2 3 4 5 6 
#
# 1 101.0648 22.5496 23.5601 -1.3375 3.3856 16.8789
# 2 22.5496 91.2218 24.1499 -9.8242 1.9473 18.6180
# 3 23.5601 24.1499 98.1354 -7.7321 -2.9766 17.8172
# 4 -1.3375 -9.8242 -7.7321 34.5907 11.8999 -4.7490
# 5 3.3856 1.9473 -2.9766 11.8999 31.2467 -2.5084
# 6 16.8789 18.6180 17.8172 -4.7490 -2.5084 28.0169
#
#
#
# Elastic Compliance Matrix: (Units=1/GPa)
#
#
# Indices 1 2 3 4 5 6 
#
# 1 0.011484 -0.001378 -0.001552 -0.000482 -0.001543 -0.005235
# 2 -0.001378 0.013540 -0.001573 0.003432 -0.002699 -0.006827
# 3 -0.001552 -0.001573 0.012049 0.001272 0.000494 -0.005422
# 4 -0.000482 0.003432 0.001272 0.034957 -0.013197 0.001945
# 5 -0.001543 -0.002699 0.000494 -0.013197 0.037697 0.003547
# 6 -0.005235 -0.006827 -0.005422 0.001945 0.003547 0.047479
#
#
# Mechanical properties :
#
#
# Convention : Reuss Voigt Hill
#
# Bulk Modulus (GPa) = 35.63020 47.88235 41.75627
# Shear Modulus (GPa) = 28.47898 33.44837 30.96368
#
# Velocity S-wave (km/s) = 3.62139 3.92464 3.77606
# Velocity P-wave (km/s) = 5.82181 6.52585 6.18386
#
# Compressibility (1/GPa) = 0.02806608
#
# Stress axis : x y z
#
# Youngs Moduli (GPa) = 87.08036 73.85500 82.99128
#
# Poissons Ratio (x) = 0.10180 0.12881
# Poissons Ratio (y) = 0.12003 0.13056
# Poissons Ratio (z) = 0.13515 0.11618
#
# Static dielectric constant tensor:
#      x y z
#    x 4.085720 0.140800 -0.196230 
#    y 0.140800 3.770110 -0.110730 
#    z -0.196230 -0.110730 3.860120 
# 
# 
# High freq. dielectric constant tensor:
#      x y z
#    x 1.856740 0.013720 -0.011200 
#    y 0.013720 1.850270 -0.007480 
#    z -0.011200 -0.007480 1.845750 
# 
# From -- ./inp_files/539313.got.cif
#   From: 2010.06.25/outbox.cif.g09.slc.cpg/sg2_270_cif.got.tgz:539313.got - 2010.06.27 13:26:56.
