data_PCOD8000168
_publ_section_title
;
Structure prediction by ZEFSAII (Michael W. Deem and Ramdas Pophale) SiO2 
 PCOD8000168
Probable space group: P 1
;
_chemical_formula_sum "Si O2"
_cell_formula_units_Z 8
_cell_length_a 8.823074
_cell_length_b 11.519610
_cell_length_c 7.282552
_cell_angle_alpha 86.880985
_cell_angle_beta 53.535566
_cell_angle_gamma 128.753232
_cell_volume 340.405000
_symmetry_space_group_name_H-M "P 1"
_symmetry_group_IT_number 1
_symmetry_cell_setting 'triclinic'
loop_
_space_group_symop_operation_xyz
x,y,z
loop_
_atom_site_type_symbol
_atom_site_label
_atom_site_fract_x
_atom_site_fract_y
_atom_site_fract_z
Si Si1 0.701440 0.371620 0.503680
Si Si2 0.341335 0.138959 0.452103
Si Si3 0.449690 0.692524 0.871949
Si Si4 0.873543 0.461756 0.756456
Si Si5 0.700240 0.632155 0.428609
Si Si6 0.873173 0.087305 0.689845
Si Si7 0.222509 0.862700 0.317698
Si Si8 0.387317 0.540751 0.300772
O O1 0.485056 0.178728 0.545634
O O2 0.662300 0.306888 0.746295
O O3 0.562764 0.432669 0.575528
O O4 0.086046 0.562093 0.153757
O O5 0.048749 0.082503 0.695647
O O6 0.210252 0.961054 0.459241
O O7 0.638637 0.352383 0.108991
O O8 0.477708 0.615905 0.693373
O O9 0.704957 0.931510 0.653174
O O10 0.547011 0.679051 0.995093
O O11 0.001187 0.652587 0.589628
O O12 0.172361 0.524976 0.573100
O O13 0.674185 0.644113 0.226824
O O14 0.067137 0.823114 0.236178
O O15 0.149890 0.319223 0.409724
O O16 0.595936 0.011363 0.014546
#
# Coordination Sequence:
#
# PCOD8000168 Si02
#       8
#     1   1   1   1   1   1   1   1
#     4  10  23  43  67  95 134 170 217 267 324 389
#     4  12  24  43  71  97 129 177 218 266 328 384
#     4  11  24  45  64  97 135 171 210 274 328 377
#     4  10  23  46  69  92 135 176 211 269 332 382
#     4  11  22  42  69  92 131 177 213 263 329 388
#     4  12  23  41  69 100 133 166 221 277 314 385
#     4  11  24  45  66  97 137 169 218 275 317 388
#     4  11  23  43  69  96 132 172 216 269 326 385
#
# _framework density 23.501418000000001
#
# number of rings (size 3 to 8) (size 9 to 14) (size 15 to 20)
#    0.000    1.000    7.500    0.750    3.500    0.000 
#    2.250    7.500    0.000    0.000    0.000    0.000 
#    0.000    0.000    0.000    0.000    0.000    0.000 
#
# Total GULP energy -99155.684873 kJ/mol
# GULP energy per Si atom -12394.460609 kJ/mol
# Density = 2.344793 g / cm^3
# Si number density = 23.501418 Si / 1000 Ang^3
#
#
#
# Elastic Constant Matrix: (Units=GPa)
#
#
# Indices 1 2 3 4 5 6 
#
# 1 98.1591 44.9227 12.2110 -1.0547 -16.3441 13.5118
# 2 44.9227 114.6543 24.6316 -9.5095 -10.2008 6.8099
# 3 12.2110 24.6316 49.3915 -0.3364 -8.0042 0.4926
# 4 -1.0547 -9.5095 -0.3364 36.9896 -0.9930 -5.8899
# 5 -16.3441 -10.2008 -8.0042 -0.9930 26.0469 0.9557
# 6 13.5118 6.8099 0.4926 -5.8899 0.9557 43.1805
#
#
#
# Elastic Compliance Matrix: (Units=1/GPa)
#
#
# Indices 1 2 3 4 5 6 
#
# 1 0.014075 -0.004770 0.000078 -0.001268 0.007086 -0.003983
# 2 -0.004770 0.011857 -0.004662 0.002889 0.000326 0.000063
# 3 0.000078 -0.004662 0.023416 -0.000805 0.005381 0.000215
# 4 -0.001268 0.002889 -0.000805 0.028366 0.001030 0.003797
# 5 0.007086 0.000326 0.005381 0.001030 0.044776 -0.003181
# 6 -0.003983 0.000063 0.000215 0.003797 -0.003181 0.024981
#
#
# Mechanical properties :
#
#
# Convention : Reuss Voigt Hill
#
# Bulk Modulus (GPa) = 32.63551 47.30395 39.96973
# Shear Modulus (GPa) = 28.34595 33.27271 30.80933
#
# Velocity S-wave (km/s) = 3.47672 3.76676 3.62464
# Velocity P-wave (km/s) = 5.48028 6.25218 5.87892
#
# Compressibility (1/GPa) = 0.03064147
#
# Stress axis : x y z
#
# Youngs Moduli (GPa) = 71.04718 84.33729 42.70520
#
# Poissons Ratio (x) = 0.40227 -0.00334
# Poissons Ratio (y) = 0.33888 0.19910
# Poissons Ratio (z) = -0.00556 0.39319
#
# Static dielectric constant tensor:
#      x y z
#    x 4.290230 -0.054910 -0.299950 
#    y -0.054910 4.507540 -0.027840 
#    z -0.299950 -0.027840 3.957720 
# 
# 
# High freq. dielectric constant tensor:
#      x y z
#    x 1.926100 -0.008180 -0.029580 
#    y -0.008180 1.945280 -0.002620 
#    z -0.029580 -0.002620 1.909100 
# 
# From -- ./inp_files/4938.got.cif
#   From: 2010.03.12/outbox.cif.g09.slc.cpg/sg1_3_cif.got.tgz:4938.got - 2010.03.29 11:57:58.
