data_PCOD8000160
_publ_section_title
;
Structure prediction by ZEFSAII (Michael W. Deem and Ramdas Pophale) SiO2 
 PCOD8000160
Probable space group: P 1
;
_chemical_formula_sum "Si O2"
_cell_formula_units_Z 8
_cell_length_a 13.507785
_cell_length_b 10.781883
_cell_length_c 13.283912
_cell_angle_alpha 30.877069
_cell_angle_beta 158.676039
_cell_angle_gamma 149.209903
_cell_volume 342.180029
_symmetry_space_group_name_H-M "P 1"
_symmetry_group_IT_number 1
_symmetry_cell_setting 'triclinic'
loop_
_space_group_symop_operation_xyz
x,y,z
loop_
_atom_site_type_symbol
_atom_site_label
_atom_site_fract_x
_atom_site_fract_y
_atom_site_fract_z
Si Si1 0.085860 0.001840 0.785520
Si Si2 0.465815 0.183129 0.633009
Si Si3 0.333977 0.888325 0.511565
Si Si4 0.395793 0.030964 0.250040
Si Si5 0.909446 0.113865 0.251774
Si Si6 0.139442 0.482545 0.386598
Si Si7 0.750668 0.556538 0.135328
Si Si8 0.543818 0.767179 0.313010
O O1 0.237740 0.279850 0.686150
O O2 0.119625 0.028355 0.920350
O O3 0.751990 0.887160 0.520825
O O4 0.249636 0.823448 0.014837
O O5 0.179320 0.026680 0.532353
O O6 0.465905 0.469830 0.431671
O O7 0.463028 0.080142 0.589850
O O8 0.750515 0.165934 0.966625
O O9 0.494905 0.676775 0.801469
O O10 0.358540 0.061316 0.313216
O O11 0.999080 0.732416 0.321482
O O12 0.659060 0.267618 0.294249
O O13 0.411094 0.741700 0.449193
O O14 0.021306 0.373477 0.241847
O O15 0.695764 0.889184 0.269205
O O16 0.886837 0.553938 0.156189
#
# Coordination Sequence:
#
# PCOD8000160 Si02
#       8
#     1   1   1   1   1   1   1   1
#     4  11  23  40  68 102 136 163 210 269 329 399
#     4  12  25  45  67  94 131 177 224 262 314 387
#     4  11  28  45  64  96 131 173 229 268 307 382
#     4  11  22  42  68  91 130 177 206 264 331 372
#     4  11  24  42  69  97 133 171 208 272 330 376
#     4  10  23  42  67 104 134 163 212 267 331 400
#     4  11  25  45  67  97 131 168 220 273 322 385
#     4  11  24  43  66 101 132 168 215 265 328 395
#
# _framework density 23.379505999999999
#
# number of rings (size 3 to 8) (size 9 to 14) (size 15 to 20)
#    0.000    1.000    0.000    7.500    0.000   11.000 
#    0.000    1.250    0.000    0.000    0.000    0.000 
#    0.000    0.000    0.000    0.000    0.000    0.000 
#
# Total GULP energy -99171.340733 kJ/mol
# GULP energy per Si atom -12396.417592 kJ/mol
# Density = 2.332629 g / cm^3
# Si number density = 23.379506 Si / 1000 Ang^3
#
#
#
# Elastic Constant Matrix: (Units=GPa)
#
#
# Indices 1 2 3 4 5 6 
#
# 1 119.6143 40.9487 31.6498 3.5873 -35.6553 -7.4721
# 2 40.9487 97.3629 30.8932 -8.0031 -25.9405 12.0917
# 3 31.6498 30.8932 85.7255 -10.7193 -14.7047 -6.4521
# 4 3.5873 -8.0031 -10.7193 28.4939 0.1758 -9.2773
# 5 -35.6553 -25.9405 -14.7047 0.1758 42.3500 12.3434
# 6 -7.4721 12.0917 -6.4521 -9.2773 12.3434 42.5920
#
#
#
# Elastic Compliance Matrix: (Units=1/GPa)
#
#
# Indices 1 2 3 4 5 6 
#
# 1 0.012441 -0.002314 -0.002841 -0.003591 0.008313 -0.000782
# 2 -0.002314 0.015813 -0.003862 0.000670 0.008682 -0.007850
# 3 -0.002841 -0.003862 0.015105 0.006438 -0.000863 0.004538
# 4 -0.003591 0.000670 0.006438 0.041506 -0.003528 0.010218
# 5 0.008313 0.008682 -0.000863 -0.003528 0.039540 -0.013364
# 6 -0.000782 -0.007850 0.004538 0.010218 -0.013364 0.032356
#
#
# Mechanical properties :
#
#
# Convention : Reuss Voigt Hill
#
# Bulk Modulus (GPa) = 39.48847 56.63179 48.06013
# Shear Modulus (GPa) = 27.28715 35.96792 31.62753
#
# Velocity S-wave (km/s) = 3.42005 3.92655 3.68202
# Velocity P-wave (km/s) = 5.70285 6.69570 6.21912
#
# Compressibility (1/GPa) = 0.02532385
#
# Stress axis : x y z
#
# Youngs Moduli (GPa) = 80.37875 63.24089 66.20525
#
# Poissons Ratio (x) = 0.14634 0.18811
# Poissons Ratio (y) = 0.18600 0.25568
# Poissons Ratio (z) = 0.22838 0.24423
#
# Static dielectric constant tensor:
#      x y z
#    x 4.263460 0.134530 -0.164620 
#    y 0.134530 4.360350 0.000300 
#    z -0.164620 0.000300 4.215980 
# 
# 
# High freq. dielectric constant tensor:
#      x y z
#    x 1.921060 0.010520 -0.011840 
#    y 0.010520 1.932400 0.004340 
#    z -0.011840 0.004340 1.926770 
# 
# From -- ./inp_files/7311.got.cif
#   From: 2010.03.12/outbox.cif.g09.slc.cpg/sg1_4_cif.got.tgz:7311.got - 2010.03.29 11:57:58.
