data_PCOD8000433
_publ_section_title
;
Structure prediction by ZEFSAII (Michael W. Deem and Ramdas Pophale) SiO2 
 PCOD8000433
Probable space group: P -1
;
_chemical_formula_sum "Si O2"
_cell_formula_units_Z 16
_cell_length_a 8.953772
_cell_length_b 11.535191
_cell_length_c 21.483032
_cell_angle_alpha 41.538994
_cell_angle_beta 80.193014
_cell_angle_gamma 47.813764
_cell_volume 803.063123
_symmetry_space_group_name_H-M "P -1"
_symmetry_group_IT_number 2
_symmetry_cell_setting 'triclinic'
loop_
_space_group_symop_operation_xyz
x,y,z
-x,-y,-z
loop_
_atom_site_type_symbol
_atom_site_label
_atom_site_fract_x
_atom_site_fract_y
_atom_site_fract_z
Si Si1 0.384761 0.192951 0.315610
Si Si2 0.977593 0.648748 0.498739
Si Si3 0.891206 0.461616 0.932826
Si Si4 0.176402 0.827000 0.892981
Si Si5 0.391426 0.069880 0.127208
Si Si6 0.736218 0.148983 0.705251
Si Si7 0.951696 0.660516 0.262872
Si Si8 0.489313 0.295484 0.544883
O O1 0.208635 0.406421 0.182130
O O2 0.215122 0.393436 0.308475
O O3 0.670479 0.027959 0.366588
O O4 0.471267 0.906188 0.422084
O O5 0.000000 0.500000 0.500000
O O6 0.022460 0.497183 0.618869
O O7 0.221931 0.551198 0.507802
O O8 0.670639 0.738463 0.888082
O O9 0.932080 0.213254 0.034119
O O10 0.171833 0.296123 0.995728
O O11 0.074766 0.114748 0.804141
O O12 0.500000 0.500000 0.000000
O O13 0.042452 0.907201 0.803095
O O14 0.394624 0.868247 0.232499
O O15 0.682997 0.853015 0.166880
O O16 0.746065 0.065467 0.667055
O O17 0.541240 0.507594 0.576651
#
# Coordination Sequence:
#
# PCOD8000433 Si02
#       8
#     2   2   2   2   2   2   2   2
#     4  11  23  37  60  89 127 149 192 241 307 356
#     4  10  20  37  63  86 112 153 198 242 284 348
#     4  10  21  38  60  84 116 158 200 245 282 344
#     4  11  23  35  61  88 115 153 202 246 282 342
#     4  10  19  39  62  84 116 155 204 239 283 345
#     4  10  20  37  63  89 112 144 205 251 277 336
#     4  12  23  39  59  90 122 157 189 244 304 348
#     4  10  20  37  65  87 112 154 199 246 287 344
#
# _framework density 19.923714
#
# number of rings (size 3 to 8) (size 9 to 14) (size 15 to 20)
#    0.000    1.500    3.750    2.625    1.750    1.000 
#    0.000    0.625   11.000    0.000    0.000    0.000 
#    0.000    0.000    0.000    0.000    0.000    0.000 
#
# Total GULP energy -198276.967918 kJ/mol
# GULP energy per Si atom -12392.310495 kJ/mol
# Density = 1.987837 g / cm^3
# Si number density = 19.923714 Si / 1000 Ang^3
#
#
#
# Elastic Constant Matrix: (Units=GPa)
#
#
# Indices 1 2 3 4 5 6 
#
# 1 98.8807 30.3997 36.3482 -8.8698 9.3470 -3.1259
# 2 30.3997 79.7645 27.3196 -17.2959 10.3210 -5.6808
# 3 36.3482 27.3196 89.9032 1.6189 10.9278 -2.5335
# 4 -8.8698 -17.2959 1.6189 23.6295 -5.8530 3.9554
# 5 9.3470 10.3210 10.9278 -5.8530 40.1031 -2.8987
# 6 -3.1259 -5.6808 -2.5335 3.9554 -2.8987 18.1343
#
#
#
# Elastic Compliance Matrix: (Units=1/GPa)
#
#
# Indices 1 2 3 4 5 6 
#
# 1 0.012873 -0.002671 -0.004364 0.003005 -0.000685 0.000008
# 2 -0.002671 0.017882 -0.004406 0.011861 -0.000919 0.001792
# 3 -0.004364 -0.004406 0.014710 -0.006715 -0.002769 0.000945
# 4 0.003005 0.011861 -0.006715 0.055289 0.005577 -0.007872
# 5 -0.000685 -0.000919 -0.002769 0.005577 0.027068 0.002318
# 6 0.000008 0.001792 0.000945 -0.007872 0.002318 0.057926
#
#
# Mechanical properties :
#
#
# Convention : Reuss Voigt Hill
#
# Bulk Modulus (GPa) = 44.27673 50.74260 47.50967
# Shear Modulus (GPa) = 23.13138 28.00544 25.56841
#
# Velocity S-wave (km/s) = 3.41104 3.75325 3.58623
# Velocity P-wave (km/s) = 6.14695 6.65629 6.40668
#
# Compressibility (1/GPa) = 0.02258523
#
# Stress axis : x y z
#
# Youngs Moduli (GPa) = 77.68255 55.92199 67.97991
#
# Poissons Ratio (x) = 0.14935 0.29664
# Poissons Ratio (y) = 0.20747 0.29949
# Poissons Ratio (z) = 0.33898 0.24637
#
# Static dielectric constant tensor:
#      x y z
#    x 4.233080 -0.281750 0.266230 
#    y -0.281750 3.303860 -0.141560 
#    z 0.266230 -0.141560 3.977560 
# 
# 
# High freq. dielectric constant tensor:
#      x y z
#    x 1.794940 -0.003930 0.013990 
#    y -0.003930 1.717910 0.007100 
#    z 0.013990 0.007100 1.798540 
# 
# From -- ./inp_files/239007.got.cif
#   From: 2010.06.25/outbox.cif.g09.slc.cpg/sg2_120_cif.got.tgz:239007.got - 2010.06.27 13:26:56.
