data_PCOD8000578
_publ_section_title
;
Structure prediction by ZEFSAII (Michael W. Deem and Ramdas Pophale) SiO2 
 PCOD8000578
Probable space group: P -1
;
_chemical_formula_sum "Si O2"
_cell_formula_units_Z 16
_cell_length_a 7.519974
_cell_length_b 12.126630
_cell_length_c 17.917794
_cell_angle_alpha 30.993267
_cell_angle_beta 111.332811
_cell_angle_gamma 115.717863
_cell_volume 757.921552
_symmetry_space_group_name_H-M "P -1"
_symmetry_group_IT_number 2
_symmetry_cell_setting 'triclinic'
loop_
_space_group_symop_operation_xyz
x,y,z
-x,-y,-z
loop_
_atom_site_type_symbol
_atom_site_label
_atom_site_fract_x
_atom_site_fract_y
_atom_site_fract_z
Si Si1 0.722255 0.970210 0.541268
Si Si2 0.997395 0.963146 0.190966
Si Si3 0.329655 0.801950 0.736417
Si Si4 0.838008 0.280039 0.083722
Si Si5 0.285257 0.535535 0.181780
Si Si6 0.264762 0.858287 0.408477
Si Si7 0.882191 0.624125 0.122836
Si Si8 0.696093 0.597557 0.270560
O O1 0.736122 0.721025 0.687462
O O2 0.500000 0.000000 0.500000
O O3 0.796700 0.083936 0.406798
O O4 0.846756 0.100411 0.555324
O O5 0.136522 0.828555 0.330658
O O6 0.807384 0.791382 0.229110
O O7 0.939760 0.103904 0.166582
O O8 0.108807 0.126589 0.047735
O O9 0.268535 0.830492 0.794638
O O10 0.283486 0.544019 0.854859
O O11 0.560129 0.918622 0.701307
O O12 0.687791 0.340530 0.965880
O O13 0.000000 0.500000 0.000000
O O14 0.096243 0.574887 0.173463
O O15 0.483031 0.640595 0.197382
O O16 0.340324 0.637328 0.556729
O O17 0.823458 0.597743 0.215332
#
# Coordination Sequence:
#
# PCOD8000578 Si02
#       8
#     2   2   2   2   2   2   2   2
#     4  10  19  39  64  97 130 165 217 269 331 388
#     4  11  26  44  67  94 134 182 221 274 326 396
#     4  11  21  41  64  99 132 158 222 273 339 391
#     4  11  23  43  63 102 135 166 221 277 342 387
#     4  11  23  42  69  99 135 176 219 275 331 397
#     4  11  23  42  66  98 131 177 220 274 333 385
#     4  11  25  42  68 104 127 176 223 274 339 390
#     4  12  24  49  65  94 139 181 228 265 324 400
#
# _framework density 21.110364000000001
#
# number of rings (size 3 to 8) (size 9 to 14) (size 15 to 20)
#    0.000    1.000    6.250    2.250    1.750    4.000 
#    2.250    0.625    0.000    0.000    0.000    0.000 
#    0.000    0.000    0.000    0.000    0.000    0.000 
#
# Total GULP energy -198351.395116 kJ/mol
# GULP energy per Si atom -12396.962195 kJ/mol
# Density = 2.106232 g / cm^3
# Si number density = 21.110364 Si / 1000 Ang^3
#
#
#
# Elastic Constant Matrix: (Units=GPa)
#
#
# Indices 1 2 3 4 5 6 
#
# 1 68.9623 39.2077 39.8481 11.1194 -5.7477 -0.3354
# 2 39.2077 113.9576 26.0479 -1.1344 -4.8226 24.1248
# 3 39.8481 26.0479 110.9686 19.9397 -3.1683 13.0414
# 4 11.1194 -1.1344 19.9397 35.7961 3.9565 -0.5847
# 5 -5.7477 -4.8226 -3.1683 3.9565 27.4070 2.4577
# 6 -0.3354 24.1248 13.0414 -0.5847 2.4577 37.7543
#
#
#
# Elastic Compliance Matrix: (Units=1/GPa)
#
#
# Indices 1 2 3 4 5 6 
#
# 1 0.024031 -0.008253 -0.006762 -0.004137 0.002723 0.007582
# 2 -0.008253 0.013464 0.000431 0.002482 0.001124 -0.008861
# 3 -0.006762 0.000431 0.012916 -0.005312 0.001363 -0.004968
# 4 -0.004137 0.002482 -0.005312 0.032929 -0.005898 0.001107
# 5 0.002723 0.001124 0.001363 -0.005898 0.038603 -0.003769
# 6 0.007582 -0.008861 -0.004968 0.001107 -0.003769 0.034195
#
#
# Mechanical properties :
#
#
# Convention : Reuss Voigt Hill
#
# Bulk Modulus (GPa) = 47.07628 56.01066 51.54347
# Shear Modulus (GPa) = 25.98909 32.77714 29.38312
#
# Velocity S-wave (km/s) = 3.51252 3.94465 3.73484
# Velocity P-wave (km/s) = 6.22887 6.88018 6.56261
#
# Compressibility (1/GPa) = 0.02124212
#
# Stress axis : x y z
#
# Youngs Moduli (GPa) = 41.61255 74.26964 77.42354
#
# Poissons Ratio (x) = 0.61298 0.52354
# Poissons Ratio (y) = 0.34345 -0.03335
# Poissons Ratio (z) = 0.28139 -0.03199
#
# Static dielectric constant tensor:
#      x y z
#    x 3.824860 -0.158340 -0.336140 
#    y -0.158340 4.081840 0.427630 
#    z -0.336140 0.427630 4.493390 
# 
# 
# High freq. dielectric constant tensor:
#      x y z
#    x 1.803990 -0.000170 -0.008600 
#    y -0.000170 1.826530 0.010940 
#    z -0.008600 0.010940 1.846110 
# 
# From -- ./inp_files/558904.got.cif
#   From: 2010.06.25/outbox.cif.g09.slc.cpg/sg2_280_cif.got.tgz:558904.got - 2010.06.27 13:26:56.
