data_PCOD8000089
_publ_section_title
;
Structure prediction by ZEFSAII (Michael W. Deem and Ramdas Pophale) SiO2 
 PCOD8000089
Probable space group: P 1
;
_chemical_formula_sum "Si O2"
_cell_formula_units_Z 8
_cell_length_a 11.319716
_cell_length_b 4.940802
_cell_length_c 11.422098
_cell_angle_alpha 83.893629
_cell_angle_beta 35.774873
_cell_angle_gamma 93.481187
_cell_volume 359.262550
_symmetry_space_group_name_H-M "P 1"
_symmetry_group_IT_number 1
_symmetry_cell_setting 'triclinic'
loop_
_space_group_symop_operation_xyz
x,y,z
loop_
_atom_site_type_symbol
_atom_site_label
_atom_site_fract_x
_atom_site_fract_y
_atom_site_fract_z
Si Si1 0.308970 0.593490 0.361820
Si Si2 0.040314 0.993264 0.617924
Si Si3 0.924983 0.077568 0.456637
Si Si4 0.679769 0.556757 0.216920
Si Si5 0.197699 0.687523 0.196537
Si Si6 0.925412 0.128456 0.952089
Si Si7 0.378133 0.380039 0.673507
Si Si8 0.462499 0.876392 0.753504
O O1 0.239170 0.257323 0.434879
O O2 0.526421 0.679117 0.250968
O O3 0.337997 0.699270 0.199642
O O4 0.132533 0.718229 0.562316
O O5 0.894429 0.984260 0.621633
O O6 0.906340 0.017978 0.838693
O O7 0.003117 0.413051 0.364362
O O8 0.709143 0.959950 0.569814
O O9 0.100550 0.954015 0.260066
O O10 0.564707 0.399236 0.430368
O O11 0.778970 0.338293 0.078656
O O12 0.852506 0.842974 0.101958
O O13 0.347216 0.705848 0.964837
O O14 0.160534 0.291308 0.784820
O O15 0.401553 0.683737 0.697377
O O16 0.389738 0.159319 0.775883
#
# Coordination Sequence:
#
# PCOD8000089 Si02
#       8
#     1   1   1   1   1   1   1   1
#     4  10  21  42  69  98 140 167 211 281 334 388
#     4  10  21  42  69  98 140 167 211 281 334 388
#     4  10  23  43  67 100 132 170 216 275 329 387
#     4  12  26  43  69 101 131 179 221 272 334 392
#     4  10  23  43  67 100 132 170 216 275 329 387
#     4  12  26  43  69 101 131 179 221 272 334 392
#     4  12  28  46  64  96 140 172 226 274 320 390
#     4  12  26  44  70  94 130 184 220 266 324 404
#
# _framework density 22.267834000000001
#
# number of rings (size 3 to 8) (size 9 to 14) (size 15 to 20)
#    0.000    1.000    1.250    4.500    3.500    6.000 
#    2.250    0.000    0.000    0.000    0.000    0.000 
#    0.000    0.000    0.000    0.000    0.000    0.000 
#
# Total GULP energy -99242.815340 kJ/mol
# GULP energy per Si atom -12405.351917 kJ/mol
# Density = 2.221715 g / cm^3
# Si number density = 22.267834 Si / 1000 Ang^3
#
#
#
# Elastic Constant Matrix: (Units=GPa)
#
#
# Indices 1 2 3 4 5 6 
#
# 1 75.2045 22.4668 33.1082 1.3196 10.2125 5.8187
# 2 22.4668 105.9719 24.4800 4.0763 2.3202 4.4766
# 3 33.1082 24.4800 104.7964 5.4685 17.8637 3.5279
# 4 1.3196 4.0763 5.4685 32.8037 7.4851 -0.2373
# 5 10.2125 2.3202 17.8637 7.4851 21.6529 -2.0361
# 6 5.8187 4.4766 3.5279 -0.2373 -2.0361 35.9700
#
#
#
# Elastic Compliance Matrix: (Units=1/GPa)
#
#
# Indices 1 2 3 4 5 6 
#
# 1 0.016547 -0.002483 -0.003770 0.001427 -0.005136 -0.002279
# 2 -0.002483 0.010437 -0.001910 -0.001348 0.002038 -0.000603
# 3 -0.003770 -0.001910 0.012669 0.000241 -0.008635 -0.000882
# 4 0.001427 -0.001348 0.000241 0.033360 -0.012312 -0.000564
# 5 -0.005136 0.002038 -0.008635 -0.012312 0.060214 0.004751
# 6 -0.002279 -0.000603 -0.000882 -0.000564 0.004751 0.028597
#
#
# Mechanical properties :
#
#
# Convention : Reuss Voigt Hill
#
# Bulk Modulus (GPa) = 42.87102 49.56476 46.21789
# Shear Modulus (GPa) = 26.89244 31.81316 29.35280
#
# Velocity S-wave (km/s) = 3.47894 3.78386 3.63460
# Velocity P-wave (km/s) = 5.95245 6.43404 6.19792
#
# Compressibility (1/GPa) = 0.02332578
#
# Stress axis : x y z
#
# Youngs Moduli (GPa) = 60.43240 95.81337 78.93499
#
# Poissons Ratio (x) = 0.23795 0.29758
# Poissons Ratio (y) = 0.15008 0.15078
# Poissons Ratio (z) = 0.22783 0.18302
#
# Static dielectric constant tensor:
#      x y z
#    x 3.994570 0.069230 0.085370 
#    y 0.069230 4.110740 -0.069860 
#    z 0.085370 -0.069860 3.834840 
# 
# 
# High freq. dielectric constant tensor:
#      x y z
#    x 1.874280 0.003550 0.004710 
#    y 0.003550 1.894940 -0.003310 
#    z 0.004710 -0.003310 1.873280 
# 
# From -- ./inp_files/658.got.cif
#   From: 2010.03.12/outbox.cif.g09.slc.cpg/sg1_1_cif.got.tgz:658.got - 2010.03.29 11:57:58.
