data_PCOD8000138
_publ_section_title
;
Structure prediction by ZEFSAII (Michael W. Deem and Ramdas Pophale) SiO2 
 PCOD8000138
Probable space group: P 1
;
_chemical_formula_sum "Si O2"
_cell_formula_units_Z 8
_cell_length_a 8.306104
_cell_length_b 7.384903
_cell_length_c 8.689997
_cell_angle_alpha 104.031971
_cell_angle_beta 68.219147
_cell_angle_gamma 57.667829
_cell_volume 345.966166
_symmetry_space_group_name_H-M "P 1"
_symmetry_group_IT_number 1
_symmetry_cell_setting 'triclinic'
loop_
_space_group_symop_operation_xyz
x,y,z
loop_
_atom_site_type_symbol
_atom_site_label
_atom_site_fract_x
_atom_site_fract_y
_atom_site_fract_z
Si Si1 0.236420 0.642470 0.434640
Si Si2 0.730062 0.324094 0.086542
Si Si3 0.150327 0.071198 0.689426
Si Si4 0.729120 0.923452 0.646031
Si Si5 0.791552 0.853391 0.967988
Si Si6 0.296274 0.169141 0.349729
Si Si7 0.927267 0.466577 0.287668
Si Si8 0.215488 0.368380 0.895766
O O1 0.439755 0.540376 0.214067
O O2 0.270533 0.409740 0.441925
O O3 0.968937 0.861141 0.501250
O O4 0.249723 0.784598 0.597987
O O5 0.797022 0.404933 0.223632
O O6 0.859724 0.286985 0.873643
O O7 0.810554 0.055611 0.047116
O O8 0.215560 0.113043 0.512964
O O9 0.257774 0.113399 0.799099
O O10 0.745001 0.853050 0.804700
O O11 0.724997 0.740784 0.502963
O O12 0.493323 0.231755 0.768628
O O13 0.049866 0.572419 0.861016
O O14 0.574562 0.917523 0.154936
O O15 0.118096 0.236773 0.291475
O O16 0.084359 0.491760 0.130671
#
# Coordination Sequence:
#
# PCOD8000138 Si02
#       8
#     1   1   1   1   1   1   1   1
#     4  10  22  43  68  96 139 179 226 280 338 408
#     4  10  23  44  68 103 138 178 229 288 343 406
#     4  11  23  41  72 102 135 186 226 280 355 404
#     4  11  22  44  72  95 140 183 225 285 342 404
#     4  11  23  46  70 100 143 185 226 282 349 412
#     4  10  23  44  71 101 139 186 228 281 348 411
#     4  10  22  44  66 101 139 174 230 292 334 408
#     4  11  24  40  71 104 135 183 232 280 347 411
#
# _framework density 23.123646000000001
#
# number of rings (size 3 to 8) (size 9 to 14) (size 15 to 20)
#    0.000    1.500    2.500    2.250    5.250    0.000 
#    4.500    1.250    2.750    0.000    0.000    0.000 
#    0.000    0.000    0.000    0.000    0.000    0.000 
#
# Total GULP energy -99112.384496 kJ/mol
# GULP energy per Si atom -12389.048062 kJ/mol
# Density = 2.307102 g / cm^3
# Si number density = 23.123646 Si / 1000 Ang^3
#
#
#
# Elastic Constant Matrix: (Units=GPa)
#
#
# Indices 1 2 3 4 5 6 
#
# 1 98.7292 40.3690 74.4497 6.1164 -17.2031 3.1833
# 2 40.3690 80.5839 56.2702 9.9168 -13.6772 -25.9191
# 3 74.4497 56.2702 173.2305 4.1025 -25.9407 -8.8552
# 4 6.1164 9.9168 4.1025 42.3217 -1.4856 -5.8021
# 5 -17.2031 -13.6772 -25.9407 -1.4856 62.4642 15.2660
# 6 3.1833 -25.9191 -8.8552 -5.8021 15.2660 30.8462
#
#
#
# Elastic Compliance Matrix: (Units=1/GPa)
#
#
# Indices 1 2 3 4 5 6 
#
# 1 0.019317 -0.009610 -0.005190 -0.001814 0.004466 -0.014110
# 2 -0.009610 0.027575 -0.004190 -0.001409 -0.004469 0.024906
# 3 -0.005190 -0.004190 0.009579 0.000727 0.001903 -0.001040
# 4 -0.001814 -0.001409 0.000727 0.024712 -0.000980 0.004346
# 5 0.004466 -0.004469 0.001903 -0.000980 0.020442 -0.013971
# 6 -0.014110 0.024906 -0.001040 0.004346 -0.013971 0.062236
#
#
# Mechanical properties :
#
#
# Convention : Reuss Voigt Hill
#
# Bulk Modulus (GPa) = 54.07967 77.19128 65.63548
# Shear Modulus (GPa) = 24.03797 39.22341 31.63069
#
# Velocity S-wave (km/s) = 3.22769 4.12302 3.70252
# Velocity P-wave (km/s) = 6.10971 7.49134 6.83552
#
# Compressibility (1/GPa) = 0.01849124
#
# Stress axis : x y z
#
# Youngs Moduli (GPa) = 51.76700 36.26480 104.39927
#
# Poissons Ratio (x) = 0.34851 0.54183
# Poissons Ratio (y) = 0.49749 0.43740
# Poissons Ratio (z) = 0.26867 0.15194
#
# Static dielectric constant tensor:
#      x y z
#    x 4.549570 0.005010 -0.157680 
#    y 0.005010 3.711190 0.392510 
#    z -0.157680 0.392510 4.809980 
# 
# 
# High freq. dielectric constant tensor:
#      x y z
#    x 1.918470 -0.001720 -0.009260 
#    y -0.001720 1.861890 0.023240 
#    z -0.009260 0.023240 1.950730 
# 
# From -- ./inp_files/4341.got.cif
#   From: 2010.03.12/outbox.cif.g09.slc.cpg/sg1_3_cif.got.tgz:4341.got - 2010.03.29 11:57:58.
