data_PCOD8000799
_publ_section_title
;
Structure prediction by ZEFSAII (Michael W. Deem and Ramdas Pophale) SiO2 
 PCOD8000799
Probable space group: P -1
;
_chemical_formula_sum "Si O2"
_cell_formula_units_Z 14
_cell_length_a 11.158970
_cell_length_b 8.940103
_cell_length_c 11.593874
_cell_angle_alpha 86.157286
_cell_angle_beta 141.805693
_cell_angle_gamma 75.753271
_cell_volume 624.316271
_symmetry_space_group_name_H-M "P -1"
_symmetry_group_IT_number 2
_symmetry_cell_setting 'triclinic'
loop_
_space_group_symop_operation_xyz
x,y,z
-x,-y,-z
loop_
_atom_site_type_symbol
_atom_site_label
_atom_site_fract_x
_atom_site_fract_y
_atom_site_fract_z
Si Si1 0.289789 0.986959 0.989489
Si Si2 0.874468 0.342075 0.728823
Si Si3 0.425795 0.863091 0.861400
Si Si4 0.413765 0.607197 0.711513
Si Si5 0.140774 0.819475 0.057467
Si Si6 0.081497 0.583175 0.877119
Si Si7 0.797742 0.525409 0.267215
O O1 0.519203 0.995246 0.160390
O O2 0.319662 0.833655 0.107409
O O3 0.090442 0.165099 0.871325
O O4 0.251972 0.942304 0.831621
O O5 0.712576 0.397956 0.496181
O O6 0.751782 0.316529 0.749238
O O7 0.938077 0.489105 0.800090
O O8 0.325208 0.798069 0.687102
O O9 0.663806 0.711809 0.096964
O O10 0.380426 0.501014 0.794357
O O11 0.670298 0.525977 0.877893
O O12 0.987484 0.764341 0.865606
O O13 0.000000 0.000000 0.000000
O O14 0.093343 0.611021 0.747709
O O15 0.000000 0.500000 0.500000
#
# Coordination Sequence:
#
# PCOD8000799 Si02
#       7
#     2   2   2   2   2   2   2
#     4  10  19  40  61  87 126 164 198 247 308 356
#     4  11  22  40  63  91 119 164 208 244 293 370
#     4  10  20  35  63  90 125 161 194 255 308 356
#     4  11  21  36  63  94 121 155 205 250 306 355
#     4  10  23  40  64  85 123 166 204 247 303 356
#     4  11  21  41  64  87 124 159 201 257 303 346
#     4  11  19  35  61  96 123 150 202 251 302 366
#
# _framework density 22.424533
#
# number of rings (size 3 to 8) (size 9 to 14) (size 15 to 20)
#    0.000    1.429    4.286    3.857    0.000    1.143 
#    0.000    6.429    0.000    0.000    0.000    0.000 
#    0.000    0.000    0.000    0.000    0.000    0.000 
#
# Total GULP energy -173475.635836 kJ/mol
# GULP energy per Si atom -12391.116845 kJ/mol
# Density = 2.237349 g / cm^3
# Si number density = 22.424533 Si / 1000 Ang^3
#
#
#
# Elastic Constant Matrix: (Units=GPa)
#
#
# Indices 1 2 3 4 5 6 
#
# 1 148.0785 59.4659 36.3013 16.0351 -27.3580 32.1775
# 2 59.4659 130.9119 43.3583 43.4838 -14.0623 2.1452
# 3 36.3013 43.3583 80.8178 22.5970 -19.5132 13.5768
# 4 16.0351 43.4838 22.5970 27.9794 -2.0046 -4.4166
# 5 -27.3580 -14.0623 -19.5132 -2.0046 28.7099 2.4150
# 6 32.1775 2.1452 13.5768 -4.4166 2.4150 52.6588
#
#
#
# Elastic Compliance Matrix: (Units=1/GPa)
#
#
# Indices 1 2 3 4 5 6 
#
# 1 0.012065 -0.003645 0.001477 -0.002960 0.011212 -0.008367
# 2 -0.003645 0.018590 0.000380 -0.026986 0.004097 -0.001079
# 3 0.001477 0.000380 0.022550 -0.019925 0.016298 -0.009150
# 4 -0.002960 -0.026986 -0.019925 0.096450 -0.024297 0.017249
# 5 0.011212 0.004097 0.016298 -0.024297 0.058243 -0.015929
# 6 -0.008367 -0.001079 -0.009150 0.017249 -0.015929 0.028683
#
#
# Mechanical properties :
#
#
# Convention : Reuss Voigt Hill
#
# Bulk Modulus (GPa) = 20.15008 70.89548 45.52278
# Shear Modulus (GPa) = 19.47782 36.58181 28.02981
#
# Velocity S-wave (km/s) = 2.95039 4.04335 3.53932
# Velocity P-wave (km/s) = 4.54000 7.31314 6.08661
#
# Compressibility (1/GPa) = 0.04962760
#
# Stress axis : x y z
#
# Youngs Moduli (GPa) = 82.88316 53.79200 44.34592
#
# Poissons Ratio (x) = 0.19607 -0.06548
# Poissons Ratio (y) = 0.30210 -0.01683
# Poissons Ratio (z) = -0.12238 -0.02042
#
# Static dielectric constant tensor:
#      x y z
#    x 4.675390 0.088130 -0.380070 
#    y 0.088130 4.508490 0.395040 
#    z -0.380070 0.395040 3.655020 
# 
# 
# High freq. dielectric constant tensor:
#      x y z
#    x 1.902200 0.000520 -0.021830 
#    y 0.000520 1.897230 0.031430 
#    z -0.021830 0.031430 1.836290 
# 
# From -- ./inp_files/415031.got.cif
#   From: 2010.06.25/outbox.cif.g09.slc.cpg/sg2_208_cif.got.tgz:415031.got - 2010.06.27 13:26:56.
