data_PCOD8000761
_publ_section_title
;
Structure prediction by ZEFSAII (Michael W. Deem and Ramdas Pophale) SiO2 
 PCOD8000761
Probable space group: P -1
;
_chemical_formula_sum "Si O2"
_cell_formula_units_Z 16
_cell_length_a 11.621844
_cell_length_b 12.255333
_cell_length_c 9.261948
_cell_angle_alpha 49.120182
_cell_angle_beta 119.988404
_cell_angle_gamma 130.725119
_cell_volume 749.753693
_symmetry_space_group_name_H-M "P -1"
_symmetry_group_IT_number 2
_symmetry_cell_setting 'triclinic'
loop_
_space_group_symop_operation_xyz
x,y,z
-x,-y,-z
loop_
_atom_site_type_symbol
_atom_site_label
_atom_site_fract_x
_atom_site_fract_y
_atom_site_fract_z
Si Si1 0.882982 0.817285 0.642246
Si Si2 0.338925 0.720702 0.937878
Si Si3 0.218531 0.641273 0.381685
Si Si4 0.349973 0.501108 0.366187
Si Si5 0.700256 0.464936 0.206226
Si Si6 0.071874 0.662527 0.000340
Si Si7 0.401588 0.004476 0.301475
Si Si8 0.660428 0.749166 0.808879
O O1 0.799700 0.684818 0.574333
O O2 0.747739 0.814668 0.654733
O O3 0.979204 0.759983 0.852172
O O4 0.000000 0.000000 0.500000
O O5 0.260682 0.624914 0.821844
O O6 0.237656 0.769931 0.934698
O O7 0.490570 0.892897 0.852886
O O8 0.376924 0.588561 0.151848
O O9 0.333375 0.616397 0.373318
O O10 0.185198 0.517998 0.604633
O O11 0.289261 0.824060 0.329935
O O12 0.077067 0.613485 0.214123
O O13 0.500000 0.500000 0.500000
O O14 0.522929 0.352217 0.243185
O O15 0.725260 0.644351 0.023756
O O16 0.000000 0.500000 0.000000
O O17 0.500000 0.000000 0.500000
O O18 0.300908 0.088398 0.213383
#
# Coordination Sequence:
#
# PCOD8000761 Si02
#       8
#     2   2   2   2   2   2   2   2
#     4  12  26  44  70  97 142 188 220 282 345 411
#     4  10  21  39  70  95 136 176 217 283 344 393
#     4  11  23  40  68 101 131 175 228 277 337 410
#     4  11  24  41  71 102 136 174 240 278 344 409
#     4  10  19  39  73  99 129 176 227 288 333 402
#     4  11  23  46  64  90 139 179 227 262 337 420
#     4  11  23  38  67 106 136 164 229 295 341 389
#     4  10  21  40  67  99 136 173 225 278 351 390
#
# _framework density 21.340342
#
# number of rings (size 3 to 8) (size 9 to 14) (size 15 to 20)
#    0.000    1.250    6.250    0.750    5.250    3.000 
#    0.000    3.125    2.750    0.000    0.000    0.000 
#    0.000    0.000    0.000    0.000    0.000    0.000 
#
# Total GULP energy -198304.315610 kJ/mol
# GULP energy per Si atom -12394.019726 kJ/mol
# Density = 2.129177 g / cm^3
# Si number density = 21.340342 Si / 1000 Ang^3
#
#
#
# Elastic Constant Matrix: (Units=GPa)
#
#
# Indices 1 2 3 4 5 6 
#
# 1 74.7073 11.1024 15.4701 -1.7514 -4.5079 -12.3065
# 2 11.1024 103.7869 45.0711 -4.3123 2.6275 -13.5302
# 3 15.4701 45.0711 123.5944 13.1236 -0.5446 2.5004
# 4 -1.7514 -4.3123 13.1236 42.5252 1.7465 -0.8948
# 5 -4.5079 2.6275 -0.5446 1.7465 38.4830 -0.7853
# 6 -12.3065 -13.5302 2.5004 -0.8948 -0.7853 28.8723
#
#
#
# Elastic Compliance Matrix: (Units=1/GPa)
#
#
# Indices 1 2 3 4 5 6 
#
# 1 0.015084 0.000280 -0.002272 0.001421 0.001791 0.006850
# 2 0.000280 0.012888 -0.005204 0.003103 -0.000925 0.006681
# 3 -0.002272 -0.005204 0.010796 -0.004060 0.000335 -0.004458
# 4 0.001421 0.003103 -0.004060 0.025257 -0.001185 0.003162
# 5 0.001791 -0.000925 0.000335 -0.001185 0.026337 0.000980
# 6 0.006850 0.006681 -0.004458 0.003162 0.000980 0.041196
#
#
# Mechanical properties :
#
#
# Convention : Reuss Voigt Hill
#
# Bulk Modulus (GPa) = 41.02255 49.48620 45.25437
# Shear Modulus (GPa) = 32.45163 37.33911 34.89537
#
# Velocity S-wave (km/s) = 3.90381 4.18747 4.04813
# Velocity P-wave (km/s) = 6.29161 6.82783 6.56520
#
# Compressibility (1/GPa) = 0.02437684
#
# Stress axis : x y z
#
# Youngs Moduli (GPa) = 66.29456 77.59008 92.62900
#
# Poissons Ratio (x) = -0.02169 0.21042
# Poissons Ratio (y) = -0.01854 0.48201
# Poissons Ratio (z) = 0.15060 0.40375
#
# Static dielectric constant tensor:
#      x y z
#    x 4.075300 -0.581180 -0.366290 
#    y -0.581180 4.188840 0.115300 
#    z -0.366290 0.115300 4.213960 
# 
# 
# High freq. dielectric constant tensor:
#      x y z
#    x 1.840110 -0.016160 0.000210 
#    y -0.016160 1.816620 -0.003780 
#    z 0.000210 -0.003780 1.845700 
# 
# From -- ./inp_files/261753.got.cif
#   From: 2010.06.25/outbox.cif.g09.slc.cpg/sg2_131_cif.got.tgz:261753.got - 2010.06.27 13:26:56.
