data_PCOD8000146
_publ_section_title
;
Structure prediction by ZEFSAII (Michael W. Deem and Ramdas Pophale) SiO2 
 PCOD8000146
Probable space group: P 1
;
_chemical_formula_sum "Si O2"
_cell_formula_units_Z 8
_cell_length_a 7.629519
_cell_length_b 9.256942
_cell_length_c 10.516248
_cell_angle_alpha 42.215071
_cell_angle_beta 58.806937
_cell_angle_gamma 76.360402
_cell_volume 412.546705
_symmetry_space_group_name_H-M "P 1"
_symmetry_group_IT_number 1
_symmetry_cell_setting 'triclinic'
loop_
_space_group_symop_operation_xyz
x,y,z
loop_
_atom_site_type_symbol
_atom_site_label
_atom_site_fract_x
_atom_site_fract_y
_atom_site_fract_z
Si Si1 0.744300 0.512630 0.123460
Si Si2 0.706182 0.169407 0.557100
Si Si3 0.926403 0.449187 0.836880
Si Si4 0.734981 0.954700 0.230469
Si Si5 0.874103 0.882827 0.493657
Si Si6 0.954694 0.629148 0.216737
Si Si7 0.294293 0.789549 0.377138
Si Si8 0.413864 0.775817 0.051587
O O1 0.620006 0.289229 0.392368
O O2 0.574605 0.628427 0.051666
O O3 0.900735 0.675083 0.060216
O O4 0.893298 0.448764 0.001610
O O5 0.858486 0.365655 0.456748
O O6 0.837386 0.004676 0.557523
O O7 0.516136 0.031905 0.806146
O O8 0.795316 0.613919 0.717058
O O9 0.174602 0.549538 0.640632
O O10 0.847901 0.200141 0.974381
O O11 0.748411 0.954621 0.377860
O O12 0.490761 0.900495 0.319583
O O13 0.851719 0.776422 0.251300
O O14 0.129748 0.946071 0.331204
O O15 0.204552 0.686703 0.105792
O O16 0.373154 0.754986 0.229865
#
# Coordination Sequence:
#
# PCOD8000146 Si02
#       8
#     1   1   1   1   1   1   1   1
#     4  10  22  45  61  94 129 159 212 255 306 374
#     4  10  23  44  64  92 128 163 206 262 302 374
#     4  10  23  44  64  92 128 163 206 262 302 374
#     4  12  21  44  64  91 132 160 208 259 310 365
#     4  10  22  45  61  94 129 159 212 255 306 374
#     4  10  24  39  65  97 117 170 208 248 318 365
#     4  10  24  39  65  97 117 170 208 248 318 365
#     4  12  21  44  64  91 132 160 208 259 310 365
#
# _framework density 19.391743999999999
#
# number of rings (size 3 to 8) (size 9 to 14) (size 15 to 20)
#    1.500    0.000    5.000    0.000    0.000    6.000 
#    4.500    0.000    0.000    0.000    0.000    0.000 
#    0.000    0.000    0.000    0.000    0.000    0.000 
#
# Total GULP energy -99129.890764 kJ/mol
# GULP energy per Si atom -12391.236346 kJ/mol
# Density = 1.934761 g / cm^3
# Si number density = 19.391744 Si / 1000 Ang^3
#
#
#
# Elastic Constant Matrix: (Units=GPa)
#
#
# Indices 1 2 3 4 5 6 
#
# 1 111.8431 30.0950 43.9790 -6.2207 -19.5632 7.3771
# 2 30.0950 112.0016 53.2954 -9.7816 -9.1532 -0.7773
# 3 43.9790 53.2954 156.4179 -10.9012 -7.0186 7.4758
# 4 -6.2207 -9.7816 -10.9012 40.3004 2.2139 4.1832
# 5 -19.5632 -9.1532 -7.0186 2.2139 31.8149 -6.7551
# 6 7.3771 -0.7773 7.4758 4.1832 -6.7551 17.0198
#
#
#
# Elastic Compliance Matrix: (Units=1/GPa)
#
#
# Indices 1 2 3 4 5 6 
#
# 1 0.011390 -0.001454 -0.002317 0.000669 0.005620 -0.001920
# 2 -0.001454 0.011236 -0.003397 0.001128 0.002197 0.003230
# 3 -0.002317 -0.003397 0.008429 0.001575 -0.001463 -0.003821
# 4 0.000669 0.001128 0.001575 0.026641 -0.002575 -0.008500
# 5 0.005620 0.002197 -0.001463 -0.002575 0.038386 0.014175
# 6 -0.001920 0.003230 -0.003821 -0.008500 0.014175 0.069128
#
#
# Mechanical properties :
#
#
# Convention : Reuss Voigt Hill
#
# Bulk Modulus (GPa) = 59.80757 70.55572 65.18164
# Shear Modulus (GPa) = 27.00998 34.68656 30.84827
#
# Velocity S-wave (km/s) = 3.73615 4.23392 3.99280
# Velocity P-wave (km/s) = 7.03708 7.76948 7.41233
#
# Compressibility (1/GPa) = 0.01672029
#
# Stress axis : x y z
#
# Youngs Moduli (GPa) = 87.79513 89.00083 118.64423
#
# Poissons Ratio (x) = 0.12939 0.27485
# Poissons Ratio (y) = 0.12763 0.40301
# Poissons Ratio (z) = 0.20339 0.30232
#
# Static dielectric constant tensor:
#      x y z
#    x 3.350720 -0.020790 0.053950 
#    y -0.020790 3.447000 -0.045330 
#    z 0.053950 -0.045330 3.543240 
# 
# 
# High freq. dielectric constant tensor:
#      x y z
#    x 1.738940 -0.004180 0.010930 
#    y -0.004180 1.758540 0.002980 
#    z 0.010930 0.002980 1.751960 
# 
# From -- ./inp_files/6341.got.cif
#   From: 2010.03.12/outbox.cif.g09.slc.cpg/sg1_4_cif.got.tgz:6341.got - 2010.03.29 11:57:58.
