data_PCOD8000875
_publ_section_title
;
Structure prediction by ZEFSAII (Michael W. Deem and Ramdas Pophale) SiO2 
 PCOD8000875
Probable space group: P -1
;
_chemical_formula_sum "Si O2"
_cell_formula_units_Z 16
_cell_length_a 11.892696
_cell_length_b 10.129610
_cell_length_c 9.496050
_cell_angle_alpha 79.450118
_cell_angle_beta 130.741043
_cell_angle_gamma 107.098668
_cell_volume 828.379481
_symmetry_space_group_name_H-M "P -1"
_symmetry_group_IT_number 2
_symmetry_cell_setting 'triclinic'
loop_
_space_group_symop_operation_xyz
x,y,z
-x,-y,-z
loop_
_atom_site_type_symbol
_atom_site_label
_atom_site_fract_x
_atom_site_fract_y
_atom_site_fract_z
Si Si1 0.192662 0.878144 0.952038
Si Si2 0.858156 0.835751 0.134536
Si Si3 0.455395 0.358540 0.075456
Si Si4 0.612166 0.136662 0.621168
Si Si5 0.871558 0.825781 0.819872
Si Si6 0.185960 0.908107 0.432130
Si Si7 0.379838 0.872548 0.857147
Si Si8 0.557056 0.635163 0.609571
O O1 0.250925 0.803904 0.880701
O O2 0.026594 0.795126 0.887516
O O3 0.190935 0.031750 0.868333
O O4 0.322669 0.895570 0.171472
O O5 0.013545 0.821185 0.342243
O O6 0.726519 0.699842 0.080459
O O7 0.896643 0.871465 0.994222
O O8 0.543917 0.247396 0.112808
O O9 0.492945 0.388594 0.264148
O O10 0.500000 0.500000 0.000000
O O11 0.747529 0.182381 0.609802
O O12 0.522079 0.253909 0.546227
O O13 0.500000 0.000000 0.500000
O O14 0.739912 0.685347 0.732618
O O15 0.819217 0.943746 0.665903
O O16 0.293867 0.932968 0.650741
O O17 0.500000 0.000000 0.000000
O O18 0.500000 0.500000 0.500000
#
# Coordination Sequence:
#
# PCOD8000875 Si02
#       8
#     2   2   2   2   2   2   2   2
#     4  11  21  37  63  96 126 153 203 261 310 364
#     4  10  19  40  64  94 125 159 205 254 311 362
#     4  11  25  45  61  86 131 169 199 255 312 365
#     4  12  19  37  67  95 117 160 208 258 303 360
#     4  10  20  38  65  95 125 155 203 261 314 354
#     4  11  20  37  65  94 125 159 201 259 313 359
#     4  12  25  40  60  97 129 162 209 251 306 374
#     4  11  25  42  64  93 121 162 215 253 304 370
#
# _framework density 19.314820999999998
#
# number of rings (size 3 to 8) (size 9 to 14) (size 15 to 20)
#    0.000    1.000    6.250    2.250    1.750    2.000 
#    2.250    2.500    0.000    0.000    0.000    0.000 
#    0.000    0.000    0.000    0.000    0.000    0.000 
#
# Total GULP energy -198385.203563 kJ/mol
# GULP energy per Si atom -12399.075223 kJ/mol
# Density = 1.927086 g / cm^3
# Si number density = 19.314821 Si / 1000 Ang^3
#
#
#
# Elastic Constant Matrix: (Units=GPa)
#
#
# Indices 1 2 3 4 5 6 
#
# 1 135.7205 52.8040 45.4986 3.8092 0.9970 -3.4667
# 2 52.8040 108.9389 45.1085 8.4928 8.4645 -3.8470
# 3 45.4986 45.1085 118.0269 0.9874 11.3651 -4.9316
# 4 3.8092 8.4928 0.9874 22.5901 -3.6450 -5.6217
# 5 0.9970 8.4645 11.3651 -3.6450 29.6357 3.6062
# 6 -3.4667 -3.8470 -4.9316 -5.6217 3.6062 29.6825
#
#
#
# Elastic Compliance Matrix: (Units=1/GPa)
#
#
# Indices 1 2 3 4 5 6 
#
# 1 0.009651 -0.003821 -0.002424 0.000207 0.001715 0.000060
# 2 -0.003821 0.012915 -0.003134 -0.004495 -0.002937 0.000212
# 3 -0.002424 -0.003134 0.010989 0.001001 -0.003325 0.001730
# 4 0.000207 -0.004495 0.001001 0.048859 0.005912 0.008143
# 5 0.001715 -0.002937 -0.003325 0.005912 0.037027 -0.004112
# 6 0.000060 0.000212 0.001730 0.008143 -0.004112 0.036054
#
#
# Mechanical properties :
#
#
# Convention : Reuss Voigt Hill
#
# Bulk Modulus (GPa) = 67.58257 72.16762 69.87510
# Shear Modulus (GPa) = 27.90415 31.00000 29.45208
#
# Velocity S-wave (km/s) = 3.80505 4.01057 3.90916
# Velocity P-wave (km/s) = 7.37363 7.67406 7.52535
#
# Compressibility (1/GPa) = 0.01479671
#
# Stress axis : x y z
#
# Youngs Moduli (GPa) = 103.62083 77.42678 91.00097
#
# Poissons Ratio (x) = 0.29586 0.22060
# Poissons Ratio (y) = 0.39596 0.28517
# Poissons Ratio (z) = 0.25119 0.24264
#
# Static dielectric constant tensor:
#      x y z
#    x 4.102810 -0.042060 0.176200 
#    y -0.042060 3.085160 0.108500 
#    z 0.176200 0.108500 3.658580 
# 
# 
# High freq. dielectric constant tensor:
#      x y z
#    x 1.773220 -0.001700 0.010550 
#    y -0.001700 1.710400 0.005570 
#    z 0.010550 0.005570 1.760820 
# 
# From -- ./inp_files/177695.got.cif
#   From: 2010.06.25/outbox.cif.g09.slc.cpg/sg2_89_cif.got.tgz:177695.got - 2010.06.27 13:26:56.
