data_PCOD8000504
_publ_section_title
;
Structure prediction by ZEFSAII (Michael W. Deem and Ramdas Pophale) SiO2 
 PCOD8000504
Probable space group: P -1
;
_chemical_formula_sum "Si O2"
_cell_formula_units_Z 14
_cell_length_a 8.787301
_cell_length_b 13.965556
_cell_length_c 13.734139
_cell_angle_alpha 32.830011
_cell_angle_beta 117.676470
_cell_angle_gamma 95.743759
_cell_volume 644.646940
_symmetry_space_group_name_H-M "P -1"
_symmetry_group_IT_number 2
_symmetry_cell_setting 'triclinic'
loop_
_space_group_symop_operation_xyz
x,y,z
-x,-y,-z
loop_
_atom_site_type_symbol
_atom_site_label
_atom_site_fract_x
_atom_site_fract_y
_atom_site_fract_z
Si Si1 0.100227 0.597586 0.004929
Si Si2 0.443255 0.968258 0.847527
Si Si3 0.759296 0.164807 0.251419
Si Si4 0.388280 0.302146 0.688640
Si Si5 0.481563 0.767247 0.482636
Si Si6 0.229955 0.768932 0.245754
Si Si7 0.663002 0.057593 0.506438
O O1 0.257030 0.418716 0.286568
O O2 0.265984 0.615012 0.974985
O O3 0.000000 0.500000 0.000000
O O4 0.908433 0.838334 0.782089
O O5 0.317392 0.182430 0.700297
O O6 0.572323 0.006868 0.773357
O O7 0.286766 0.933897 0.770728
O O8 0.609527 0.756260 0.146884
O O9 0.619060 0.200543 0.274002
O O10 0.000000 0.000000 0.500000
O O11 0.217384 0.566920 0.391667
O O12 0.635011 0.210591 0.814329
O O13 0.369034 0.685239 0.457578
O O14 0.391557 0.798557 0.537257
O O15 0.000000 0.000000 0.000000
O O16 0.500000 0.000000 0.500000
#
# Coordination Sequence:
#
# PCOD8000504 Si02
#       7
#     2   2   2   2   2   2   2
#     4  11  22  39  61  89 127 171 211 259 321 381
#     4  10  19  39  63  89 123 167 216 261 320 381
#     4  10  21  36  62  91 126 168 211 258 319 389
#     4   9  21  40  66  86 121 166 210 273 323 372
#     4  11  22  38  62  90 128 166 208 266 317 383
#     4  10  22  41  63  94 123 162 218 268 323 383
#     4  11  21  40  60  90 128 168 209 261 316 381
#
# _framework density 21.717314999999999
#
# number of rings (size 3 to 8) (size 9 to 14) (size 15 to 20)
#    0.000    1.714    2.857    1.714    0.000    6.286 
#    0.000    7.857    0.000    0.000    0.000    0.000 
#    0.000    0.000    0.000    0.000    0.000    0.000 
#
# Total GULP energy -173439.307922 kJ/mol
# GULP energy per Si atom -12388.521994 kJ/mol
# Density = 2.166789 g / cm^3
# Si number density = 21.717315 Si / 1000 Ang^3
#
#
#
# Elastic Constant Matrix: (Units=GPa)
#
#
# Indices 1 2 3 4 5 6 
#
# 1 101.1978 34.7190 38.6231 -0.5217 -21.1236 -4.5797
# 2 34.7190 132.9685 34.2040 15.4516 -13.2286 7.3486
# 3 38.6231 34.2040 109.2663 -5.1135 1.8483 -7.1832
# 4 -0.5217 15.4516 -5.1135 36.9593 0.6805 -5.0958
# 5 -21.1236 -13.2286 1.8483 0.6805 42.1551 -2.2149
# 6 -4.5797 7.3486 -7.1832 -5.0958 -2.2149 35.9140
#
#
#
# Elastic Compliance Matrix: (Units=1/GPa)
#
#
# Indices 1 2 3 4 5 6 
#
# 1 0.013577 -0.002009 -0.004134 0.000589 0.006439 0.001796
# 2 -0.002009 0.009751 -0.002835 -0.005004 0.002080 -0.003400
# 3 -0.004134 -0.002835 0.011884 0.003202 -0.003393 0.002675
# 4 0.000589 -0.005004 0.003202 0.030452 -0.001594 0.005962
# 5 0.006439 0.002080 -0.003393 -0.001594 0.027839 0.001208
# 6 0.001796 -0.003400 0.002675 0.005962 0.001208 0.030224
#
#
# Mechanical properties :
#
#
# Convention : Reuss Voigt Hill
#
# Bulk Modulus (GPa) = 57.95008 62.05832 60.00420
# Shear Modulus (GPa) = 33.91364 38.73145 36.32254
#
# Velocity S-wave (km/s) = 3.95599 4.22766 4.09408
# Velocity P-wave (km/s) = 6.89987 7.24350 7.07377
#
# Compressibility (1/GPa) = 0.01725623
#
# Stress axis : x y z
#
# Youngs Moduli (GPa) = 73.65514 102.55667 84.14903
#
# Poissons Ratio (x) = 0.20602 0.34783
# Poissons Ratio (y) = 0.14796 0.23857
# Poissons Ratio (z) = 0.30446 0.29076
#
# Static dielectric constant tensor:
#      x y z
#    x 3.816170 0.056870 -0.318410 
#    y 0.056870 3.710820 0.255020 
#    z -0.318410 0.255020 4.229740 
# 
# 
# High freq. dielectric constant tensor:
#      x y z
#    x 1.839140 0.005980 -0.028600 
#    y 0.005980 1.858600 0.005190 
#    z -0.028600 0.005190 1.848110 
# 
# From -- ./inp_files/503693.got.cif
#   From: 2010.06.25/outbox.cif.g09.slc.cpg/sg2_252_cif.got.tgz:503693.got - 2010.06.27 13:26:56.
