data_PCOD8000376
_publ_section_title
;
Structure prediction by ZEFSAII (Michael W. Deem and Ramdas Pophale) SiO2 
 PCOD8000376
Probable space group: P -1
;
_chemical_formula_sum "Si O2"
_cell_formula_units_Z 16
_cell_length_a 8.304361
_cell_length_b 7.791843
_cell_length_c 12.213845
_cell_angle_alpha 116.470218
_cell_angle_beta 88.625510
_cell_angle_gamma 81.504529
_cell_volume 696.086966
_symmetry_space_group_name_H-M "P -1"
_symmetry_group_IT_number 2
_symmetry_cell_setting 'triclinic'
loop_
_space_group_symop_operation_xyz
x,y,z
-x,-y,-z
loop_
_atom_site_type_symbol
_atom_site_label
_atom_site_fract_x
_atom_site_fract_y
_atom_site_fract_z
Si Si1 0.173549 0.871273 0.884367
Si Si2 0.989384 0.219524 0.711736
Si Si3 0.666319 0.686038 0.186383
Si Si4 0.124908 0.645600 0.025298
Si Si5 0.809417 0.489158 0.601072
Si Si6 0.376429 0.161931 0.988121
Si Si7 0.488926 0.421821 0.224715
Si Si8 0.022853 0.799820 0.642563
O O1 0.084129 0.807209 0.975647
O O2 0.347627 0.738188 0.811764
O O3 0.058904 0.871821 0.782517
O O4 0.199587 0.093668 0.970540
O O5 0.175505 0.248149 0.743121
O O6 0.922907 0.367491 0.658236
O O7 0.987566 0.991862 0.619377
O O8 0.866971 0.257267 0.828974
O O9 0.708385 0.488494 0.055617
O O10 0.573819 0.836430 0.141156
O O11 0.539077 0.634332 0.263602
O O12 0.000000 0.500000 0.000000
O O13 0.620321 0.549223 0.655626
O O14 0.824628 0.350270 0.454559
O O15 0.869342 0.689010 0.624117
O O16 0.372409 0.362857 0.111873
O O17 0.500000 0.000000 0.000000
#
# Coordination Sequence:
#
# PCOD8000376 Si02
#       8
#     2   2   2   2   2   2   2   2
#     4  10  21  40  62  93 124 161 208 252 315 379
#     4  11  22  41  67  91 126 166 216 252 311 375
#     4  10  19  39  60  88 125 164 197 254 315 376
#     4   9  19  33  59  92 119 156 198 250 308 371
#     4  11  25  43  63  93 125 168 215 261 313 359
#     4  10  20  33  56  90 126 154 192 251 316 373
#     4  10  22  39  62  87 127 161 200 259 317 370
#     4  11  24  44  66  87 128 169 214 265 300 370
#
# _framework density 22.985631999999999
#
# number of rings (size 3 to 8) (size 9 to 14) (size 15 to 20)
#    0.000    1.750    1.250    3.750    1.750    4.000 
#    2.250    0.625    0.000    0.000    0.000    0.000 
#    0.000    0.000    0.000    0.000    0.000    0.000 
#
# Total GULP energy -198220.943798 kJ/mol
# GULP energy per Si atom -12388.808987 kJ/mol
# Density = 2.293332 g / cm^3
# Si number density = 22.985632 Si / 1000 Ang^3
#
#
#
# Elastic Constant Matrix: (Units=GPa)
#
#
# Indices 1 2 3 4 5 6 
#
# 1 62.9474 23.4973 22.4194 3.4049 -17.7548 21.7123
# 2 23.4973 117.6862 5.6950 0.0802 4.7335 33.2208
# 3 22.4194 5.6950 56.3544 -4.1415 -7.1895 18.6714
# 4 3.4049 0.0802 -4.1415 33.2221 3.4742 3.5866
# 5 -17.7548 4.7335 -7.1895 3.4742 36.2423 -10.7541
# 6 21.7123 33.2208 18.6714 3.5866 -10.7541 35.3597
#
#
#
# Elastic Compliance Matrix: (Units=1/GPa)
#
#
# Indices 1 2 3 4 5 6 
#
# 1 0.024257 -0.003686 -0.006834 -0.003914 0.010091 -0.004357
# 2 -0.003686 0.013776 0.004572 0.003425 -0.007710 -0.015786
# 3 -0.006834 0.004572 0.024910 0.005844 -0.004037 -0.015073
# 4 -0.003914 0.003425 0.005844 0.032989 -0.007165 -0.009425
# 5 0.010091 -0.007710 -0.004037 -0.007165 0.038019 0.015468
# 6 -0.004357 -0.015786 -0.015073 -0.009425 0.015468 0.059407
#
#
# Mechanical properties :
#
#
# Convention : Reuss Voigt Hill
#
# Bulk Modulus (GPa) = 19.58941 37.80126 28.69534
# Shear Modulus (GPa) = 22.49526 33.32324 27.90925
#
# Velocity S-wave (km/s) = 3.13176 3.81168 3.48832
# Velocity P-wave (km/s) = 4.64953 5.98775 5.36057
#
# Compressibility (1/GPa) = 0.05104799
#
# Stress axis : x y z
#
# Youngs Moduli (GPa) = 41.22490 72.59149 40.14410
#
# Poissons Ratio (x) = 0.26755 0.27436
# Poissons Ratio (y) = 0.15194 -0.18356
# Poissons Ratio (z) = 0.28174 -0.33192
#
# Static dielectric constant tensor:
#      x y z
#    x 2.279900 -0.500440 0.645630 
#    y -0.500440 4.251740 0.280840 
#    z 0.645630 0.280840 4.341150 
# 
# 
# High freq. dielectric constant tensor:
#      x y z
#    x 1.889910 0.014930 -0.003730 
#    y 0.014930 1.931340 -0.004750 
#    z -0.003730 -0.004750 1.887460 
# 
# From -- ./inp_files/169596.got.cif
#   From: 2010.06.25/outbox.cif.g09.slc.cpg/sg2_85_cif.got.tgz:169596.got - 2010.06.27 13:26:56.
