data_PCOD8000864
_publ_section_title
;
Structure prediction by ZEFSAII (Michael W. Deem and Ramdas Pophale) SiO2 
 PCOD8000864
Probable space group: P -1
;
_chemical_formula_sum "Si O2"
_cell_formula_units_Z 16
_cell_length_a 16.780661
_cell_length_b 10.858461
_cell_length_c 10.538498
_cell_angle_alpha 112.584186
_cell_angle_beta 94.040844
_cell_angle_gamma 142.031204
_cell_volume 822.323118
_symmetry_space_group_name_H-M "P -1"
_symmetry_group_IT_number 2
_symmetry_cell_setting 'triclinic'
loop_
_space_group_symop_operation_xyz
x,y,z
-x,-y,-z
loop_
_atom_site_type_symbol
_atom_site_label
_atom_site_fract_x
_atom_site_fract_y
_atom_site_fract_z
Si Si1 0.936506 0.946945 0.333574
Si Si2 0.954921 0.335597 0.042900
Si Si3 0.930712 0.585536 0.540384
Si Si4 0.567501 0.448918 0.994398
Si Si5 0.723384 0.253551 0.621527
Si Si6 0.919653 0.968345 0.860967
Si Si7 0.623789 0.392429 0.711468
Si Si8 0.788289 0.153796 0.189398
O O1 0.731835 0.675601 0.195713
O O2 0.000000 0.000000 0.500000
O O3 0.055081 0.247700 0.443866
O O4 0.985362 0.916234 0.215550
O O5 0.922527 0.132093 0.933845
O O6 0.795349 0.154660 0.037054
O O7 0.000000 0.500000 0.000000
O O8 0.121440 0.602611 0.252707
O O9 0.760598 0.330972 0.507907
O O10 0.897602 0.442352 0.360582
O O11 0.111408 0.823706 0.727654
O O12 0.615403 0.466309 0.867566
O O13 0.410367 0.129981 0.905909
O O14 0.500000 0.500000 0.000000
O O15 0.714914 0.383657 0.745378
O O16 0.559213 0.917259 0.490269
O O17 0.721700 0.625353 0.707684
O O18 0.000000 0.000000 0.000000
#
# Coordination Sequence:
#
# PCOD8000864 Si02
#       8
#     2   2   2   2   2   2   2   2
#     4  12  26  41  64  96 132 168 212 274 328 376
#     4  11  24  41  62  92 132 168 205 263 332 379
#     4  10  19  40  64  91 119 165 211 257 317 380
#     4  12  22  39  64  96 124 164 218 263 315 385
#     4  10  20  39  65  93 120 161 219 265 304 381
#     4  12  21  44  69  90 122 178 227 254 308 399
#     4  11  21  37  68  94 115 160 228 264 299 374
#     4  10  21  38  64  91 121 161 212 259 310 386
#
# _framework density 19.457072
#
# number of rings (size 3 to 8) (size 9 to 14) (size 15 to 20)
#    0.000    1.000    6.250    1.500    1.750    0.000 
#    2.250    1.250    0.000    0.000    0.000    0.000 
#    0.000    0.000    0.000    0.000    0.000    0.000 
#
# Total GULP energy -198256.678252 kJ/mol
# GULP energy per Si atom -12391.042391 kJ/mol
# Density = 1.941279 g / cm^3
# Si number density = 19.457072 Si / 1000 Ang^3
#
#
#
# Elastic Constant Matrix: (Units=GPa)
#
#
# Indices 1 2 3 4 5 6 
#
# 1 85.1110 39.7072 46.2844 -3.0795 -18.4661 5.4679
# 2 39.7072 122.6469 53.6045 9.5029 -1.1303 3.2078
# 3 46.2844 53.6045 83.2934 -5.6665 -5.7045 0.5495
# 4 -3.0795 9.5029 -5.6665 34.7635 10.2832 -5.0959
# 5 -18.4661 -1.1303 -5.7045 10.2832 27.8175 4.1307
# 6 5.4679 3.2078 0.5495 -5.0959 4.1307 40.1471
#
#
#
# Elastic Compliance Matrix: (Units=1/GPa)
#
#
# Indices 1 2 3 4 5 6 
#
# 1 0.021231 -0.002052 -0.009749 -0.004007 0.014170 -0.004561
# 2 -0.002052 0.012337 -0.007143 -0.004777 -0.000386 -0.001175
# 3 -0.009749 -0.007143 0.022101 0.006643 -0.005126 0.002967
# 4 -0.004007 -0.004777 0.006643 0.036603 -0.016083 0.007137
# 5 0.014170 -0.000386 -0.005126 -0.016083 0.051596 -0.009179
# 6 -0.004561 -0.001175 0.002967 0.007137 -0.009179 0.027433
#
#
# Mechanical properties :
#
#
# Convention : Reuss Voigt Hill
#
# Bulk Modulus (GPa) = 56.23981 63.36038 59.80010
# Shear Modulus (GPa) = 23.24319 30.64261 26.94290
#
# Velocity S-wave (km/s) = 3.46003 3.97278 3.72524
# Velocity P-wave (km/s) = 6.70296 7.32659 7.02170
#
# Compressibility (1/GPa) = 0.01778100
#
# Stress axis : x y z
#
# Youngs Moduli (GPa) = 47.10167 81.05606 45.24644
#
# Poissons Ratio (x) = 0.16635 0.44110
# Poissons Ratio (y) = 0.09666 0.32319
# Poissons Ratio (z) = 0.45918 0.57898
#
# Static dielectric constant tensor:
#      x y z
#    x 3.748540 0.470070 -0.250170 
#    y 0.470070 4.139970 0.043120 
#    z -0.250170 0.043120 3.577880 
# 
# 
# High freq. dielectric constant tensor:
#      x y z
#    x 1.756910 0.017960 -0.025910 
#    y 0.017960 1.764970 0.022190 
#    z -0.025910 0.022190 1.744330 
# 
# From -- ./inp_files/346187.got.cif
#   From: 2010.06.25/outbox.cif.g09.slc.cpg/sg2_174_cif.got.tgz:346187.got - 2010.06.27 13:26:56.
