data_PCOD8000046
_publ_section_title
;
Structure prediction by ZEFSAII (Michael W. Deem and Ramdas Pophale) SiO2 
 PCOD8000046
Probable space group: P 1
;
_chemical_formula_sum "Si O2"
_cell_formula_units_Z 8
_cell_length_a 8.913293
_cell_length_b 9.007563
_cell_length_c 11.475871
_cell_angle_alpha 50.393859
_cell_angle_beta 143.249135
_cell_angle_gamma 131.225083
_cell_volume 402.181835
_symmetry_space_group_name_H-M "P 1"
_symmetry_group_IT_number 1
_symmetry_cell_setting 'triclinic'
loop_
_space_group_symop_operation_xyz
x,y,z
loop_
_atom_site_type_symbol
_atom_site_label
_atom_site_fract_x
_atom_site_fract_y
_atom_site_fract_z
Si Si1 0.452110 0.529870 0.755990
Si Si2 0.620011 0.985028 0.573879
Si Si3 0.813453 0.270910 0.102758
Si Si4 0.221043 0.337777 0.494369
Si Si5 0.077137 0.317277 0.822202
Si Si6 0.758733 0.967783 0.404175
Si Si7 0.639507 0.506365 0.494518
Si Si8 0.237247 0.232997 0.216516
O O1 0.588676 0.770503 0.723286
O O2 0.223287 0.469320 0.545874
O O3 0.340914 0.446147 0.853769
O O4 0.641499 0.407129 0.884225
O O5 0.627021 0.970087 0.446167
O O6 0.366811 0.055444 0.412199
O O7 0.893830 0.132194 0.723332
O O8 0.046358 0.419850 0.253393
O O9 0.953116 0.186117 0.127131
O O10 0.641853 0.082576 0.173332
O O11 0.503198 0.374939 0.588893
O O12 0.075527 0.094873 0.547671
O O13 0.919529 0.472442 0.672815
O O14 0.186197 0.243615 0.042771
O O15 0.705673 0.742555 0.440555
O O16 0.452748 0.440047 0.296666
#
# Coordination Sequence:
#
# PCOD8000046 Si02
#       8
#     1   1   1   1   1   1   1   1
#     4  12  22  40  64  92 123 163 202 253 303 364
#     4  11  24  41  66  90 124 161 208 251 307 357
#     4   9  22  40  61  90 122 158 205 247 302 361
#     4   9  20  39  61  88 124 157 202 257 293 361
#     4  11  24  41  61  94 128 159 203 254 304 367
#     4  10  20  42  64  91 118 164 203 252 303 357
#     4  10  21  41  65  89 125 161 205 251 309 357
#     4  10  23  44  60  90 130 161 196 261 301 364
#
# _framework density 19.891501000000002
#
# number of rings (size 3 to 8) (size 9 to 14) (size 15 to 20)
#    0.750    1.000    2.500    1.500    1.750    1.000 
#    9.000    0.000    0.000    0.000    0.000    0.000 
#    0.000    0.000    0.000    0.000    0.000    0.000 
#
# Total GULP energy -99117.262847 kJ/mol
# GULP energy per Si atom -12389.657856 kJ/mol
# Density = 1.984623 g / cm^3
# Si number density = 19.891501 Si / 1000 Ang^3
#
#
#
# Elastic Constant Matrix: (Units=GPa)
#
#
# Indices 1 2 3 4 5 6 
#
# 1 102.9151 43.4765 37.2264 -18.5471 -5.1817 9.6296
# 2 43.4765 130.8479 33.6675 -21.9952 3.0904 -5.9971
# 3 37.2264 33.6675 71.1010 -13.9948 -5.6510 -0.3198
# 4 -18.5471 -21.9952 -13.9948 26.1431 -7.0794 -2.2328
# 5 -5.1817 3.0904 -5.6510 -7.0794 36.8119 1.0486
# 6 9.6296 -5.9971 -0.3198 -2.2328 1.0486 29.6019
#
#
#
# Elastic Compliance Matrix: (Units=1/GPa)
#
#
# Indices 1 2 3 4 5 6 
#
# 1 0.014258 -0.002871 -0.004850 0.005406 0.002684 -0.004959
# 2 -0.002871 0.010291 -0.002327 0.005487 -0.000668 0.003431
# 3 -0.004850 -0.002327 0.019170 0.005966 0.003556 0.001637
# 4 0.005406 0.005487 0.005966 0.053234 0.011367 0.003030
# 5 0.002684 -0.000668 0.003556 0.011367 0.030365 -0.001188
# 6 -0.004959 0.003431 0.001637 0.003030 -0.001188 0.036378
#
#
# Mechanical properties :
#
#
# Convention : Reuss Voigt Hill
#
# Bulk Modulus (GPa) = 42.33423 59.28942 50.81182
# Shear Modulus (GPa) = 26.08697 31.21097 28.64897
#
# Velocity S-wave (km/s) = 3.62534 3.96543 3.79920
# Velocity P-wave (km/s) = 6.23321 7.13003 6.69665
#
# Compressibility (1/GPa) = 0.02362155
#
# Stress axis : x y z
#
# Youngs Moduli (GPa) = 70.13790 97.17478 52.16467
#
# Poissons Ratio (x) = 0.27902 0.25300
# Poissons Ratio (y) = 0.20139 0.12139
# Poissons Ratio (z) = 0.34017 0.22613
#
# Static dielectric constant tensor:
#      x y z
#    x 3.746640 -0.035000 -0.082790 
#    y -0.035000 3.482720 0.129950 
#    z -0.082790 0.129950 3.464120 
# 
# 
# High freq. dielectric constant tensor:
#      x y z
#    x 1.788780 -0.005110 -0.011150 
#    y -0.005110 1.763160 0.008410 
#    z -0.011150 0.008410 1.763290 
# 
# From -- ./inp_files/4204.got.cif
#   From: 2010.03.12/outbox.cif.g09.slc.cpg/sg1_3_cif.got.tgz:4204.got - 2010.03.29 11:57:58.
