data_PCOD8000156
_publ_section_title
;
Structure prediction by ZEFSAII (Michael W. Deem and Ramdas Pophale) SiO2 
 PCOD8000156
Probable space group: P 1
;
_chemical_formula_sum "Si O2"
_cell_formula_units_Z 8
_cell_length_a 4.917260
_cell_length_b 13.931773
_cell_length_c 11.356834
_cell_angle_alpha 30.399892
_cell_angle_beta 65.733396
_cell_angle_gamma 58.540977
_cell_volume 334.446702
_symmetry_space_group_name_H-M "P 1"
_symmetry_group_IT_number 1
_symmetry_cell_setting 'triclinic'
loop_
_space_group_symop_operation_xyz
x,y,z
loop_
_atom_site_type_symbol
_atom_site_label
_atom_site_fract_x
_atom_site_fract_y
_atom_site_fract_z
Si Si1 0.957170 0.281130 0.452900
Si Si2 0.498150 0.450575 0.155734
Si Si3 0.466002 0.855169 0.851827
Si Si4 0.935818 0.883706 0.549454
Si Si5 0.913514 0.706074 0.397517
Si Si6 0.474200 0.052744 0.252582
Si Si7 0.966467 0.479941 0.853192
Si Si8 0.613028 0.637726 0.293589
O O1 0.728357 0.283467 0.381488
O O2 0.746352 0.406244 0.466962
O O3 0.186792 0.396930 0.242594
O O4 0.142669 0.052349 0.702896
O O5 0.677218 0.438847 0.012894
O O6 0.386119 0.674484 0.994922
O O7 0.747583 0.900578 0.686592
O O8 0.581430 0.797324 0.025709
O O9 0.712711 0.047381 0.322832
O O10 0.245056 0.938857 0.463407
O O11 0.047713 0.657958 0.715377
O O12 0.674552 0.933689 0.230377
O O13 0.864853 0.655758 0.325081
O O14 0.277699 0.689622 0.364418
O O15 0.858302 0.546146 0.668322
O O16 0.286771 0.281856 0.004573
#
# Coordination Sequence:
#
# PCOD8000156 Si02
#       8
#     1   1   1   1   1   1   1   1
#     4  11  23  41  66  93 123 160 203 252 310 369
#     4  10  23  40  64 100 125 149 202 255 310 377
#     4  10  23  41  67  91 126 164 195 255 315 355
#     4  10  23  40  64 100 125 149 202 255 310 377
#     4  11  25  42  59  88 124 163 214 251 287 360
#     4  11  23  41  66  93 123 160 203 252 310 369
#     4  10  23  41  67  91 126 164 195 255 315 355
#     4  11  25  42  59  88 124 163 214 251 287 360
#
# _framework density 23.920103999999998
#
# number of rings (size 3 to 8) (size 9 to 14) (size 15 to 20)
#    0.000    1.500    0.000    4.500    0.000   19.000 
#    0.000    0.000    0.000    0.000    0.000    0.000 
#    0.000    0.000    0.000    0.000    0.000    0.000 
#
# Total GULP energy -99259.285975 kJ/mol
# GULP energy per Si atom -12407.410747 kJ/mol
# Density = 2.386566 g / cm^3
# Si number density = 23.920104 Si / 1000 Ang^3
#
#
#
# Elastic Constant Matrix: (Units=GPa)
#
#
# Indices 1 2 3 4 5 6 
#
# 1 57.5407 13.8703 3.0525 0.6547 7.4514 -10.2078
# 2 13.8703 128.6897 73.0529 -3.1277 22.6152 -17.1843
# 3 3.0525 73.0529 93.7243 -27.0223 39.7113 0.7037
# 4 0.6547 -3.1277 -27.0223 46.6545 0.5663 15.2015
# 5 7.4514 22.6152 39.7113 0.5663 33.1881 3.4794
# 6 -10.2078 -17.1843 0.7037 15.2015 3.4794 32.7718
#
#
#
# Elastic Compliance Matrix: (Units=1/GPa)
#
#
# Indices 1 2 3 4 5 6 
#
# 1 0.020503 -0.006519 0.013201 0.006694 -0.016207 0.001300
# 2 -0.006519 0.048496 -0.081359 -0.059589 0.061940 0.046211
# 3 0.013201 -0.081359 0.171665 0.122831 -0.146252 -0.083685
# 4 0.006694 -0.059589 0.122831 0.113750 -0.102083 -0.073725
# 5 -0.016207 0.061940 -0.146252 -0.102083 0.161936 0.060731
# 6 0.001300 0.046211 -0.083685 -0.073725 0.060731 0.084697
#
#
# Mechanical properties :
#
#
# Convention : Reuss Voigt Hill
#
# Bulk Modulus (GPa) = 10.95183 51.10068 31.02626
# Shear Modulus (GPa) = 6.40338 35.18813 20.79576
#
# Velocity S-wave (km/s) = 1.63792 3.83961 2.95173
# Velocity P-wave (km/s) = 2.85754 6.40830 4.96144
#
# Compressibility (1/GPa) = 0.09130894
#
# Stress axis : x y z
#
# Youngs Moduli (GPa) = 48.77244 20.62046 5.82531
#
# Poissons Ratio (x) = 0.13443 -0.07690
# Poissons Ratio (y) = 0.31795 0.47394
# Poissons Ratio (z) = -0.64384 1.67766
#
# Static dielectric constant tensor:
#      x y z
#    x 4.081450 -0.130890 0.168610 
#    y -0.130890 4.457800 -0.125490 
#    z 0.168610 -0.125490 4.282960 
# 
# 
# High freq. dielectric constant tensor:
#      x y z
#    x 1.948200 -0.007280 0.012490 
#    y -0.007280 1.959660 -0.009270 
#    z 0.012490 -0.009270 1.944530 
# 
# From -- ./inp_files/2514.got.cif
#   From: 2010.03.12/outbox.cif.g09.slc.cpg/sg1_2_cif.got.tgz:2514.got - 2010.03.29 11:57:58.
