data_PCOD8000489
_publ_section_title
;
Structure prediction by ZEFSAII (Michael W. Deem and Ramdas Pophale) SiO2 
 PCOD8000489
Probable space group: P -1
;
_chemical_formula_sum "Si O2"
_cell_formula_units_Z 16
_cell_length_a 8.829421
_cell_length_b 8.029811
_cell_length_c 18.108340
_cell_angle_alpha 66.644652
_cell_angle_beta 103.204897
_cell_angle_gamma 51.210731
_cell_volume 685.087390
_symmetry_space_group_name_H-M "P -1"
_symmetry_group_IT_number 2
_symmetry_cell_setting 'triclinic'
loop_
_space_group_symop_operation_xyz
x,y,z
-x,-y,-z
loop_
_atom_site_type_symbol
_atom_site_label
_atom_site_fract_x
_atom_site_fract_y
_atom_site_fract_z
Si Si1 0.571572 0.872771 0.127648
Si Si2 0.834144 0.691694 0.693296
Si Si3 0.639421 0.948332 0.338207
Si Si4 0.334655 0.732931 0.799446
Si Si5 0.581646 0.562490 0.284387
Si Si6 0.041816 0.282415 0.449527
Si Si7 0.366896 0.829739 0.983890
Si Si8 0.893410 0.229991 0.765711
O O1 0.524618 0.831883 0.211657
O O2 0.379449 0.949760 0.035743
O O3 0.878593 0.555382 0.195506
O O4 0.522609 0.138913 0.075246
O O5 0.773519 0.540410 0.691555
O O6 0.805850 0.837135 0.590304
O O7 0.601431 0.956666 0.679361
O O8 0.880947 0.616844 0.388758
O O9 0.754574 0.950854 0.422219
O O10 0.535576 0.200591 0.225972
O O11 0.329378 0.596255 0.756748
O O12 0.481680 0.501628 0.926586
O O13 0.043828 0.043959 0.739707
O O14 0.825068 0.324554 0.410004
O O15 0.332184 0.705912 0.265940
O O16 0.073119 0.048703 0.891373
#
# Coordination Sequence:
#
# PCOD8000489 Si02
#       8
#     2   2   2   2   2   2   2   2
#     4   8  18  36  59  87 120 153 198 244 290 343
#     4  10  19  39  63  86 120 158 193 245 295 354
#     4  11  22  40  65  90 113 160 199 241 303 353
#     4  11  22  38  60  88 122 156 200 242 290 350
#     4  10  22  40  61  89 119 156 192 253 293 348
#     4  10  23  41  64  88 121 148 201 251 293 354
#     4   9  19  37  59  85 122 160 194 244 288 346
#     4  11  21  38  61  88 122 158 199 238 296 351
#
# _framework density 23.354686000000001
#
# number of rings (size 3 to 8) (size 9 to 14) (size 15 to 20)
#    0.000    2.000    2.500    0.750    0.000    5.500 
#    2.250    1.250    0.000    0.000    0.000    0.000 
#    0.000    0.000    0.000    0.000    0.000    0.000 
#
# Total GULP energy -198255.084521 kJ/mol
# GULP energy per Si atom -12390.942783 kJ/mol
# Density = 2.330153 g / cm^3
# Si number density = 23.354686 Si / 1000 Ang^3
#
#
#
# Elastic Constant Matrix: (Units=GPa)
#
#
# Indices 1 2 3 4 5 6 
#
# 1 132.9553 9.9358 24.7751 -2.1227 14.0022 -27.5393
# 2 9.9358 39.1267 3.7619 0.2512 0.4244 -25.2987
# 3 24.7751 3.7619 64.1474 9.1706 4.4424 -10.2783
# 4 -2.1227 0.2512 9.1706 28.5150 6.2174 -3.7584
# 5 14.0022 0.4244 4.4424 6.2174 39.7303 -1.2284
# 6 -27.5393 -25.2987 -10.2783 -3.7584 -1.2284 28.9071
#
#
#
# Elastic Compliance Matrix: (Units=1/GPa)
#
#
# Indices 1 2 3 4 5 6 
#
# 1 0.011790 0.009822 -0.002448 0.005051 -0.004176 0.019436
# 2 0.009822 0.069434 0.002578 0.009619 -0.003766 0.072130
# 3 -0.002448 0.002578 0.018049 -0.005223 -0.000191 0.005654
# 4 0.005051 0.009619 -0.005223 0.040761 -0.007171 0.016367
# 5 -0.004176 -0.003766 -0.000191 -0.007171 0.027606 -0.007101
# 6 0.019436 0.072130 0.005654 0.016367 -0.007101 0.120073
#
#
# Mechanical properties :
#
#
# Convention : Reuss Voigt Hill
#
# Bulk Modulus (GPa) = 8.39098 34.79722 21.59410
# Shear Modulus (GPa) = 16.25831 32.61426 24.43628
#
# Velocity S-wave (km/s) = 2.64132 3.74100 3.23818
# Velocity P-wave (km/s) = 3.59204 5.79585 4.82155
#
# Compressibility (1/GPa) = 0.11917557
#
# Stress axis : x y z
#
# Youngs Moduli (GPa) = 84.81885 14.40226 55.40383
#
# Poissons Ratio (x) = -0.14145 0.13563
# Poissons Ratio (y) = -0.83306 -0.14283
# Poissons Ratio (z) = 0.20764 -0.03713
#
# Static dielectric constant tensor:
#      x y z
#    x 4.307280 0.087540 -0.173330 
#    y 0.087540 3.987540 0.209210 
#    z -0.173330 0.209210 4.375080 
# 
# 
# High freq. dielectric constant tensor:
#      x y z
#    x 1.928760 0.008970 -0.007190 
#    y 0.008970 1.901010 0.017020 
#    z -0.007190 0.017020 1.919910 
# 
# From -- ./inp_files/222698.got.cif
#   From: 2010.06.25/outbox.cif.g09.slc.cpg/sg2_112_cif.got.tgz:222698.got - 2010.06.27 13:26:56.
