data_PCOD8000924
_publ_section_title
;
Structure prediction by ZEFSAII (Michael W. Deem and Ramdas Pophale) SiO2 
 PCOD8000924
Probable space group: P -1
;
_chemical_formula_sum "Si O2"
_cell_formula_units_Z 16
_cell_length_a 11.056819
_cell_length_b 9.329577
_cell_length_c 16.251104
_cell_angle_alpha 150.575084
_cell_angle_beta 69.018193
_cell_angle_gamma 104.761709
_cell_volume 762.995928
_symmetry_space_group_name_H-M "P -1"
_symmetry_group_IT_number 2
_symmetry_cell_setting 'triclinic'
loop_
_space_group_symop_operation_xyz
x,y,z
-x,-y,-z
loop_
_atom_site_type_symbol
_atom_site_label
_atom_site_fract_x
_atom_site_fract_y
_atom_site_fract_z
Si Si1 0.455298 0.384660 0.038142
Si Si2 0.732424 0.650309 0.460999
Si Si3 0.124889 0.399800 0.364196
Si Si4 0.992507 0.660799 0.813992
Si Si5 0.729064 0.105244 0.827852
Si Si6 0.805093 0.650221 0.993351
Si Si7 0.524901 0.015125 0.595832
Si Si8 0.278363 0.803493 0.627230
O O1 0.429632 0.664379 0.243917
O O2 0.500000 0.500000 0.000000
O O3 0.577234 0.146118 0.917312
O O4 0.319340 0.255390 0.990580
O O5 0.632553 0.745131 0.459482
O O6 0.677134 0.425560 0.425297
O O7 0.865684 0.515601 0.318607
O O8 0.749318 0.940989 0.653747
O O9 0.092427 0.393704 0.273195
O O10 0.225624 0.635096 0.477645
O O11 0.000000 0.500000 0.500000
O O12 0.186996 0.071541 0.209870
O O13 0.926125 0.532788 0.846392
O O14 0.000000 0.000000 0.000000
O O15 0.781907 0.414910 0.951788
O O16 0.832117 0.948130 0.183892
O O17 0.396322 0.980084 0.661945
O O18 0.500000 0.000000 0.500000
#
# Coordination Sequence:
#
# PCOD8000924 Si02
#       8
#     2   2   2   2   2   2   2   2
#     4  10  19  40  66  90 133 169 217 265 324 393
#     4  11  22  44  68  94 131 179 219 265 336 390
#     4  11  23  44  65  96 135 166 226 269 323 385
#     4  12  25  45  66  96 136 175 221 273 321 398
#     4  10  20  41  72  93 124 181 220 267 323 393
#     4  11  21  42  69  96 129 182 219 263 337 388
#     4  12  25  41  66 106 135 159 225 284 326 382
#     4  11  22  43  70  94 131 178 213 268 338 389
#
# _framework density 20.969968000000001
#
# number of rings (size 3 to 8) (size 9 to 14) (size 15 to 20)
#    0.000    1.000    8.750    0.375    1.750    2.500 
#    2.250    1.875    0.000    0.000    0.000    0.000 
#    0.000    0.000    0.000    0.000    0.000    0.000 
#
# Total GULP energy -198340.603996 kJ/mol
# GULP energy per Si atom -12396.287750 kJ/mol
# Density = 2.092224 g / cm^3
# Si number density = 20.969968 Si / 1000 Ang^3
#
#
#
# Elastic Constant Matrix: (Units=GPa)
#
#
# Indices 1 2 3 4 5 6 
#
# 1 77.5764 25.3143 37.9985 -3.8968 -7.4516 -8.4166
# 2 25.3143 61.6023 32.8896 -7.8526 1.0567 -10.7606
# 3 37.9985 32.8896 128.6067 1.6968 2.9509 -10.7061
# 4 -3.8968 -7.8526 1.6968 31.8826 1.6946 -0.1187
# 5 -7.4516 1.0567 2.9509 1.6946 43.4331 -3.4382
# 6 -8.4166 -10.7606 -10.7061 -0.1187 -3.4382 33.1214
#
#
#
# Elastic Compliance Matrix: (Units=1/GPa)
#
#
# Indices 1 2 3 4 5 6 
#
# 1 0.016767 -0.004491 -0.003733 0.000971 0.003356 0.001947
# 2 -0.004491 0.021593 -0.003863 0.005038 -0.000869 0.004553
# 3 -0.003733 -0.003863 0.009992 -0.001879 -0.001080 0.000907
# 4 0.000971 0.005038 -0.001879 0.032883 -0.001009 0.001289
# 5 0.003356 -0.000869 -0.001080 -0.001009 0.023948 0.002703
# 6 0.001947 0.004553 0.000907 0.001289 0.002703 0.032744
#
#
# Mechanical properties :
#
#
# Convention : Reuss Voigt Hill
#
# Bulk Modulus (GPa) = 41.35924 51.13222 46.24573
# Shear Modulus (GPa) = 29.38411 33.12630 31.25521
#
# Velocity S-wave (km/s) = 3.74738 3.97886 3.86485
# Velocity P-wave (km/s) = 6.20401 6.74870 6.48208
#
# Compressibility (1/GPa) = 0.02417840
#
# Stress axis : x y z
#
# Youngs Moduli (GPa) = 59.64165 46.31039 100.08311
#
# Poissons Ratio (x) = 0.20796 0.37364
# Poissons Ratio (y) = 0.26782 0.38662
# Poissons Ratio (z) = 0.22266 0.17889
#
# Static dielectric constant tensor:
#      x y z
#    x 4.432230 0.072210 -0.105550 
#    y 0.072210 3.993190 0.086060 
#    z -0.105550 0.086060 3.972520 
# 
# 
# High freq. dielectric constant tensor:
#      x y z
#    x 1.817960 0.002470 -0.002660 
#    y 0.002470 1.797980 0.003150 
#    z -0.002660 0.003150 1.838490 
# 
# From -- ./inp_files/177548.got.cif
#   From: 2010.06.25/outbox.cif.g09.slc.cpg/sg2_89_cif.got.tgz:177548.got - 2010.06.27 13:26:56.
