data_PCOD8000896
_publ_section_title
;
Structure prediction by ZEFSAII (Michael W. Deem and Ramdas Pophale) SiO2 
 PCOD8000896
Probable space group: P -1
;
_chemical_formula_sum "Si O2"
_cell_formula_units_Z 16
_cell_length_a 12.523280
_cell_length_b 22.912033
_cell_length_c 8.066365
_cell_angle_alpha 43.050215
_cell_angle_beta 70.471687
_cell_angle_gamma 37.516911
_cell_volume 776.770410
_symmetry_space_group_name_H-M "P -1"
_symmetry_group_IT_number 2
_symmetry_cell_setting 'triclinic'
loop_
_space_group_symop_operation_xyz
x,y,z
-x,-y,-z
loop_
_atom_site_type_symbol
_atom_site_label
_atom_site_fract_x
_atom_site_fract_y
_atom_site_fract_z
Si Si1 0.522791 0.818052 0.236146
Si Si2 0.044084 0.726608 0.856245
Si Si3 0.655358 0.920370 0.437399
Si Si4 0.907895 0.132898 0.610440
Si Si5 0.934865 0.929245 0.998254
Si Si6 0.442480 0.388077 0.462641
Si Si7 0.107480 0.653012 0.330670
Si Si8 0.128582 0.345252 0.355036
O O1 0.567701 0.707663 0.326521
O O2 0.736640 0.695540 0.486932
O O3 0.308376 0.939183 0.208783
O O4 0.473501 0.930417 0.916292
O O5 0.093647 0.796517 0.680771
O O6 0.882975 0.806535 0.627273
O O7 0.272981 0.530338 0.114083
O O8 0.959020 0.757170 0.023034
O O9 0.700347 0.807688 0.540069
O O10 0.500000 0.000000 0.500000
O O11 0.677651 0.272110 0.535500
O O12 0.988476 0.991435 0.778959
O O13 0.072645 0.058755 0.821763
O O14 0.101423 0.748321 0.230416
O O15 0.356247 0.476217 0.505960
O O16 0.026832 0.627840 0.541397
O O17 0.000000 0.500000 0.000000
#
# Coordination Sequence:
#
# PCOD8000896 Si02
#       8
#     2   2   2   2   2   2   2   2
#     4  11  22  42  63  90 124 166 205 255 311 370
#     4  10  21  40  65  93 126 163 208 253 310 369
#     4  12  25  39  67  94 123 165 208 259 312 376
#     4  10  19  40  65  91 122 169 213 247 319 361
#     4  10  21  38  64  90 125 164 204 266 304 369
#     4   9  23  37  65  88 128 166 206 255 306 367
#     4  10  23  41  61  93 131 162 207 262 309 367
#     4  12  26  42  64  92 127 167 207 258 316 371
#
# _framework density 20.598106999999999
#
# number of rings (size 3 to 8) (size 9 to 14) (size 15 to 20)
#    0.750    0.750    2.500    2.250    3.500    1.500 
#    0.000    0.000    0.000    0.000    0.000    0.000 
#    0.000    0.000    0.000    0.000    0.000    0.000 
#
# Total GULP energy -198244.731493 kJ/mol
# GULP energy per Si atom -12390.295718 kJ/mol
# Density = 2.055122 g / cm^3
# Si number density = 20.598107 Si / 1000 Ang^3
#
#
#
# Elastic Constant Matrix: (Units=GPa)
#
#
# Indices 1 2 3 4 5 6 
#
# 1 82.8498 28.7549 42.3990 -9.1687 -16.1938 7.0689
# 2 28.7549 80.8629 25.5801 -6.8831 -20.2371 4.5237
# 3 42.3990 25.5801 145.0417 0.4175 -21.8551 1.0457
# 4 -9.1687 -6.8831 0.4175 29.6604 4.9738 -3.7779
# 5 -16.1938 -20.2371 -21.8551 4.9738 45.5977 -7.7359
# 6 7.0689 4.5237 1.0457 -3.7779 -7.7359 25.5845
#
#
#
# Elastic Compliance Matrix: (Units=1/GPa)
#
#
# Indices 1 2 3 4 5 6 
#
# 1 0.016258 -0.003746 -0.003872 0.003631 0.001400 -0.002712
# 2 -0.003746 0.015332 -0.000877 0.001602 0.004892 0.000076
# 3 -0.003872 -0.000877 0.008598 -0.001806 0.002800 0.001454
# 4 0.003631 0.001602 -0.001806 0.036044 -0.002213 0.003441
# 5 0.001400 0.004892 0.002800 -0.002213 0.027296 0.006560
# 6 -0.002712 0.000076 0.001454 0.003441 0.006560 0.042255
#
#
# Mechanical properties :
#
#
# Convention : Reuss Voigt Hill
#
# Bulk Modulus (GPa) = 43.10516 55.80252 49.45384
# Shear Modulus (GPa) = 29.32454 34.30319 31.81386
#
# Velocity S-wave (km/s) = 3.77722 4.08531 3.93428
# Velocity P-wave (km/s) = 6.32419 7.02872 6.68574
#
# Compressibility (1/GPa) = 0.02319908
#
# Stress axis : x y z
#
# Youngs Moduli (GPa) = 61.50665 65.22095 116.30855
#
# Poissons Ratio (x) = 0.24429 0.45036
# Poissons Ratio (y) = 0.23037 0.10202
# Poissons Ratio (z) = 0.23816 0.05721
#
# Static dielectric constant tensor:
#      x y z
#    x 3.814330 0.005040 -0.071660 
#    y 0.005040 3.483940 -0.164050 
#    z -0.071660 -0.164050 3.921980 
# 
# 
# High freq. dielectric constant tensor:
#      x y z
#    x 1.807450 -0.001470 -0.016690 
#    y -0.001470 1.783800 -0.008560 
#    z -0.016690 -0.008560 1.817120 
# 
# From -- ./inp_files/284631.got.cif
#   From: 2010.06.25/outbox.cif.g09.slc.cpg/sg2_143_cif.got.tgz:284631.got - 2010.06.27 13:26:56.
