data_PCOD8000770
_publ_section_title
;
Structure prediction by ZEFSAII (Michael W. Deem and Ramdas Pophale) SiO2 
 PCOD8000770
Probable space group: P -1
;
_chemical_formula_sum "Si O2"
_cell_formula_units_Z 14
_cell_length_a 8.956550
_cell_length_b 14.450281
_cell_length_c 16.835930
_cell_angle_alpha 26.016029
_cell_angle_beta 95.362385
_cell_angle_gamma 111.014427
_cell_volume 739.875030
_symmetry_space_group_name_H-M "P -1"
_symmetry_group_IT_number 2
_symmetry_cell_setting 'triclinic'
loop_
_space_group_symop_operation_xyz
x,y,z
-x,-y,-z
loop_
_atom_site_type_symbol
_atom_site_label
_atom_site_fract_x
_atom_site_fract_y
_atom_site_fract_z
Si Si1 0.637169 0.417122 0.229966
Si Si2 0.978149 0.584876 0.518752
Si Si3 0.386071 0.128020 0.156103
Si Si4 0.379252 0.832881 0.730510
Si Si5 0.972281 0.285305 0.896832
Si Si6 0.293839 0.283020 0.619499
Si Si7 0.718566 0.143000 0.130453
O O1 0.453260 0.119102 0.477465
O O2 0.803418 0.556743 0.196697
O O3 0.716796 0.395103 0.166742
O O4 0.564691 0.589676 0.081774
O O5 0.947244 0.373287 0.743658
O O6 0.791702 0.569812 0.525615
O O7 0.000000 0.500000 0.500000
O O8 0.162561 0.888012 0.315475
O O9 0.437770 0.130482 0.249688
O O10 0.520482 0.092035 0.136900
O O11 0.225491 0.746166 0.860986
O O12 0.883796 0.350150 0.914826
O O13 0.854555 0.959450 0.138156
O O14 0.500000 0.500000 0.500000
O O15 0.319269 0.143889 0.653947
#
# Coordination Sequence:
#
# PCOD8000770 Si02
#       7
#     2   2   2   2   2   2   2
#     4  11  19  37  65  87 118 160 191 243 290 337
#     4  12  24  40  63  85 116 155 199 247 289 351
#     4  10  19  40  58  90 118 154 197 241 286 348
#     4   9  21  36  62  89 122 150 201 235 291 346
#     4  10  22  41  57  89 116 154 194 241 292 352
#     4  10  22  42  59  85 118 154 192 249 299 338
#     4   8  20  39  55  86 120 150 191 242 284 349
#
# _framework density 18.922115999999999
#
# number of rings (size 3 to 8) (size 9 to 14) (size 15 to 20)
#    1.714    0.286    2.857    1.286    0.000    2.857 
#    2.571    0.000    0.000    3.429    0.000    0.000 
#    0.000    0.000    0.000    0.000    0.000    0.000 
#
# Total GULP energy -173460.002909 kJ/mol
# GULP energy per Si atom -12390.000208 kJ/mol
# Density = 1.887905 g / cm^3
# Si number density = 18.922116 Si / 1000 Ang^3
#
#
#
# Elastic Constant Matrix: (Units=GPa)
#
#
# Indices 1 2 3 4 5 6 
#
# 1 67.6481 23.1213 15.9301 0.6942 21.6016 -1.9997
# 2 23.1213 96.6696 31.1531 13.5627 14.6495 -5.6488
# 3 15.9301 31.1531 79.9543 9.5829 18.9688 7.1558
# 4 0.6942 13.5627 9.5829 29.4818 1.5164 -5.3376
# 5 21.6016 14.6495 18.9688 1.5164 32.0469 3.1504
# 6 -1.9997 -5.6488 7.1558 -5.3376 3.1504 35.3943
#
#
#
# Elastic Compliance Matrix: (Units=1/GPa)
#
#
# Indices 1 2 3 4 5 6 
#
# 1 0.019767 -0.002943 -0.000356 0.002004 -0.012069 0.002096
# 2 -0.002943 0.013301 -0.003846 -0.004298 -0.001838 0.002250
# 3 -0.000356 -0.003846 0.016630 -0.003969 -0.007269 -0.003948
# 4 0.002004 -0.004298 -0.003969 0.038185 0.000572 0.005937
# 5 -0.012069 -0.001838 -0.007269 0.000572 0.044790 -0.003406
# 6 0.002096 0.002250 -0.003948 0.005937 -0.003406 0.030727
#
#
# Mechanical properties :
#
#
# Convention : Reuss Voigt Hill
#
# Bulk Modulus (GPa) = 28.24256 42.74233 35.49245
# Shear Modulus (GPa) = 26.38599 30.98907 28.68753
#
# Velocity S-wave (km/s) = 3.73829 4.05126 3.89792
# Velocity P-wave (km/s) = 5.79579 6.67242 6.24950
#
# Compressibility (1/GPa) = 0.03540755
#
# Stress axis : x y z
#
# Youngs Moduli (GPa) = 50.58814 75.18329 60.13073
#
# Poissons Ratio (x) = 0.22126 0.02142
# Poissons Ratio (y) = 0.14888 0.23129
# Poissons Ratio (z) = 0.01802 0.28919
#
# Static dielectric constant tensor:
#      x y z
#    x 3.304920 -0.018970 0.119060 
#    y -0.018970 3.357780 0.044700 
#    z 0.119060 0.044700 3.296950 
# 
# 
# High freq. dielectric constant tensor:
#      x y z
#    x 1.725760 0.002460 0.010120 
#    y 0.002460 1.727880 0.000910 
#    z 0.010120 0.000910 1.727960 
# 
# From -- ./inp_files/560679.got.cif
#   From: 2010.06.25/outbox.cif.g09.slc.cpg/sg2_281_cif.got.tgz:560679.got - 2010.06.27 13:26:56.
