data_PCOD8000114
_publ_section_title
;
Structure prediction by ZEFSAII (Michael W. Deem and Ramdas Pophale) SiO2 
 PCOD8000114
Probable space group: P 1
;
_chemical_formula_sum "Si O2"
_cell_formula_units_Z 8
_cell_length_a 5.205147
_cell_length_b 13.521477
_cell_length_c 5.167780
_cell_angle_alpha 57.681379
_cell_angle_beta 90.902021
_cell_angle_gamma 104.331645
_cell_volume 294.770634
_symmetry_space_group_name_H-M "P 1"
_symmetry_group_IT_number 1
_symmetry_cell_setting 'triclinic'
loop_
_space_group_symop_operation_xyz
x,y,z
loop_
_atom_site_type_symbol
_atom_site_label
_atom_site_fract_x
_atom_site_fract_y
_atom_site_fract_z
Si Si1 0.967370 0.822200 0.879130
Si Si2 0.507338 0.635573 0.921094
Si Si3 0.022830 0.448449 0.374632
Si Si4 0.998587 0.189097 0.866718
Si Si5 0.633163 0.993894 0.828762
Si Si6 0.449611 0.071192 0.221689
Si Si7 0.208836 0.783592 0.444060
Si Si8 0.807440 0.516116 0.781254
O O1 0.780515 0.682278 0.031655
O O2 0.101094 0.869345 0.532839
O O3 0.759971 0.889737 0.888637
O O4 0.208837 0.828064 0.080458
O O5 0.475523 0.756284 0.601722
O O6 0.522052 0.533666 0.845437
O O7 0.272527 0.570870 0.207895
O O8 0.125278 0.330688 0.604935
O O9 0.809019 0.460792 0.573868
O O10 0.883750 0.427743 0.120472
O O11 0.882301 0.114291 0.707602
O O12 0.223897 0.136798 0.071364
O O13 0.742415 0.170167 0.079882
O O14 0.419587 0.016876 0.586262
O O15 0.467441 0.966611 0.145784
O O16 0.003116 0.650471 0.627858
#
# Coordination Sequence:
#
# PCOD8000114 Si02
#       8
#     1   1   1   1   1   1   1   1
#     4  11  23  42  69  99 136 175 232 280 350 417
#     4  10  24  44  70  99 144 182 228 288 354 417
#     4  11  25  42  68 103 133 189 227 290 347 424
#     4  10  27  47  72 104 142 183 237 291 351 424
#     4  10  25  44  70 104 134 186 232 295 347 421
#     4  10  25  45  74 100 144 178 238 290 357 411
#     4  10  22  40  63 100 132 178 223 280 337 419
#     4  10  23  42  64  97 141 175 235 276 347 417
#
# _framework density 27.139745000000001
#
# number of rings (size 3 to 8) (size 9 to 14) (size 15 to 20)
#    0.750    1.000    0.000    3.000    5.250   11.000 
#    0.000    0.000    0.000    0.000    0.000    0.000 
#    0.000    0.000    0.000    0.000    0.000    0.000 
#
# Total GULP energy -99161.281128 kJ/mol
# GULP energy per Si atom -12395.160141 kJ/mol
# Density = 2.707797 g / cm^3
# Si number density = 27.139745 Si / 1000 Ang^3
#
#
#
# Elastic Constant Matrix: (Units=GPa)
#
#
# Indices 1 2 3 4 5 6 
#
# 1 114.7099 42.6041 61.5164 10.3689 13.5090 -18.4070
# 2 42.6041 103.6769 79.0483 2.6894 -4.2372 -17.2584
# 3 61.5164 79.0483 208.8118 13.9293 9.3905 -12.7862
# 4 10.3689 2.6894 13.9293 40.2568 -11.5204 2.4078
# 5 13.5090 -4.2372 9.3905 -11.5204 41.2443 4.2520
# 6 -18.4070 -17.2584 -12.7862 2.4078 4.2520 42.4651
#
#
#
# Elastic Compliance Matrix: (Units=1/GPa)
#
#
# Indices 1 2 3 4 5 6 
#
# 1 0.012621 -0.003320 -0.001636 -0.004386 -0.005787 0.004457
# 2 -0.003320 0.015433 -0.005066 0.002639 0.004282 0.002729
# 3 -0.001636 -0.005066 0.007451 -0.002485 -0.002360 -0.000147
# 4 -0.004386 0.002639 -0.002485 0.030103 0.011135 -0.004399
# 5 -0.005787 0.004282 -0.002360 0.011135 0.030764 -0.005191
# 6 0.004457 0.002729 -0.000147 -0.004399 -0.005191 0.027315
#
#
# Mechanical properties :
#
#
# Convention : Reuss Voigt Hill
#
# Bulk Modulus (GPa) = 64.67221 88.17070 76.42145
# Shear Modulus (GPa) = 33.58298 41.06188 37.32243
#
# Velocity S-wave (km/s) = 3.52150 3.89392 3.71238
# Velocity P-wave (km/s) = 6.35733 7.26464 6.82608
#
# Compressibility (1/GPa) = 0.01546259
#
# Stress axis : x y z
#
# Youngs Moduli (GPa) = 79.23268 64.79657 134.20183
#
# Poissons Ratio (x) = 0.21513 0.21950
# Poissons Ratio (y) = 0.26306 0.67982
# Poissons Ratio (z) = 0.12959 0.32824
#
# Static dielectric constant tensor:
#      x y z
#    x 5.019980 -0.120440 0.115700 
#    y -0.120440 5.078430 -0.007940 
#    z 0.115700 -0.007940 5.483030 
# 
# 
# High freq. dielectric constant tensor:
#      x y z
#    x 2.103360 0.004830 -0.006780 
#    y 0.004830 2.091340 0.007350 
#    z -0.006780 0.007350 2.101420 
# 
# From -- ./inp_files/483.got.cif
#   From: 2010.03.12/outbox.cif.g09.slc.cpg/sg1_1_cif.got.tgz:483.got - 2010.03.29 11:57:58.
