data_PCOD8000838
_publ_section_title
;
Structure prediction by ZEFSAII (Michael W. Deem and Ramdas Pophale) SiO2 
 PCOD8000838
Probable space group: P -1
;
_chemical_formula_sum "Si O2"
_cell_formula_units_Z 16
_cell_length_a 9.420559
_cell_length_b 6.843676
_cell_length_c 14.362019
_cell_angle_alpha 77.580566
_cell_angle_beta 91.091159
_cell_angle_gamma 58.804357
_cell_volume 764.028201
_symmetry_space_group_name_H-M "P -1"
_symmetry_group_IT_number 2
_symmetry_cell_setting 'triclinic'
loop_
_space_group_symop_operation_xyz
x,y,z
-x,-y,-z
loop_
_atom_site_type_symbol
_atom_site_label
_atom_site_fract_x
_atom_site_fract_y
_atom_site_fract_z
Si Si1 0.016808 0.256171 0.006088
Si Si2 0.679779 0.066542 0.842053
Si Si3 0.528094 0.568426 0.712919
Si Si4 0.914318 0.947923 0.695481
Si Si5 0.395371 0.012327 0.786235
Si Si6 0.098792 0.999019 0.855410
Si Si7 0.314692 0.590075 0.453906
Si Si8 0.773871 0.479319 0.350529
O O1 0.887100 0.232271 0.072997
O O2 0.206334 0.041072 0.054358
O O3 0.000000 0.500000 0.000000
O O4 0.988625 0.224053 0.900231
O O5 0.618126 0.342209 0.805658
O O6 0.525222 0.030118 0.852404
O O7 0.789243 0.924426 0.766105
O O8 0.654918 0.532188 0.634185
O O9 0.354252 0.598380 0.673970
O O10 0.496050 0.802927 0.736154
O O11 0.010811 0.045060 0.748711
O O12 0.045398 0.698295 0.674800
O O13 0.804210 0.127486 0.592969
O O14 0.281035 0.258702 0.706196
O O15 0.283343 0.951114 0.853780
O O16 0.500000 0.500000 0.500000
O O17 0.219931 0.524315 0.535773
#
# Coordination Sequence:
#
# PCOD8000838 Si02
#       8
#     2   2   2   2   2   2   2   2
#     4  10  23  42  64  92 123 154 200 252 299 364
#     4   9  22  38  61  91 118 163 199 244 309 358
#     4   9  19  39  59  85 128 161 200 248 299 359
#     4  10  19  40  63  86 124 162 203 253 298 355
#     4  11  22  38  64  89 122 165 199 247 301 362
#     4  10  23  39  62  91 120 159 199 244 308 353
#     4   9  19  36  62  86 124 164 202 249 302 349
#     4  10  20  36  61  90 119 162 208 249 297 352
#
# _framework density 20.941635000000002
#
# number of rings (size 3 to 8) (size 9 to 14) (size 15 to 20)
#    0.000    2.250    1.250    1.125    3.500    5.000 
#    0.000    1.875    0.000    0.000    0.000    0.000 
#    0.000    0.000    0.000    0.000    0.000    0.000 
#
# Total GULP energy -198295.241317 kJ/mol
# GULP energy per Si atom -12393.452582 kJ/mol
# Density = 2.089397 g / cm^3
# Si number density = 20.941635 Si / 1000 Ang^3
#
#
#
# Elastic Constant Matrix: (Units=GPa)
#
#
# Indices 1 2 3 4 5 6 
#
# 1 103.3370 35.1202 31.1797 -8.7237 -11.5535 -0.1700
# 2 35.1202 149.7913 43.5596 -1.6665 0.2051 -5.9212
# 3 31.1797 43.5596 77.0517 -5.4938 -1.1506 -0.4868
# 4 -8.7237 -1.6665 -5.4938 20.0754 -5.5014 1.7963
# 5 -11.5535 0.2051 -1.1506 -5.5014 27.9734 -3.2409
# 6 -0.1700 -5.9212 -0.4868 1.7963 -3.2409 35.1253
#
#
#
# Elastic Compliance Matrix: (Units=1/GPa)
#
#
# Indices 1 2 3 4 5 6 
#
# 1 0.012584 -0.001873 -0.003507 0.006071 0.006256 -0.000037
# 2 -0.001873 0.008338 -0.004085 -0.001681 -0.001181 0.001317
# 3 -0.003507 -0.004085 0.016895 0.002747 -0.000257 -0.000636
# 4 0.006071 -0.001681 0.002747 0.056962 0.013618 -0.001872
# 5 0.006256 -0.001181 -0.000257 0.013618 0.041350 0.002946
# 6 -0.000037 0.001317 -0.000636 -0.001872 0.002946 0.029050
#
#
# Mechanical properties :
#
#
# Convention : Reuss Voigt Hill
#
# Bulk Modulus (GPa) = 52.94855 61.09990 57.02422
# Shear Modulus (GPa) = 26.25991 31.32285 28.79138
#
# Velocity S-wave (km/s) = 3.54497 3.87165 3.71190
# Velocity P-wave (km/s) = 6.48803 7.01611 6.75723
#
# Compressibility (1/GPa) = 0.01888626
#
# Stress axis : x y z
#
# Youngs Moduli (GPa) = 79.46723 119.93316 59.18953
#
# Poissons Ratio (x) = 0.22463 0.20759
# Poissons Ratio (y) = 0.14884 0.24179
# Poissons Ratio (z) = 0.27871 0.48992
#
# Static dielectric constant tensor:
#      x y z
#    x 3.836500 -0.164490 -0.058250 
#    y -0.164490 3.584400 0.017500 
#    z -0.058250 0.017500 3.991340 
# 
# 
# High freq. dielectric constant tensor:
#      x y z
#    x 1.817010 -0.012130 -0.005350 
#    y -0.012130 1.804820 0.000530 
#    z -0.005350 0.000530 1.819190 
# 
# From -- ./inp_files/83017.got.cif
#   From: 2010.06.25/outbox.cif.g09.slc.cpg/sg2_42_cif.got.tgz:83017.got - 2010.06.27 13:26:56.
