data_PCOD8000086
_publ_section_title
;
Structure prediction by ZEFSAII (Michael W. Deem and Ramdas Pophale) SiO2 
 PCOD8000086
Probable space group: P 1
;
_chemical_formula_sum "Si O2"
_cell_formula_units_Z 8
_cell_length_a 7.329880
_cell_length_b 9.525097
_cell_length_c 7.361381
_cell_angle_alpha 69.256417
_cell_angle_beta 118.552115
_cell_angle_gamma 109.159098
_cell_volume 414.209567
_symmetry_space_group_name_H-M "P 1"
_symmetry_group_IT_number 1
_symmetry_cell_setting 'triclinic'
loop_
_space_group_symop_operation_xyz
x,y,z
loop_
_atom_site_type_symbol
_atom_site_label
_atom_site_fract_x
_atom_site_fract_y
_atom_site_fract_z
Si Si1 0.952300 0.422390 0.975610
Si Si2 0.104829 0.248001 0.830921
Si Si3 0.564067 0.207521 0.003345
Si Si4 0.033178 0.754812 0.708567
Si Si5 0.991443 0.902830 0.961261
Si Si6 0.413758 0.861825 0.053532
Si Si7 0.849597 0.379439 0.337235
Si Si8 0.778721 0.702630 0.265422
O O1 0.719654 0.313488 0.886525
O O2 0.122884 0.351038 0.974033
O O3 0.944727 0.586281 0.818179
O O4 0.005956 0.432174 0.213396
O O5 0.333809 0.248285 0.856699
O O6 0.972338 0.314755 0.584405
O O7 0.990442 0.079367 0.915254
O O8 0.655675 0.247947 0.233329
O O9 0.557903 0.030857 0.030879
O O10 0.969929 0.766091 0.465202
O O11 0.923085 0.865331 0.735125
O O12 0.289132 0.807188 0.828989
O O13 0.229748 0.863938 0.117434
O O14 0.825791 0.799232 0.060153
O O15 0.559531 0.738397 0.226295
O O16 0.755736 0.523150 0.300547
#
# Coordination Sequence:
#
# PCOD8000086 Si02
#       8
#     1   1   1   1   1   1   1   1
#     4  10  21  42  58  93 124 153 207 249 294 367
#     4  11  21  42  63  85 130 159 191 261 302 349
#     4   9  22  41  60  91 122 155 208 245 297 369
#     4  10  22  41  60  90 125 154 205 247 297 362
#     4   9  22  41  59  93 119 154 208 245 295 365
#     4   9  22  41  61  89 121 158 206 248 294 369
#     4  10  23  38  62  92 119 160 203 242 305 359
#     4  12  21  42  65  85 126 165 194 253 306 348
#
# _framework density 19.313894999999999
#
# number of rings (size 3 to 8) (size 9 to 14) (size 15 to 20)
#    1.500    0.500    2.500    0.750    3.500    0.000 
#    9.000    1.250    0.000    0.000    0.000    0.000 
#    0.000    0.000    0.000    0.000    0.000    0.000 
#
# Total GULP energy -99108.016303 kJ/mol
# GULP energy per Si atom -12388.502038 kJ/mol
# Density = 1.926994 g / cm^3
# Si number density = 19.313895 Si / 1000 Ang^3
#
#
#
# Elastic Constant Matrix: (Units=GPa)
#
#
# Indices 1 2 3 4 5 6 
#
# 1 51.5862 26.3730 22.0673 -9.4421 4.9348 -8.8776
# 2 26.3730 96.7694 41.4987 8.8213 12.5464 -8.5140
# 3 22.0673 41.4987 86.2741 3.8875 8.5533 -13.7983
# 4 -9.4421 8.8213 3.8875 31.0819 -5.1086 3.8082
# 5 4.9348 12.5464 8.5533 -5.1086 23.3950 -1.3708
# 6 -8.8776 -8.5140 -13.7983 3.8082 -1.3708 33.0377
#
#
#
# Elastic Compliance Matrix: (Units=1/GPa)
#
#
# Indices 1 2 3 4 5 6 
#
# 1 0.026565 -0.006509 -0.003865 0.010349 0.001720 0.002725
# 2 -0.006509 0.015766 -0.004787 -0.007079 -0.006828 0.000847
# 3 -0.003865 -0.004787 0.016033 -0.002854 -0.002831 0.004635
# 4 0.010349 -0.007079 -0.002854 0.040053 0.011146 -0.004390
# 5 0.001720 -0.006828 -0.002831 0.011146 0.049411 -0.001714
# 6 0.002725 0.000847 0.004635 -0.004390 -0.001714 0.033590
#
#
# Mechanical properties :
#
#
# Convention : Reuss Voigt Hill
#
# Bulk Modulus (GPa) = 35.66187 46.05639 40.85913
# Shear Modulus (GPa) = 22.61552 27.14894 24.88223
#
# Velocity S-wave (km/s) = 3.42562 3.75329 3.59319
# Velocity P-wave (km/s) = 5.84388 6.53307 6.19806
#
# Compressibility (1/GPa) = 0.02804115
#
# Stress axis : x y z
#
# Youngs Moduli (GPa) = 37.64380 63.42815 62.37196
#
# Poissons Ratio (x) = 0.41286 0.24106
# Poissons Ratio (y) = 0.24503 0.29859
# Poissons Ratio (z) = 0.14549 0.30364
#
# Static dielectric constant tensor:
#      x y z
#    x 3.335980 -0.156390 -0.021300 
#    y -0.156390 3.740380 0.156860 
#    z -0.021300 0.156860 3.245020 
# 
# 
# High freq. dielectric constant tensor:
#      x y z
#    x 1.736820 -0.011870 0.000730 
#    y -0.011870 1.772590 0.005130 
#    z 0.000730 0.005130 1.720790 
# 
# From -- ./inp_files/3842.got.cif
#   From: 2010.03.12/outbox.cif.g09.slc.cpg/sg1_2_cif.got.tgz:3842.got - 2010.03.29 11:57:58.
