data_PCOD8000739
_publ_section_title
;
Structure prediction by ZEFSAII (Michael W. Deem and Ramdas Pophale) SiO2 
 PCOD8000739
Probable space group: P -1
;
_chemical_formula_sum "Si O2"
_cell_formula_units_Z 14
_cell_length_a 18.426611
_cell_length_b 8.641051
_cell_length_c 13.720718
_cell_angle_alpha 146.566695
_cell_angle_beta 146.887858
_cell_angle_gamma 43.547509
_cell_volume 655.129253
_symmetry_space_group_name_H-M "P -1"
_symmetry_group_IT_number 2
_symmetry_cell_setting 'triclinic'
loop_
_space_group_symop_operation_xyz
x,y,z
-x,-y,-z
loop_
_atom_site_type_symbol
_atom_site_label
_atom_site_fract_x
_atom_site_fract_y
_atom_site_fract_z
Si Si1 0.304087 0.980102 0.021035
Si Si2 0.857879 0.885809 0.375243
Si Si3 0.945842 0.692500 0.172419
Si Si4 0.142984 0.586300 0.734142
Si Si5 0.600413 0.183520 0.157925
Si Si6 0.380839 0.203731 0.432549
Si Si7 0.911254 0.876082 0.918103
O O1 0.371716 0.119972 0.263566
O O2 0.198768 0.235552 0.999522
O O3 0.241048 0.675167 0.806078
O O4 0.410734 0.879840 0.004110
O O5 0.941832 0.705116 0.292662
O O6 0.791523 0.672294 0.262484
O O7 0.750066 0.093589 0.310569
O O8 0.958198 0.082302 0.645613
O O9 0.009113 0.372521 0.059005
O O10 0.000000 0.500000 0.500000
O O11 0.124814 0.879693 0.920448
O O12 0.566606 0.496379 0.325067
O O13 0.500000 0.000000 0.000000
O O14 0.236214 0.201381 0.323408
O O15 0.500000 0.000000 0.500000
O O16 0.000000 0.000000 0.000000
#
# Coordination Sequence:
#
# PCOD8000739 Si02
#       7
#     2   2   2   2   2   2   2
#     4  10  25  44  71 103 138 174 238 286 344 412
#     4  10  20  38  64  98 136 172 223 285 344 397
#     4  10  19  39  69  97 137 175 219 291 338 406
#     4  11  22  36  62 101 139 167 218 284 347 406
#     4  11  26  46  73  94 133 191 234 277 347 413
#     4  11  27  47  68  99 145 184 230 286 343 416
#     4  11  23  39  68 102 135 179 228 277 350 404
#
# _framework density 21.369827999999998
#
# number of rings (size 3 to 8) (size 9 to 14) (size 15 to 20)
#    0.000    1.429    4.286    0.000    6.000    4.571 
#    0.000    0.000    0.000    0.000    0.000    0.000 
#    0.000    0.000    0.000    0.000    0.000    0.000 
#
# Total GULP energy -173439.046311 kJ/mol
# GULP energy per Si atom -12388.503308 kJ/mol
# Density = 2.132119 g / cm^3
# Si number density = 21.369828 Si / 1000 Ang^3
#
#
#
# Elastic Constant Matrix: (Units=GPa)
#
#
# Indices 1 2 3 4 5 6 
#
# 1 120.7876 27.9902 45.4068 8.0837 12.8099 12.6605
# 2 27.9902 134.2483 44.0030 13.4054 -0.8056 10.3578
# 3 45.4068 44.0030 108.3061 10.8667 0.2849 1.6161
# 4 8.0837 13.4054 10.8667 40.3922 6.2666 4.0159
# 5 12.8099 -0.8056 0.2849 6.2666 34.0679 2.2379
# 6 12.6605 10.3578 1.6161 4.0159 2.2379 25.4899
#
#
#
# Elastic Compliance Matrix: (Units=1/GPa)
#
#
# Indices 1 2 3 4 5 6 
#
# 1 0.010891 -0.000555 -0.004282 0.000206 -0.003807 -0.004610
# 2 -0.000555 0.009041 -0.003210 -0.001883 0.000992 -0.002985
# 3 -0.004282 -0.003210 0.012483 -0.001965 0.001607 0.002808
# 4 0.000206 -0.001883 -0.001965 0.026924 -0.004859 -0.003028
# 5 -0.003807 0.000992 0.001607 -0.004859 0.031730 -0.000634
# 6 -0.004610 -0.002985 0.002808 -0.003028 -0.000634 0.043089
#
#
# Mechanical properties :
#
#
# Convention : Reuss Voigt Hill
#
# Bulk Modulus (GPa) = 61.26889 66.46024 63.86456
# Shear Modulus (GPa) = 32.11458 36.38613 34.25036
#
# Velocity S-wave (km/s) = 3.88080 4.13084 4.00777
# Velocity P-wave (km/s) = 6.98669 7.34298 7.16705
#
# Compressibility (1/GPa) = 0.01632150
#
# Stress axis : x y z
#
# Youngs Moduli (GPa) = 91.82229 110.60843 80.10589
#
# Poissons Ratio (x) = 0.06135 0.34304
# Poissons Ratio (y) = 0.05093 0.25712
# Poissons Ratio (z) = 0.39321 0.35503
#
# Static dielectric constant tensor:
#      x y z
#    x 2.994880 0.314250 -0.341680 
#    y 0.314250 3.779170 -0.013640 
#    z -0.341680 -0.013640 3.680200 
# 
# 
# High freq. dielectric constant tensor:
#      x y z
#    x 1.833620 0.003940 -0.000100 
#    y 0.003940 1.843620 0.011240 
#    z -0.000100 0.011240 1.838090 
# 
# From -- ./inp_files/175522.got.cif
#   From: 2010.06.25/outbox.cif.g09.slc.cpg/sg2_88_cif.got.tgz:175522.got - 2010.06.27 13:26:56.
