data_PCOD8000814
_publ_section_title
;
Structure prediction by ZEFSAII (Michael W. Deem and Ramdas Pophale) SiO2 
 PCOD8000814
Probable space group: P -1
;
_chemical_formula_sum "Si O2"
_cell_formula_units_Z 16
_cell_length_a 22.652553
_cell_length_b 16.981140
_cell_length_c 6.708305
_cell_angle_alpha 100.461619
_cell_angle_beta 113.551861
_cell_angle_gamma 22.559024
_cell_volume 767.866646
_symmetry_space_group_name_H-M "P -1"
_symmetry_group_IT_number 2
_symmetry_cell_setting 'triclinic'
loop_
_space_group_symop_operation_xyz
x,y,z
-x,-y,-z
loop_
_atom_site_type_symbol
_atom_site_label
_atom_site_fract_x
_atom_site_fract_y
_atom_site_fract_z
Si Si1 0.953537 0.879177 0.202602
Si Si2 0.211834 0.040130 0.301356
Si Si3 0.928811 0.620007 0.751727
Si Si4 0.883483 0.383788 0.317238
Si Si5 0.272194 0.263701 0.760063
Si Si6 0.120535 0.755040 0.988587
Si Si7 0.428906 0.494512 0.447286
Si Si8 0.160830 0.864480 0.553047
O O1 0.102620 0.670912 0.471226
O O2 0.065049 0.806590 0.167742
O O3 0.789391 0.122988 0.216220
O O4 0.866360 0.906837 0.982407
O O5 0.205564 0.142703 0.299710
O O6 0.090648 0.161892 0.392150
O O7 0.422783 0.753268 0.485439
O O8 0.785715 0.725077 0.497777
O O9 0.132204 0.401226 0.815071
O O10 0.000000 0.500000 0.000000
O O11 0.759572 0.607853 0.284357
O O12 0.774657 0.447343 0.054612
O O13 0.500000 0.000000 0.000000
O O14 0.261037 0.667481 0.139871
O O15 0.926799 0.996196 0.707166
O O16 0.500000 0.500000 0.500000
O O17 0.349928 0.592281 0.614812
O O18 0.000000 0.000000 0.500000
#
# Coordination Sequence:
#
# PCOD8000814 Si02
#       8
#     2   2   2   2   2   2   2   2
#     4  10  19  40  62  83 117 165 207 248 315 369
#     4  10  23  40  61  92 127 161 204 259 318 371
#     4  10  22  44  67  96 139 171 207 275 331 386
#     4   9  20  41  64  87 122 164 201 257 315 376
#     4  10  22  40  68 101 128 168 218 263 328 400
#     4  10  22  39  61  83 121 163 206 255 306 372
#     4  12  24  39  59  89 123 160 207 260 308 365
#     4  11  23  40  61  82 115 165 209 252 309 362
#
# _framework density 20.836952
#
# number of rings (size 3 to 8) (size 9 to 14) (size 15 to 20)
#    0.000    1.750    1.250    3.375    3.500    1.000 
#    4.500    0.000    0.000    0.000    0.000    0.000 
#    0.000    0.000    0.000    0.000    0.000    0.000 
#
# Total GULP energy -198214.748359 kJ/mol
# GULP energy per Si atom -12388.421772 kJ/mol
# Density = 2.078953 g / cm^3
# Si number density = 20.836952 Si / 1000 Ang^3
#
#
#
# Elastic Constant Matrix: (Units=GPa)
#
#
# Indices 1 2 3 4 5 6 
#
# 1 102.9268 43.2939 44.8684 9.6767 2.5431 16.3193
# 2 43.2939 122.9616 46.3691 5.0274 3.6782 19.6285
# 3 44.8684 46.3691 111.7197 14.9447 2.7546 -0.0215
# 4 9.6767 5.0274 14.9447 27.3835 2.0506 2.8747
# 5 2.5431 3.6782 2.7546 2.0506 47.7323 7.0030
# 6 16.3193 19.6285 -0.0215 2.8747 7.0030 37.1890
#
#
#
# Elastic Compliance Matrix: (Units=1/GPa)
#
#
# Indices 1 2 3 4 5 6 
#
# 1 0.013405 -0.002344 -0.004215 -0.001556 0.000453 -0.004613
# 2 -0.002344 0.011159 -0.003884 0.001412 0.000162 -0.005003
# 3 -0.004215 -0.003884 0.012981 -0.005300 -0.000649 0.004439
# 4 -0.001556 0.001412 -0.005300 0.040089 -0.001006 -0.002975
# 5 0.000453 0.000162 -0.000649 -0.001006 0.021622 -0.004279
# 6 -0.004613 -0.005003 0.004439 -0.002975 -0.004279 0.032593
#
#
# Mechanical properties :
#
#
# Convention : Reuss Voigt Hill
#
# Bulk Modulus (GPa) = 60.02395 67.40787 63.71591
# Shear Modulus (GPa) = 31.58797 35.99939 33.79368
#
# Velocity S-wave (km/s) = 3.89776 4.16104 4.03155
# Velocity P-wave (km/s) = 7.00897 7.45024 7.23297
#
# Compressibility (1/GPa) = 0.01666002
#
# Stress axis : x y z
#
# Youngs Moduli (GPa) = 74.59630 89.61713 77.03290
#
# Poissons Ratio (x) = 0.21007 0.32468
# Poissons Ratio (y) = 0.17486 0.29918
# Poissons Ratio (z) = 0.31441 0.34806
#
# Static dielectric constant tensor:
#      x y z
#    x 4.218060 1.033220 0.213890 
#    y 1.033220 5.829410 0.602520 
#    z 0.213890 0.602520 3.830790 
# 
# 
# High freq. dielectric constant tensor:
#      x y z
#    x 1.823340 0.019980 0.003000 
#    y 0.019980 1.814570 0.025820 
#    z 0.003000 0.025820 1.811000 
# 
# From -- ./inp_files/124835.got.cif
#   From: 2010.06.25/outbox.cif.g09.slc.cpg/sg2_63_cif.got.tgz:124835.got - 2010.06.27 13:26:56.
