data_PCOD8000733
_publ_section_title
;
Structure prediction by ZEFSAII (Michael W. Deem and Ramdas Pophale) SiO2 
 PCOD8000733
Probable space group: P -1
;
_chemical_formula_sum "Si O2"
_cell_formula_units_Z 16
_cell_length_a 8.782188
_cell_length_b 11.620143
_cell_length_c 11.716138
_cell_angle_alpha 60.187174
_cell_angle_beta 91.401571
_cell_angle_gamma 129.191541
_cell_volume 725.582040
_symmetry_space_group_name_H-M "P -1"
_symmetry_group_IT_number 2
_symmetry_cell_setting 'triclinic'
loop_
_space_group_symop_operation_xyz
x,y,z
-x,-y,-z
loop_
_atom_site_type_symbol
_atom_site_label
_atom_site_fract_x
_atom_site_fract_y
_atom_site_fract_z
Si Si1 0.931278 0.793225 0.436093
Si Si2 0.211916 0.214847 0.174220
Si Si3 0.262588 0.908692 0.558510
Si Si4 0.158689 0.373493 0.724894
Si Si5 0.944324 0.311186 0.114162
Si Si6 0.278939 0.920011 0.994977
Si Si7 0.748187 0.819794 0.061232
Si Si8 0.402861 0.282022 0.381188
O O1 0.878884 0.672233 0.385299
O O2 0.715651 0.676405 0.567409
O O3 0.111015 0.812081 0.491293
O O4 0.013071 0.990879 0.305427
O O5 0.387192 0.310239 0.232095
O O6 0.140453 0.325124 0.104953
O O7 0.316552 0.232229 0.047747
O O8 0.153993 0.752674 0.730687
O O9 0.500000 0.000000 0.500000
O O10 0.267865 0.066203 0.514861
O O11 0.311537 0.350968 0.790734
O O12 0.345319 0.600293 0.637896
O O13 0.931365 0.252322 0.846878
O O14 0.764463 0.150925 0.099519
O O15 0.000000 0.500000 0.000000
O O16 0.500000 0.000000 0.000000
O O17 0.355700 0.119830 0.908590
O O18 0.000000 0.000000 0.000000
#
# Coordination Sequence:
#
# PCOD8000733 Si02
#       8
#     2   2   2   2   2   2   2   2
#     4  11  20  44  70  94 134 178 232 271 337 409
#     4  11  19  43  70  98 126 179 231 273 337 400
#     4  11  26  43  67  97 138 185 218 275 350 403
#     4  11  23  40  66 104 129 172 232 285 330 403
#     4  12  25  44  70 100 141 174 231 286 335 406
#     4  11  25  44  65  95 139 181 219 274 351 405
#     4  10  19  39  69  91 131 172 224 277 328 399
#     4  11  24  40  70  98 134 173 231 284 332 401
#
# _framework density 22.051264
#
# number of rings (size 3 to 8) (size 9 to 14) (size 15 to 20)
#    0.000    1.000    7.500    1.125    3.500    1.500 
#    0.000    0.625    0.000    0.000    0.000    0.000 
#    0.000    0.000    0.000    0.000    0.000    0.000 
#
# Total GULP energy -198217.791222 kJ/mol
# GULP energy per Si atom -12388.611951 kJ/mol
# Density = 2.200107 g / cm^3
# Si number density = 22.051264 Si / 1000 Ang^3
#
#
#
# Elastic Constant Matrix: (Units=GPa)
#
#
# Indices 1 2 3 4 5 6 
#
# 1 94.9262 34.1948 20.9339 6.4607 22.7596 14.5256
# 2 34.1948 119.1861 53.5025 30.0054 8.0768 13.4451
# 3 20.9339 53.5025 107.8324 20.1635 22.3647 3.4976
# 4 6.4607 30.0054 20.1635 39.1685 -0.5672 2.6982
# 5 22.7596 8.0768 22.3647 -0.5672 23.0035 -5.6768
# 6 14.5256 13.4451 3.4976 2.6982 -5.6768 38.3310
#
#
#
# Elastic Compliance Matrix: (Units=1/GPa)
#
#
# Indices 1 2 3 4 5 6 
#
# 1 0.017898 -0.003856 0.003602 -0.001558 -0.022097 -0.008922
# 2 -0.003856 0.013601 -0.005442 -0.006806 0.003722 -0.001783
# 3 0.003602 -0.005442 0.016029 -0.004714 -0.018162 -0.003277
# 4 -0.001558 -0.006806 -0.004714 0.033398 0.009963 0.002532
# 5 -0.022097 0.003722 -0.018162 0.009963 0.087094 0.020923
# 6 -0.008922 -0.001783 -0.003277 0.002532 0.020923 0.033314
#
#
# Mechanical properties :
#
#
# Convention : Reuss Voigt Hill
#
# Bulk Modulus (GPa) = 27.67163 59.91191 43.79177
# Shear Modulus (GPa) = 22.24477 34.32150 28.28313
#
# Velocity S-wave (km/s) = 3.17957 3.94946 3.58524
# Velocity P-wave (km/s) = 5.10446 6.93008 6.08611
#
# Compressibility (1/GPa) = 0.03613810
#
# Stress axis : x y z
#
# Youngs Moduli (GPa) = 55.87103 73.52166 62.38702
#
# Poissons Ratio (x) = 0.28350 -0.22473
# Poissons Ratio (y) = 0.21544 0.33948
# Poissons Ratio (z) = -0.20126 0.40007
#
# Static dielectric constant tensor:
#      x y z
#    x -3.517250 11.380980 -12.097950 
#    y 11.380980 -13.444680 19.095680 
#    z -12.097950 19.095680 -16.314460 
# 
# 
# High freq. dielectric constant tensor:
#      x y z
#    x 1.855620 0.000900 0.004770 
#    y 0.000900 1.877400 0.010940 
#    z 0.004770 0.010940 1.866880 
# 
# From -- ./inp_files/392373.got.cif
#   From: 2010.06.25/outbox.cif.g09.slc.cpg/sg2_197_cif.got.tgz:392373.got - 2010.06.27 13:26:56.
