data_PCOD8000685
_publ_section_title
;
Structure prediction by ZEFSAII (Michael W. Deem and Ramdas Pophale) SiO2 
 PCOD8000685
Probable space group: P -1
;
_chemical_formula_sum "Si O2"
_cell_formula_units_Z 16
_cell_length_a 8.476620
_cell_length_b 14.117461
_cell_length_c 11.951933
_cell_angle_alpha 53.281737
_cell_angle_beta 52.951335
_cell_angle_gamma 39.923983
_cell_volume 706.372623
_symmetry_space_group_name_H-M "P -1"
_symmetry_group_IT_number 2
_symmetry_cell_setting 'triclinic'
loop_
_space_group_symop_operation_xyz
x,y,z
-x,-y,-z
loop_
_atom_site_type_symbol
_atom_site_label
_atom_site_fract_x
_atom_site_fract_y
_atom_site_fract_z
Si Si1 0.272546 0.540990 0.144119
Si Si2 0.371915 0.935619 0.548901
Si Si3 0.900098 0.992938 0.785836
Si Si4 0.783243 0.866659 0.119266
Si Si5 0.738280 0.894473 0.727837
Si Si6 0.439344 0.301281 0.700913
Si Si7 0.008493 0.452688 0.156328
Si Si8 0.697767 0.611579 0.551562
O O1 0.391249 0.451936 0.274498
O O2 0.068893 0.720841 0.139774
O O3 0.138760 0.489264 0.165579
O O4 0.500000 0.500000 0.000000
O O5 0.609391 0.771466 0.518678
O O6 0.193994 0.925714 0.714920
O O7 0.500000 0.000000 0.500000
O O8 0.190344 0.045579 0.446551
O O9 0.876511 0.895244 0.776159
O O10 0.735081 0.173759 0.699658
O O11 0.811709 0.968831 0.955689
O O12 0.665717 0.792531 0.167881
O O13 0.575108 0.989334 0.213209
O O14 0.842602 0.725936 0.776038
O O15 0.286798 0.447125 0.746475
O O16 0.416009 0.363717 0.541496
O O17 0.000000 0.500000 0.000000
O O18 0.000000 0.500000 0.500000
#
# Coordination Sequence:
#
# PCOD8000685 Si02
#       8
#     2   2   2   2   2   2   2   2
#     4  11  23  41  65  96 131 180 227 265 329 407
#     4  12  26  42  64  97 132 172 215 273 329 391
#     4  11  22  43  68  97 129 169 223 265 332 403
#     4  10  19  39  67  95 125 170 218 267 325 388
#     4  11  21  40  66  92 128 166 218 270 322 387
#     4  10  21  40  70  98 130 179 221 271 336 395
#     4  11  22  40  65  98 132 169 221 279 336 377
#     4  12  21  43  68  91 135 182 220 265 335 402
#
# _framework density 22.650935
#
# number of rings (size 3 to 8) (size 9 to 14) (size 15 to 20)
#    0.000    1.000    5.000    5.625    0.000    0.000 
#    0.000    8.125    0.000    0.000    0.000    0.000 
#    0.000    0.000    0.000    0.000    0.000    0.000 
#
# Total GULP energy -198270.986263 kJ/mol
# GULP energy per Si atom -12391.936641 kJ/mol
# Density = 2.259938 g / cm^3
# Si number density = 22.650935 Si / 1000 Ang^3
#
#
#
# Elastic Constant Matrix: (Units=GPa)
#
#
# Indices 1 2 3 4 5 6 
#
# 1 45.7139 27.6894 25.8030 2.3245 1.3840 -2.1140
# 2 27.6894 196.4808 40.9383 -2.2234 0.6235 4.2287
# 3 25.8030 40.9383 150.3448 -4.1541 11.8383 -2.7372
# 4 2.3245 -2.2234 -4.1541 39.2987 -10.0998 6.4001
# 5 1.3840 0.6235 11.8383 -10.0998 33.1973 4.4126
# 6 -2.1140 4.2287 -2.7372 6.4001 4.4126 19.8452
#
#
#
# Elastic Compliance Matrix: (Units=1/GPa)
#
#
# Indices 1 2 3 4 5 6 
#
# 1 0.026132 -0.003063 -0.003560 -0.003111 -0.001272 0.004232
# 2 -0.003063 0.005819 -0.001155 0.001031 0.001048 -0.002291
# 3 -0.003560 -0.001155 0.007828 -0.000014 -0.002836 0.001582
# 4 -0.003111 0.001031 -0.000014 0.030660 0.011161 -0.012922
# 5 -0.001272 0.001048 -0.002836 0.011161 0.036211 -0.012401
# 6 0.004232 -0.002291 0.001582 -0.012922 -0.012401 0.058472
#
#
# Mechanical properties :
#
#
# Convention : Reuss Voigt Hill
#
# Bulk Modulus (GPa) = 41.27970 64.60009 52.93990
# Shear Modulus (GPa) = 26.48958 38.34219 32.41588
#
# Velocity S-wave (km/s) = 3.42346 4.11876 3.78710
# Velocity P-wave (km/s) = 5.82157 7.15546 6.52270
#
# Compressibility (1/GPa) = 0.02422498
#
# Stress axis : x y z
#
# Youngs Moduli (GPa) = 38.26687 171.83637 127.73946
#
# Poissons Ratio (x) = 0.52639 0.45471
# Poissons Ratio (y) = 0.11722 0.14750
# Poissons Ratio (z) = 0.13622 0.19841
#
# Static dielectric constant tensor:
#      x y z
#    x 3.630110 -0.276450 0.208470 
#    y -0.276450 4.770250 0.126850 
#    z 0.208470 0.126850 4.620860 
# 
# 
# High freq. dielectric constant tensor:
#      x y z
#    x 1.844590 -0.014040 0.009690 
#    y -0.014040 1.920850 0.002490 
#    z 0.009690 0.002490 1.907760 
# 
# From -- ./inp_files/398537.got.cif
#   From: 2010.06.25/outbox.cif.g09.slc.cpg/sg2_200_cif.got.tgz:398537.got - 2010.06.27 13:26:56.
