data_PCOD8000066
_publ_section_title
;
Structure prediction by ZEFSAII (Michael W. Deem and Ramdas Pophale) SiO2 
 PCOD8000066
Probable space group: P 1
;
_chemical_formula_sum "Si O2"
_cell_formula_units_Z 8
_cell_length_a 7.733796
_cell_length_b 8.677421
_cell_length_c 9.396289
_cell_angle_alpha 113.792696
_cell_angle_beta 139.965192
_cell_angle_gamma 61.254336
_cell_volume 354.940715
_symmetry_space_group_name_H-M "P 1"
_symmetry_group_IT_number 1
_symmetry_cell_setting 'triclinic'
loop_
_space_group_symop_operation_xyz
x,y,z
loop_
_atom_site_type_symbol
_atom_site_label
_atom_site_fract_x
_atom_site_fract_y
_atom_site_fract_z
Si Si1 0.775050 0.666030 0.165820
Si Si2 0.298940 0.028322 0.274042
Si Si3 0.210396 0.379821 0.500936
Si Si4 0.140726 0.843746 0.857391
Si Si5 0.868144 0.992127 0.468447
Si Si6 0.930942 0.352762 0.583817
Si Si7 0.606443 0.713177 0.527251
Si Si8 0.717418 0.515330 0.783894
O O1 0.851382 0.850108 0.285468
O O2 0.955386 0.546727 0.358026
O O3 0.446313 0.699597 0.007409
O O4 0.861181 0.573410 0.033060
O O5 0.151556 0.209823 0.327665
O O6 0.595215 0.041720 0.413286
O O7 0.348852 0.860323 0.350087
O O8 0.111044 0.999678 0.012701
O O9 0.197063 0.357509 0.655714
O O10 0.508109 0.404847 0.657779
O O11 0.123554 0.919852 0.714278
O O12 0.902901 0.752583 0.706429
O O13 0.885956 0.163606 0.459908
O O14 0.657199 0.514412 0.420380
O O15 0.960812 0.390186 0.787076
O O16 0.552462 0.692524 0.655701
#
# Coordination Sequence:
#
# PCOD8000066 Si02
#       8
#     1   1   1   1   1   1   1   1
#     4  11  24  41  69  97 132 177 215 266 335 377
#     4  10  21  38  67  99 132 171 217 270 331 377
#     4  12  24  42  68  99 134 170 221 274 315 399
#     4  10  21  40  67  96 133 173 217 271 319 395
#     4  10  21  43  64  95 135 170 220 271 318 392
#     4  10  22  43  67  93 132 174 213 267 329 374
#     4   9  21  41  65  93 130 176 211 268 321 387
#     4  10  24  44  67  96 134 171 216 271 322 387
#
# _framework density 22.538976999999999
#
# number of rings (size 3 to 8) (size 9 to 14) (size 15 to 20)
#    0.750    1.000    1.250    3.750    1.750    4.000 
#    0.000    7.500    0.000    0.000    0.000    0.000 
#    0.000    0.000    0.000    0.000    0.000    0.000 
#
# Total GULP energy -99116.479945 kJ/mol
# GULP energy per Si atom -12389.559993 kJ/mol
# Density = 2.248768 g / cm^3
# Si number density = 22.538977 Si / 1000 Ang^3
#
#
#
# Elastic Constant Matrix: (Units=GPa)
#
#
# Indices 1 2 3 4 5 6 
#
# 1 114.9683 39.8327 38.4055 13.4171 -30.1960 9.6313
# 2 39.8327 144.9073 38.4627 21.3380 -5.6689 11.4881
# 3 38.4055 38.4627 93.6545 23.4126 -13.9154 2.6221
# 4 13.4171 21.3380 23.4126 31.1147 -13.8696 -10.2873
# 5 -30.1960 -5.6689 -13.9154 -13.8696 28.5307 -0.2136
# 6 9.6313 11.4881 2.6221 -10.2873 -0.2136 36.8890
#
#
#
# Elastic Compliance Matrix: (Units=1/GPa)
#
#
# Indices 1 2 3 4 5 6 
#
# 1 0.014549 -0.003102 -0.003651 0.005168 0.015506 -0.001042
# 2 -0.003102 0.009437 -0.001307 -0.008337 -0.006131 -0.004397
# 3 -0.003651 -0.001307 0.015177 -0.010719 -0.001953 -0.002719
# 4 0.005168 -0.008337 -0.010719 0.063449 0.029579 0.019875
# 5 0.015506 -0.006131 -0.001953 0.029579 0.063719 0.006618
# 6 -0.001042 -0.004397 -0.002719 0.019875 0.006618 0.034524
#
#
# Mechanical properties :
#
#
# Convention : Reuss Voigt Hill
#
# Bulk Modulus (GPa) = 43.39850 65.21466 54.30658
# Shear Modulus (GPa) = 22.25613 35.09549 28.67581
#
# Velocity S-wave (km/s) = 3.14578 3.95029 3.57077
# Velocity P-wave (km/s) = 5.70011 7.05715 6.41462
#
# Compressibility (1/GPa) = 0.02304227
#
# Stress axis : x y z
#
# Youngs Moduli (GPa) = 68.73230 105.96559 65.88811
#
# Poissons Ratio (x) = 0.32871 0.24057
# Poissons Ratio (y) = 0.21321 0.08614
# Poissons Ratio (z) = 0.25096 0.13853
#
# Static dielectric constant tensor:
#      x y z
#    x 3.952390 0.081700 -0.293680 
#    y 0.081700 4.229020 0.062360 
#    z -0.293680 0.062360 3.885940 
# 
# 
# High freq. dielectric constant tensor:
#      x y z
#    x 1.883100 0.004480 -0.022080 
#    y 0.004480 1.897380 0.011830 
#    z -0.022080 0.011830 1.858440 
# 
# From -- ./inp_files/4484.got.cif
#   From: 2010.03.12/outbox.cif.g09.slc.cpg/sg1_3_cif.got.tgz:4484.got - 2010.03.29 11:57:58.
