data_PCOD8000949
_publ_section_title
;
Structure prediction by ZEFSAII (Michael W. Deem and Ramdas Pophale) SiO2 
 PCOD8000949
Probable space group: P -1
;
_chemical_formula_sum "Si O2"
_cell_formula_units_Z 16
_cell_length_a 15.302663
_cell_length_b 22.594429
_cell_length_c 17.153698
_cell_angle_alpha 21.427323
_cell_angle_beta 150.491938
_cell_angle_gamma 160.049758
_cell_volume 738.756462
_symmetry_space_group_name_H-M "P -1"
_symmetry_group_IT_number 2
_symmetry_cell_setting 'triclinic'
loop_
_space_group_symop_operation_xyz
x,y,z
-x,-y,-z
loop_
_atom_site_type_symbol
_atom_site_label
_atom_site_fract_x
_atom_site_fract_y
_atom_site_fract_z
Si Si1 0.939188 0.795341 0.464086
Si Si2 0.087715 0.269824 0.779829
Si Si3 0.923937 0.440919 0.205913
Si Si4 0.865272 0.374063 0.692402
Si Si5 0.802205 0.714556 0.978761
Si Si6 0.538382 0.378338 0.758369
Si Si7 0.576615 0.761414 0.989318
Si Si8 0.415634 0.892840 0.979779
O O1 0.799775 0.654818 0.610029
O O2 0.709740 0.669454 0.377816
O O3 0.114008 0.760157 0.616067
O O4 0.112723 0.070594 0.267613
O O5 0.099193 0.472254 0.537471
O O6 0.115887 0.213526 0.956319
O O7 0.319444 0.351428 0.807091
O O8 0.810696 0.037434 0.817014
O O9 0.646537 0.341475 0.119353
O O10 0.060703 0.497747 0.324828
O O11 0.105631 0.680374 0.000396
O O12 0.055281 0.347863 0.866656
O O13 0.564925 0.122757 0.760519
O O14 0.500000 0.500000 0.000000
O O15 0.545768 0.298506 0.946247
O O16 0.497777 0.224693 0.843495
O O17 0.500000 0.000000 0.000000
#
# Coordination Sequence:
#
# PCOD8000949 Si02
#       8
#     2   2   2   2   2   2   2   2
#     4  10  21  39  66  96 118 164 212 253 314 369
#     4  11  25  42  63  89 126 174 208 255 317 376
#     4  10  23  39  66  97 122 163 212 264 311 366
#     4  11  22  42  65  90 128 170 208 252 322 378
#     4  12  25  43  63  94 133 162 210 262 312 378
#     4  10  19  40  67  89 125 165 211 256 314 373
#     4  11  23  42  63  93 128 160 217 266 303 369
#     4   9  19  38  62  92 126 160 204 258 313 370
#
# _framework density 21.658017000000001
#
# number of rings (size 3 to 8) (size 9 to 14) (size 15 to 20)
#    0.000    1.500    2.500    1.875    3.500    3.500 
#    2.250    0.625    0.000    0.000    0.000    0.000 
#    0.000    0.000    0.000    0.000    0.000    0.000 
#
# Total GULP energy -198259.225110 kJ/mol
# GULP energy per Si atom -12391.201569 kJ/mol
# Density = 2.160872 g / cm^3
# Si number density = 21.658017 Si / 1000 Ang^3
#
#
#
# Elastic Constant Matrix: (Units=GPa)
#
#
# Indices 1 2 3 4 5 6 
#
# 1 71.7604 11.8982 27.3697 -1.1559 7.3913 10.9881
# 2 11.8982 113.1532 46.1127 -9.7581 8.5245 19.3078
# 3 27.3697 46.1127 133.7283 -24.5200 9.6100 14.1273
# 4 -1.1559 -9.7581 -24.5200 26.6089 0.0856 -4.1064
# 5 7.3913 8.5245 9.6100 0.0856 26.5874 1.2839
# 6 10.9881 19.3078 14.1273 -4.1064 1.2839 25.7891
#
#
#
# Elastic Compliance Matrix: (Units=1/GPa)
#
#
# Indices 1 2 3 4 5 6 
#
# 1 0.016256 0.000603 -0.003214 -0.002938 -0.003255 -0.005923
# 2 0.000603 0.011430 -0.003107 0.000290 -0.002375 -0.006948
# 3 -0.003214 -0.003107 0.011059 0.008786 -0.002095 -0.000860
# 4 -0.002938 0.000290 0.008786 0.046240 -0.002781 0.003723
# 5 -0.003255 -0.002375 -0.002095 -0.002781 0.039953 0.001881
# 6 -0.005923 -0.006948 -0.000860 0.003723 0.001881 0.047471
#
#
# Mechanical properties :
#
#
# Convention : Reuss Voigt Hill
#
# Bulk Modulus (GPa) = 36.61756 54.37812 45.49784
# Shear Modulus (GPa) = 25.91362 31.34785 28.63074
#
# Velocity S-wave (km/s) = 3.46279 3.80860 3.63980
# Velocity P-wave (km/s) = 5.73862 6.67104 6.22232
#
# Compressibility (1/GPa) = 0.02730930
#
# Stress axis : x y z
#
# Youngs Moduli (GPa) = 61.51562 87.49113 90.42161
#
# Poissons Ratio (x) = -0.05276 0.29062
# Poissons Ratio (y) = -0.03709 0.28092
# Poissons Ratio (z) = 0.19771 0.27182
#
# Static dielectric constant tensor:
#      x y z
#    x 3.941710 0.258140 -0.026940 
#    y 0.258140 3.814450 -0.338030 
#    z -0.026940 -0.338030 3.862040 
# 
# 
# High freq. dielectric constant tensor:
#      x y z
#    x 1.849470 0.021510 0.003840 
#    y 0.021510 1.839830 -0.021190 
#    z 0.003840 -0.021190 1.845360 
# 
# From -- ./inp_files/257358.got.cif
#   From: 2010.06.25/outbox.cif.g09.slc.cpg/sg2_129_cif.got.tgz:257358.got - 2010.06.27 13:26:56.
