data_PCOD8000742
_publ_section_title
;
Structure prediction by ZEFSAII (Michael W. Deem and Ramdas Pophale) SiO2 
 PCOD8000742
Probable space group: P -1
;
_chemical_formula_sum "Si O2"
_cell_formula_units_Z 14
_cell_length_a 11.708174
_cell_length_b 11.239796
_cell_length_c 11.057849
_cell_angle_alpha 43.223498
_cell_angle_beta 60.879620
_cell_angle_gamma 94.697944
_cell_volume 595.371620
_symmetry_space_group_name_H-M "P -1"
_symmetry_group_IT_number 2
_symmetry_cell_setting 'triclinic'
loop_
_space_group_symop_operation_xyz
x,y,z
-x,-y,-z
loop_
_atom_site_type_symbol
_atom_site_label
_atom_site_fract_x
_atom_site_fract_y
_atom_site_fract_z
Si Si1 0.469412 0.328176 0.399396
Si Si2 0.910159 0.882554 0.263322
Si Si3 0.896061 0.255569 0.617820
Si Si4 0.124454 0.359712 0.965097
Si Si5 0.866669 0.235941 0.384229
Si Si6 0.492372 0.149992 0.299184
Si Si7 0.744276 0.193159 0.977338
O O1 0.323216 0.349052 0.459863
O O2 0.666236 0.532975 0.222819
O O3 0.533207 0.359261 0.203859
O O4 0.334640 0.044785 0.731112
O O5 0.975010 0.762002 0.369533
O O6 0.000000 0.000000 0.000000
O O7 0.976824 0.097524 0.162749
O O8 0.823027 0.115042 0.629524
O O9 0.720129 0.136125 0.886734
O O10 0.029727 0.554643 0.303719
O O11 0.135684 0.558500 0.748874
O O12 0.061897 0.343203 0.149007
O O13 0.714550 0.028611 0.518641
O O14 0.500000 0.000000 0.500000
O O15 0.637694 0.262947 0.029098
#
# Coordination Sequence:
#
# PCOD8000742 Si02
#       7
#     2   2   2   2   2   2   2
#     4  11  21  45  71  98 128 177 227 271 324 402
#     4  12  26  46  66  94 142 182 213 267 342 402
#     4  11  25  40  63  98 137 177 215 277 336 388
#     4  11  24  42  73 100 128 176 228 271 327 400
#     4  11  22  40  70 102 130 167 228 284 320 383
#     4  10  19  39  69  99 128 166 228 279 319 386
#     4  10  21  42  64  95 131 169 231 269 325 388
#
# _framework density 23.514727000000001
#
# number of rings (size 3 to 8) (size 9 to 14) (size 15 to 20)
#    0.000    1.143    5.714    1.714    6.000    1.714 
#    2.571    1.429    0.000    0.000    0.000    0.000 
#    0.000    0.000    0.000    0.000    0.000    0.000 
#
# Total GULP energy -173440.911102 kJ/mol
# GULP energy per Si atom -12388.636507 kJ/mol
# Density = 2.346121 g / cm^3
# Si number density = 23.514727 Si / 1000 Ang^3
#
#
#
# Elastic Constant Matrix: (Units=GPa)
#
#
# Indices 1 2 3 4 5 6 
#
# 1 111.9128 40.5703 35.3666 27.8729 -16.1179 16.7277
# 2 40.5703 101.4126 27.0768 41.3066 -2.1890 9.5893
# 3 35.3666 27.0768 61.6874 29.1387 -9.3530 4.9619
# 4 27.8729 41.3066 29.1387 51.9585 0.0141 -4.2605
# 5 -16.1179 -2.1890 -9.3530 0.0141 33.6780 9.3833
# 6 16.7277 9.5893 4.9619 -4.2605 9.3833 32.6291
#
#
#
# Elastic Compliance Matrix: (Units=1/GPa)
#
#
# Indices 1 2 3 4 5 6 
#
# 1 0.014601 -0.001603 -0.002779 -0.005814 0.008873 -0.009903
# 2 -0.001603 0.016262 0.000821 -0.013059 0.002322 -0.006455
# 3 -0.002779 0.000821 0.025926 -0.014267 0.007846 -0.006878
# 4 -0.005814 -0.013059 -0.014267 0.042239 -0.012667 0.018146
# 5 0.008873 0.002322 0.007846 -0.012667 0.041881 -0.020122
# 6 -0.009903 -0.006455 -0.006878 0.018146 -0.020122 0.046823
#
#
# Mechanical properties :
#
#
# Convention : Reuss Voigt Hill
#
# Bulk Modulus (GPa) = 20.13462 53.44889 36.79176
# Shear Modulus (GPa) = 23.65055 35.11973 29.38514
#
# Velocity S-wave (km/s) = 3.17484 3.86880 3.53887
# Velocity P-wave (km/s) = 4.69261 6.53729 5.69020
#
# Compressibility (1/GPa) = 0.04966569
#
# Stress axis : x y z
#
# Youngs Moduli (GPa) = 68.48784 61.49176 38.57143
#
# Poissons Ratio (x) = 0.09858 0.10720
# Poissons Ratio (y) = 0.10980 -0.03165
# Poissons Ratio (z) = 0.19034 -0.05046
#
# Static dielectric constant tensor:
#      x y z
#    x 3.959400 0.125910 0.283870 
#    y 0.125910 4.388910 0.059160 
#    z 0.283870 0.059160 3.375760 
# 
# 
# High freq. dielectric constant tensor:
#      x y z
#    x 1.919060 0.003290 -0.010700 
#    y 0.003290 1.936750 0.029640 
#    z -0.010700 0.029640 1.911350 
# 
# From -- ./inp_files/424956.got.cif
#   From: 2010.06.25/outbox.cif.g09.slc.cpg/sg2_213_cif.got.tgz:424956.got - 2010.06.27 13:26:56.
