data_PCOD8000738
_publ_section_title
;
Structure prediction by ZEFSAII (Michael W. Deem and Ramdas Pophale) SiO2 
 PCOD8000738
Probable space group: P -1
;
_chemical_formula_sum "Si O2"
_cell_formula_units_Z 12
_cell_length_a 12.181771
_cell_length_b 8.923013
_cell_length_c 12.420205
_cell_angle_alpha 42.113263
_cell_angle_beta 35.831679
_cell_angle_gamma 56.648041
_cell_volume 525.387354
_symmetry_space_group_name_H-M "P -1"
_symmetry_group_IT_number 2
_symmetry_cell_setting 'triclinic'
loop_
_space_group_symop_operation_xyz
x,y,z
-x,-y,-z
loop_
_atom_site_type_symbol
_atom_site_label
_atom_site_fract_x
_atom_site_fract_y
_atom_site_fract_z
Si Si1 0.411043 0.534793 0.169070
Si Si2 0.920243 0.816462 0.425035
Si Si3 0.311252 0.015339 0.975888
Si Si4 0.953823 0.249653 0.414396
Si Si5 0.674465 0.198220 0.490139
Si Si6 0.709791 0.568574 0.086092
O O1 0.206014 0.387805 0.425521
O O2 0.541908 0.460924 0.199330
O O3 0.500000 0.500000 0.000000
O O4 0.401750 0.796614 0.056925
O O5 0.025845 0.701288 0.500872
O O6 0.779484 0.991811 0.477947
O O7 0.093366 0.941280 0.147827
O O8 0.446597 0.132687 0.710990
O O9 0.309261 0.179991 0.991784
O O10 0.747314 0.268315 0.516638
O O11 0.000000 0.000000 0.500000
O O12 0.099570 0.423314 0.138590
O O13 0.724068 0.408305 0.261291
#
# Coordination Sequence:
#
# PCOD8000738 Si02
#       6
#     2   2   2   2   2   2
#     4  12  24  45  68  99 133 176 224 274 329 391
#     4  11  24  44  69  99 131 178 222 272 330 391
#     4  12  25  44  70  97 132 178 230 267 322 400
#     4  10  19  39  69  97 128 172 221 270 319 384
#     4  11  24  42  69 101 139 167 222 276 333 391
#     4  12  24  42  73 100 132 178 217 276 334 390
#
# _framework density 22.840291000000001
#
# number of rings (size 3 to 8) (size 9 to 14) (size 15 to 20)
#    0.000    0.667    6.667    3.000    2.333    0.667 
#    0.000    0.833    0.000    0.000    0.000    0.000 
#    0.000    0.000    0.000    0.000    0.000    0.000 
#
# Total GULP energy -148736.780442 kJ/mol
# GULP energy per Si atom -12394.731703 kJ/mol
# Density = 2.278831 g / cm^3
# Si number density = 22.840291 Si / 1000 Ang^3
#
#
#
# Elastic Constant Matrix: (Units=GPa)
#
#
# Indices 1 2 3 4 5 6 
#
# 1 104.4626 16.9040 42.3366 -19.8636 -9.8386 2.9011
# 2 16.9040 68.9085 21.9669 -3.1872 4.1217 2.6503
# 3 42.3366 21.9669 162.6100 8.5321 -28.3312 -5.9463
# 4 -19.8636 -3.1872 8.5321 35.5663 -4.5866 -9.3171
# 5 -9.8386 4.1217 -28.3312 -4.5866 33.9280 -4.0717
# 6 2.9011 2.6503 -5.9463 -9.3171 -4.0717 12.5280
#
#
#
# Elastic Compliance Matrix: (Units=1/GPa)
#
#
# Indices 1 2 3 4 5 6 
#
# 1 0.013063 -0.002236 -0.002835 0.009305 0.003447 0.004143
# 2 -0.002236 0.016594 -0.002951 -0.001940 -0.006338 -0.007896
# 3 -0.002835 -0.002951 0.008956 -0.001108 0.007731 0.007221
# 4 0.009305 -0.001940 -0.001108 0.043960 0.012074 0.034347
# 5 0.003447 -0.006338 0.007731 0.012074 0.042576 0.027029
# 6 0.004143 -0.007896 0.007221 0.034347 0.027029 0.118288
#
#
# Mechanical properties :
#
#
# Convention : Reuss Voigt Hill
#
# Bulk Modulus (GPa) = 44.30836 55.37735 49.84286
# Shear Modulus (GPa) = 18.72639 33.38934 26.05787
#
# Velocity S-wave (km/s) = 2.86647 3.82758 3.38135
# Velocity P-wave (km/s) = 5.51333 6.62057 6.09216
#
# Compressibility (1/GPa) = 0.02256910
#
# Stress axis : x y z
#
# Youngs Moduli (GPa) = 76.55473 60.26197 111.66190
#
# Poissons Ratio (x) = 0.13473 0.31656
# Poissons Ratio (y) = 0.17116 0.32949
# Poissons Ratio (z) = 0.21703 0.17782
#
# Static dielectric constant tensor:
#      x y z
#    x 4.330160 0.084460 -0.304800 
#    y 0.084460 4.062130 0.133210 
#    z -0.304800 0.133210 4.447760 
# 
# 
# High freq. dielectric constant tensor:
#      x y z
#    x 1.879870 -0.003790 -0.024330 
#    y -0.003790 1.891160 0.005320 
#    z -0.024330 0.005320 1.918350 
# 
# From -- ./inp_files/184950.got.cif
#   From: 2010.06.25/outbox.cif.g09.slc.cpg/sg2_93_cif.got.tgz:184950.got - 2010.06.27 13:26:56.
