data_PCOD8000274
_publ_section_title
;
Structure prediction by ZEFSAII (Michael W. Deem and Ramdas Pophale) SiO2 
 PCOD8000274
Probable space group: P 1
;
_chemical_formula_sum "Si O2"
_cell_formula_units_Z 8
_cell_length_a 5.555449
_cell_length_b 10.339102
_cell_length_c 7.862366
_cell_angle_alpha 134.545562
_cell_angle_beta 81.283148
_cell_angle_gamma 95.383620
_cell_volume 318.085477
_symmetry_space_group_name_H-M "P 1"
_symmetry_group_IT_number 1
_symmetry_cell_setting 'triclinic'
loop_
_space_group_symop_operation_xyz
x,y,z
loop_
_atom_site_type_symbol
_atom_site_label
_atom_site_fract_x
_atom_site_fract_y
_atom_site_fract_z
Si Si1 0.887440 0.607600 0.200690
Si Si2 0.497795 0.905670 0.060311
Si Si3 0.230959 0.558889 0.799858
Si Si4 0.021254 0.030771 0.009781
Si Si5 0.290186 0.177845 0.568871
Si Si6 0.896593 0.005304 0.642094
Si Si7 0.101809 0.432740 0.357451
Si Si8 0.524494 0.312941 0.994668
O O1 0.997493 0.532050 0.294410
O O2 0.787416 0.811607 0.426384
O O3 0.669080 0.479925 0.052511
O O4 0.074036 0.610975 0.028432
O O5 0.769462 0.927172 0.981357
O O6 0.480614 0.021554 0.344543
O O7 0.463363 0.690605 0.897777
O O8 0.260325 0.971128 0.035920
O O9 0.303952 0.345514 0.592378
O O10 0.088760 0.574946 0.648099
O O11 0.963361 0.246031 0.241147
O O12 0.084404 0.985630 0.763467
O O13 0.333885 0.256875 0.822328
O O14 0.022703 0.089808 0.537882
O O15 0.687720 0.137713 0.859931
O O16 0.384511 0.376556 0.237886
#
# Coordination Sequence:
#
# PCOD8000274 Si02
#       8
#     1   1   1   1   1   1   1   1
#     4  12  27  49  75 113 151 204 261 326 391 470
#     4  12  30  49  77 116 156 207 261 325 395 469
#     4  12  26  51  75 113 157 202 266 323 392 474
#     4  12  26  52  78 112 157 205 262 324 393 470
#     4  12  26  47  75 107 154 209 255 325 393 464
#     4  12  26  48  77 107 156 203 262 323 395 463
#     4  12  26  49  80 111 157 205 262 323 400 465
#     4  12  25  47  75 113 150 211 257 323 395 461
#
# _framework density 25.150475
#
# number of rings (size 3 to 8) (size 9 to 14) (size 15 to 20)
#    0.000    0.000    7.500    1.500    5.250    3.000 
#    0.000    0.000    0.000    0.000    0.000    0.000 
#    0.000    0.000    0.000    0.000    0.000    0.000 
#
# Total GULP energy -99167.026907 kJ/mol
# GULP energy per Si atom -12395.878363 kJ/mol
# Density = 2.509323 g / cm^3
# Si number density = 25.150475 Si / 1000 Ang^3
#
#
#
# Elastic Constant Matrix: (Units=GPa)
#
#
# Indices 1 2 3 4 5 6 
#
# 1 98.8738 51.2765 8.5810 11.6581 1.1214 21.7346
# 2 51.2765 139.0407 48.8769 18.2550 3.1756 29.8322
# 3 8.5810 48.8769 100.2311 25.6652 15.9268 9.0890
# 4 11.6581 18.2550 25.6652 53.7848 0.1542 10.1083
# 5 1.1214 3.1756 15.9268 0.1542 27.6270 7.0551
# 6 21.7346 29.8322 9.0890 10.1083 7.0551 39.9689
#
#
#
# Elastic Compliance Matrix: (Units=1/GPa)
#
#
# Indices 1 2 3 4 5 6 
#
# 1 0.013334 -0.004518 0.001805 -0.001484 -0.000057 -0.003904
# 2 -0.004518 0.011957 -0.005662 0.000741 0.003602 -0.006003
# 3 0.001805 -0.005662 0.015367 -0.006329 -0.008996 0.002938
# 4 -0.001484 0.000741 -0.006329 0.022582 0.004737 -0.004854
# 5 -0.000057 0.003602 -0.008996 0.004737 0.043361 -0.009463
# 6 -0.003904 -0.006003 0.002938 -0.004854 -0.009463 0.033853
#
#
# Mechanical properties :
#
#
# Convention : Reuss Voigt Hill
#
# Bulk Modulus (GPa) = 41.82644 61.73495 51.78069
# Shear Modulus (GPa) = 30.27122 39.57020 34.92071
#
# Velocity S-wave (km/s) = 3.47306 3.97084 3.73026
# Velocity P-wave (km/s) = 5.72272 6.75447 6.25989
#
# Compressibility (1/GPa) = 0.02390832
#
# Stress axis : x y z
#
# Youngs Moduli (GPa) = 74.99518 83.63176 65.07492
#
# Poissons Ratio (x) = 0.37787 -0.11745
# Poissons Ratio (y) = 0.33884 0.36843
# Poissons Ratio (z) = -0.13535 0.47349
#
# Static dielectric constant tensor:
#      x y z
#    x 4.245420 0.014510 0.244860 
#    y 0.014510 5.062190 0.161420 
#    z 0.244860 0.161420 4.705000 
# 
# 
# High freq. dielectric constant tensor:
#      x y z
#    x 1.978280 0.009780 0.014210 
#    y 0.009780 2.020800 0.004240 
#    z 0.014210 0.004240 2.018920 
# 
# From -- ./inp_files/1701.got.cif
#   From: 2010.03.12/outbox.cif.g09.slc.cpg/sg1_1_cif.got.tgz:1701.got - 2010.03.29 11:57:58.
