data_PCOD8000375
_publ_section_title
;
Structure prediction by ZEFSAII (Michael W. Deem and Ramdas Pophale) SiO2 
 PCOD8000375
Probable space group: P -1
;
_chemical_formula_sum "Si O2"
_cell_formula_units_Z 16
_cell_length_a 5.134434
_cell_length_b 12.807500
_cell_length_c 12.237727
_cell_angle_alpha 68.930843
_cell_angle_beta 75.784354
_cell_angle_gamma 60.765832
_cell_volume 652.871556
_symmetry_space_group_name_H-M "P -1"
_symmetry_group_IT_number 2
_symmetry_cell_setting 'triclinic'
loop_
_space_group_symop_operation_xyz
x,y,z
-x,-y,-z
loop_
_atom_site_type_symbol
_atom_site_label
_atom_site_fract_x
_atom_site_fract_y
_atom_site_fract_z
Si Si1 0.395038 0.227707 0.809261
Si Si2 0.763832 0.648970 0.847128
Si Si3 0.291899 0.028951 0.347391
Si Si4 0.787215 0.090006 0.197788
Si Si5 0.526270 0.753266 0.456545
Si Si6 0.084946 0.845393 0.062562
Si Si7 0.919587 0.378210 0.953965
Si Si8 0.989904 0.719970 0.594213
O O1 0.400941 0.269100 0.669940
O O2 0.731298 0.157326 0.846954
O O3 0.247390 0.130630 0.874589
O O4 0.199687 0.351416 0.853288
O O5 0.446552 0.765769 0.816270
O O6 0.703983 0.526731 0.915201
O O7 0.973689 0.633944 0.726221
O O8 0.941793 0.668208 0.923404
O O9 0.619110 0.006529 0.277729
O O10 0.176100 0.134314 0.411208
O O11 0.070338 0.062293 0.254664
O O12 0.332387 0.900605 0.446341
O O13 0.900777 0.060076 0.069160
O O14 0.834749 0.696750 0.512039
O O15 0.333763 0.682280 0.542819
O O16 0.240645 0.707363 0.036913
#
# Coordination Sequence:
#
# PCOD8000375 Si02
#       8
#     2   2   2   2   2   2   2   2
#     4  10  22  41  61  88 124 169 204 243 296 372
#     4  10  20  41  65 101 121 158 198 258 316 360
#     4  11  23  39  64  92 121 160 206 258 309 357
#     4  11  20  38  61  97 127 148 198 265 308 358
#     4  12  24  44  63  86 123 175 206 244 306 360
#     4  10  19  39  60  87 127 162 192 252 302 359
#     4   9  21  40  67  94 126 157 200 247 318 371
#     4  11  23  40  64  91 124 156 209 260 295 358
#
# _framework density 24.507116
#
# number of rings (size 3 to 8) (size 9 to 14) (size 15 to 20)
#    0.750    0.750    1.250    6.000    0.000    0.500 
#    6.750    5.000    0.000    0.000    0.000    0.000 
#    0.000    0.000    0.000    0.000    0.000    0.000 
#
# Total GULP energy -198400.785487 kJ/mol
# GULP energy per Si atom -12400.049093 kJ/mol
# Density = 2.445134 g / cm^3
# Si number density = 24.507116 Si / 1000 Ang^3
#
#
#
# Elastic Constant Matrix: (Units=GPa)
#
#
# Indices 1 2 3 4 5 6 
#
# 1 155.8664 -7.8321 60.7199 7.4581 7.5966 14.1333
# 2 -7.8321 20.9061 0.1050 -7.9149 10.1986 3.0446
# 3 60.7199 0.1050 145.6955 23.6875 1.2774 17.1926
# 4 7.4581 -7.9149 23.6875 29.4306 7.4352 -0.6325
# 5 7.5966 10.1986 1.2774 7.4352 50.9214 0.5627
# 6 14.1333 3.0446 17.1926 -0.6325 0.5627 14.2985
#
#
#
# Elastic Compliance Matrix: (Units=1/GPa)
#
#
# Indices 1 2 3 4 5 6 
#
# 1 0.008558 0.006524 -0.003360 0.002893 -0.002860 -0.005569
# 2 0.006524 0.071384 -0.005300 0.026279 -0.018827 -0.013373
# 3 -0.003360 -0.005300 0.011042 -0.010398 0.002908 -0.009402
# 4 0.002893 0.026279 -0.010398 0.052145 -0.013124 0.006871
# 5 -0.002860 -0.018827 0.002908 -0.013124 0.025659 0.001749
# 6 -0.005569 -0.013373 -0.009402 0.006871 0.001749 0.089830
#
#
# Mechanical properties :
#
#
# Convention : Reuss Voigt Hill
#
# Bulk Modulus (GPa) = 11.53206 47.60596 29.56901
# Shear Modulus (GPa) = 17.13539 36.89511 27.01525
#
# Velocity S-wave (km/s) = 2.64711 3.88427 3.32376
# Velocity P-wave (km/s) = 3.74950 6.29160 5.17895
#
# Compressibility (1/GPa) = 0.08671477
#
# Stress axis : x y z
#
# Youngs Moduli (GPa) = 116.84604 14.00865 90.56243
#
# Poissons Ratio (x) = -0.09140 0.30425
# Poissons Ratio (y) = -0.76235 0.47997
# Poissons Ratio (z) = 0.39255 0.07424
#
# Static dielectric constant tensor:
#      x y z
#    x 4.413170 0.123480 -0.214040 
#    y 0.123480 4.146400 0.141270 
#    z -0.214040 0.141270 4.480810 
# 
# 
# High freq. dielectric constant tensor:
#      x y z
#    x 1.981760 0.008480 -0.007230 
#    y 0.008480 1.951960 0.014360 
#    z -0.007230 0.014360 1.986710 
# 
# From -- ./inp_files/367671.got.cif
#   From: 2010.06.25/outbox.cif.g09.slc.cpg/sg2_184_cif.got.tgz:367671.got - 2010.06.27 13:26:56.
