data_PCOD8000597
_publ_section_title
;
Structure prediction by ZEFSAII (Michael W. Deem and Ramdas Pophale) SiO2 
 PCOD8000597
Probable space group: P -1
;
_chemical_formula_sum "Si O2"
_cell_formula_units_Z 16
_cell_length_a 11.404773
_cell_length_b 15.863641
_cell_length_c 8.516364
_cell_angle_alpha 117.916183
_cell_angle_beta 112.694109
_cell_angle_gamma 119.582360
_cell_volume 705.911025
_symmetry_space_group_name_H-M "P -1"
_symmetry_group_IT_number 2
_symmetry_cell_setting 'triclinic'
loop_
_space_group_symop_operation_xyz
x,y,z
-x,-y,-z
loop_
_atom_site_type_symbol
_atom_site_label
_atom_site_fract_x
_atom_site_fract_y
_atom_site_fract_z
Si Si1 0.473047 0.744998 0.744207
Si Si2 0.247474 0.364577 0.703400
Si Si3 0.306646 0.829597 0.879696
Si Si4 0.885437 0.222403 0.583048
Si Si5 0.890872 0.623980 0.662554
Si Si6 0.027581 0.995196 0.690364
Si Si7 0.180409 0.941079 0.308275
Si Si8 0.561584 0.148551 0.467909
O O1 0.412761 0.791494 0.875195
O O2 0.281074 0.545579 0.474030
O O3 0.485884 0.791089 0.613639
O O4 0.708907 0.842958 0.992562
O O5 0.250971 0.402490 0.560008
O O6 0.141427 0.377064 0.782434
O O7 0.500000 0.500000 0.000000
O O8 0.087928 0.173717 0.462543
O O9 0.280616 0.873773 0.740682
O O10 0.061408 0.662721 0.686527
O O11 0.452188 0.981640 0.207203
O O12 0.838552 0.097126 0.550286
O O13 0.829593 0.282057 0.717186
O O14 0.024264 0.774487 0.981203
O O15 0.905646 0.006267 0.727247
O O16 0.000000 0.000000 0.500000
O O17 0.447260 0.099631 0.534125
#
# Coordination Sequence:
#
# PCOD8000597 Si02
#       8
#     2   2   2   2   2   2   2   2
#     4  11  21  39  66  93 122 166 214 248 310 372
#     4  11  23  44  65  93 126 164 210 259 309 373
#     4   9  19  38  67  91 121 164 209 264 302 369
#     4  10  19  39  65  89 125 157 209 253 310 368
#     4  10  23  40  62  94 130 163 207 259 315 364
#     4  12  24  40  65  92 122 165 215 255 310 381
#     4  11  24  40  62  94 129 166 203 259 319 370
#     4  10  21  39  64  94 122 165 209 263 309 364
#
# _framework density 22.665745999999999
#
# number of rings (size 3 to 8) (size 9 to 14) (size 15 to 20)
#    0.000    1.500    1.250    6.000    0.000    2.500 
#    2.250    2.500    0.000    0.000    0.000    0.000 
#    0.000    0.000    0.000    0.000    0.000    0.000 
#
# Total GULP energy -198306.142141 kJ/mol
# GULP energy per Si atom -12394.133884 kJ/mol
# Density = 2.261416 g / cm^3
# Si number density = 22.665746 Si / 1000 Ang^3
#
#
#
# Elastic Constant Matrix: (Units=GPa)
#
#
# Indices 1 2 3 4 5 6 
#
# 1 132.2679 18.4893 33.2616 4.8047 27.7555 2.3021
# 2 18.4893 83.8916 16.4921 2.4757 0.3758 2.5284
# 3 33.2616 16.4921 53.7685 5.0663 19.3570 4.9426
# 4 4.8047 2.4757 5.0663 31.2278 -6.6401 4.3948
# 5 27.7555 0.3758 19.3570 -6.6401 35.3418 0.6366
# 6 2.3021 2.5284 4.9426 4.3948 0.6366 31.7024
#
#
#
# Elastic Compliance Matrix: (Units=1/GPa)
#
#
# Indices 1 2 3 4 5 6 
#
# 1 0.010028 -0.001494 -0.003195 -0.002349 -0.006557 0.000346
# 2 -0.001494 0.013093 -0.004418 0.000733 0.003599 -0.000421
# 3 -0.003195 -0.004418 0.027697 -0.006206 -0.013733 -0.002598
# 4 -0.002349 0.000733 -0.006206 0.036516 0.012173 -0.004227
# 5 -0.006557 0.003599 -0.013733 0.012173 0.043220 -0.000225
# 6 0.000346 -0.000421 -0.002598 -0.004227 -0.000225 0.032547
#
#
# Mechanical properties :
#
#
# Convention : Reuss Voigt Hill
#
# Bulk Modulus (GPa) = 30.67027 45.15710 37.91369
# Shear Modulus (GPa) = 26.01689 33.10007 29.55848
#
# Velocity S-wave (km/s) = 3.39167 3.82561 3.61516
# Velocity P-wave (km/s) = 5.37576 6.28331 5.84717
#
# Compressibility (1/GPa) = 0.03260487
#
# Stress axis : x y z
#
# Youngs Moduli (GPa) = 99.72111 76.37799 36.10442
#
# Poissons Ratio (x) = 0.11409 0.11536
# Poissons Ratio (y) = 0.14896 0.15950
# Poissons Ratio (z) = 0.31862 0.33743
#
# Static dielectric constant tensor:
#      x y z
#    x 4.765110 0.153610 0.531200 
#    y 0.153610 4.261790 -0.002140 
#    z 0.531200 -0.002140 3.824800 
# 
# 
# High freq. dielectric constant tensor:
#      x y z
#    x 1.906970 0.008680 0.030240 
#    y 0.008680 1.905300 -0.008280 
#    z 0.030240 -0.008280 1.864670 
# 
# From -- ./inp_files/245110.got.cif
#   From: 2010.06.25/outbox.cif.g09.slc.cpg/sg2_123_cif.got.tgz:245110.got - 2010.06.27 13:26:56.
