data_PCOD8000831
_publ_section_title
;
Structure prediction by ZEFSAII (Michael W. Deem and Ramdas Pophale) SiO2 
 PCOD8000831
Probable space group: P -1
;
_chemical_formula_sum "Si O2"
_cell_formula_units_Z 16
_cell_length_a 13.808039
_cell_length_b 9.268648
_cell_length_c 11.272667
_cell_angle_alpha 135.140015
_cell_angle_beta 43.847549
_cell_angle_gamma 136.275915
_cell_volume 635.524786
_symmetry_space_group_name_H-M "P -1"
_symmetry_group_IT_number 2
_symmetry_cell_setting 'triclinic'
loop_
_space_group_symop_operation_xyz
x,y,z
-x,-y,-z
loop_
_atom_site_type_symbol
_atom_site_label
_atom_site_fract_x
_atom_site_fract_y
_atom_site_fract_z
Si Si1 0.467389 0.797892 0.723874
Si Si2 0.424097 0.149418 0.857321
Si Si3 0.752725 0.561674 0.824951
Si Si4 0.450090 0.222213 0.617703
Si Si5 0.207481 0.430114 0.464645
Si Si6 0.206540 0.051142 0.393871
Si Si7 0.939783 0.486349 0.820554
Si Si8 0.222563 0.336497 0.761722
O O1 0.552394 0.887825 0.572062
O O2 0.606503 0.861938 0.731162
O O3 0.350602 0.535138 0.682837
O O4 0.377405 0.958360 0.892488
O O5 0.590958 0.343016 0.860507
O O6 0.429443 0.070748 0.667162
O O7 0.285865 0.223300 0.021930
O O8 0.839257 0.563575 0.626629
O O9 0.876428 0.588780 0.832004
O O10 0.608342 0.449793 0.618044
O O11 0.308029 0.296684 0.779124
O O12 0.149581 0.172048 0.413038
O O13 0.124683 0.562852 0.689404
O O14 0.156169 0.120259 0.606390
O O15 0.134409 0.784902 0.281949
O O16 0.904393 0.580044 0.030809
#
# Coordination Sequence:
#
# PCOD8000831 Si02
#       8
#     2   2   2   2   2   2   2   2
#     4  11  20  37  66  94 128 164 204 273 315 361
#     4  10  20  35  63  94 123 161 216 262 307 376
#     4  10  22  40  60  94 126 163 216 262 307 374
#     4  10  19  40  62  91 129 162 210 264 315 364
#     4  11  23  41  65  89 132 170 203 260 318 378
#     4  11  23  43  63  97 128 165 214 256 317 376
#     4  12  25  43  66  93 129 174 207 257 320 374
#     4  11  23  42  68  93 130 163 212 270 306 373
#
# _framework density 25.176044000000001
#
# number of rings (size 3 to 8) (size 9 to 14) (size 15 to 20)
#    0.000    1.250    5.000    1.875    1.750    1.000 
#    0.000    0.000    0.000    2.250    0.000    0.000 
#    0.000    0.000    0.000    0.000    0.000    0.000 
#
# Total GULP energy -198251.850608 kJ/mol
# GULP energy per Si atom -12390.740663 kJ/mol
# Density = 2.511874 g / cm^3
# Si number density = 25.176044 Si / 1000 Ang^3
#
#
#
# Elastic Constant Matrix: (Units=GPa)
#
#
# Indices 1 2 3 4 5 6 
#
# 1 61.9348 10.4893 -4.9569 1.2050 -14.1642 -25.1225
# 2 10.4893 33.7508 2.0388 4.5244 0.0249 -14.7634
# 3 -4.9569 2.0388 74.3729 -6.8909 -7.3088 0.2916
# 4 1.2050 4.5244 -6.8909 29.2339 -3.4443 1.4960
# 5 -14.1642 0.0249 -7.3088 -3.4443 28.0466 10.9884
# 6 -25.1225 -14.7634 0.2916 1.4960 10.9884 32.1811
#
#
#
# Elastic Compliance Matrix: (Units=1/GPa)
#
#
# Indices 1 2 3 4 5 6 
#
# 1 0.024727 -0.000294 0.002154 -0.000594 0.006307 0.017024
# 2 -0.000294 0.041289 -0.003239 -0.009644 -0.011235 0.023027
# 3 0.002154 -0.003239 0.014764 0.004773 0.006450 -0.002362
# 4 -0.000594 -0.009644 0.004773 0.038491 0.009596 -0.009997
# 5 0.006307 -0.011235 0.006450 0.009596 0.048483 -0.017290
# 6 0.017024 0.023027 -0.002362 -0.009997 -0.017290 0.061317
#
#
# Mechanical properties :
#
#
# Convention : Reuss Voigt Hill
#
# Bulk Modulus (GPa) = 12.81681 20.57788 16.69734
# Shear Modulus (GPa) = 19.39208 28.72481 24.05844
#
# Velocity S-wave (km/s) = 2.77837 3.38147 3.09465
# Velocity P-wave (km/s) = 3.92356 4.84119 4.40633
#
# Compressibility (1/GPa) = 0.07802252
#
# Stress axis : x y z
#
# Youngs Moduli (GPa) = 40.44118 24.21932 67.73458
#
# Poissons Ratio (x) = 0.00711 -0.14591
# Poissons Ratio (y) = 0.01187 0.21942
# Poissons Ratio (z) = -0.08711 0.07845
#
# Static dielectric constant tensor:
#      x y z
#    x 4.751460 -0.506310 -0.258080 
#    y -0.506310 4.213320 0.074120 
#    z -0.258080 0.074120 4.994140 
# 
# 
# High freq. dielectric constant tensor:
#      x y z
#    x 2.010280 -0.032830 -0.012380 
#    y -0.032830 1.977320 0.012250 
#    z -0.012380 0.012250 2.009330 
# 
# From -- ./inp_files/187489.got.cif
#   From: 2010.06.25/outbox.cif.g09.slc.cpg/sg2_94_cif.got.tgz:187489.got - 2010.06.27 13:26:56.
