data_PCOD8000238
_publ_section_title
;
Structure prediction by ZEFSAII (Michael W. Deem and Ramdas Pophale) SiO2 
 PCOD8000238
Probable space group: P 1
;
_chemical_formula_sum "Si O2"
_cell_formula_units_Z 8
_cell_length_a 7.795010
_cell_length_b 6.749480
_cell_length_c 11.021633
_cell_angle_alpha 97.048235
_cell_angle_beta 141.248446
_cell_angle_gamma 77.886057
_cell_volume 354.090390
_symmetry_space_group_name_H-M "P 1"
_symmetry_group_IT_number 1
_symmetry_cell_setting 'triclinic'
loop_
_space_group_symop_operation_xyz
x,y,z
loop_
_atom_site_type_symbol
_atom_site_label
_atom_site_fract_x
_atom_site_fract_y
_atom_site_fract_z
Si Si1 0.849620 0.216720 0.838760
Si Si2 0.683004 0.357033 0.017222
Si Si3 0.011734 0.148764 0.378055
Si Si4 0.485016 0.940857 0.472004
Si Si5 0.474755 0.027316 0.190853
Si Si6 0.186202 0.163884 0.726755
Si Si7 0.832505 0.529765 0.672169
Si Si8 0.323754 0.750886 0.903833
O O1 0.811671 0.233148 0.962212
O O2 0.752435 0.446251 0.752003
O O3 0.691344 0.051649 0.675549
O O4 0.181562 0.156734 0.988073
O O5 0.457505 0.231353 0.939362
O O6 0.542061 0.590617 0.932447
O O7 0.914449 0.342547 0.250715
O O8 0.752740 0.099209 0.307310
O O9 0.224543 0.187610 0.603848
O O10 0.179630 0.975946 0.368802
O O11 0.574755 0.696271 0.495915
O O12 0.469585 0.021905 0.332611
O O13 0.489996 0.811420 0.116515
O O14 0.902012 0.321590 0.615672
O O15 0.180959 0.933426 0.749368
O O16 0.093180 0.641655 0.827401
#
# Coordination Sequence:
#
# PCOD8000238 Si02
#       8
#     1   1   1   1   1   1   1   1
#     4  12  24  50  69 100 147 182 236 291 341 419
#     4  11  25  44  72 102 138 190 231 282 354 411
#     4  12  25  45  72 105 142 183 231 292 346 414
#     4  12  27  47  71 106 141 185 233 292 348 412
#     4  12  24  47  73  99 144 183 232 290 347 411
#     4  11  23  47  71  98 144 181 235 289 344 416
#     4  11  23  44  72 101 134 194 227 281 358 407
#     4  11  23  46  72 101 138 188 231 285 350 414
#
# _framework density 22.593101000000001
#
# number of rings (size 3 to 8) (size 9 to 14) (size 15 to 20)
#    0.000    0.500    6.250    2.250    3.500    0.000 
#    6.750    0.000    0.000    0.000    0.000    0.000 
#    0.000    0.000    0.000    0.000    0.000    0.000 
#
# Total GULP energy -99117.403849 kJ/mol
# GULP energy per Si atom -12389.675481 kJ/mol
# Density = 2.254168 g / cm^3
# Si number density = 22.593101 Si / 1000 Ang^3
#
#
#
# Elastic Constant Matrix: (Units=GPa)
#
#
# Indices 1 2 3 4 5 6 
#
# 1 116.4627 29.3097 30.2145 -9.2919 -6.6698 -13.2397
# 2 29.3097 120.2428 31.6874 -24.0576 -4.4872 -6.1108
# 3 30.2145 31.6874 94.1492 -11.9072 -19.2176 -4.2857
# 4 -9.2919 -24.0576 -11.9072 35.4226 -5.5579 -2.0958
# 5 -6.6698 -4.4872 -19.2176 -5.5579 41.8274 -2.6959
# 6 -13.2397 -6.1108 -4.2857 -2.0958 -2.6959 33.6126
#
#
#
# Elastic Compliance Matrix: (Units=1/GPa)
#
#
# Indices 1 2 3 4 5 6 
#
# 1 0.010082 -0.001391 -0.002278 0.001273 0.000811 0.003572
# 2 -0.001391 0.010586 -0.002050 0.006374 0.000921 0.001587
# 3 -0.002278 -0.002050 0.013873 0.003746 0.006369 0.001243
# 4 0.001273 0.006374 0.003746 0.035650 0.007666 0.004975
# 5 0.000811 0.000921 0.006369 0.007666 0.028342 0.004050
# 6 0.003572 0.001587 0.001243 0.004975 0.004050 0.032240
#
#
# Mechanical properties :
#
#
# Convention : Reuss Voigt Hill
#
# Bulk Modulus (GPa) = 43.28543 57.03086 50.15815
# Shear Modulus (GPa) = 33.35320 38.14872 35.75096
#
# Velocity S-wave (km/s) = 3.84638 4.11361 3.98223
# Velocity P-wave (km/s) = 6.23910 6.91808 6.58734
#
# Compressibility (1/GPa) = 0.02310246
#
# Stress axis : x y z
#
# Youngs Moduli (GPa) = 99.19117 94.46380 72.08291
#
# Poissons Ratio (x) = 0.13136 0.16422
# Poissons Ratio (y) = 0.13793 0.14779
# Poissons Ratio (z) = 0.22598 0.19368
#
# Static dielectric constant tensor:
#      x y z
#    x 4.230600 -0.225580 -0.004250 
#    y -0.225580 4.009010 -0.138010 
#    z -0.004250 -0.138010 4.234920 
# 
# 
# High freq. dielectric constant tensor:
#      x y z
#    x 1.909510 -0.010860 -0.003840 
#    y -0.010860 1.873580 -0.008640 
#    z -0.003840 -0.008640 1.893500 
# 
# From -- ./inp_files/1698.got.cif
#   From: 2010.03.12/outbox.cif.g09.slc.cpg/sg1_1_cif.got.tgz:1698.got - 2010.03.29 11:57:58.
