data_PCOD8000386
_publ_section_title
;
Structure prediction by ZEFSAII (Michael W. Deem and Ramdas Pophale) SiO2 
 PCOD8000386
Probable space group: P -1
;
_chemical_formula_sum "Si O2"
_cell_formula_units_Z 16
_cell_length_a 11.672355
_cell_length_b 8.014151
_cell_length_c 12.179566
_cell_angle_alpha 92.216856
_cell_angle_beta 58.994168
_cell_angle_gamma 57.092822
_cell_volume 735.148513
_symmetry_space_group_name_H-M "P -1"
_symmetry_group_IT_number 2
_symmetry_cell_setting 'triclinic'
loop_
_space_group_symop_operation_xyz
x,y,z
-x,-y,-z
loop_
_atom_site_type_symbol
_atom_site_label
_atom_site_fract_x
_atom_site_fract_y
_atom_site_fract_z
Si Si1 0.001743 0.338327 0.350938
Si Si2 0.574512 0.166605 0.635145
Si Si3 0.789472 0.389005 0.263452
Si Si4 0.066390 0.258046 0.959614
Si Si5 0.164606 0.883900 0.337759
Si Si6 0.456609 0.914819 0.767472
Si Si7 0.204836 0.488208 0.313239
Si Si8 0.263517 0.941734 0.671036
O O1 0.122097 0.405433 0.281552
O O2 0.871954 0.447304 0.313334
O O3 0.887664 0.434028 0.520217
O O4 0.126309 0.068871 0.278138
O O5 0.394566 0.387178 0.681591
O O6 0.660084 0.226054 0.679203
O O7 0.543711 0.023329 0.712154
O O8 0.710693 0.013941 0.464289
O O9 0.761751 0.234927 0.329845
O O10 0.923917 0.258951 0.091274
O O11 0.258552 0.091363 0.922024
O O12 0.093211 0.170853 0.818480
O O13 0.000000 0.500000 0.000000
O O14 0.185341 0.683598 0.265393
O O15 0.000000 0.000000 0.500000
O O16 0.584027 0.709147 0.780435
O O17 0.438734 0.837870 0.655388
#
# Coordination Sequence:
#
# PCOD8000386 Si02
#       8
#     2   2   2   2   2   2   2   2
#     4  10  22  37  62  91 134 160 213 262 326 376
#     4  12  21  38  68  99 130 160 214 274 317 386
#     4  12  22  42  63  99 130 166 212 268 321 383
#     4  10  23  42  57  90 132 174 207 264 320 384
#     4  10  21  39  61  94 134 161 210 264 329 377
#     4  10  21  37  63  91 127 166 217 254 321 376
#     4  10  19  39  60  92 125 172 205 267 321 379
#     4  10  22  35  62  94 123 164 212 263 322 370
#
# _framework density 21.764312
#
# number of rings (size 3 to 8) (size 9 to 14) (size 15 to 20)
#    0.750    0.750    2.500    4.125    0.000    1.000 
#    4.500    0.625    0.000    0.750    0.000    0.000 
#    0.000    0.000    0.000    0.000    0.000    0.000 
#
# Total GULP energy -198322.067963 kJ/mol
# GULP energy per Si atom -12395.129248 kJ/mol
# Density = 2.171478 g / cm^3
# Si number density = 21.764312 Si / 1000 Ang^3
#
#
#
# Elastic Constant Matrix: (Units=GPa)
#
#
# Indices 1 2 3 4 5 6 
#
# 1 119.9368 36.4103 4.2903 7.0277 -18.0014 9.8693
# 2 36.4103 104.1664 12.7417 23.4557 -7.7969 15.4144
# 3 4.2903 12.7417 70.4239 6.6635 -5.5547 1.3933
# 4 7.0277 23.4557 6.6635 23.3538 -1.2140 -5.2655
# 5 -18.0014 -7.7969 -5.5547 -1.2140 22.5610 2.0337
# 6 9.8693 15.4144 1.3933 -5.2655 2.0337 37.7441
#
#
#
# Elastic Compliance Matrix: (Units=1/GPa)
#
#
# Indices 1 2 3 4 5 6 
#
# 1 0.010519 -0.002674 0.000569 -0.000734 0.007768 -0.002200
# 2 -0.002674 0.015780 -0.000731 -0.016526 0.002989 -0.008185
# 3 0.000569 -0.000731 0.014975 -0.003768 0.003787 -0.001133
# 4 -0.000734 -0.016526 -0.003768 0.064118 -0.005245 0.016308
# 5 0.007768 0.002989 0.003787 -0.005245 0.052834 -0.006970
# 6 -0.002200 -0.008185 -0.001133 0.016308 -0.006970 0.033105
#
#
# Mechanical properties :
#
#
# Convention : Reuss Voigt Hill
#
# Bulk Modulus (GPa) = 28.08825 44.60131 36.34478
# Shear Modulus (GPa) = 23.93827 32.80410 28.37118
#
# Velocity S-wave (km/s) = 3.32005 3.88653 3.61441
# Velocity P-wave (km/s) = 5.25649 6.37790 5.84415
#
# Compressibility (1/GPa) = 0.03560208
#
# Stress axis : x y z
#
# Youngs Moduli (GPa) = 95.06459 63.37054 66.77783
#
# Poissons Ratio (x) = 0.16945 -0.03798
# Poissons Ratio (y) = 0.25420 0.04880
# Poissons Ratio (z) = -0.05406 0.04631
#
# Static dielectric constant tensor:
#      x y z
#    x 3.832680 0.323080 -0.309280 
#    y 0.323080 4.337700 0.184900 
#    z -0.309280 0.184900 3.747820 
# 
# 
# High freq. dielectric constant tensor:
#      x y z
#    x 1.858940 0.013250 -0.025170 
#    y 0.013250 1.858720 0.010980 
#    z -0.025170 0.010980 1.820810 
# 
# From -- ./inp_files/511952.got.cif
#   From: 2010.06.25/outbox.cif.g09.slc.cpg/sg2_256_cif.got.tgz:511952.got - 2010.06.27 13:26:56.
