data_PCOD8000844
_publ_section_title
;
Structure prediction by ZEFSAII (Michael W. Deem and Ramdas Pophale) SiO2 
 PCOD8000844
Probable space group: P -1
;
_chemical_formula_sum "Si O2"
_cell_formula_units_Z 16
_cell_length_a 8.553851
_cell_length_b 9.106314
_cell_length_c 15.193948
_cell_angle_alpha 119.041996
_cell_angle_beta 77.171155
_cell_angle_gamma 133.420018
_cell_volume 739.839974
_symmetry_space_group_name_H-M "P -1"
_symmetry_group_IT_number 2
_symmetry_cell_setting 'triclinic'
loop_
_space_group_symop_operation_xyz
x,y,z
-x,-y,-z
loop_
_atom_site_type_symbol
_atom_site_label
_atom_site_fract_x
_atom_site_fract_y
_atom_site_fract_z
Si Si1 0.247913 0.923164 0.591275
Si Si2 0.591469 0.379454 0.951474
Si Si3 0.445379 0.170419 0.467374
Si Si4 0.788229 0.010434 0.741437
Si Si5 0.251990 0.487115 0.843153
Si Si6 0.458774 0.947825 0.888804
Si Si7 0.435245 0.600505 0.229709
Si Si8 0.779911 0.622298 0.636713
O O1 0.361532 0.825125 0.543805
O O2 0.999536 0.716028 0.590378
O O3 0.257987 0.014928 0.519740
O O4 0.366500 0.126801 0.706290
O O5 0.404698 0.097453 0.901733
O O6 0.691149 0.441927 0.858090
O O7 0.500000 0.500000 0.000000
O O8 0.763378 0.477171 0.039196
O O9 0.337511 0.074710 0.359225
O O10 0.571783 0.437610 0.544982
O O11 0.794248 0.825822 0.720140
O O12 0.675403 0.046903 0.838219
O O13 0.034638 0.246352 0.765647
O O14 0.461456 0.513635 0.814323
O O15 0.279823 0.670337 0.828263
O O16 0.500000 0.000000 0.000000
O O17 0.260965 0.502375 0.301427
#
# Coordination Sequence:
#
# PCOD8000844 Si02
#       8
#     2   2   2   2   2   2   2   2
#     4  10  21  42  63  91 130 170 215 271 318 385
#     4   9  20  39  66  90 126 171 211 262 320 378
#     4  10  24  40  62  93 134 170 218 268 322 382
#     4  12  23  40  66  97 130 176 213 267 327 383
#     4  10  21  40  64  92 131 168 215 265 321 382
#     4  10  22  41  64  93 129 166 212 266 320 378
#     4  10  19  40  63  92 128 170 212 270 317 379
#     4  11  22  39  67  94 129 172 222 266 325 384
#
# _framework density 21.626297999999998
#
# number of rings (size 3 to 8) (size 9 to 14) (size 15 to 20)
#    0.000    1.750    2.500    1.500    0.000    3.500 
#    0.000   10.625    0.000    0.000    0.000    0.000 
#    0.000    0.000    0.000    0.000    0.000    0.000 
#
# Total GULP energy -198218.239494 kJ/mol
# GULP energy per Si atom -12388.639968 kJ/mol
# Density = 2.157708 g / cm^3
# Si number density = 21.626298 Si / 1000 Ang^3
#
#
#
# Elastic Constant Matrix: (Units=GPa)
#
#
# Indices 1 2 3 4 5 6 
#
# 1 50.5003 50.4013 22.7035 -3.9961 -5.7693 -5.7531
# 2 50.4013 157.0684 51.9446 2.4071 1.6361 -0.4267
# 3 22.7035 51.9446 99.4466 -14.5997 -8.0950 11.2617
# 4 -3.9961 2.4071 -14.5997 41.9400 -4.1313 -14.0337
# 5 -5.7693 1.6361 -8.0950 -4.1313 21.6076 7.6946
# 6 -5.7531 -0.4267 11.2617 -14.0337 7.6946 37.1977
#
#
#
# Elastic Compliance Matrix: (Units=1/GPa)
#
#
# Indices 1 2 3 4 5 6 
#
# 1 0.032636 -0.010224 -0.001236 0.006040 0.008074 0.005913
# 2 -0.010224 0.011283 -0.004581 -0.003905 -0.005937 -0.000310
# 3 -0.001236 -0.004581 0.014555 0.004451 0.007966 -0.004619
# 4 0.006040 -0.003905 0.004451 0.029999 0.005877 0.009644
# 5 0.008074 -0.005937 0.007966 0.005877 0.056828 -0.010769
# 6 0.005913 -0.000310 -0.004619 0.009644 -0.010769 0.035059
#
#
# Mechanical properties :
#
#
# Convention : Reuss Voigt Hill
#
# Bulk Modulus (GPa) = 37.88942 61.90156 49.89549
# Shear Modulus (GPa) = 22.59993 32.28011 27.44002
#
# Velocity S-wave (km/s) = 3.23619 3.86765 3.56592
# Velocity P-wave (km/s) = 5.61444 6.97355 6.33057
#
# Compressibility (1/GPa) = 0.02639259
#
# Stress axis : x y z
#
# Youngs Moduli (GPa) = 30.64126 88.62640 68.70261
#
# Poissons Ratio (x) = 0.90615 0.08490
# Poissons Ratio (y) = 0.31329 0.31472
# Poissons Ratio (z) = 0.03786 0.40599
#
# Static dielectric constant tensor:
#      x y z
#    x 3.701080 -0.530180 -0.220830 
#    y -0.530180 4.374630 -0.037210 
#    z -0.220830 -0.037210 4.265510 
# 
# 
# High freq. dielectric constant tensor:
#      x y z
#    x 1.813310 -0.029580 -0.022010 
#    y -0.029580 1.858150 -0.000670 
#    z -0.022010 -0.000670 1.869000 
# 
# From -- ./inp_files/208179.got.cif
#   From: 2010.06.25/outbox.cif.g09.slc.cpg/sg2_105_cif.got.tgz:208179.got - 2010.06.27 13:26:56.
