data_PCOD8000516
_publ_section_title
;
Structure prediction by ZEFSAII (Michael W. Deem and Ramdas Pophale) SiO2 
 PCOD8000516
Probable space group: P -1
;
_chemical_formula_sum "Si O2"
_cell_formula_units_Z 14
_cell_length_a 8.722000
_cell_length_b 11.142001
_cell_length_c 10.045344
_cell_angle_alpha 66.113630
_cell_angle_beta 40.439176
_cell_angle_gamma 63.851734
_cell_volume 564.340384
_symmetry_space_group_name_H-M "P -1"
_symmetry_group_IT_number 2
_symmetry_cell_setting 'triclinic'
loop_
_space_group_symop_operation_xyz
x,y,z
-x,-y,-z
loop_
_atom_site_type_symbol
_atom_site_label
_atom_site_fract_x
_atom_site_fract_y
_atom_site_fract_z
Si Si1 0.806716 0.082079 0.279163
Si Si2 0.641412 0.245718 0.804094
Si Si3 0.200663 0.469397 0.994677
Si Si4 0.815112 0.957943 0.742705
Si Si5 0.807378 0.275900 0.970595
Si Si6 0.854697 0.716357 0.659894
Si Si7 0.283500 0.207065 0.558013
O O1 0.545177 0.162814 0.474841
O O2 0.027278 0.113295 0.204078
O O3 0.823902 0.923508 0.348923
O O4 0.826566 0.131358 0.093121
O O5 0.643448 0.279531 0.945829
O O6 0.884665 0.263934 0.565454
O O7 0.612580 0.091645 0.860795
O O8 0.419680 0.355598 0.840279
O O9 0.294430 0.603675 0.911690
O O10 0.105899 0.419188 0.219423
O O11 0.000000 0.500000 0.000000
O O12 0.709537 0.840102 0.794556
O O13 0.000000 0.000000 0.500000
O O14 0.080584 0.294763 0.747346
O O15 0.693614 0.715262 0.632548
#
# Coordination Sequence:
#
# PCOD8000516 Si02
#       7
#     2   2   2   2   2   2   2
#     4  11  20  38  63  96 126 150 204 252 304 360
#     4  10  23  42  64  89 120 167 201 252 312 349
#     4  12  27  43  59  92 123 166 213 243 298 370
#     4  10  19  39  63  91 124 157 197 250 311 358
#     4  11  23  41  63  91 128 162 201 250 299 367
#     4  10  22  44  64  90 126 159 202 252 306 367
#     4  10  22  37  65  99 118 157 203 253 309 354
#
# _framework density 24.807721000000001
#
# number of rings (size 3 to 8) (size 9 to 14) (size 15 to 20)
#    0.000    1.429    4.286    2.571    0.000    6.857 
#    0.000    0.000    0.000    0.000    0.000    0.000 
#    0.000    0.000    0.000    0.000    0.000    0.000 
#
# Total GULP energy -173601.073577 kJ/mol
# GULP energy per Si atom -12400.076684 kJ/mol
# Density = 2.475126 g / cm^3
# Si number density = 24.807721 Si / 1000 Ang^3
#
#
#
# Elastic Constant Matrix: (Units=GPa)
#
#
# Indices 1 2 3 4 5 6 
#
# 1 109.0730 54.6138 6.0750 11.0743 7.2928 -18.7265
# 2 54.6138 127.2388 26.6628 11.0286 4.7173 -11.2354
# 3 6.0750 26.6628 51.6753 -0.2067 22.3084 -12.1872
# 4 11.0743 11.0286 -0.2067 47.1468 -12.6552 0.5737
# 5 7.2928 4.7173 22.3084 -12.6552 23.0102 -2.7441
# 6 -18.7265 -11.2354 -12.1872 0.5737 -2.7441 45.1920
#
#
#
# Elastic Compliance Matrix: (Units=1/GPa)
#
#
# Indices 1 2 3 4 5 6 
#
# 1 0.014696 -0.006724 0.009825 -0.006042 -0.015386 0.006210
# 2 -0.006724 0.012251 -0.010431 0.001457 0.010302 -0.001947
# 3 0.009825 -0.010431 0.051192 -0.015239 -0.057558 0.011981
# 4 -0.006042 0.001457 -0.015239 0.031124 0.032954 -0.004645
# 5 -0.015386 0.010302 -0.057558 0.032954 0.118653 -0.012550
# 6 0.006210 -0.001947 0.011981 -0.004645 -0.012550 0.026745
#
#
# Mechanical properties :
#
#
# Convention : Reuss Voigt Hill
#
# Bulk Modulus (GPa) = 15.75375 51.41002 33.58188
# Shear Modulus (GPa) = 17.21276 36.44550 26.82913
#
# Velocity S-wave (km/s) = 2.63695 3.83707 3.29216
# Velocity P-wave (km/s) = 3.95417 6.35603 5.29314
#
# Compressibility (1/GPa) = 0.06347696
#
# Stress axis : x y z
#
# Youngs Moduli (GPa) = 68.04487 81.62456 19.53447
#
# Poissons Ratio (x) = 0.54886 -0.19192
# Poissons Ratio (y) = 0.45755 0.20377
# Poissons Ratio (z) = -0.66851 0.85145
#
# Static dielectric constant tensor:
#      x y z
#    x 4.488380 0.010270 -0.037930 
#    y 0.010270 4.566200 0.055890 
#    z -0.037930 0.055890 4.632960 
# 
# 
# High freq. dielectric constant tensor:
#      x y z
#    x 1.975940 -0.013810 -0.011600 
#    y -0.013810 1.985190 0.000340 
#    z -0.011600 0.000340 2.004190 
# 
# From -- ./inp_files/185627.got.cif
#   From: 2010.06.25/outbox.cif.g09.slc.cpg/sg2_93_cif.got.tgz:185627.got - 2010.06.27 13:26:56.
