data_PCOD8000431
_publ_section_title
;
Structure prediction by ZEFSAII (Michael W. Deem and Ramdas Pophale) SiO2 
 PCOD8000431
Probable space group: P -1
;
_chemical_formula_sum "Si O2"
_cell_formula_units_Z 14
_cell_length_a 9.242762
_cell_length_b 20.205991
_cell_length_c 5.267158
_cell_angle_alpha 86.026868
_cell_angle_beta 128.609602
_cell_angle_gamma 105.031164
_cell_volume 736.767987
_symmetry_space_group_name_H-M "P -1"
_symmetry_group_IT_number 2
_symmetry_cell_setting 'triclinic'
loop_
_space_group_symop_operation_xyz
x,y,z
-x,-y,-z
loop_
_atom_site_type_symbol
_atom_site_label
_atom_site_fract_x
_atom_site_fract_y
_atom_site_fract_z
Si Si1 0.804804 0.518689 0.730562
Si Si2 0.915851 0.801596 0.587894
Si Si3 0.140567 0.131677 0.979306
Si Si4 0.605752 0.962748 0.820968
Si Si5 0.741528 0.646377 0.423398
Si Si6 0.566689 0.590696 0.739469
Si Si7 0.769845 0.086737 0.308802
O O1 0.849866 0.585809 0.576501
O O2 0.654459 0.453097 0.453386
O O3 0.702540 0.538030 0.869511
O O4 0.000000 0.500000 0.000000
O O5 0.793721 0.821181 0.214367
O O6 0.898576 0.720479 0.586074
O O7 0.140650 0.844965 0.784828
O O8 0.836126 0.820719 0.760996
O O9 0.917362 0.086542 0.704777
O O10 0.275935 0.081694 0.183562
O O11 0.439146 0.911651 0.821882
O O12 0.500000 0.000000 0.500000
O O13 0.752433 0.017717 0.145101
O O14 0.625366 0.638957 0.035489
O O15 0.593402 0.638456 0.501954
#
# Coordination Sequence:
#
# PCOD8000431 Si02
#       7
#     2   2   2   2   2   2   2
#     4   9  20  35  62  91 116 147 196 241 283 331
#     4  10  22  40  62  83 117 164 195 234 295 356
#     4  10  23  40  62  84 116 153 199 241 289 357
#     4  11  22  38  63  89 116 150 197 252 301 337
#     4  10  19  39  62  78 123 158 187 236 292 337
#     4   9  20  36  60  86 116 150 194 237 282 335
#     4   9  23  37  61  88 118 150 198 245 296 352
#
# _framework density 19.001911
#
# number of rings (size 3 to 8) (size 9 to 14) (size 15 to 20)
#    1.714    0.571    0.000    2.571    4.000    1.714 
#    0.000    1.429    9.429    0.000    0.000    0.000 
#    0.000    0.000    0.000    0.000    0.000    0.000 
#
# Total GULP energy -173450.102174 kJ/mol
# GULP energy per Si atom -12389.293012 kJ/mol
# Density = 1.895866 g / cm^3
# Si number density = 19.001911 Si / 1000 Ang^3
#
#
#
# Elastic Constant Matrix: (Units=GPa)
#
#
# Indices 1 2 3 4 5 6 
#
# 1 78.1002 55.9704 50.7938 15.8180 2.8112 9.5965
# 2 55.9704 119.8358 47.9899 18.1493 5.1301 22.1615
# 3 50.7938 47.9899 103.9544 12.0411 -15.2135 -3.5503
# 4 15.8180 18.1493 12.0411 25.2575 -2.9501 -5.0266
# 5 2.8112 5.1301 -15.2135 -2.9501 39.7221 2.1918
# 6 9.5965 22.1615 -3.5503 -5.0266 2.1918 19.6128
#
#
#
# Elastic Compliance Matrix: (Units=1/GPa)
#
#
# Indices 1 2 3 4 5 6 
#
# 1 0.027384 -0.003113 -0.011861 -0.012900 -0.006229 -0.014639
# 2 -0.003113 0.019986 -0.007630 -0.014445 -0.004944 -0.025591
# 3 -0.011861 -0.007630 0.019955 0.008262 0.009025 0.019146
# 4 -0.012900 -0.014445 0.008262 0.062922 0.008447 0.039312
# 5 -0.006229 -0.004944 0.009025 0.008447 0.029836 0.009098
# 6 -0.014639 -0.025591 0.019146 0.039312 0.009098 0.099591
#
#
# Mechanical properties :
#
#
# Convention : Reuss Voigt Hill
#
# Bulk Modulus (GPa) = 45.21111 67.93316 56.57213
# Shear Modulus (GPa) = 16.01262 26.72758 21.37010
#
# Velocity S-wave (km/s) = 2.90605 3.75450 3.35719
# Velocity P-wave (km/s) = 5.92493 7.39076 6.69806
#
# Compressibility (1/GPa) = 0.02211846
#
# Stress axis : x y z
#
# Youngs Moduli (GPa) = 36.51737 50.03497 50.11303
#
# Poissons Ratio (x) = 0.15574 0.59438
# Poissons Ratio (y) = 0.11367 0.38236
# Poissons Ratio (z) = 0.43312 0.38176
#
# Static dielectric constant tensor:
#      x y z
#    x 3.319040 0.175910 -0.186850 
#    y 0.175910 3.290840 0.127580 
#    z -0.186850 0.127580 3.294980 
# 
# 
# High freq. dielectric constant tensor:
#      x y z
#    x 1.721370 0.015350 -0.019640 
#    y 0.015350 1.725680 0.016200 
#    z -0.019640 0.016200 1.729950 
# 
# From -- ./inp_files/79163.got.cif
#   From: 2010.06.25/outbox.cif.g09.slc.cpg/sg2_40_cif.got.tgz:79163.got - 2010.06.27 13:26:56.
