data_PCOD8000809
_publ_section_title
;
Structure prediction by ZEFSAII (Michael W. Deem and Ramdas Pophale) SiO2 
 PCOD8000809
Probable space group: P -1
;
_chemical_formula_sum "Si O2"
_cell_formula_units_Z 16
_cell_length_a 10.013753
_cell_length_b 8.947200
_cell_length_c 16.809894
_cell_angle_alpha 102.577739
_cell_angle_beta 33.991365
_cell_angle_gamma 110.151461
_cell_volume 783.822714
_symmetry_space_group_name_H-M "P -1"
_symmetry_group_IT_number 2
_symmetry_cell_setting 'triclinic'
loop_
_space_group_symop_operation_xyz
x,y,z
-x,-y,-z
loop_
_atom_site_type_symbol
_atom_site_label
_atom_site_fract_x
_atom_site_fract_y
_atom_site_fract_z
Si Si1 0.206367 0.952874 0.143748
Si Si2 0.076850 0.174713 0.884526
Si Si3 0.587755 0.408777 0.845603
Si Si4 0.363171 0.183516 0.339276
Si Si5 0.286316 0.495615 0.867048
Si Si6 0.820340 0.717809 0.848061
Si Si7 0.817557 0.145139 0.179947
Si Si8 0.148764 0.846245 0.330411
O O1 0.095637 0.842701 0.261839
O O2 0.110049 0.850483 0.100120
O O3 0.120703 0.114333 0.208777
O O4 0.500000 0.000000 0.000000
O O5 0.290366 0.346736 0.789931
O O6 0.208335 0.036722 0.805567
O O7 0.929630 0.183000 0.040302
O O8 0.370554 0.449307 0.906419
O O9 0.812033 0.571400 0.775199
O O10 0.706954 0.281634 0.730423
O O11 0.455522 0.321547 0.980927
O O12 0.505799 0.341142 0.238245
O O13 0.540863 0.164026 0.321532
O O14 0.109288 0.204875 0.500425
O O15 0.315306 0.026671 0.289475
O O16 0.000000 0.500000 0.000000
O O17 0.023450 0.732178 0.819020
#
# Coordination Sequence:
#
# PCOD8000809 Si02
#       8
#     2   2   2   2   2   2   2   2
#     4  11  21  37  63  91 122 161 214 257 304 371
#     4  10  21  34  64  94 121 158 211 260 316 357
#     4  11  22  38  60  91 133 161 206 261 317 373
#     4  11  24  42  65  87 131 166 213 261 306 387
#     4  12  23  37  63  97 123 160 211 265 311 365
#     4  10  21  35  62  96 124 161 204 270 313 358
#     4  10  19  40  61  93 125 163 208 261 314 366
#     4  11  25  43  62  91 124 178 208 253 321 375
#
# _framework density 20.412779
#
# number of rings (size 3 to 8) (size 9 to 14) (size 15 to 20)
#    0.000    1.250    3.750    2.250    3.500    1.500 
#    0.000    6.250    0.000    0.000    0.000    0.000 
#    0.000    0.000    0.000    0.000    0.000    0.000 
#
# Total GULP energy -198316.950323 kJ/mol
# GULP energy per Si atom -12394.809395 kJ/mol
# Density = 2.036632 g / cm^3
# Si number density = 20.412779 Si / 1000 Ang^3
#
#
#
# Elastic Constant Matrix: (Units=GPa)
#
#
# Indices 1 2 3 4 5 6 
#
# 1 129.0193 55.2984 25.5209 4.5707 -1.2299 2.6770
# 2 55.2984 145.4897 41.3484 -4.7718 -6.7265 13.3758
# 3 25.5209 41.3484 60.2059 -0.6522 -7.9783 -6.6795
# 4 4.5707 -4.7718 -0.6522 26.8920 -1.0757 -1.7758
# 5 -1.2299 -6.7265 -7.9783 -1.0757 23.3479 0.5564
# 6 2.6770 13.3758 -6.6795 -1.7758 0.5564 37.1401
#
#
#
# Elastic Compliance Matrix: (Units=1/GPa)
#
#
# Indices 1 2 3 4 5 6 
#
# 1 0.009597 -0.003193 -0.002063 -0.002297 -0.001225 -0.000004
# 2 -0.003193 0.010345 -0.006109 0.001969 0.000923 -0.004514
# 3 -0.002063 -0.006109 0.023186 0.000492 0.005923 0.006453
# 4 -0.002297 0.001969 0.000492 0.038119 0.002339 0.001332
# 5 -0.001225 0.000923 0.005923 0.002339 0.045158 0.000256
# 6 -0.000004 -0.004514 0.006453 0.001332 0.000256 0.029772
#
#
# Mechanical properties :
#
#
# Convention : Reuss Voigt Hill
#
# Bulk Modulus (GPa) = 49.02217 64.33892 56.68054
# Shear Modulus (GPa) = 26.92440 31.64581 29.28511
#
# Velocity S-wave (km/s) = 3.63574 3.94165 3.79178
# Velocity P-wave (km/s) = 6.45696 7.23207 6.85548
#
# Compressibility (1/GPa) = 0.02039894
#
# Stress axis : x y z
#
# Youngs Moduli (GPa) = 104.19717 96.66227 43.13015
#
# Poissons Ratio (x) = 0.30865 0.08898
# Poissons Ratio (y) = 0.33270 0.26346
# Poissons Ratio (z) = 0.21495 0.59047
#
# Static dielectric constant tensor:
#      x y z
#    x 4.007010 0.026930 0.016880 
#    y 0.026930 4.170490 -0.043920 
#    z 0.016880 -0.043920 3.257440 
# 
# 
# High freq. dielectric constant tensor:
#      x y z
#    x 1.814120 -0.000160 -0.007770 
#    y -0.000160 1.820850 -0.004910 
#    z -0.007770 -0.004910 1.740330 
# 
# From -- ./inp_files/403204.got.cif
#   From: 2010.06.25/outbox.cif.g09.slc.cpg/sg2_202_cif.got.tgz:403204.got - 2010.06.27 13:26:56.
