data_PCOD8000188
_publ_section_title
;
Structure prediction by ZEFSAII (Michael W. Deem and Ramdas Pophale) SiO2 
 PCOD8000188
Probable space group: P 1
;
_chemical_formula_sum "Si O2"
_cell_formula_units_Z 8
_cell_length_a 9.366955
_cell_length_b 4.934850
_cell_length_c 10.380497
_cell_angle_alpha 87.364103
_cell_angle_beta 133.765110
_cell_angle_gamma 106.174470
_cell_volume 325.281919
_symmetry_space_group_name_H-M "P 1"
_symmetry_group_IT_number 1
_symmetry_cell_setting 'triclinic'
loop_
_space_group_symop_operation_xyz
x,y,z
loop_
_atom_site_type_symbol
_atom_site_label
_atom_site_fract_x
_atom_site_fract_y
_atom_site_fract_z
Si Si1 0.793340 0.937900 0.387270
Si Si2 0.468349 0.139504 0.272525
Si Si3 0.832064 0.178451 0.662022
Si Si4 0.304963 0.407133 0.946760
Si Si5 0.016068 0.567383 0.425296
Si Si6 0.385058 0.935025 0.831917
Si Si7 0.053626 0.755526 0.158454
Si Si8 0.799583 0.149390 0.929418
O O1 0.842863 0.931559 0.572358
O O2 0.811549 0.656936 0.333262
O O3 0.588295 0.117752 0.874531
O O4 0.960993 0.228425 0.422462
O O5 0.659053 0.306286 0.488059
O O6 0.558593 0.960300 0.228740
O O7 0.280865 0.914754 0.238242
O O8 0.391279 0.370120 0.143665
O O9 0.753713 0.039561 0.755652
O O10 0.067045 0.412115 0.813495
O O11 0.445985 0.709032 0.965566
O O12 0.304076 0.147254 0.859396
O O13 0.079548 0.631867 0.316210
O O14 0.206327 0.755696 0.626689
O O15 0.925192 0.973644 0.085063
O O16 0.932295 0.488309 0.997313
#
# Coordination Sequence:
#
# PCOD8000188 Si02
#       8
#     1   1   1   1   1   1   1   1
#     4  10  25  42  76 102 132 186 235 285 347 416
#     4  10  25  48  72 107 136 193 225 295 351 414
#     4  10  23  51  69 108 138 187 231 292 350 418
#     4  12  25  45  76 107 138 178 244 288 346 417
#     4  12  23  48  69 105 140 185 234 289 350 419
#     4  12  25  46  70 104 141 188 228 293 351 414
#     4  12  28  45  69 104 144 187 235 286 347 421
#     4  12  28  45  69 103 147 186 232 290 346 419
#
# _framework density 24.594051
#
# number of rings (size 3 to 8) (size 9 to 14) (size 15 to 20)
#    0.750    0.000    3.750    2.250    7.000    2.000 
#    0.000    2.500    0.000    0.000    0.000    0.000 
#    0.000    0.000    0.000    0.000    0.000    0.000 
#
# Total GULP energy -99174.624966 kJ/mol
# GULP energy per Si atom -12396.828121 kJ/mol
# Density = 2.453807 g / cm^3
# Si number density = 24.594051 Si / 1000 Ang^3
#
#
#
# Elastic Constant Matrix: (Units=GPa)
#
#
# Indices 1 2 3 4 5 6 
#
# 1 118.2323 43.3170 53.5398 -12.4506 9.8783 22.7502
# 2 43.3170 95.2786 34.5493 -7.2018 -11.4509 2.2092
# 3 53.5398 34.5493 121.1095 -30.6041 -5.4149 13.6318
# 4 -12.4506 -7.2018 -30.6041 25.2415 1.0739 -9.1957
# 5 9.8783 -11.4509 -5.4149 1.0739 40.9123 -9.7977
# 6 22.7502 2.2092 13.6318 -9.1957 -9.7977 31.8540
#
#
#
# Elastic Compliance Matrix: (Units=1/GPa)
#
#
# Indices 1 2 3 4 5 6 
#
# 1 0.016099 -0.006548 -0.005432 -0.004856 -0.009429 -0.013021
# 2 -0.006548 0.014793 -0.001403 0.001491 0.007144 0.006879
# 3 -0.005432 -0.001403 0.014885 0.016004 0.003241 0.003224
# 4 -0.004856 0.001491 0.016004 0.062805 0.006010 0.016495
# 5 -0.009429 0.007144 0.003241 0.006010 0.032998 0.016737
# 6 -0.013021 0.006879 0.003224 0.016495 0.016737 0.048746
#
#
# Mechanical properties :
#
#
# Convention : Reuss Voigt Hill
#
# Bulk Modulus (GPa) = 52.60299 66.38139 59.49219
# Shear Modulus (GPa) = 22.37850 33.14918 27.76384
#
# Velocity S-wave (km/s) = 3.01975 3.67530 3.36353
# Velocity P-wave (km/s) = 5.79599 6.71266 6.27110
#
# Compressibility (1/GPa) = 0.01901033
#
# Stress axis : x y z
#
# Youngs Moduli (GPa) = 62.11740 67.59940 67.18199
#
# Poissons Ratio (x) = 0.44262 0.36493
# Poissons Ratio (y) = 0.40672 0.09429
# Poissons Ratio (z) = 0.33742 0.09487
#
# Static dielectric constant tensor:
#      x y z
#    x 4.457140 0.060470 0.030030 
#    y 0.060470 4.186320 -0.138110 
#    z 0.030030 -0.138110 4.545200 
# 
# 
# High freq. dielectric constant tensor:
#      x y z
#    x 1.983640 0.010700 0.001410 
#    y 0.010700 1.967780 -0.005810 
#    z 0.001410 -0.005810 1.990610 
# 
# From -- ./inp_files/5113.got.cif
#   From: 2010.03.12/outbox.cif.g09.slc.cpg/sg1_3_cif.got.tgz:5113.got - 2010.03.29 11:57:58.
