data_PCOD8000021
_publ_section_title
;
Structure prediction by ZEFSAII (Michael W. Deem and Ramdas Pophale) SiO2 
 PCOD8000021
Probable space group: P 1
;
_chemical_formula_sum "Si O2"
_cell_formula_units_Z 8
_cell_length_a 9.044947
_cell_length_b 8.739485
_cell_length_c 11.950185
_cell_angle_alpha 129.494489
_cell_angle_beta 53.537017
_cell_angle_gamma 84.592915
_cell_volume 380.430812
_symmetry_space_group_name_H-M "P 1"
_symmetry_group_IT_number 1
_symmetry_cell_setting 'triclinic'
loop_
_space_group_symop_operation_xyz
x,y,z
loop_
_atom_site_type_symbol
_atom_site_label
_atom_site_fract_x
_atom_site_fract_y
_atom_site_fract_z
Si Si1 0.766490 0.921260 0.716670
Si Si2 0.657954 0.753912 0.474923
Si Si3 0.908319 0.235613 0.737280
Si Si4 0.102413 0.358057 0.903847
Si Si5 0.352616 0.839482 0.166268
Si Si6 0.788782 0.322340 0.375254
Si Si7 0.242274 0.674061 0.926474
Si Si8 0.219916 0.272553 0.267656
O O1 0.770940 0.820059 0.544666
O O2 0.044823 0.621348 0.522260
O O3 0.768313 0.155516 0.816238
O O4 0.485663 0.082868 0.980022
O O5 0.688262 0.501025 0.386344
O O6 0.328631 0.060873 0.741509
O O7 0.833724 0.640317 0.229929
O O8 0.004112 0.298308 0.821805
O O9 0.682240 0.531570 0.898367
O O10 0.178586 0.952722 0.410839
O O11 0.243038 0.437574 0.824388
O O12 0.238169 0.774211 0.098046
O O13 0.322334 0.092285 0.254700
O O14 0.005550 0.295681 0.320065
O O15 0.521761 0.515693 0.664847
O O16 0.962018 0.974115 0.122418
#
# Coordination Sequence:
#
# PCOD8000021 Si02
#       8
#     1   1   1   1   1   1   1   1
#     4  11  21  39  64  90 115 151 196 243 291 346
#     4  11  21  40  63  86 115 156 196 241 290 344
#     4  12  25  40  57  87 124 158 194 238 287 346
#     4  12  25  40  57  87 124 158 194 238 287 346
#     4  11  21  40  63  86 115 156 196 241 290 344
#     4  10  20  37  63  93 115 143 195 252 291 338
#     4  11  21  39  64  90 115 151 196 243 291 346
#     4  10  20  37  63  93 115 143 195 252 291 338
#
# _framework density 21.028790000000001
#
# number of rings (size 3 to 8) (size 9 to 14) (size 15 to 20)
#    0.000    1.000    0.000   11.250    0.000    0.000 
#    0.000    7.500    0.000    0.000    0.000    0.000 
#    0.000    0.000    0.000    0.000    0.000    0.000 
#
# Total GULP energy -99227.167403 kJ/mol
# GULP energy per Si atom -12403.395925 kJ/mol
# Density = 2.098093 g / cm^3
# Si number density = 21.028790 Si / 1000 Ang^3
#
#
#
# Elastic Constant Matrix: (Units=GPa)
#
#
# Indices 1 2 3 4 5 6 
#
# 1 88.1043 51.6810 23.6386 6.2128 9.7845 10.9710
# 2 51.6810 139.6019 36.0551 15.0377 -2.1611 0.2142
# 3 23.6386 36.0551 120.4916 -2.6759 -5.4140 12.8741
# 4 6.2128 15.0377 -2.6759 50.1804 -7.8233 -17.2188
# 5 9.7845 -2.1611 -5.4140 -7.8233 9.3349 6.0513
# 6 10.9710 0.2142 12.8741 -17.2188 6.0513 13.9589
#
#
#
# Elastic Compliance Matrix: (Units=1/GPa)
#
#
# Indices 1 2 3 4 5 6 
#
# 1 0.020982 -0.006605 -0.001229 -0.010517 -0.020514 -0.019336
# 2 -0.006605 0.010196 -0.002049 0.000113 0.005022 0.004887
# 3 -0.001229 -0.002049 0.012554 -0.003550 0.020609 -0.023894
# 4 -0.010517 0.000113 -0.003550 0.043345 0.004418 0.063091
# 5 -0.020514 0.005022 0.020609 0.004418 0.200050 -0.084235
# 6 -0.019336 0.004887 -0.023894 0.063091 -0.084235 0.223140
#
#
# Mechanical properties :
#
#
# Convention : Reuss Voigt Hill
#
# Bulk Modulus (GPa) = 41.72791 63.43858 52.58324
# Shear Modulus (GPa) = 9.29331 30.48305 19.88818
#
# Velocity S-wave (km/s) = 2.10450 3.81147 3.07866
# Velocity P-wave (km/s) = 5.07854 7.04292 6.13980
#
# Compressibility (1/GPa) = 0.02396478
#
# Stress axis : x y z
#
# Youngs Moduli (GPa) = 47.65952 98.07993 79.65694
#
# Poissons Ratio (x) = 0.64784 0.09792
# Poissons Ratio (y) = 0.31480 0.16322
# Poissons Ratio (z) = 0.05858 0.20097
#
# Static dielectric constant tensor:
#      x y z
#    x 3.461340 -0.173970 -0.206770 
#    y -0.173970 4.612720 0.456800 
#    z -0.206770 0.456800 3.988480 
# 
# 
# High freq. dielectric constant tensor:
#      x y z
#    x 1.783850 -0.002570 -0.018840 
#    y -0.002570 1.847230 0.008200 
#    z -0.018840 0.008200 1.841580 
# 
# From -- ./inp_files/1832.got.cif
#   From: 2010.03.12/outbox.cif.g09.slc.cpg/sg1_1_cif.got.tgz:1832.got - 2010.03.29 11:57:58.
