data_PCOD8000128
_publ_section_title
;
Structure prediction by ZEFSAII (Michael W. Deem and Ramdas Pophale) SiO2 
 PCOD8000128
Probable space group: P 1
;
_chemical_formula_sum "Si O2"
_cell_formula_units_Z 8
_cell_length_a 8.649905
_cell_length_b 7.461668
_cell_length_c 7.361889
_cell_angle_alpha 115.129641
_cell_angle_beta 71.603686
_cell_angle_gamma 129.968598
_cell_volume 329.062672
_symmetry_space_group_name_H-M "P 1"
_symmetry_group_IT_number 1
_symmetry_cell_setting 'triclinic'
loop_
_space_group_symop_operation_xyz
x,y,z
loop_
_atom_site_type_symbol
_atom_site_label
_atom_site_fract_x
_atom_site_fract_y
_atom_site_fract_z
Si Si1 0.065400 0.939280 0.403840
Si Si2 0.835364 0.747945 0.830260
Si Si3 0.112230 0.227953 0.148113
Si Si4 0.488908 0.083750 0.288355
Si Si5 0.411856 0.603475 0.945747
Si Si6 0.009744 0.285445 0.755054
Si Si7 0.788533 0.459272 0.085988
Si Si8 0.891018 0.401778 0.479048
O O1 0.919769 0.653009 0.283477
O O2 0.106963 0.097001 0.274490
O O3 0.283726 0.021031 0.424340
O O4 0.967959 0.016966 0.627834
O O5 0.932805 0.670257 0.606268
O O6 0.617037 0.666193 0.809761
O O7 0.793800 0.590223 0.959611
O O8 0.980996 0.034217 0.950623
O O9 0.335014 0.408978 0.057302
O O10 0.028806 0.392718 0.274123
O O11 0.565749 0.278248 0.176801
O O12 0.654721 0.193492 0.434812
O O13 0.450384 0.843614 0.117051
O O14 0.246041 0.493734 0.799292
O O15 0.950381 0.343610 0.617050
O O16 0.871954 0.294504 0.959979
#
# Coordination Sequence:
#
# PCOD8000128 Si02
#       8
#     1   1   1   1   1   1   1   1
#     4  10  22  42  65  90 124 161 207 251 306 363
#     4  10  22  42  65  90 124 161 207 251 306 363
#     4  10  22  43  64  90 126 163 199 258 307 357
#     4  12  23  40  66  93 125 161 207 251 305 367
#     4  12  23  40  66  93 125 161 207 251 305 367
#     4  10  22  42  63  90 126 161 204 255 305 359
#     4  10  22  43  64  90 126 163 199 258 307 357
#     4  10  22  42  63  90 126 161 204 255 305 359
#
# _framework density 24.311478000000001
#
# number of rings (size 3 to 8) (size 9 to 14) (size 15 to 20)
#    0.000    1.500    2.500    2.250    0.000    1.000 
#    4.500    2.500    0.000    0.000    0.000    0.000 
#    0.000    0.000    0.000    0.000    0.000    0.000 
#
# Total GULP energy -99183.569246 kJ/mol
# GULP energy per Si atom -12397.946156 kJ/mol
# Density = 2.425614 g / cm^3
# Si number density = 24.311478 Si / 1000 Ang^3
#
#
#
# Elastic Constant Matrix: (Units=GPa)
#
#
# Indices 1 2 3 4 5 6 
#
# 1 96.0620 11.9842 37.5462 21.4482 -16.5439 8.9936
# 2 11.9842 98.6102 18.6190 25.5416 -21.7249 0.1795
# 3 37.5462 18.6190 131.6865 23.2049 -16.3005 -9.4846
# 4 21.4482 25.5416 23.2049 44.5870 -2.1338 -5.8113
# 5 -16.5439 -21.7249 -16.3005 -2.1338 56.3122 2.9221
# 6 8.9936 0.1795 -9.4846 -5.8113 2.9221 41.0029
#
#
#
# Elastic Compliance Matrix: (Units=1/GPa)
#
#
# Indices 1 2 3 4 5 6 
#
# 1 0.013926 0.001365 -0.002917 -0.006422 0.003785 -0.004915
# 2 0.001365 0.013292 -0.000335 -0.008101 0.005226 -0.001956
# 3 -0.002917 -0.000335 0.009331 -0.002892 0.001487 0.002284
# 4 -0.006422 -0.008101 -0.002892 0.032168 -0.004925 0.005685
# 5 0.003785 0.005226 0.001487 -0.004925 0.021271 -0.002723
# 6 -0.004915 -0.001956 0.002284 0.005685 -0.002723 0.027003
#
#
# Mechanical properties :
#
#
# Convention : Reuss Voigt Hill
#
# Bulk Modulus (GPa) = 30.51255 51.40639 40.95947
# Shear Modulus (GPa) = 37.96762 45.59436 41.78099
#
# Velocity S-wave (km/s) = 3.95614 4.33532 4.15006
# Velocity P-wave (km/s) = 5.78325 6.80079 6.31256
#
# Compressibility (1/GPa) = 0.03277340
#
# Stress axis : x y z
#
# Youngs Moduli (GPa) = 71.80922 75.23571 107.16850
#
# Poissons Ratio (x) = -0.10266 0.31265
# Poissons Ratio (y) = -0.09799 0.03588
# Poissons Ratio (z) = 0.20949 0.02519
#
# Static dielectric constant tensor:
#      x y z
#    x 4.816830 -0.215100 -0.350820 
#    y -0.215100 4.311610 0.242420 
#    z -0.350820 0.242420 5.057890 
# 
# 
# High freq. dielectric constant tensor:
#      x y z
#    x 1.978560 -0.023350 0.000040 
#    y -0.023350 1.969190 0.001210 
#    z 0.000040 0.001210 1.996770 
# 
# From -- ./inp_files/1315.got.cif
#   From: 2010.03.12/outbox.cif.g09.slc.cpg/sg1_1_cif.got.tgz:1315.got - 2010.03.29 11:57:58.
