data_PCOD8000514
_publ_section_title
;
Structure prediction by ZEFSAII (Michael W. Deem and Ramdas Pophale) SiO2 
 PCOD8000514
Probable space group: P -1
;
_chemical_formula_sum "Si O2"
_cell_formula_units_Z 16
_cell_length_a 16.096696
_cell_length_b 9.805239
_cell_length_c 15.451731
_cell_angle_alpha 45.319457
_cell_angle_beta 152.352021
_cell_angle_gamma 135.343637
_cell_volume 775.205288
_symmetry_space_group_name_H-M "P -1"
_symmetry_group_IT_number 2
_symmetry_cell_setting 'triclinic'
loop_
_space_group_symop_operation_xyz
x,y,z
-x,-y,-z
loop_
_atom_site_type_symbol
_atom_site_label
_atom_site_fract_x
_atom_site_fract_y
_atom_site_fract_z
Si Si1 0.250900 0.298942 0.736305
Si Si2 0.872741 0.700747 0.777683
Si Si3 0.279908 0.713593 0.121194
Si Si4 0.971094 0.023224 0.861393
Si Si5 0.430276 0.156239 0.813848
Si Si6 0.145740 0.959382 0.504310
Si Si7 0.646450 0.862044 0.925323
Si Si8 0.745154 0.267418 0.443716
O O1 0.371776 0.308970 0.756553
O O2 0.176424 0.495211 0.579989
O O3 0.075309 0.104562 0.656795
O O4 0.370755 0.271285 0.943680
O O5 0.721780 0.486679 0.737704
O O6 0.912320 0.802171 0.864315
O O7 0.783502 0.838543 0.575493
O O8 0.062374 0.687065 0.911132
O O9 0.405048 0.716593 0.150911
O O10 0.362781 0.913830 0.162435
O O11 0.822708 0.149300 0.644055
O O12 0.164239 0.146166 0.942662
O O13 0.000000 0.000000 0.000000
O O14 0.252108 0.011238 0.668175
O O15 0.500000 0.000000 0.000000
O O16 0.199921 0.786543 0.577355
O O17 0.479123 0.776617 0.742057
#
# Coordination Sequence:
#
# PCOD8000514 Si02
#       8
#     2   2   2   2   2   2   2   2
#     4  12  23  41  63 101 132 169 217 265 326 394
#     4   9  20  40  66  87 119 168 219 257 325 382
#     4  10  19  39  63  91 121 168 208 263 319 381
#     4  10  23  44  63  92 131 169 218 275 322 382
#     4  12  23  39  61  97 136 163 215 270 317 379
#     4  11  21  42  65  88 127 176 210 266 319 384
#     4  11  21  42  68  91 131 169 220 264 325 394
#     4  11  23  42  67  94 127 177 215 264 332 389
#
# _framework density 20.639696000000001
#
# number of rings (size 3 to 8) (size 9 to 14) (size 15 to 20)
#    0.000    1.250    6.250    1.125    0.000    2.000 
#    9.000    0.000    0.000    0.000    0.000    0.000 
#    0.000    0.000    0.000    0.000    0.000    0.000 
#
# Total GULP energy -198350.968964 kJ/mol
# GULP energy per Si atom -12396.935560 kJ/mol
# Density = 2.059272 g / cm^3
# Si number density = 20.639696 Si / 1000 Ang^3
#
#
#
# Elastic Constant Matrix: (Units=GPa)
#
#
# Indices 1 2 3 4 5 6 
#
# 1 115.6464 40.1855 44.8524 -5.5212 -3.3550 -4.1774
# 2 40.1855 99.0247 42.4436 -24.3801 -6.1385 7.6737
# 3 44.8524 42.4436 121.9585 -1.5415 -15.4291 -2.9210
# 4 -5.5212 -24.3801 -1.5415 32.7441 -4.6659 4.5676
# 5 -3.3550 -6.1385 -15.4291 -4.6659 31.4705 3.3735
# 6 -4.1774 7.6737 -2.9210 4.5676 3.3735 29.2768
#
#
#
# Elastic Compliance Matrix: (Units=1/GPa)
#
#
# Indices 1 2 3 4 5 6 
#
# 1 0.011134 -0.004108 -0.002823 -0.001941 -0.001594 0.002870
# 2 -0.004108 0.018006 -0.004272 0.014257 0.003996 -0.008417
# 3 -0.002823 -0.004272 0.011205 -0.002854 0.003738 0.001849
# 4 -0.001941 0.014257 -0.002854 0.043662 0.008949 -0.012142
# 5 -0.001594 0.003996 0.003738 0.008949 0.036239 -0.006474
# 6 0.002870 -0.008417 0.001849 -0.012142 -0.006474 0.039597
#
#
# Mechanical properties :
#
#
# Convention : Reuss Voigt Hill
#
# Bulk Modulus (GPa) = 55.73612 65.73251 60.73431
# Shear Modulus (GPa) = 26.56358 32.64150 29.60254
#
# Velocity S-wave (km/s) = 3.59139 3.98111 3.79126
# Velocity P-wave (km/s) = 6.65285 7.28348 6.97529
#
# Compressibility (1/GPa) = 0.01794169
#
# Stress axis : x y z
#
# Youngs Moduli (GPa) = 89.81619 55.53618 89.24364
#
# Poissons Ratio (x) = 0.22812 0.25189
# Poissons Ratio (y) = 0.36893 0.38122
# Poissons Ratio (z) = 0.25351 0.23723
#
# Static dielectric constant tensor:
#      x y z
#    x 3.695570 0.274270 0.148090 
#    y 0.274270 4.057320 0.031410 
#    z 0.148090 0.031410 3.751790 
# 
# 
# High freq. dielectric constant tensor:
#      x y z
#    x 1.793090 0.003220 0.013190 
#    y 0.003220 1.805900 -0.005590 
#    z 0.013190 -0.005590 1.812170 
# 
# From -- ./inp_files/262155.got.cif
#   From: 2010.06.25/outbox.cif.g09.slc.cpg/sg2_132_cif.got.tgz:262155.got - 2010.06.27 13:26:56.
