data_PCOD8000178
_publ_section_title
;
Structure prediction by ZEFSAII (Michael W. Deem and Ramdas Pophale) SiO2 
 PCOD8000178
Probable space group: P 1
;
_chemical_formula_sum "Si O2"
_cell_formula_units_Z 8
_cell_length_a 10.020643
_cell_length_b 5.471461
_cell_length_c 6.966020
_cell_angle_alpha 76.140971
_cell_angle_beta 75.463216
_cell_angle_gamma 109.801299
_cell_volume 325.006215
_symmetry_space_group_name_H-M "P 1"
_symmetry_group_IT_number 1
_symmetry_cell_setting 'triclinic'
loop_
_space_group_symop_operation_xyz
x,y,z
loop_
_atom_site_type_symbol
_atom_site_label
_atom_site_fract_x
_atom_site_fract_y
_atom_site_fract_z
Si Si1 0.511470 0.595050 0.351470
Si Si2 0.803757 0.044307 0.308815
Si Si3 0.595399 0.197022 0.619677
Si Si4 0.333647 0.663947 0.732590
Si Si5 0.856986 0.626455 0.644934
Si Si6 0.013765 0.599104 0.953408
Si Si7 0.119618 0.712196 0.289779
Si Si8 0.292836 0.345321 0.157866
O O1 0.498078 0.341251 0.534653
O O2 0.393706 0.690251 0.487790
O O3 0.456239 0.490347 0.177290
O O4 0.685028 0.826732 0.242928
O O5 0.718382 0.200958 0.419945
O O6 0.862694 0.895686 0.478658
O O7 0.940729 0.268100 0.093191
O O8 0.689603 0.368428 0.739090
O O9 0.465501 0.895014 0.775650
O O10 0.175197 0.689703 0.769937
O O11 0.310507 0.387877 0.913470
O O12 0.901187 0.678721 0.844734
O O13 0.985051 0.545217 0.519050
O O14 0.042404 0.766133 0.112214
O O15 0.195671 0.504545 0.247855
O O16 0.225661 0.015230 0.282541
#
# Coordination Sequence:
#
# PCOD8000178 Si02
#       8
#     1   1   1   1   1   1   1   1
#     4  10  24  44  72  97 144 195 225 302 362 419
#     4  10  23  49  65 107 145 182 248 296 346 447
#     4  10  23  46  65  99 149 177 243 293 352 432
#     4  10  24  44  67 107 137 179 243 296 346 439
#     4  11  23  44  74  99 145 194 231 297 369 419
#     4  11  24  46  75 102 140 190 236 300 363 422
#     4  11  25  46  68 115 144 181 245 303 345 447
#     4  11  26  43  76 102 148 186 237 295 367 419
#
# _framework density 24.614916999999998
#
# number of rings (size 3 to 8) (size 9 to 14) (size 15 to 20)
#    0.000    1.500    1.250    2.250   10.500    0.000 
#   13.500    0.000    0.000    0.000    0.000    0.000 
#    0.000    0.000    0.000    0.000    0.000    0.000 
#
# Total GULP energy -99139.129705 kJ/mol
# GULP energy per Si atom -12392.391213 kJ/mol
# Density = 2.455889 g / cm^3
# Si number density = 24.614917 Si / 1000 Ang^3
#
#
#
# Elastic Constant Matrix: (Units=GPa)
#
#
# Indices 1 2 3 4 5 6 
#
# 1 86.6980 37.6884 26.2657 0.1272 12.4689 30.9727
# 2 37.6884 110.8094 20.8710 -11.0811 4.7337 15.7101
# 3 26.2657 20.8710 58.0791 -8.8194 0.0892 14.9693
# 4 0.1272 -11.0811 -8.8194 36.7680 12.8532 3.0800
# 5 12.4689 4.7337 0.0892 12.8532 39.9072 9.4709
# 6 30.9727 15.7101 14.9693 3.0800 9.4709 40.6491
#
#
#
# Elastic Compliance Matrix: (Units=1/GPa)
#
#
# Indices 1 2 3 4 5 6 
#
# 1 0.018726 -0.003992 -0.004419 -0.000499 -0.002733 -0.010424
# 2 -0.003992 0.011154 -0.001488 0.003431 -0.001000 -0.000748
# 3 -0.004419 -0.001488 0.021674 0.004780 0.001073 -0.004652
# 4 -0.000499 0.003431 0.004780 0.033213 -0.010288 -0.002825
# 5 -0.002733 -0.001000 0.001073 -0.010288 0.030343 -0.004216
# 6 -0.010424 -0.000748 -0.004652 -0.002825 -0.004216 0.035742
#
#
# Mechanical properties :
#
#
# Convention : Reuss Voigt Hill
#
# Bulk Modulus (GPa) = 31.48925 47.24853 39.36889
# Shear Modulus (GPa) = 27.58840 34.84895 31.21867
#
# Velocity S-wave (km/s) = 3.35147 3.76675 3.56516
# Velocity P-wave (km/s) = 5.27228 6.17694 5.74245
#
# Compressibility (1/GPa) = 0.03175687
#
# Stress axis : x y z
#
# Youngs Moduli (GPa) = 53.40137 89.65074 46.13784
#
# Poissons Ratio (x) = 0.35790 0.20389
# Poissons Ratio (y) = 0.21319 0.06863
# Poissons Ratio (z) = 0.23599 0.13336
#
# Static dielectric constant tensor:
#      x y z
#    x 4.546760 0.309730 -0.015040 
#    y 0.309730 4.448630 0.043770 
#    z -0.015040 0.043770 4.134740 
# 
# 
# High freq. dielectric constant tensor:
#      x y z
#    x 1.990620 0.019140 -0.002700 
#    y 0.019140 1.974870 -0.005590 
#    z -0.002700 -0.005590 1.957680 
# 
# From -- ./inp_files/1330.got.cif
#   From: 2010.03.12/outbox.cif.g09.slc.cpg/sg1_1_cif.got.tgz:1330.got - 2010.03.29 11:57:58.
