data_PCOD8000531
_publ_section_title
;
Structure prediction by ZEFSAII (Michael W. Deem and Ramdas Pophale) SiO2 
 PCOD8000531
Probable space group: P -1
;
_chemical_formula_sum "Si O2"
_cell_formula_units_Z 14
_cell_length_a 16.082139
_cell_length_b 12.043539
_cell_length_c 18.564707
_cell_angle_alpha 152.291023
_cell_angle_beta 156.070892
_cell_angle_gamma 26.126006
_cell_volume 598.655186
_symmetry_space_group_name_H-M "P -1"
_symmetry_group_IT_number 2
_symmetry_cell_setting 'triclinic'
loop_
_space_group_symop_operation_xyz
x,y,z
-x,-y,-z
loop_
_atom_site_type_symbol
_atom_site_label
_atom_site_fract_x
_atom_site_fract_y
_atom_site_fract_z
Si Si1 0.738966 0.646890 0.221721
Si Si2 0.793682 0.797157 0.501628
Si Si3 0.714108 0.733436 0.560743
Si Si4 0.550368 0.956938 0.897115
Si Si5 0.023538 0.153507 0.915326
Si Si6 0.764084 0.109069 0.919563
Si Si7 0.453911 0.392699 0.186637
O O1 0.647233 0.785848 0.308225
O O2 0.017472 0.487973 0.347544
O O3 0.646949 0.886691 0.228604
O O4 0.636284 0.438231 0.003448
O O5 0.662509 0.866044 0.515637
O O6 0.000000 0.500000 0.500000
O O7 0.899535 0.000953 0.688152
O O8 0.557766 0.596059 0.377956
O O9 0.630141 0.970228 0.691802
O O10 0.491756 0.742288 0.768297
O O11 0.806910 0.796665 0.974751
O O12 0.564861 0.165289 0.084173
O O13 0.824756 0.442605 0.951566
O O14 0.183037 0.972277 0.002292
O O15 0.000000 0.000000 0.000000
#
# Coordination Sequence:
#
# PCOD8000531 Si02
#       7
#     2   2   2   2   2   2   2
#     4  10  21  41  66 103 138 172 222 283 346 405
#     4  10  19  39  64 104 137 167 219 277 352 401
#     4  10  21  41  66 103 138 172 222 283 346 405
#     4  11  26  46  69  97 135 188 233 275 332 405
#     4  12  23  44  70  98 141 176 230 280 338 412
#     4  10  19  39  64 104 137 167 219 277 352 401
#     4  11  26  46  69  97 135 188 233 275 332 405
#
# _framework density 23.385750000000002
#
# number of rings (size 3 to 8) (size 9 to 14) (size 15 to 20)
#    0.000    1.429    4.286    3.857    0.000    2.857 
#    5.143    4.286    0.000    0.000    0.000    0.000 
#    0.000    0.000    0.000    0.000    0.000    0.000 
#
# Total GULP energy -173632.061941 kJ/mol
# GULP energy per Si atom -12402.290139 kJ/mol
# Density = 2.333252 g / cm^3
# Si number density = 23.385750 Si / 1000 Ang^3
#
#
#
# Elastic Constant Matrix: (Units=GPa)
#
#
# Indices 1 2 3 4 5 6 
#
# 1 156.5927 42.1493 54.0251 0.0765 -0.6775 6.7613
# 2 42.1493 86.2028 21.1395 -9.1844 0.5862 11.6565
# 3 54.0251 21.1395 120.2001 -0.1151 -3.2839 16.5367
# 4 0.0765 -9.1844 -0.1151 23.4553 -1.1947 -1.9081
# 5 -0.6775 0.5862 -3.2839 -1.1947 32.2015 1.5052
# 6 6.7613 11.6565 16.5367 -1.9081 1.5052 56.2462
#
#
#
# Elastic Compliance Matrix: (Units=1/GPa)
#
#
# Indices 1 2 3 4 5 6 
#
# 1 0.008443 -0.003562 -0.003262 -0.001395 -0.000172 0.000640
# 2 -0.003562 0.014372 -0.000624 0.005454 -0.000096 -0.002179
# 3 -0.003262 -0.000624 0.010275 -0.000334 0.001097 -0.002540
# 4 -0.001395 0.005454 -0.000334 0.044898 0.001474 0.000619
# 5 -0.000172 -0.000096 0.001097 0.001474 0.031269 -0.001069
# 6 0.000640 -0.002179 -0.002540 0.000619 -0.001069 0.018950
#
#
# Mechanical properties :
#
#
# Convention : Reuss Voigt Hill
#
# Bulk Modulus (GPa) = 54.96900 66.40260 60.68580
# Shear Modulus (GPa) = 33.51948 38.75937 36.13942
#
# Velocity S-wave (km/s) = 3.79004 4.07553 3.93537
# Velocity P-wave (km/s) = 6.53521 7.11355 6.83050
#
# Compressibility (1/GPa) = 0.01819207
#
# Stress axis : x y z
#
# Youngs Moduli (GPa) = 118.44764 69.58124 97.32803
#
# Poissons Ratio (x) = 0.24785 0.31750
# Poissons Ratio (y) = 0.42191 0.06075
# Poissons Ratio (z) = 0.38640 0.04343
#
# Static dielectric constant tensor:
#      x y z
#    x 4.700940 -0.262110 -0.237120 
#    y -0.262110 4.482040 0.042460 
#    z -0.237120 0.042460 4.249570 
# 
# 
# High freq. dielectric constant tensor:
#      x y z
#    x 1.943980 -0.028760 -0.007910 
#    y -0.028760 1.950370 -0.009440 
#    z -0.007910 -0.009440 1.916350 
# 
# From -- ./inp_files/383129.got.cif
#   From: 2010.06.25/outbox.cif.g09.slc.cpg/sg2_192_cif.got.tgz:383129.got - 2010.06.27 13:26:56.
