data_PCOD8000069
_publ_section_title
;
Structure prediction by ZEFSAII (Michael W. Deem and Ramdas Pophale) SiO2 
 PCOD8000069
Probable space group: P 1
;
_chemical_formula_sum "Si O2"
_cell_formula_units_Z 8
_cell_length_a 8.838124
_cell_length_b 9.630412
_cell_length_c 7.765640
_cell_angle_alpha 98.072325
_cell_angle_beta 68.557512
_cell_angle_gamma 49.513986
_cell_volume 395.723256
_symmetry_space_group_name_H-M "P 1"
_symmetry_group_IT_number 1
_symmetry_cell_setting 'triclinic'
loop_
_space_group_symop_operation_xyz
x,y,z
loop_
_atom_site_type_symbol
_atom_site_label
_atom_site_fract_x
_atom_site_fract_y
_atom_site_fract_z
Si Si1 0.175890 0.155780 0.756830
Si Si2 0.310753 0.381023 0.695823
Si Si3 0.885496 0.812133 0.085122
Si Si4 0.833397 0.116345 0.352608
Si Si5 0.744166 0.456162 0.261201
Si Si6 0.985519 0.744197 0.660557
Si Si7 0.187425 0.892222 0.470542
Si Si8 0.721159 0.761516 0.467784
O O1 0.199185 0.299232 0.709729
O O2 0.124253 0.085466 0.607974
O O3 0.441413 0.936673 0.692637
O O4 0.954422 0.284309 0.005412
O O5 0.608393 0.192559 0.572514
O O6 0.248220 0.496683 0.558294
O O7 0.164351 0.559755 0.941566
O O8 0.707856 0.850082 0.302771
O O9 0.897803 0.969987 0.143474
O O10 0.801420 0.847767 0.924278
O O11 0.728838 0.333458 0.371071
O O12 0.086644 0.964144 0.330210
O O13 0.482064 0.662122 0.310965
O O14 0.825571 0.536505 0.356618
O O15 0.889755 0.735141 0.526074
O O16 0.032759 0.876891 0.635624
#
# Coordination Sequence:
#
# PCOD8000069 Si02
#       8
#     1   1   1   1   1   1   1   1
#     4  11  23  43  64  96 131 171 218 270 323 390
#     4  10  22  41  67  94 129 171 221 267 316 394
#     4  10  21  39  68  93 129 168 217 269 313 388
#     4  12  23  43  69  95 131 178 215 266 333 385
#     4  11  24  44  63  98 135 169 215 277 324 384
#     4  10  21  43  65  96 131 170 214 275 317 383
#     4  11  24  41  66  97 136 168 219 272 323 391
#     4  11  22  44  66  93 136 167 223 270 319 393
#
# _framework density 20.216148
#
# number of rings (size 3 to 8) (size 9 to 14) (size 15 to 20)
#    0.750    0.500    5.000    0.750    1.750    1.000 
#    9.000    1.250    0.000    0.000    0.000    0.000 
#    0.000    0.000    0.000    0.000    0.000    0.000 
#
# Total GULP energy -99132.435145 kJ/mol
# GULP energy per Si atom -12391.554393 kJ/mol
# Density = 2.017014 g / cm^3
# Si number density = 20.216148 Si / 1000 Ang^3
#
#
#
# Elastic Constant Matrix: (Units=GPa)
#
#
# Indices 1 2 3 4 5 6 
#
# 1 93.9635 27.9672 32.4875 -0.4396 1.6652 13.6812
# 2 27.9672 83.1785 20.1768 3.0363 4.7310 18.8466
# 3 32.4875 20.1768 107.2298 9.9560 -2.4500 -0.8601
# 4 -0.4396 3.0363 9.9560 32.7614 3.1013 1.9209
# 5 1.6652 4.7310 -2.4500 3.1013 26.2877 8.0689
# 6 13.6812 18.8466 -0.8601 1.9209 8.0689 40.6463
#
#
#
# Elastic Compliance Matrix: (Units=1/GPa)
#
#
# Indices 1 2 3 4 5 6 
#
# 1 0.013255 -0.002892 -0.003656 0.001737 0.000151 -0.003310
# 2 -0.002892 0.014834 -0.001943 -0.000405 -0.000853 -0.005757
# 3 -0.003656 -0.001943 0.011175 -0.003525 0.001343 0.002268
# 4 0.001737 -0.000405 -0.003525 0.032085 -0.003771 -0.001239
# 5 0.000151 -0.000853 0.001343 -0.003771 0.041089 -0.007606
# 6 -0.003310 -0.005757 0.002268 -0.001239 -0.007606 0.030003
#
#
# Mechanical properties :
#
#
# Convention : Reuss Voigt Hill
#
# Bulk Modulus (GPa) = 44.87967 49.51498 47.19733
# Shear Modulus (GPa) = 29.96713 33.52177 31.74445
#
# Velocity S-wave (km/s) = 3.85429 4.07648 3.96694
# Velocity P-wave (km/s) = 6.48502 6.83395 6.66177
#
# Compressibility (1/GPa) = 0.02228180
#
# Stress axis : x y z
#
# Youngs Moduli (GPa) = 75.44573 67.41369 89.48380
#
# Poissons Ratio (x) = 0.19495 0.32715
# Poissons Ratio (y) = 0.21817 0.17388
# Poissons Ratio (z) = 0.27583 0.13099
#
# Static dielectric constant tensor:
#      x y z
#    x 3.610960 0.212770 0.011990 
#    y 0.212770 3.756210 0.156390 
#    z 0.011990 0.156390 3.555570 
# 
# 
# High freq. dielectric constant tensor:
#      x y z
#    x 1.783640 0.025280 -0.000170 
#    y 0.025280 1.794800 0.014380 
#    z -0.000170 0.014380 1.781270 
# 
# From -- ./inp_files/3770.got.cif
#   From: 2010.03.12/outbox.cif.g09.slc.cpg/sg1_2_cif.got.tgz:3770.got - 2010.03.29 11:57:58.
