data_PCOD8000259
_publ_section_title
;
Structure prediction by ZEFSAII (Michael W. Deem and Ramdas Pophale) SiO2 
 PCOD8000259
Probable space group: P 1
;
_chemical_formula_sum "Si O2"
_cell_formula_units_Z 8
_cell_length_a 8.986110
_cell_length_b 7.966724
_cell_length_c 5.239190
_cell_angle_alpha 114.680518
_cell_angle_beta 78.384373
_cell_angle_gamma 83.145359
_cell_volume 324.994157
_symmetry_space_group_name_H-M "P 1"
_symmetry_group_IT_number 1
_symmetry_cell_setting 'triclinic'
loop_
_space_group_symop_operation_xyz
x,y,z
loop_
_atom_site_type_symbol
_atom_site_label
_atom_site_fract_x
_atom_site_fract_y
_atom_site_fract_z
Si Si1 0.820840 0.252680 0.906150
Si Si2 0.142594 0.254533 0.976546
Si Si3 0.782753 0.638488 0.972709
Si Si4 0.212957 0.634769 0.216786
Si Si5 0.328998 0.175708 0.378435
Si Si6 0.886061 0.823664 0.552389
Si Si7 0.466568 0.769932 0.979296
Si Si8 0.497031 0.474882 0.383102
O O1 0.968892 0.218981 0.024330
O O2 0.813820 0.046916 0.669212
O O3 0.846067 0.408549 0.783377
O O4 0.660353 0.344541 0.157832
O O5 0.248005 0.126513 0.638546
O O6 0.137038 0.470196 0.023761
O O7 0.204568 0.226443 0.224736
O O8 0.854868 0.716942 0.241477
O O9 0.593105 0.680198 0.099053
O O10 0.814479 0.745176 0.774090
O O11 0.286992 0.749122 0.052330
O O12 0.366640 0.539754 0.258583
O O13 0.074137 0.782004 0.504614
O O14 0.420429 0.340846 0.511743
O O15 0.457820 0.993344 0.118755
O O16 0.532106 0.658694 0.628344
#
# Coordination Sequence:
#
# PCOD8000259 Si02
#       8
#     1   1   1   1   1   1   1   1
#     4  12  27  51  78 112 155 205 248 316 387 446
#     4  11  26  48  74 109 150 199 247 313 370 451
#     4  12  29  50  76 116 153 200 256 313 378 457
#     4  11  25  48  74 107 153 191 253 307 372 446
#     4  11  27  47  75 110 150 194 255 305 374 452
#     4  12  30  50  79 113 154 203 257 312 377 459
#     4  12  26  46  79 106 154 198 246 312 382 443
#     4  11  26  48  71 111 149 196 246 310 374 444
#
# _framework density 24.615831
#
# number of rings (size 3 to 8) (size 9 to 14) (size 15 to 20)
#    0.000    0.500    3.750    2.250    8.750    6.000 
#    0.000    0.000    0.000    0.000    0.000    0.000 
#    0.000    0.000    0.000    0.000    0.000    0.000 
#
# Total GULP energy -99142.971333 kJ/mol
# GULP energy per Si atom -12392.871417 kJ/mol
# Density = 2.455980 g / cm^3
# Si number density = 24.615831 Si / 1000 Ang^3
#
#
#
# Elastic Constant Matrix: (Units=GPa)
#
#
# Indices 1 2 3 4 5 6 
#
# 1 113.5978 18.7562 44.5178 5.2780 -16.6547 -8.5769
# 2 18.7562 122.7858 44.4983 24.9921 3.4269 7.5147
# 3 44.5178 44.4983 116.6986 14.6704 -6.0134 -3.9525
# 4 5.2780 24.9921 14.6704 42.2332 -8.1520 -3.2841
# 5 -16.6547 3.4269 -6.0134 -8.1520 40.0612 6.3153
# 6 -8.5769 7.5147 -3.9525 -3.2841 6.3153 25.7757
#
#
#
# Elastic Compliance Matrix: (Units=1/GPa)
#
#
# Indices 1 2 3 4 5 6 
#
# 1 0.011159 -0.000888 -0.003803 0.001431 0.004028 0.002584
# 2 -0.000888 0.011064 -0.003386 -0.006050 -0.002389 -0.004226
# 3 -0.003803 -0.003386 0.011533 -0.001436 -0.000061 0.001322
# 4 0.001431 -0.006050 -0.001436 0.029094 0.006152 0.004219
# 5 0.004028 -0.002389 -0.000061 0.006152 0.028751 -0.004233
# 6 0.002584 -0.004226 0.001322 0.004219 -0.004233 0.042665
#
#
# Mechanical properties :
#
#
# Convention : Reuss Voigt Hill
#
# Bulk Modulus (GPa) = 56.81071 63.18074 59.99573
# Shear Modulus (GPa) = 31.99252 37.96801 34.98027
#
# Velocity S-wave (km/s) = 3.60901 3.93163 3.77377
# Velocity P-wave (km/s) = 6.36362 6.80681 6.58894
#
# Compressibility (1/GPa) = 0.01760231
#
# Stress axis : x y z
#
# Youngs Moduli (GPa) = 89.61197 90.38724 86.70767
#
# Poissons Ratio (x) = 0.08028 0.32976
# Poissons Ratio (y) = 0.07959 0.29355
# Poissons Ratio (z) = 0.34080 0.30601
#
# Static dielectric constant tensor:
#      x y z
#    x 4.943690 0.292020 -0.232420 
#    y 0.292020 4.703870 0.174230 
#    z -0.232420 0.174230 4.187290 
# 
# 
# High freq. dielectric constant tensor:
#      x y z
#    x 2.000210 0.007240 -0.014370 
#    y 0.007240 1.983370 0.015750 
#    z -0.014370 0.015750 1.964480 
# 
# From -- ./inp_files/1331.got.cif
#   From: 2010.03.12/outbox.cif.g09.slc.cpg/sg1_1_cif.got.tgz:1331.got - 2010.03.29 11:57:58.
