data_PCOD8000273
_publ_section_title
;
Structure prediction by ZEFSAII (Michael W. Deem and Ramdas Pophale) SiO2 
 PCOD8000273
Probable space group: P 1
;
_chemical_formula_sum "Si O2"
_cell_formula_units_Z 8
_cell_length_a 7.836885
_cell_length_b 14.223898
_cell_length_c 11.232134
_cell_angle_alpha 30.566217
_cell_angle_beta 141.946655
_cell_angle_gamma 144.690345
_cell_volume 352.371766
_symmetry_space_group_name_H-M "P 1"
_symmetry_group_IT_number 1
_symmetry_cell_setting 'triclinic'
loop_
_space_group_symop_operation_xyz
x,y,z
loop_
_atom_site_type_symbol
_atom_site_label
_atom_site_fract_x
_atom_site_fract_y
_atom_site_fract_z
Si Si1 0.201530 0.988960 0.603260
Si Si2 0.846956 0.301671 0.302882
Si Si3 0.852505 0.190052 0.061439
Si Si4 0.135310 0.574945 0.944291
Si Si5 0.879978 0.342809 0.542128
Si Si6 0.148033 0.110040 0.075942
Si Si7 0.152776 0.003576 0.823492
Si Si8 0.840372 0.724590 0.172881
O O1 0.137610 0.798167 0.686994
O O2 0.158657 0.903100 0.808429
O O3 0.547833 0.162012 0.589152
O O4 0.959128 0.080113 0.342951
O O5 0.888920 0.407430 0.339362
O O6 0.488647 0.147875 0.255130
O O7 0.056067 0.182475 0.544657
O O8 0.944097 0.472284 0.069302
O O9 0.975097 0.155687 0.040625
O O10 0.985446 0.432844 0.901201
O O11 0.485918 0.093512 0.969922
O O12 0.476930 0.600281 0.121230
O O13 0.964831 0.551013 0.436455
O O14 0.135174 0.259627 0.799999
O O15 0.973769 0.874508 0.194809
O O16 0.913612 0.841481 0.959260
#
# Coordination Sequence:
#
# PCOD8000273 Si02
#       8
#     1   1   1   1   1   1   1   1
#     4  12  24  48  71 104 147 183 233 295 345 421
#     4  12  25  48  74 103 146 184 234 295 348 418
#     4  12  26  47  73 105 143 186 235 290 353 418
#     4  12  25  46  74 105 142 190 232 287 359 412
#     4  12  24  48  71 104 147 183 233 295 345 421
#     4  12  26  47  73 105 143 186 235 290 353 418
#     4  12  25  48  74 103 146 184 234 295 348 418
#     4  12  25  46  74 105 142 190 232 287 359 412
#
# _framework density 22.703292999999999
#
# number of rings (size 3 to 8) (size 9 to 14) (size 15 to 20)
#    0.000    0.000    7.500    1.500    0.000    2.000 
#    4.500    0.000    0.000    0.000    0.000    0.000 
#    0.000    0.000    0.000    0.000    0.000    0.000 
#
# Total GULP energy -99231.828288 kJ/mol
# GULP energy per Si atom -12403.978536 kJ/mol
# Density = 2.265162 g / cm^3
# Si number density = 22.703293 Si / 1000 Ang^3
#
#
#
# Elastic Constant Matrix: (Units=GPa)
#
#
# Indices 1 2 3 4 5 6 
#
# 1 103.0196 45.8481 11.5232 -6.2480 -6.9314 -15.7380
# 2 45.8481 118.1472 38.8463 -3.1779 13.9973 -29.1595
# 3 11.5232 38.8463 77.0233 -3.7097 18.7142 -9.4720
# 4 -6.2480 -3.1779 -3.7097 47.0466 -1.0020 13.9080
# 5 -6.9314 13.9973 18.7142 -1.0020 45.2686 2.5148
# 6 -15.7380 -29.1595 -9.4720 13.9080 2.5148 44.9634
#
#
#
# Elastic Compliance Matrix: (Units=1/GPa)
#
#
# Indices 1 2 3 4 5 6 
#
# 1 0.012330 -0.005036 -0.000028 0.001230 0.003458 0.000470
# 2 -0.005036 0.014149 -0.004701 -0.002335 -0.003663 0.007350
# 3 -0.000028 -0.004701 0.016802 0.000719 -0.005512 0.000567
# 4 0.001230 -0.002335 0.000719 0.023834 0.001607 -0.008394
# 5 0.003458 -0.003663 -0.005512 0.001607 0.026305 -0.004294
# 6 0.000470 0.007350 0.000567 -0.008394 -0.004294 0.030127
#
#
# Mechanical properties :
#
#
# Convention : Reuss Voigt Hill
#
# Bulk Modulus (GPa) = 42.10398 54.51393 48.30895
# Shear Modulus (GPa) = 33.11349 40.92055 37.01702
#
# Velocity S-wave (km/s) = 3.82322 4.25008 4.04229
# Velocity P-wave (km/s) = 6.17049 6.93886 6.56592
#
# Compressibility (1/GPa) = 0.02375072
#
# Stress axis : x y z
#
# Youngs Moduli (GPa) = 81.10004 70.67464 59.51695
#
# Poissons Ratio (x) = 0.35595 0.00165
# Poissons Ratio (y) = 0.40845 0.27981
# Poissons Ratio (z) = 0.00225 0.33227
#
# Static dielectric constant tensor:
#      x y z
#    x 4.313200 -0.230700 0.007680 
#    y -0.230700 4.219730 0.127740 
#    z 0.007680 0.127740 4.143670 
# 
# 
# High freq. dielectric constant tensor:
#      x y z
#    x 1.913570 -0.010830 0.006520 
#    y -0.010830 1.896600 0.001510 
#    z 0.006520 0.001510 1.893240 
# 
# From -- ./inp_files/5366.got.cif
#   From: 2010.03.12/outbox.cif.g09.slc.cpg/sg1_3_cif.got.tgz:5366.got - 2010.03.29 11:57:58.
