data_PCOD8000700
_publ_section_title
;
Structure prediction by ZEFSAII (Michael W. Deem and Ramdas Pophale) SiO2 
 PCOD8000700
Probable space group: P -1
;
_chemical_formula_sum "Si O2"
_cell_formula_units_Z 16
_cell_length_a 9.250445
_cell_length_b 9.219501
_cell_length_c 13.601267
_cell_angle_alpha 48.045599
_cell_angle_beta 104.655867
_cell_angle_gamma 80.603799
_cell_volume 740.166707
_symmetry_space_group_name_H-M "P -1"
_symmetry_group_IT_number 2
_symmetry_cell_setting 'triclinic'
loop_
_space_group_symop_operation_xyz
x,y,z
-x,-y,-z
loop_
_atom_site_type_symbol
_atom_site_label
_atom_site_fract_x
_atom_site_fract_y
_atom_site_fract_z
Si Si1 0.496795 0.223088 0.361648
Si Si2 0.165553 0.293719 0.215360
Si Si3 0.083070 0.239167 0.629769
Si Si4 0.311788 0.032880 0.948664
Si Si5 0.316801 0.643020 0.242025
Si Si6 0.846432 0.946227 0.485069
Si Si7 0.156355 0.921941 0.253280
Si Si8 0.022390 0.278425 0.927243
O O1 0.330749 0.333845 0.213599
O O2 0.471403 0.397428 0.366222
O O3 0.500000 0.000000 0.500000
O O4 0.670122 0.172645 0.359807
O O5 0.147083 0.219703 0.355250
O O6 0.002385 0.538467 0.073634
O O7 0.194041 0.100635 0.233271
O O8 0.232835 0.115005 0.789882
O O9 0.157624 0.159866 0.571325
O O10 0.000000 0.500000 0.500000
O O11 0.931868 0.176435 0.646162
O O12 0.191364 0.220503 0.920330
O O13 0.500000 0.000000 0.000000
O O14 0.324921 0.797923 0.086317
O O15 0.322489 0.732280 0.313160
O O16 0.141078 0.627021 0.213591
O O17 0.000000 0.000000 0.500000
O O18 0.034163 0.057663 0.080289
#
# Coordination Sequence:
#
# PCOD8000700 Si02
#       8
#     2   2   2   2   2   2   2   2
#     4   9  22  40  61  88 125 163 217 267 323 374
#     4  10  21  39  63  94 123 167 218 269 320 386
#     4  12  25  41  66  96 134 175 220 264 328 397
#     4  11  23  42  65 101 132 168 221 273 327 385
#     4  10  20  40  69  87 123 168 217 271 320 380
#     4  11  23  41  61  89 135 175 213 261 326 396
#     4  11  20  38  65  97 120 162 226 262 320 390
#     4  10  19  39  68  86 124 171 212 266 325 384
#
# _framework density 21.616752000000002
#
# number of rings (size 3 to 8) (size 9 to 14) (size 15 to 20)
#    0.000    1.500    3.750    1.875    3.500    4.000 
#    0.000    3.125    0.000    0.000    0.000    0.000 
#    0.000    0.000    0.000    0.000    0.000    0.000 
#
# Total GULP energy -198241.310689 kJ/mol
# GULP energy per Si atom -12390.081918 kJ/mol
# Density = 2.156755 g / cm^3
# Si number density = 21.616752 Si / 1000 Ang^3
#
#
#
# Elastic Constant Matrix: (Units=GPa)
#
#
# Indices 1 2 3 4 5 6 
#
# 1 138.1714 50.6193 21.6157 -16.9507 14.5327 -14.8331
# 2 50.6193 187.1181 36.2153 -29.6597 9.4899 -30.5300
# 3 21.6157 36.2153 53.6655 -17.1059 -3.3101 -12.5854
# 4 -16.9507 -29.6597 -17.1059 37.9519 -6.6487 4.9353
# 5 14.5327 9.4899 -3.3101 -6.6487 24.1256 -4.7553
# 6 -14.8331 -30.5300 -12.5854 4.9353 -4.7553 36.1958
#
#
#
# Elastic Compliance Matrix: (Units=1/GPa)
#
#
# Indices 1 2 3 4 5 6 
#
# 1 0.008819 -0.001410 -0.002435 0.000806 -0.004703 0.000851
# 2 -0.001410 0.007478 -0.002393 0.003464 -0.000610 0.004345
# 3 -0.002435 -0.002393 0.026443 0.009911 0.009977 0.006138
# 4 0.000806 0.003464 0.009911 0.035192 0.009840 0.003192
# 5 -0.004703 -0.000610 0.009977 0.009840 0.049831 0.006233
# 6 0.000851 0.004345 0.006138 0.003192 0.006233 0.034159
#
#
# Mechanical properties :
#
#
# Convention : Reuss Voigt Hill
#
# Bulk Modulus (GPa) = 33.04046 66.20618 49.62332
# Shear Modulus (GPa) = 27.10237 37.68829 32.39533
#
# Velocity S-wave (km/s) = 3.54470 4.18003 3.87540
# Velocity P-wave (km/s) = 5.66313 7.34783 6.55979
#
# Compressibility (1/GPa) = 0.03026592
#
# Stress axis : x y z
#
# Youngs Moduli (GPa) = 113.38528 133.73360 37.81664
#
# Poissons Ratio (x) = 0.18851 0.09208
# Poissons Ratio (y) = 0.15982 0.09049
# Poissons Ratio (z) = 0.27607 0.32000
#
# Static dielectric constant tensor:
#      x y z
#    x 4.211000 -0.301680 0.287150 
#    y -0.301680 4.297420 -0.223380 
#    z 0.287150 -0.223380 4.072670 
# 
# 
# High freq. dielectric constant tensor:
#      x y z
#    x 1.834740 -0.010650 0.002000 
#    y -0.010650 1.869610 -0.017530 
#    z 0.002000 -0.017530 1.838620 
# 
# From -- ./inp_files/295243.got.cif
#   From: 2010.06.25/outbox.cif.g09.slc.cpg/sg2_148_cif.got.tgz:295243.got - 2010.06.27 13:26:56.
