data_PCOD8000048
_publ_section_title
;
Structure prediction by ZEFSAII (Michael W. Deem and Ramdas Pophale) SiO2 
 PCOD8000048
Probable space group: P 1
;
_chemical_formula_sum "Si O2"
_cell_formula_units_Z 8
_cell_length_a 8.693176
_cell_length_b 8.107654
_cell_length_c 8.125468
_cell_angle_alpha 60.627472
_cell_angle_beta 72.683329
_cell_angle_gamma 112.735607
_cell_volume 366.081588
_symmetry_space_group_name_H-M "P 1"
_symmetry_group_IT_number 1
_symmetry_cell_setting 'triclinic'
loop_
_space_group_symop_operation_xyz
x,y,z
loop_
_atom_site_type_symbol
_atom_site_label
_atom_site_fract_x
_atom_site_fract_y
_atom_site_fract_z
Si Si1 0.907840 0.513150 0.972130
Si Si2 0.768599 0.777196 0.061313
Si Si3 0.671422 0.014617 0.429458
Si Si4 0.873304 0.201947 0.612301
Si Si5 0.335131 0.565236 0.272274
Si Si6 0.012611 0.015068 0.192942
Si Si7 0.088027 0.674485 0.477053
Si Si8 0.275911 0.571285 0.921704
O O1 0.040737 0.617532 0.712100
O O2 0.078380 0.561542 0.025018
O O3 0.822239 0.653954 0.975275
O O4 0.715178 0.215020 0.183143
O O5 0.520485 0.575960 0.290932
O O6 0.943064 0.905866 0.084319
O O7 0.758766 0.974686 0.883260
O O8 0.743738 0.143796 0.519522
O O9 0.800691 0.922466 0.394243
O O10 0.428073 0.775781 0.634468
O O11 0.108564 0.288732 0.468020
O O12 0.888994 0.423774 0.576460
O O13 0.300201 0.726680 0.319441
O O14 0.396593 0.646167 0.020516
O O15 0.106873 0.906600 0.309186
O O16 0.190425 0.310590 0.997669
#
# Coordination Sequence:
#
# PCOD8000048 Si02
#       8
#     1   1   1   1   1   1   1   1
#     4  11  24  43  68 100 137 172 226 271 330 395
#     4  12  24  41  71 100 132 178 217 275 333 394
#     4  11  22  42  70  98 135 176 220 274 333 393
#     4  10  20  42  68  95 137 168 216 276 328 392
#     4  10  23  43  69  96 131 174 220 269 337 383
#     4  11  23  43  65 100 137 171 226 272 329 393
#     4  10  23  45  66  97 138 176 212 282 326 390
#     4  11  23  45  69  98 133 179 217 281 330 390
#
# _framework density 21.853051000000001
#
# number of rings (size 3 to 8) (size 9 to 14) (size 15 to 20)
#    0.750    0.500    3.750    3.750    1.750    1.000 
#    2.250    0.000    0.000    0.000    0.000    0.000 
#    0.000    0.000    0.000    0.000    0.000    0.000 
#
# Total GULP energy -99117.544487 kJ/mol
# GULP energy per Si atom -12389.693061 kJ/mol
# Density = 2.180331 g / cm^3
# Si number density = 21.853051 Si / 1000 Ang^3
#
#
#
# Elastic Constant Matrix: (Units=GPa)
#
#
# Indices 1 2 3 4 5 6 
#
# 1 68.8657 38.7091 31.4008 -8.6633 -4.2730 -11.6057
# 2 38.7091 96.7239 40.5318 2.9530 -7.2753 -14.2970
# 3 31.4008 40.5318 102.4089 -11.3209 -6.5186 3.4842
# 4 -8.6633 2.9530 -11.3209 37.3531 1.7422 0.7235
# 5 -4.2730 -7.2753 -6.5186 1.7422 32.2437 3.9272
# 6 -11.6057 -14.2970 3.4842 0.7235 3.9272 32.7189
#
#
#
# Elastic Compliance Matrix: (Units=1/GPa)
#
#
# Indices 1 2 3 4 5 6 
#
# 1 0.021115 -0.006291 -0.003708 0.004182 -0.000214 0.005069
# 2 -0.006291 0.015936 -0.004953 -0.004384 0.001365 0.005192
# 3 -0.003708 -0.004953 0.013543 0.003664 0.001563 -0.005190
# 4 0.004182 -0.004384 0.003664 0.029276 -0.001113 -0.001336
# 5 -0.000214 0.001365 0.001563 -0.001113 0.032093 -0.003473
# 6 0.005069 0.005192 -0.005190 -0.001336 -0.003473 0.035629
#
#
# Mechanical properties :
#
#
# Convention : Reuss Voigt Hill
#
# Bulk Modulus (GPa) = 48.33165 54.36465 51.34815
# Shear Modulus (GPa) = 27.11606 30.95360 29.03483
#
# Velocity S-wave (km/s) = 3.52637 3.76765 3.64901
# Velocity P-wave (km/s) = 6.22455 6.62256 6.42664
#
# Compressibility (1/GPa) = 0.02069037
#
# Stress axis : x y z
#
# Youngs Moduli (GPa) = 47.35958 62.75203 73.83848
#
# Poissons Ratio (x) = 0.39477 0.27381
# Poissons Ratio (y) = 0.29793 0.36569
# Poissons Ratio (z) = 0.17562 0.31079
#
# Static dielectric constant tensor:
#      x y z
#    x 3.640060 0.070680 0.012160 
#    y 0.070680 3.834890 -0.019910 
#    z 0.012160 -0.019910 4.020660 
# 
# 
# High freq. dielectric constant tensor:
#      x y z
#    x 1.840420 0.007840 -0.006640 
#    y 0.007840 1.857030 0.002930 
#    z -0.006640 0.002930 1.861880 
# 
# From -- ./inp_files/4135.got.cif
#   From: 2010.03.12/outbox.cif.g09.slc.cpg/sg1_3_cif.got.tgz:4135.got - 2010.03.29 11:57:58.
