data_PCOD8000467
_publ_section_title
;
Structure prediction by ZEFSAII (Michael W. Deem and Ramdas Pophale) SiO2 
 PCOD8000467
Probable space group: P -1
;
_chemical_formula_sum "Si O2"
_cell_formula_units_Z 16
_cell_length_a 13.847523
_cell_length_b 14.626904
_cell_length_c 12.039731
_cell_angle_alpha 40.586956
_cell_angle_beta 60.524286
_cell_angle_gamma 32.109847
_cell_volume 758.454021
_symmetry_space_group_name_H-M "P -1"
_symmetry_group_IT_number 2
_symmetry_cell_setting 'triclinic'
loop_
_space_group_symop_operation_xyz
x,y,z
-x,-y,-z
loop_
_atom_site_type_symbol
_atom_site_label
_atom_site_fract_x
_atom_site_fract_y
_atom_site_fract_z
Si Si1 0.052842 0.697379 0.122552
Si Si2 0.252827 0.033613 0.773077
Si Si3 0.933484 0.345938 0.488176
Si Si4 0.103682 0.348430 0.915466
Si Si5 0.101432 0.990306 0.542419
Si Si6 0.315608 0.284283 0.526257
Si Si7 0.367821 0.540784 0.961907
Si Si8 0.747193 0.869243 0.745756
O O1 0.922772 0.760675 0.043141
O O2 0.229073 0.410258 0.337123
O O3 0.171602 0.701492 0.996040
O O4 0.888819 0.910614 0.115343
O O5 0.249563 0.195234 0.675153
O O6 0.157041 0.133752 0.610633
O O7 0.485235 0.738225 0.908100
O O8 0.776148 0.502213 0.533985
O O9 0.848357 0.565983 0.262449
O O10 0.945282 0.195458 0.542042
O O11 0.896823 0.590581 0.875680
O O12 0.282280 0.127153 0.108529
O O13 0.169982 0.061915 0.381100
O O14 0.292792 0.704464 0.745828
O O15 0.000000 0.000000 0.500000
O O16 0.552724 0.053003 0.610360
O O17 0.500000 0.500000 0.000000
#
# Coordination Sequence:
#
# PCOD8000467 Si02
#       8
#     2   2   2   2   2   2   2   2
#     4  11  22  39  66  93 128 166 207 262 323 371
#     4  11  22  41  66 101 131 155 208 271 320 380
#     4  10  20  40  65  90 132 157 197 272 318 367
#     4  10  19  39  62  92 124 162 200 262 330 368
#     4  11  24  46  61  84 131 175 213 252 305 377
#     4  11  21  39  65 101 123 153 205 272 333 365
#     4  12  25  41  65  92 126 178 217 251 304 375
#     4  10  23  37  63  93 125 161 215 260 310 380
#
# _framework density 21.095541999999998
#
# number of rings (size 3 to 8) (size 9 to 14) (size 15 to 20)
#    0.000    1.250    3.750    3.000    1.750    4.000 
#    4.500    0.625    0.000    0.000    0.000    0.000 
#    0.000    0.000    0.000    0.000    0.000    0.000 
#
# Total GULP energy -198316.234788 kJ/mol
# GULP energy per Si atom -12394.764674 kJ/mol
# Density = 2.104753 g / cm^3
# Si number density = 21.095542 Si / 1000 Ang^3
#
#
#
# Elastic Constant Matrix: (Units=GPa)
#
#
# Indices 1 2 3 4 5 6 
#
# 1 93.1681 22.8317 7.6761 0.2444 2.9341 17.8037
# 2 22.8317 70.4541 14.5373 2.0106 -3.6815 7.8987
# 3 7.6761 14.5373 86.8347 5.3362 6.8121 7.4915
# 4 0.2444 2.0106 5.3362 27.6832 1.9872 -0.6676
# 5 2.9341 -3.6815 6.8121 1.9872 31.3896 2.3389
# 6 17.8037 7.8987 7.4915 -0.6676 2.3389 33.2220
#
#
#
# Elastic Compliance Matrix: (Units=1/GPa)
#
#
# Indices 1 2 3 4 5 6 
#
# 1 0.012768 -0.003551 0.000066 0.000075 -0.001187 -0.005928
# 2 -0.003551 0.016209 -0.002433 -0.000927 0.002941 -0.001628
# 3 0.000066 -0.002433 0.012440 -0.002079 -0.002702 -0.002113
# 4 0.000075 -0.000927 -0.002079 0.036779 -0.002107 0.001537
# 5 -0.001187 0.002941 -0.002702 -0.002107 0.033170 -0.001831
# 6 -0.005928 -0.001628 -0.002113 0.001537 -0.001831 0.034301
#
#
# Mechanical properties :
#
#
# Convention : Reuss Voigt Hill
#
# Bulk Modulus (GPa) = 33.80602 37.83856 35.82229
# Shear Modulus (GPa) = 29.87528 32.15306 31.01417
#
# Velocity S-wave (km/s) = 3.76731 3.90829 3.83845
# Velocity P-wave (km/s) = 5.91469 6.19209 6.05498
#
# Compressibility (1/GPa) = 0.02958053
#
# Stress axis : x y z
#
# Youngs Moduli (GPa) = 78.32079 61.69407 80.38783
#
# Poissons Ratio (x) = 0.21906 -0.00528
# Poissons Ratio (y) = 0.27810 0.19558
# Poissons Ratio (z) = -0.00515 0.15010
#
# Static dielectric constant tensor:
#      x y z
#    x 3.712010 0.203600 0.157160 
#    y 0.203600 3.854760 0.097410 
#    z 0.157160 0.097410 3.970970 
# 
# 
# High freq. dielectric constant tensor:
#      x y z
#    x 1.815360 0.015510 0.012920 
#    y 0.015510 1.815950 0.006340 
#    z 0.012920 0.006340 1.832070 
# 
# From -- ./inp_files/186825.got.cif
#   From: 2010.06.25/outbox.cif.g09.slc.cpg/sg2_94_cif.got.tgz:186825.got - 2010.06.27 13:26:56.
