data_PCOD8000843
_publ_section_title
;
Structure prediction by ZEFSAII (Michael W. Deem and Ramdas Pophale) SiO2 
 PCOD8000843
Probable space group: P -1
;
_chemical_formula_sum "Si O2"
_cell_formula_units_Z 14
_cell_length_a 13.746909
_cell_length_b 8.827465
_cell_length_c 11.416112
_cell_angle_alpha 112.764111
_cell_angle_beta 140.430339
_cell_angle_gamma 49.083166
_cell_volume 646.537190
_symmetry_space_group_name_H-M "P -1"
_symmetry_group_IT_number 2
_symmetry_cell_setting 'triclinic'
loop_
_space_group_symop_operation_xyz
x,y,z
-x,-y,-z
loop_
_atom_site_type_symbol
_atom_site_label
_atom_site_fract_x
_atom_site_fract_y
_atom_site_fract_z
Si Si1 0.278605 0.872248 0.592172
Si Si2 0.486786 0.187662 0.418827
Si Si3 0.929422 0.915854 0.154293
Si Si4 0.006981 0.665819 0.490439
Si Si5 0.113754 0.499083 0.282920
Si Si6 0.775572 0.915138 0.787451
Si Si7 0.324822 0.698949 0.832725
O O1 0.465955 0.782142 0.659221
O O2 0.350943 0.718352 0.724498
O O3 0.119322 0.876602 0.371310
O O4 0.195133 0.103011 0.628398
O O5 0.325762 0.405904 0.398656
O O6 0.689005 0.067005 0.641210
O O7 0.406405 0.051883 0.302952
O O8 0.738198 0.091068 0.100081
O O9 0.887205 0.970799 0.992583
O O10 0.953668 0.701118 0.119790
O O11 0.094075 0.580023 0.418629
O O12 0.153780 0.686413 0.699653
O O13 0.000000 0.500000 0.500000
O O14 0.079516 0.324692 0.194217
O O15 0.500000 0.500000 0.000000
#
# Coordination Sequence:
#
# PCOD8000843 Si02
#       7
#     2   2   2   2   2   2   2
#     4  11  22  45  63  97 127 172 213 265 324 379
#     4   9  22  39  64  92 136 163 212 254 323 384
#     4  11  21  39  66  87 130 167 213 262 316 377
#     4  11  22  41  71  92 125 170 218 262 322 381
#     4  10  19  40  63  91 130 168 205 259 316 376
#     4   9  21  38  62  97 128 172 205 258 319 381
#     4  11  25  44  65  94 129 171 216 274 323 371
#
# _framework density 21.653821000000001
#
# number of rings (size 3 to 8) (size 9 to 14) (size 15 to 20)
#    0.857    0.857    2.857    2.143    2.000    1.143 
#    2.571    4.286    0.000    0.000    0.000    0.000 
#    0.000    0.000    0.000    0.000    0.000    0.000 
#
# Total GULP energy -173439.371414 kJ/mol
# GULP energy per Si atom -12388.526530 kJ/mol
# Density = 2.160454 g / cm^3
# Si number density = 21.653821 Si / 1000 Ang^3
#
#
#
# Elastic Constant Matrix: (Units=GPa)
#
#
# Indices 1 2 3 4 5 6 
#
# 1 113.6078 48.7323 24.8197 -15.5525 -15.5557 -10.6808
# 2 48.7323 110.1282 39.3374 -17.5873 -15.2939 -16.8488
# 3 24.8197 39.3374 89.7949 -10.3101 -26.7332 -4.4494
# 4 -15.5525 -17.5873 -10.3101 32.5376 0.3385 -7.6173
# 5 -15.5557 -15.2939 -26.7332 0.3385 20.8003 -2.5245
# 6 -10.6808 -16.8488 -4.4494 -7.6173 -2.5245 40.3903
#
#
#
# Elastic Compliance Matrix: (Units=1/GPa)
#
#
# Indices 1 2 3 4 5 6 
#
# 1 0.012169 -0.003299 0.001545 0.005264 0.009008 0.003568
# 2 -0.003299 0.014282 -0.002699 0.006727 0.005230 0.006383
# 3 0.001545 -0.002699 0.020651 0.006589 0.026144 0.004434
# 4 0.005264 0.006727 0.006589 0.042062 0.018368 0.014005
# 5 0.009008 0.005230 0.026144 0.018368 0.093997 0.016783
# 6 0.003568 0.006383 0.004434 0.014005 0.016783 0.032543
#
#
# Mechanical properties :
#
#
# Convention : Reuss Voigt Hill
#
# Bulk Modulus (GPa) = 26.18090 59.92332 43.05211
# Shear Modulus (GPa) = 21.06654 32.12177 26.59415
#
# Velocity S-wave (km/s) = 3.12248 3.85570 3.50830
# Velocity P-wave (km/s) = 5.01166 6.89604 6.02794
#
# Compressibility (1/GPa) = 0.03819578
#
# Stress axis : x y z
#
# Youngs Moduli (GPa) = 82.17282 70.02047 48.42265
#
# Poissons Ratio (x) = 0.23102 -0.07479
# Poissons Ratio (y) = 0.27111 0.13068
# Poissons Ratio (z) = -0.12693 0.18896
#
# Static dielectric constant tensor:
#      x y z
#    x 3.937770 -0.004490 -0.374590 
#    y -0.004490 4.254050 -0.168620 
#    z -0.374590 -0.168620 3.774140 
# 
# 
# High freq. dielectric constant tensor:
#      x y z
#    x 1.830400 -0.008400 -0.022630 
#    y -0.008400 1.859410 -0.005600 
#    z -0.022630 -0.005600 1.834250 
# 
# From -- ./inp_files/447908.got.cif
#   From: 2010.06.25/outbox.cif.g09.slc.cpg/sg2_224_cif.got.tgz:447908.got - 2010.06.27 13:26:56.
