data_PCOD8000765
_publ_section_title
;
Structure prediction by ZEFSAII (Michael W. Deem and Ramdas Pophale) SiO2 
 PCOD8000765
Probable space group: P -1
;
_chemical_formula_sum "Si O2"
_cell_formula_units_Z 14
_cell_length_a 8.214200
_cell_length_b 14.962568
_cell_length_c 16.316080
_cell_angle_alpha 26.483667
_cell_angle_beta 137.392564
_cell_angle_gamma 134.160023
_cell_volume 600.604521
_symmetry_space_group_name_H-M "P -1"
_symmetry_group_IT_number 2
_symmetry_cell_setting 'triclinic'
loop_
_space_group_symop_operation_xyz
x,y,z
-x,-y,-z
loop_
_atom_site_type_symbol
_atom_site_label
_atom_site_fract_x
_atom_site_fract_y
_atom_site_fract_z
Si Si1 0.487909 0.807819 0.912146
Si Si2 0.995645 0.786491 0.407773
Si Si3 0.873882 0.516142 0.731446
Si Si4 0.028755 0.289984 0.226131
Si Si5 0.492996 0.336276 0.275987
Si Si6 0.434966 0.183089 0.881512
Si Si7 0.762826 0.800102 0.864475
O O1 0.661474 0.900683 0.826440
O O2 0.213986 0.865768 0.753096
O O3 0.479296 0.569241 0.093982
O O4 0.582100 0.881886 0.975960
O O5 0.257243 0.713699 0.552333
O O6 0.839154 0.652344 0.527699
O O7 0.830466 0.760363 0.286574
O O8 0.047756 0.026688 0.250700
O O9 0.946426 0.679703 0.693333
O O10 0.628827 0.378309 0.778587
O O11 0.094261 0.385326 0.905129
O O12 0.267907 0.207404 0.346072
O O13 0.000000 0.500000 0.000000
O O14 0.459242 0.276676 0.216168
O O15 0.500000 0.000000 0.000000
#
# Coordination Sequence:
#
# PCOD8000765 Si02
#       7
#     2   2   2   2   2   2   2
#     4  11  22  43  75  98 134 188 222 275 351 399
#     4  12  28  42  68 104 138 183 228 276 336 412
#     4  12  22  48  73  97 138 181 226 285 343 395
#     4  10  19  39  77  99 129 181 222 277 349 397
#     4  11  21  43  70 104 138 173 223 284 345 397
#     4  12  26  48  70  97 138 185 233 277 336 408
#     4  12  23  45  73 102 141 173 224 289 340 404
#
# _framework density 23.309847999999999
#
# number of rings (size 3 to 8) (size 9 to 14) (size 15 to 20)
#    0.000    0.571    8.571    2.143    0.000    1.143 
#    2.571    1.429    0.000    0.000    0.000    0.000 
#    0.000    0.000    0.000    0.000    0.000    0.000 
#
# Total GULP energy -173547.584801 kJ/mol
# GULP energy per Si atom -12396.256057 kJ/mol
# Density = 2.325679 g / cm^3
# Si number density = 23.309848 Si / 1000 Ang^3
#
#
#
# Elastic Constant Matrix: (Units=GPa)
#
#
# Indices 1 2 3 4 5 6 
#
# 1 123.8543 34.3764 31.7681 26.3031 -7.2198 -2.9636
# 2 34.3764 95.3776 36.7144 30.9031 2.4793 0.3501
# 3 31.7681 36.7144 60.8507 6.9954 1.9894 9.8866
# 4 26.3031 30.9031 6.9954 41.1001 16.5924 6.2913
# 5 -7.2198 2.4793 1.9894 16.5924 21.0280 10.8660
# 6 -2.9636 0.3501 9.8866 6.2913 10.8660 39.3776
#
#
#
# Elastic Compliance Matrix: (Units=1/GPa)
#
#
# Indices 1 2 3 4 5 6 
#
# 1 0.014180 0.003345 -0.008082 -0.018039 0.019126 0.000671
# 2 0.003345 0.021272 -0.012852 -0.023129 0.016908 0.002319
# 3 -0.008082 -0.012852 0.027988 0.016574 -0.013682 -0.006394
# 4 -0.018039 -0.023129 0.016574 0.077060 -0.066167 0.000634
# 5 0.019126 0.016908 -0.013682 -0.066167 0.113983 -0.016157
# 6 0.000671 0.002319 -0.006394 0.000634 -0.016157 0.031387
#
#
# Mechanical properties :
#
#
# Convention : Reuss Voigt Hill
#
# Bulk Modulus (GPa) = 35.38151 53.97784 44.67967
# Shear Modulus (GPa) = 15.13007 32.11606 23.62306
#
# Velocity S-wave (km/s) = 2.55048 3.71589 3.18691
# Velocity P-wave (km/s) = 4.88723 6.45115 5.72286
#
# Compressibility (1/GPa) = 0.02826335
#
# Stress axis : x y z
#
# Youngs Moduli (GPa) = 70.51965 47.01058 35.72986
#
# Poissons Ratio (x) = -0.15726 0.28877
# Poissons Ratio (y) = -0.23590 0.45918
# Poissons Ratio (z) = 0.56994 0.60416
#
# Static dielectric constant tensor:
#      x y z
#    x 4.767640 0.312940 -0.085630 
#    y 0.312940 4.165800 0.235670 
#    z -0.085630 0.235670 4.267810 
# 
# 
# High freq. dielectric constant tensor:
#      x y z
#    x 1.926480 0.015260 -0.005020 
#    y 0.015260 1.912960 0.010910 
#    z -0.005020 0.010910 1.916700 
# 
# From -- ./inp_files/425695.got.cif
#   From: 2010.06.25/outbox.cif.g09.slc.cpg/sg2_213_cif.got.tgz:425695.got - 2010.06.27 13:26:56.
