data_PCOD8000605
_publ_section_title
;
Structure prediction by ZEFSAII (Michael W. Deem and Ramdas Pophale) SiO2 
 PCOD8000605
Probable space group: P -1
;
_chemical_formula_sum "Si O2"
_cell_formula_units_Z 14
_cell_length_a 9.283529
_cell_length_b 9.240827
_cell_length_c 17.666565
_cell_angle_alpha 113.481634
_cell_angle_beta 130.820960
_cell_angle_gamma 106.639550
_cell_volume 647.888763
_symmetry_space_group_name_H-M "P -1"
_symmetry_group_IT_number 2
_symmetry_cell_setting 'triclinic'
loop_
_space_group_symop_operation_xyz
x,y,z
-x,-y,-z
loop_
_atom_site_type_symbol
_atom_site_label
_atom_site_fract_x
_atom_site_fract_y
_atom_site_fract_z
Si Si1 0.965727 0.400662 0.265131
Si Si2 0.716122 0.920223 0.025885
Si Si3 0.108057 0.572637 0.185895
Si Si4 0.254285 0.716384 0.574945
Si Si5 0.687003 0.884057 0.348594
Si Si6 0.145956 0.899498 0.049192
Si Si7 0.246348 0.396004 0.010967
O O1 0.634509 0.255160 0.143045
O O2 0.112952 0.582717 0.280429
O O3 0.208895 0.595697 0.455171
O O4 0.923149 0.184071 0.196084
O O5 0.865449 0.997592 0.008313
O O6 0.704329 0.749186 0.035579
O O7 0.440484 0.734660 0.302036
O O8 0.018569 0.684986 0.143511
O O9 0.833665 0.270412 0.007122
O O10 0.000000 0.500000 0.500000
O O11 0.221104 0.880845 0.591934
O O12 0.579994 0.875312 0.753431
O O13 0.547894 0.702669 0.188896
O O14 0.000000 0.000000 0.500000
O O15 0.838740 0.703218 0.952564
#
# Coordination Sequence:
#
# PCOD8000605 Si02
#       7
#     2   2   2   2   2   2   2
#     4  10  23  39  60  91 130 170 205 253 321 363
#     4  10  21  38  63  91 126 167 211 255 301 380
#     4  10  21  42  66  90 129 169 204 259 311 377
#     4  12  22  40  65  91 125 167 206 263 313 369
#     4  11  23  40  66  99 125 161 214 261 312 366
#     4  10  19  39  65  92 121 167 214 250 307 372
#     4  11  20  40  68  95 119 166 217 255 306 374
#
# _framework density 21.608649
#
# number of rings (size 3 to 8) (size 9 to 14) (size 15 to 20)
#    0.000    1.429    4.286    2.143    0.000    1.143 
#    0.000    2.143    0.000    0.000    0.000    0.000 
#    0.000    0.000    0.000    0.000    0.000    0.000 
#
# Total GULP energy -173493.106461 kJ/mol
# GULP energy per Si atom -12392.364747 kJ/mol
# Density = 2.155947 g / cm^3
# Si number density = 21.608649 Si / 1000 Ang^3
#
#
#
# Elastic Constant Matrix: (Units=GPa)
#
#
# Indices 1 2 3 4 5 6 
#
# 1 44.2327 23.8762 38.6994 -0.1648 -15.4323 11.4225
# 2 23.8762 115.3027 52.0044 10.8493 -23.5046 -6.5911
# 3 38.6994 52.0044 126.9976 -1.4627 -15.2194 -7.6468
# 4 -0.1648 10.8493 -1.4627 29.4494 -1.7812 2.4545
# 5 -15.4323 -23.5046 -15.2194 -1.7812 35.7768 6.3508
# 6 11.4225 -6.5911 -7.6468 2.4545 6.3508 39.3673
#
#
#
# Elastic Compliance Matrix: (Units=1/GPa)
#
#
# Indices 1 2 3 4 5 6 
#
# 1 0.044443 -0.001821 -0.011914 0.002841 0.016299 -0.018321
# 2 -0.001821 0.012356 -0.003852 -0.004544 0.005239 0.001287
# 3 -0.011914 -0.003852 0.013077 0.001336 -0.003063 0.005763
# 4 0.002841 -0.004544 0.001336 0.036105 0.001277 -0.003783
# 5 0.016299 0.005239 -0.003063 0.001277 0.039108 -0.010836
# 6 -0.018321 0.001287 0.005763 -0.003783 -0.010836 0.034037
#
#
# Mechanical properties :
#
#
# Convention : Reuss Voigt Hill
#
# Bulk Modulus (GPa) = 28.81679 57.29923 43.05801
# Shear Modulus (GPa) = 22.13676 32.38222 27.25949
#
# Velocity S-wave (km/s) = 3.20416 3.87535 3.55563
# Velocity P-wave (km/s) = 5.20130 6.82633 6.06846
#
# Compressibility (1/GPa) = 0.03470199
#
# Stress axis : x y z
#
# Youngs Moduli (GPa) = 22.50066 80.93004 76.46817
#
# Poissons Ratio (x) = 0.14740 0.91106
# Poissons Ratio (y) = 0.04098 0.29454
# Poissons Ratio (z) = 0.26808 0.31173
#
# Static dielectric constant tensor:
#      x y z
#    x 3.909700 -0.057430 -0.182290 
#    y -0.057430 4.079050 0.271730 
#    z -0.182290 0.271730 3.836770 
# 
# 
# High freq. dielectric constant tensor:
#      x y z
#    x 1.840480 -0.003930 -0.005870 
#    y -0.003930 1.862570 0.021370 
#    z -0.005870 0.021370 1.835880 
# 
# From -- ./inp_files/157594.got.cif
#   From: 2010.06.25/outbox.cif.g09.slc.cpg/sg2_79_cif.got.tgz:157594.got - 2010.06.27 13:26:56.
