data_PCOD8000395
_publ_section_title
;
Structure prediction by ZEFSAII (Michael W. Deem and Ramdas Pophale) SiO2 
 PCOD8000395
Probable space group: P -1
;
_chemical_formula_sum "Si O2"
_cell_formula_units_Z 14
_cell_length_a 13.623139
_cell_length_b 18.458119
_cell_length_c 11.601907
_cell_angle_alpha 26.377556
_cell_angle_beta 47.857629
_cell_angle_gamma 28.897677
_cell_volume 531.936981
_symmetry_space_group_name_H-M "P -1"
_symmetry_group_IT_number 2
_symmetry_cell_setting 'triclinic'
loop_
_space_group_symop_operation_xyz
x,y,z
-x,-y,-z
loop_
_atom_site_type_symbol
_atom_site_label
_atom_site_fract_x
_atom_site_fract_y
_atom_site_fract_z
Si Si1 0.116833 0.358142 0.846206
Si Si2 0.753215 0.603281 0.621649
Si Si3 0.974041 0.821352 0.654188
Si Si4 0.133819 0.058441 0.929042
Si Si5 0.362305 0.560736 0.876911
Si Si6 0.473121 0.888893 0.051260
Si Si7 0.100219 0.034931 0.741826
O O1 0.030579 0.348053 0.039573
O O2 0.243888 0.401530 0.722590
O O3 0.315241 0.044001 0.070527
O O4 0.899328 0.596518 0.585885
O O5 0.546757 0.912669 0.278323
O O6 0.923285 0.349993 0.754151
O O7 0.651567 0.574751 0.829497
O O8 0.210602 0.676078 0.716742
O O9 0.740688 0.170641 0.366476
O O10 0.977779 0.783213 0.568777
O O11 0.391792 0.830882 0.109654
O O12 0.120778 0.132813 0.698679
O O13 0.099994 0.898640 0.177650
O O14 0.635987 0.316171 0.979015
#
# Coordination Sequence:
#
# PCOD8000395 Si02
#       7
#     2   2   2   2   2   2   2
#     4   9  19  33  58  88 106 143 191 239 284 315
#     4  10  19  39  61  86 110 146 196 243 268 339
#     4  10  20  37  60  86 114 142 200 243 267 345
#     4  10  22  37  56  84 123 148 193 225 284 350
#     4  10  21  36  63  85 111 149 197 235 285 323
#     4  10  20  37  59  83 115 151 190 236 279 333
#     4  11  22  39  56  84 121 157 178 235 292 339
#
# _framework density 26.318909000000001
#
# number of rings (size 3 to 8) (size 9 to 14) (size 15 to 20)
#    0.000    2.000    1.429    3.000    4.000    0.000 
#    0.000   11.429    0.000    6.000    0.000    0.000 
#    0.000    0.000    0.000    0.000    0.000    0.000 
#
# Total GULP energy -173553.381318 kJ/mol
# GULP energy per Si atom -12396.670094 kJ/mol
# Density = 2.625901 g / cm^3
# Si number density = 26.318909 Si / 1000 Ang^3
#
#
#
# Elastic Constant Matrix: (Units=GPa)
#
#
# Indices 1 2 3 4 5 6 
#
# 1 189.0557 42.6796 15.5876 14.6163 33.5476 5.0652
# 2 42.6796 56.5682 6.5866 15.3246 30.3083 5.0273
# 3 15.5876 6.5866 39.8388 11.1519 29.7284 10.1830
# 4 14.6163 15.3246 11.1519 32.0653 6.7033 14.5593
# 5 33.5476 30.3083 29.7284 6.7033 42.8499 4.9001
# 6 5.0652 5.0273 10.1830 14.5593 4.9001 40.2687
#
#
#
# Elastic Compliance Matrix: (Units=1/GPa)
#
#
# Indices 1 2 3 4 5 6 
#
# 1 0.006585 -0.002788 0.000912 -0.001322 -0.003633 0.000209
# 2 -0.002788 0.063814 0.058267 -0.032691 -0.078147 -0.001022
# 3 0.000912 0.058267 0.112525 -0.040404 -0.112816 -0.007508
# 4 -0.001322 -0.032691 -0.040404 0.057483 0.044539 -0.011738
# 5 -0.003633 -0.078147 -0.112816 0.044539 0.152288 0.004107
# 6 0.000209 -0.001022 -0.007508 -0.011738 0.004107 0.030577
#
#
# Mechanical properties :
#
#
# Convention : Reuss Voigt Hill
#
# Bulk Modulus (GPa) = 3.38173 46.13003 24.75588
# Shear Modulus (GPa) = 12.22319 37.74406 24.98363
#
# Velocity S-wave (km/s) = 2.15739 3.79107 3.08436
# Velocity P-wave (km/s) = 2.73742 6.06039 4.70222
#
# Compressibility (1/GPa) = 0.29570647
#
# Stress axis : x y z
#
# Youngs Moduli (GPa) = 151.86012 15.67052 8.88694
#
# Poissons Ratio (x) = 0.04370 -0.00811
# Poissons Ratio (y) = 0.42344 -0.51782
# Poissons Ratio (z) = -0.13853 -0.91308
#
# Static dielectric constant tensor:
#      x y z
#    x 5.223650 -0.171620 0.517070 
#    y -0.171620 4.589400 0.209000 
#    z 0.517070 0.209000 4.560920 
# 
# 
# High freq. dielectric constant tensor:
#      x y z
#    x 2.081460 -0.008730 0.028120 
#    y -0.008730 2.035010 0.011840 
#    z 0.028120 0.011840 2.053250 
# 
# From -- ./inp_files/430740.got.cif
#   From: 2010.06.25/outbox.cif.g09.slc.cpg/sg2_216_cif.got.tgz:430740.got - 2010.06.27 13:26:56.
