data_PCOD8000774
_publ_section_title
;
Structure prediction by ZEFSAII (Michael W. Deem and Ramdas Pophale) SiO2 
 PCOD8000774
Probable space group: P -1
;
_chemical_formula_sum "Si O2"
_cell_formula_units_Z 16
_cell_length_a 15.593475
_cell_length_b 15.299505
_cell_length_c 15.350104
_cell_angle_alpha 49.244600
_cell_angle_beta 151.672190
_cell_angle_gamma 149.303685
_cell_volume 801.029982
_symmetry_space_group_name_H-M "P -1"
_symmetry_group_IT_number 2
_symmetry_cell_setting 'triclinic'
loop_
_space_group_symop_operation_xyz
x,y,z
-x,-y,-z
loop_
_atom_site_type_symbol
_atom_site_label
_atom_site_fract_x
_atom_site_fract_y
_atom_site_fract_z
Si Si1 0.635284 0.652044 0.950484
Si Si2 0.251123 0.171811 0.772995
Si Si3 0.792498 0.108073 0.141362
Si Si4 0.283581 0.394642 0.530015
Si Si5 0.339200 0.627730 0.551095
Si Si6 0.114498 0.427715 0.873584
Si Si7 0.024212 0.009504 0.181044
Si Si8 0.024640 0.263798 0.067844
O O1 0.380199 0.583792 0.708740
O O2 0.500000 0.500000 0.000000
O O3 0.838585 0.677554 0.052560
O O4 0.820924 0.847669 0.032111
O O5 0.183667 0.235931 0.601679
O O6 0.017565 0.068759 0.710235
O O7 0.212116 0.031491 0.780567
O O8 0.577910 0.347406 0.992457
O O9 0.087770 0.297086 0.332151
O O10 0.816269 0.179657 0.020438
O O11 0.500000 0.000000 0.000000
O O12 0.210488 0.473047 0.466720
O O13 0.630863 0.565594 0.705269
O O14 0.102479 0.611248 0.358381
O O15 0.640904 0.837521 0.650075
O O16 0.978022 0.342380 0.904529
O O17 0.933365 0.097304 0.049459
#
# Coordination Sequence:
#
# PCOD8000774 Si02
#       8
#     2   2   2   2   2   2   2   2
#     4  12  22  42  64  88 125 160 200 244 304 356
#     4  10  20  40  61  86 124 160 197 250 306 351
#     4  11  22  35  60  92 120 153 205 252 293 358
#     4  10  19  40  59  84 118 164 201 239 303 361
#     4  11  23  38  64  90 121 157 205 247 298 353
#     4  11  22  41  62  89 124 160 200 249 296 357
#     4  10  20  39  62  87 120 161 197 248 299 355
#     4   9  21  40  60  82 123 161 196 246 302 354
#
# _framework density 19.974281999999999
#
# number of rings (size 3 to 8) (size 9 to 14) (size 15 to 20)
#    0.000    1.500    5.000    1.875    0.000    2.000 
#    0.000    8.125    0.000    0.000    0.000    0.000 
#    0.000    0.000    0.000    0.000    0.000    0.000 
#
# Total GULP energy -198408.234765 kJ/mol
# GULP energy per Si atom -12400.514673 kJ/mol
# Density = 1.992882 g / cm^3
# Si number density = 19.974282 Si / 1000 Ang^3
#
#
#
# Elastic Constant Matrix: (Units=GPa)
#
#
# Indices 1 2 3 4 5 6 
#
# 1 93.1017 43.6479 44.0918 5.2286 -16.7793 4.7386
# 2 43.6479 105.3488 36.4901 5.0964 -17.8932 7.2679
# 3 44.0918 36.4901 106.5575 -12.5411 -11.5843 -3.8049
# 4 5.2286 5.0964 -12.5411 29.9448 -3.6378 -11.3078
# 5 -16.7793 -17.8932 -11.5843 -3.6378 19.9202 7.5702
# 6 4.7386 7.2679 -3.8049 -11.3078 7.5702 48.5365
#
#
#
# Elastic Compliance Matrix: (Units=1/GPa)
#
#
# Indices 1 2 3 4 5 6 
#
# 1 0.017046 -0.002940 -0.005876 -0.005496 0.008955 -0.004362
# 2 -0.002940 0.013800 -0.003106 -0.003653 0.009077 -0.004290
# 3 -0.005876 -0.003106 0.014168 0.009140 0.000577 0.004189
# 4 -0.005496 -0.003653 0.009140 0.043351 0.000848 0.011768
# 5 0.008955 0.009077 0.000577 0.000848 0.071374 -0.013123
# 6 -0.004362 -0.004290 0.004189 0.011768 -0.013123 0.026788
#
#
# Mechanical properties :
#
#
# Convention : Reuss Voigt Hill
#
# Bulk Modulus (GPa) = 47.23337 61.49640 54.36488
# Shear Modulus (GPa) = 22.99618 31.73218 27.36418
#
# Velocity S-wave (km/s) = 3.39675 3.99011 3.70533
# Velocity P-wave (km/s) = 6.25158 7.21683 6.75148
#
# Compressibility (1/GPa) = 0.02117147
#
# Stress axis : x y z
#
# Youngs Moduli (GPa) = 58.66313 72.46179 70.58353
#
# Poissons Ratio (x) = 0.21301 0.41475
# Poissons Ratio (y) = 0.17244 0.21923
# Poissons Ratio (z) = 0.34471 0.22506
#
# Static dielectric constant tensor:
#      x y z
#    x 3.793110 0.055110 -0.156200 
#    y 0.055110 3.846420 0.109820 
#    z -0.156200 0.109820 3.329780 
# 
# 
# High freq. dielectric constant tensor:
#      x y z
#    x 1.784260 0.003420 -0.016310 
#    y 0.003420 1.798050 0.005190 
#    z -0.016310 0.005190 1.752950 
# 
# From -- ./inp_files/216039.got.cif
#   From: 2010.06.25/outbox.cif.g09.slc.cpg/sg2_109_cif.got.tgz:216039.got - 2010.06.27 13:26:56.
