data_PCOD8000817
_publ_section_title
;
Structure prediction by ZEFSAII (Michael W. Deem and Ramdas Pophale) SiO2 
 PCOD8000817
Probable space group: P -1
;
_chemical_formula_sum "Si O2"
_cell_formula_units_Z 16
_cell_length_a 9.839911
_cell_length_b 15.451341
_cell_length_c 15.252632
_cell_angle_alpha 151.957470
_cell_angle_beta 65.717824
_cell_angle_gamma 128.714522
_cell_volume 785.531867
_symmetry_space_group_name_H-M "P -1"
_symmetry_group_IT_number 2
_symmetry_cell_setting 'triclinic'
loop_
_space_group_symop_operation_xyz
x,y,z
-x,-y,-z
loop_
_atom_site_type_symbol
_atom_site_label
_atom_site_fract_x
_atom_site_fract_y
_atom_site_fract_z
Si Si1 0.564712 0.300633 0.475846
Si Si2 0.693919 0.706209 0.586909
Si Si3 0.477013 0.134737 0.942038
Si Si4 0.555873 0.794370 0.381240
Si Si5 0.718568 0.536212 0.119313
Si Si6 0.806834 0.824984 0.845137
Si Si7 0.152391 0.467341 0.739191
Si Si8 0.230000 0.678386 0.240082
O O1 0.368620 0.195900 0.383267
O O2 0.530644 0.308166 0.593056
O O3 0.738506 0.561450 0.634749
O O4 0.622164 0.133586 0.292288
O O5 0.500000 0.500000 0.500000
O O6 0.826755 0.887520 0.791634
O O7 0.812502 0.633232 0.444469
O O8 0.523804 0.281114 0.970248
O O9 0.345327 0.155845 0.056524
O O10 0.673874 0.256080 0.051989
O O11 0.672968 0.701811 0.239631
O O12 0.386511 0.694158 0.269304
O O13 0.694559 0.072207 0.594543
O O14 0.849936 0.652238 0.275412
O O15 0.825637 0.497100 0.982436
O O16 0.000000 0.000000 0.000000
O O17 0.954769 0.424688 0.743513
#
# Coordination Sequence:
#
# PCOD8000817 Si02
#       8
#     2   2   2   2   2   2   2   2
#     4  11  20  42  70  88 127 177 211 259 329 387
#     4  10  19  43  69  87 124 173 210 262 325 382
#     4  10  21  39  67  88 127 169 212 268 322 380
#     4  11  21  41  61  90 134 179 208 264 327 374
#     4  10  19  40  62  84 127 171 212 257 322 377
#     4  11  24  44  65  97 129 162 217 277 325 386
#     4  10  20  41  64  94 128 166 219 274 304 387
#     4  11  24  36  61  98 131 166 225 266 312 385
#
# _framework density 20.368366999999999
#
# number of rings (size 3 to 8) (size 9 to 14) (size 15 to 20)
#    0.750    0.750    6.250    0.750    0.000    2.500 
#    4.500    0.000    0.000    0.000    0.000    0.000 
#    0.000    0.000    0.000    0.000    0.000    0.000 
#
# Total GULP energy -198308.695625 kJ/mol
# GULP energy per Si atom -12394.293477 kJ/mol
# Density = 2.032201 g / cm^3
# Si number density = 20.368367 Si / 1000 Ang^3
#
#
#
# Elastic Constant Matrix: (Units=GPa)
#
#
# Indices 1 2 3 4 5 6 
#
# 1 70.5820 21.0259 48.4702 -3.5549 -0.5361 6.8422
# 2 21.0259 63.5267 28.5057 -25.6675 -3.0444 2.1463
# 3 48.4702 28.5057 88.7679 -13.1928 -11.3512 -3.1359
# 4 -3.5549 -25.6675 -13.1928 39.3651 1.1522 -5.9012
# 5 -0.5361 -3.0444 -11.3512 1.1522 41.8331 -3.5886
# 6 6.8422 2.1463 -3.1359 -5.9012 -3.5886 32.9901
#
#
#
# Elastic Compliance Matrix: (Units=1/GPa)
#
#
# Indices 1 2 3 4 5 6 
#
# 1 0.025955 -0.004721 -0.014508 -0.006685 -0.004461 -0.008136
# 2 -0.004721 0.024620 -0.002965 0.014888 0.000674 0.001832
# 3 -0.014508 -0.002965 0.021879 0.004936 0.005984 0.006815
# 4 -0.006685 0.014888 0.004936 0.037268 0.001977 0.007769
# 5 -0.004461 0.000674 0.005984 0.001977 0.025862 0.004617
# 6 -0.008136 0.001832 0.006815 0.007769 0.004617 0.034420
#
#
# Mechanical properties :
#
#
# Convention : Reuss Voigt Hill
#
# Bulk Modulus (GPa) = 35.62925 46.54224 41.08575
# Shear Modulus (GPa) = 22.34667 31.16265 26.75466
#
# Velocity S-wave (km/s) = 3.31588 3.91571 3.62821
# Velocity P-wave (km/s) = 5.67367 6.58358 6.14549
#
# Compressibility (1/GPa) = 0.02806683
#
# Stress axis : x y z
#
# Youngs Moduli (GPa) = 38.52769 40.61718 45.70627
#
# Poissons Ratio (x) = 0.19174 0.66311
# Poissons Ratio (y) = 0.18188 0.13552
# Poissons Ratio (z) = 0.55896 0.12043
#
# Static dielectric constant tensor:
#      x y z
#    x 3.685480 -0.173970 0.036650 
#    y -0.173970 2.731140 -0.730740 
#    z 0.036650 -0.730740 3.344300 
# 
# 
# High freq. dielectric constant tensor:
#      x y z
#    x 1.784110 -0.004990 -0.006910 
#    y -0.004990 1.783050 -0.021610 
#    z -0.006910 -0.021610 1.796180 
# 
# From -- ./inp_files/505760.got.cif
#   From: 2010.06.25/outbox.cif.g09.slc.cpg/sg2_253_cif.got.tgz:505760.got - 2010.06.27 13:26:56.
