data_PCOD8000564
_publ_section_title
;
Structure prediction by ZEFSAII (Michael W. Deem and Ramdas Pophale) SiO2 
 PCOD8000564
Probable space group: P -1
;
_chemical_formula_sum "Si O2"
_cell_formula_units_Z 16
_cell_length_a 14.193727
_cell_length_b 9.876299
_cell_length_c 17.026536
_cell_angle_alpha 31.080167
_cell_angle_beta 138.304024
_cell_angle_gamma 140.686753
_cell_volume 754.423073
_symmetry_space_group_name_H-M "P -1"
_symmetry_group_IT_number 2
_symmetry_cell_setting 'triclinic'
loop_
_space_group_symop_operation_xyz
x,y,z
-x,-y,-z
loop_
_atom_site_type_symbol
_atom_site_label
_atom_site_fract_x
_atom_site_fract_y
_atom_site_fract_z
Si Si1 0.068322 0.479455 0.765902
Si Si2 0.024037 0.304884 0.544955
Si Si3 0.289543 0.911578 0.250921
Si Si4 0.277620 0.854554 0.840045
Si Si5 0.355395 0.466394 0.603181
Si Si6 0.089429 0.829031 0.883207
Si Si7 0.270971 0.196667 0.951913
Si Si8 0.534302 0.522227 0.841142
O O1 0.130756 0.662680 0.792395
O O2 0.179312 0.322161 0.890786
O O3 0.075748 0.697982 0.592040
O O4 0.894743 0.256236 0.781341
O O5 0.203764 0.432296 0.574110
O O6 0.000000 0.500000 0.500000
O O7 0.977193 0.979724 0.706637
O O8 0.381025 0.714812 0.431509
O O9 0.332165 0.173645 0.208066
O O10 0.347435 0.036962 0.137412
O O11 0.230293 0.878268 0.888294
O O12 0.343256 0.183110 0.688142
O O13 0.409157 0.733170 0.984294
O O14 0.490909 0.546081 0.712019
O O15 0.151662 0.960384 0.940515
O O16 0.000000 0.500000 0.000000
O O17 0.393376 0.448948 0.851449
#
# Coordination Sequence:
#
# PCOD8000564 Si02
#       8
#     2   2   2   2   2   2   2   2
#     4  11  23  41  70  96 127 168 221 266 320 377
#     4  10  19  39  64  91 129 166 211 266 317 381
#     4  11  25  39  69  98 129 163 223 270 313 381
#     4  11  24  42  67  93 129 177 211 262 328 384
#     4  10  23  42  62  95 130 170 214 262 323 383
#     4  11  24  38  65  97 133 164 215 269 323 376
#     4  12  23  43  65  98 131 167 219 265 319 385
#     4  12  23  43  69  90 133 178 213 256 324 392
#
# _framework density 21.208259000000002
#
# number of rings (size 3 to 8) (size 9 to 14) (size 15 to 20)
#    0.000    1.000    5.000    2.250    1.750    5.500 
#    0.000    1.875    0.000    0.000    0.000    0.000 
#    0.000    0.000    0.000    0.000    0.000    0.000 
#
# Total GULP energy -198389.505883 kJ/mol
# GULP energy per Si atom -12399.344118 kJ/mol
# Density = 2.115999 g / cm^3
# Si number density = 21.208259 Si / 1000 Ang^3
#
#
#
# Elastic Constant Matrix: (Units=GPa)
#
#
# Indices 1 2 3 4 5 6 
#
# 1 28.3604 19.1831 20.2335 -0.5320 -0.2740 -10.5111
# 2 19.1831 118.4644 54.2133 2.4452 -7.5007 -13.7153
# 3 20.2335 54.2133 163.5573 -4.9675 -15.9905 -7.2478
# 4 -0.5320 2.4452 -4.9675 40.9601 -5.9077 -0.1021
# 5 -0.2740 -7.5007 -15.9905 -5.9077 34.0368 0.0696
# 6 -10.5111 -13.7153 -7.2478 -0.1021 0.0696 25.2398
#
#
#
# Elastic Compliance Matrix: (Units=1/GPa)
#
#
# Indices 1 2 3 4 5 6 
#
# 1 0.046791 -0.004045 -0.003964 0.000063 -0.002399 0.016156
# 2 -0.004045 0.010891 -0.002906 -0.000926 0.000835 0.003393
# 3 -0.003964 -0.002906 0.007896 0.001554 0.003309 -0.000965
# 4 0.000063 -0.000926 0.001554 0.025370 0.004930 0.000058
# 5 -0.002399 0.000835 0.003309 0.004930 0.031954 0.000336
# 6 0.016156 0.003393 -0.000965 0.000058 0.000336 0.047914
#
#
# Mechanical properties :
#
#
# Convention : Reuss Voigt Hill
#
# Bulk Modulus (GPa) = 22.85892 55.29357 39.07624
# Shear Modulus (GPa) = 24.12797 34.49749 29.31273
#
# Velocity S-wave (km/s) = 3.37659 4.03750 3.72174
# Velocity P-wave (km/s) = 5.09937 6.91834 6.07730
#
# Compressibility (1/GPa) = 0.04374660
#
# Stress axis : x y z
#
# Youngs Moduli (GPa) = 21.37164 91.81919 126.65388
#
# Poissons Ratio (x) = 0.37145 0.50209
# Poissons Ratio (y) = 0.08646 0.36801
# Poissons Ratio (z) = 0.08472 0.26680
#
# Static dielectric constant tensor:
#      x y z
#    x 4.090490 0.197890 -0.961680 
#    y 0.197890 4.138930 -0.508460 
#    z -0.961680 -0.508460 5.786150 
# 
# 
# High freq. dielectric constant tensor:
#      x y z
#    x 1.806120 -0.015410 -0.006090 
#    y -0.015410 1.834870 0.002500 
#    z -0.006090 0.002500 1.854110 
# 
# From -- ./inp_files/298034.got.cif
#   From: 2010.06.25/outbox.cif.g09.slc.cpg/sg2_150_cif.got.tgz:298034.got - 2010.06.27 13:26:56.
