data_PCOD8000408
_publ_section_title
;
Structure prediction by ZEFSAII (Michael W. Deem and Ramdas Pophale) SiO2 
 PCOD8000408
Probable space group: P -1
;
_chemical_formula_sum "Si O2"
_cell_formula_units_Z 14
_cell_length_a 9.649744
_cell_length_b 12.540173
_cell_length_c 11.916432
_cell_angle_alpha 108.574763
_cell_angle_beta 146.956476
_cell_angle_gamma 83.957575
_cell_volume 707.891619
_symmetry_space_group_name_H-M "P -1"
_symmetry_group_IT_number 2
_symmetry_cell_setting 'triclinic'
loop_
_space_group_symop_operation_xyz
x,y,z
-x,-y,-z
loop_
_atom_site_type_symbol
_atom_site_label
_atom_site_fract_x
_atom_site_fract_y
_atom_site_fract_z
Si Si1 0.036854 0.842151 0.521708
Si Si2 0.959102 0.657418 0.597246
Si Si3 0.805031 0.066838 0.757618
Si Si4 0.123752 0.228161 0.840844
Si Si5 0.068064 0.862920 0.883533
Si Si6 0.605919 0.916167 0.143308
Si Si7 0.429176 0.554914 0.855797
O O1 0.961972 0.730240 0.511277
O O2 0.084787 0.800011 0.414531
O O3 0.788350 0.897127 0.366356
O O4 0.304077 0.943592 0.778987
O O5 0.889007 0.728120 0.682256
O O6 0.240973 0.631718 0.794816
O O7 0.717693 0.537386 0.371467
O O8 0.946371 0.181701 0.815325
O O9 0.500000 0.000000 0.500000
O O10 0.832390 0.124921 0.918065
O O11 0.938681 0.964013 0.801346
O O12 0.339593 0.156520 0.950866
O O13 0.301399 0.366313 0.000025
O O14 0.301281 0.874368 0.956728
O O15 0.500000 0.500000 0.000000
#
# Coordination Sequence:
#
# PCOD8000408 Si02
#       7
#     2   2   2   2   2   2   2
#     4   9  18  31  60  96 118 153 193 256 314 360
#     4  11  22  36  63  93 123 159 201 265 311 356
#     4  11  26  42  60  90 134 167 203 246 315 377
#     4  10  19  39  61  89 122 163 201 259 303 367
#     4  11  24  40  61  94 124 169 202 250 311 384
#     4   9  18  34  60  95 119 149 205 253 312 368
#     4  11  22  39  60  97 122 157 209 266 311 352
#
# _framework density 19.777038000000001
#
# number of rings (size 3 to 8) (size 9 to 14) (size 15 to 20)
#    0.857    0.857    2.857    1.714    4.000    1.143 
#    0.000    0.714    0.000    1.714    0.000    0.000 
#    0.000    0.000    0.000    0.000    0.000    0.000 
#
# Total GULP energy -173442.500532 kJ/mol
# GULP energy per Si atom -12388.750038 kJ/mol
# Density = 1.973202 g / cm^3
# Si number density = 19.777038 Si / 1000 Ang^3
#
#
#
# Elastic Constant Matrix: (Units=GPa)
#
#
# Indices 1 2 3 4 5 6 
#
# 1 91.5590 38.1589 39.2010 4.9804 -10.2987 13.5608
# 2 38.1589 99.8580 30.6458 10.8163 -4.8400 14.2476
# 3 39.2010 30.6458 77.0676 19.4288 -6.9049 10.2691
# 4 4.9804 10.8163 19.4288 40.6300 -1.2076 -1.1932
# 5 -10.2987 -4.8400 -6.9049 -1.2076 34.9561 8.5362
# 6 13.5608 14.2476 10.2691 -1.1932 8.5362 34.2397
#
#
#
# Elastic Compliance Matrix: (Units=1/GPa)
#
#
# Indices 1 2 3 4 5 6 
#
# 1 0.016087 -0.003672 -0.006371 0.002057 0.003985 -0.003855
# 2 -0.003672 0.012864 -0.002166 -0.002012 0.001078 -0.003588
# 3 -0.006371 -0.002166 0.019778 -0.008131 0.002269 -0.003356
# 4 0.002057 -0.002012 -0.008131 0.028859 -0.001201 0.003766
# 5 0.003985 0.001078 0.002269 -0.001201 0.033019 -0.010981
# 6 -0.003855 -0.003588 -0.003356 0.003766 -0.010981 0.036101
#
#
# Mechanical properties :
#
#
# Convention : Reuss Voigt Hill
#
# Bulk Modulus (GPa) = 41.13126 53.83288 47.48207
# Shear Modulus (GPa) = 27.89735 32.66376 30.28056
#
# Velocity S-wave (km/s) = 3.75986 4.06840 3.91717
# Velocity P-wave (km/s) = 6.30011 7.02482 6.67231
#
# Compressibility (1/GPa) = 0.02431241
#
# Stress axis : x y z
#
# Youngs Moduli (GPa) = 62.16146 77.73517 50.56218
#
# Poissons Ratio (x) = 0.28544 0.32211
# Poissons Ratio (y) = 0.22826 0.10950
# Poissons Ratio (z) = 0.39601 0.16834
#
# Static dielectric constant tensor:
#      x y z
#    x 3.281250 -0.110500 -0.139940 
#    y -0.110500 3.852310 0.137490 
#    z -0.139940 0.137490 3.796090 
# 
# 
# High freq. dielectric constant tensor:
#      x y z
#    x 1.727810 0.006190 -0.011820 
#    y 0.006190 1.778070 0.001440 
#    z -0.011820 0.001440 1.792300 
# 
# From -- ./inp_files/387963.got.cif
#   From: 2010.06.25/outbox.cif.g09.slc.cpg/sg2_194_cif.got.tgz:387963.got - 2010.06.27 13:26:56.
