data_PCOD8000212
_publ_section_title
;
Structure prediction by ZEFSAII (Michael W. Deem and Ramdas Pophale) SiO2 
 PCOD8000212
Probable space group: P 1
;
_chemical_formula_sum "Si O2"
_cell_formula_units_Z 8
_cell_length_a 5.026019
_cell_length_b 11.592856
_cell_length_c 13.244707
_cell_angle_alpha 148.889880
_cell_angle_beta 120.557059
_cell_angle_gamma 61.884822
_cell_volume 342.234613
_symmetry_space_group_name_H-M "P 1"
_symmetry_group_IT_number 1
_symmetry_cell_setting 'triclinic'
loop_
_space_group_symop_operation_xyz
x,y,z
loop_
_atom_site_type_symbol
_atom_site_label
_atom_site_fract_x
_atom_site_fract_y
_atom_site_fract_z
Si Si1 0.387390 0.328270 0.359320
Si Si2 0.296943 0.241579 0.982653
Si Si3 0.908749 0.603237 0.696324
Si Si4 0.884597 0.476100 0.240735
Si Si5 0.527794 0.770306 0.244370
Si Si6 0.937877 0.515686 0.965189
Si Si7 0.450616 0.286753 0.578306
Si Si8 0.373525 0.897290 0.897889
O O1 0.671753 0.467140 0.482577
O O2 0.413698 0.281392 0.447351
O O3 0.065245 0.481160 0.386602
O O4 0.405002 0.091939 0.129965
O O5 0.652783 0.278448 0.052798
O O6 0.166019 0.417398 0.173507
O O7 0.083154 0.288113 0.877962
O O8 0.289368 0.991859 0.839679
O O9 0.708092 0.756935 0.853386
O O10 0.142493 0.423182 0.666556
O O11 0.106821 0.744637 0.765150
O O12 0.687701 0.699960 0.330965
O O13 0.477343 0.037016 0.439302
O O14 0.737570 0.681303 0.125217
O O15 0.204783 0.661459 0.084672
O O16 0.740055 0.424963 0.767983
#
# Coordination Sequence:
#
# PCOD8000212 Si02
#       8
#     1   1   1   1   1   1   1   1
#     4  11  27  45  72 102 144 172 230 289 336 407
#     4   9  19  43  71  99 128 180 229 275 340 400
#     4  12  28  43  64 107 139 182 228 272 341 414
#     4   9  20  43  71 100 130 174 230 281 336 399
#     4  10  25  47  73  95 135 188 223 280 345 391
#     4  10  25  46  70  98 141 175 230 285 328 413
#     4  12  29  44  69 107 138 183 231 272 345 413
#     4  11  25  45  72  98 139 184 223 284 347 391
#
# _framework density 23.375775999999998
#
# number of rings (size 3 to 8) (size 9 to 14) (size 15 to 20)
#    0.000    1.500    1.250    1.500   10.500    1.000 
#    0.000    0.000    0.000    0.000    0.000    0.000 
#    0.000    0.000    0.000    0.000    0.000    0.000 
#
# Total GULP energy -99148.544726 kJ/mol
# GULP energy per Si atom -12393.568091 kJ/mol
# Density = 2.332257 g / cm^3
# Si number density = 23.375776 Si / 1000 Ang^3
#
#
#
# Elastic Constant Matrix: (Units=GPa)
#
#
# Indices 1 2 3 4 5 6 
#
# 1 112.1018 48.4248 34.1796 6.2128 14.3272 -17.4594
# 2 48.4248 159.3809 73.0548 12.5882 16.4357 -23.5839
# 3 34.1796 73.0548 93.7963 22.1574 12.8343 -24.6075
# 4 6.2128 12.5882 22.1574 42.3518 -4.3620 5.5929
# 5 14.3272 16.4357 12.8343 -4.3620 28.3074 -3.1768
# 6 -17.4594 -23.5839 -24.6075 5.5929 -3.1768 35.7650
#
#
#
# Elastic Compliance Matrix: (Units=1/GPa)
#
#
# Indices 1 2 3 4 5 6 
#
# 1 0.011146 -0.002037 -0.000610 -0.001597 -0.004027 0.003570
# 2 -0.002037 0.010353 -0.007070 0.000661 -0.001592 0.000723
# 3 -0.000610 -0.007070 0.023588 -0.012517 -0.006793 0.012624
# 4 -0.001597 0.000661 -0.012517 0.032945 0.009689 -0.013247
# 5 -0.004027 -0.001592 -0.006793 0.009689 0.042250 -0.005452
# 6 0.003570 0.000723 0.012624 -0.013247 -0.005452 0.040453
#
#
# Mechanical properties :
#
#
# Convention : Reuss Voigt Hill
#
# Bulk Modulus (GPa) = 38.98202 75.17749 57.07975
# Shear Modulus (GPa) = 26.49439 35.25948 30.87694
#
# Velocity S-wave (km/s) = 3.37027 3.88800 3.63835
# Velocity P-wave (km/s) = 5.64424 7.23779 6.49011
#
# Compressibility (1/GPa) = 0.02565286
#
# Stress axis : x y z
#
# Youngs Moduli (GPa) = 89.72142 96.59387 42.39407
#
# Poissons Ratio (x) = 0.19677 0.02587
# Poissons Ratio (y) = 0.18277 0.29971
# Poissons Ratio (z) = 0.05474 0.68288
#
# Static dielectric constant tensor:
#      x y z
#    x 4.421790 -0.261940 0.120530 
#    y -0.261940 4.796840 0.068600 
#    z 0.120530 0.068600 4.030490 
# 
# 
# High freq. dielectric constant tensor:
#      x y z
#    x 1.937610 -0.008680 0.014800 
#    y -0.008680 1.942640 0.005140 
#    z 0.014800 0.005140 1.904060 
# 
# From -- ./inp_files/7047.got.cif
#   From: 2010.03.12/outbox.cif.g09.slc.cpg/sg1_4_cif.got.tgz:7047.got - 2010.03.29 11:57:58.
