data_PCOD8000620
_publ_section_title
;
Structure prediction by ZEFSAII (Michael W. Deem and Ramdas Pophale) SiO2 
 PCOD8000620
Probable space group: P -1
;
_chemical_formula_sum "Si O2"
_cell_formula_units_Z 14
_cell_length_a 16.060436
_cell_length_b 18.396960
_cell_length_c 7.821697
_cell_angle_alpha 44.662125
_cell_angle_beta 43.002457
_cell_angle_gamma 23.883971
_cell_volume 630.548719
_symmetry_space_group_name_H-M "P -1"
_symmetry_group_IT_number 2
_symmetry_cell_setting 'triclinic'
loop_
_space_group_symop_operation_xyz
x,y,z
-x,-y,-z
loop_
_atom_site_type_symbol
_atom_site_label
_atom_site_fract_x
_atom_site_fract_y
_atom_site_fract_z
Si Si1 0.795606 0.590961 0.071141
Si Si2 0.470784 0.367909 0.359158
Si Si3 0.001772 0.729583 0.893252
Si Si4 0.882640 0.006721 0.444005
Si Si5 0.564906 0.044634 0.199982
Si Si6 0.716809 0.153454 0.829291
Si Si7 0.382569 0.525325 0.876922
O O1 0.685815 0.602114 0.365251
O O2 0.873451 0.461405 0.019800
O O3 0.633886 0.788939 0.905310
O O4 0.000000 0.500000 0.000000
O O5 0.698717 0.152440 0.334786
O O6 0.520111 0.430947 0.301682
O O7 0.365279 0.471426 0.166102
O O8 0.141219 0.698876 0.873066
O O9 0.971806 0.827038 0.611366
O O10 0.768469 0.861429 0.094130
O O11 0.762153 0.111539 0.630074
O O12 0.070293 0.958001 0.205053
O O13 0.500000 0.000000 0.500000
O O14 0.635178 0.098548 0.109938
O O15 0.533282 0.366711 0.774624
#
# Coordination Sequence:
#
# PCOD8000620 Si02
#       7
#     2   2   2   2   2   2   2
#     4  12  27  47  67  95 136 177 222 270 324 391
#     4  11  23  42  61 105 137 167 216 278 327 388
#     4  11  23  45  73  96 126 179 215 273 334 390
#     4  10  20  39  69  97 131 164 225 274 329 391
#     4  11  25  44  67 100 128 174 230 267 317 398
#     4  10  19  39  65  98 127 174 214 270 326 395
#     4  11  23  38  71  99 136 169 214 275 340 387
#
# _framework density 22.202883
#
# number of rings (size 3 to 8) (size 9 to 14) (size 15 to 20)
#    0.000    1.143    4.286    3.429    2.000    4.571 
#    2.571    0.000    0.000    0.000    0.000    0.000 
#    0.000    0.000    0.000    0.000    0.000    0.000 
#
# Total GULP energy -173586.415929 kJ/mol
# GULP energy per Si atom -12399.029709 kJ/mol
# Density = 2.215235 g / cm^3
# Si number density = 22.202883 Si / 1000 Ang^3
#
#
#
# Elastic Constant Matrix: (Units=GPa)
#
#
# Indices 1 2 3 4 5 6 
#
# 1 60.3057 26.8058 23.8972 4.6683 -16.4279 -19.3414
# 2 26.8058 116.1737 33.4304 -0.9939 -8.7537 -21.2570
# 3 23.8972 33.4304 129.3115 -4.7757 -27.1644 -27.5953
# 4 4.6683 -0.9939 -4.7757 33.8629 -8.5397 -5.6693
# 5 -16.4279 -8.7537 -27.1644 -8.5397 24.6667 7.3225
# 6 -19.3414 -21.2570 -27.5953 -5.6693 7.3225 38.5268
#
#
#
# Elastic Compliance Matrix: (Units=1/GPa)
#
#
# Indices 1 2 3 4 5 6 
#
# 1 0.024096 -0.003235 0.001372 0.001898 0.014448 0.008829
# 2 -0.003235 0.010336 -0.001515 0.000876 -0.000825 0.003279
# 3 0.001372 -0.001515 0.012651 0.006374 0.014402 0.007114
# 4 0.001898 0.000876 0.006374 0.036243 0.018840 0.007754
# 5 0.014448 -0.000825 0.014402 0.018840 0.070317 0.006521
# 6 0.008829 0.003279 0.007114 0.007754 0.006521 0.037195
#
#
# Mechanical properties :
#
#
# Convention : Reuss Voigt Hill
#
# Bulk Modulus (GPa) = 24.79725 52.67307 38.73516
# Shear Modulus (GPa) = 23.69277 34.18846 28.94061
#
# Velocity S-wave (km/s) = 3.27020 3.92831 3.61427
# Velocity P-wave (km/s) = 5.04496 6.65962 5.90772
#
# Compressibility (1/GPa) = 0.04032705
#
# Stress axis : x y z
#
# Youngs Moduli (GPa) = 41.49991 96.75342 79.04811
#
# Poissons Ratio (x) = 0.31296 -0.10848
# Poissons Ratio (y) = 0.13423 0.11979
# Poissons Ratio (z) = -0.05695 0.14663
#
# Static dielectric constant tensor:
#      x y z
#    x 3.796520 -0.142990 -0.228870 
#    y -0.142990 4.416570 -0.130490 
#    z -0.228870 -0.130490 4.006230 
# 
# 
# High freq. dielectric constant tensor:
#      x y z
#    x 1.846990 -0.011860 -0.014760 
#    y -0.011860 1.900860 -0.004860 
#    z -0.014760 -0.004860 1.869760 
# 
# From -- ./inp_files/338062.got.cif
#   From: 2010.06.25/outbox.cif.g09.slc.cpg/sg2_170_cif.got.tgz:338062.got - 2010.06.27 13:26:56.
