data_PCOD8000764
_publ_section_title
;
Structure prediction by ZEFSAII (Michael W. Deem and Ramdas Pophale) SiO2 
 PCOD8000764
Probable space group: P -1
;
_chemical_formula_sum "Si O2"
_cell_formula_units_Z 14
_cell_length_a 15.412693
_cell_length_b 10.551474
_cell_length_c 20.483338
_cell_angle_alpha 146.178025
_cell_angle_beta 160.658679
_cell_angle_gamma 43.081285
_cell_volume 587.660031
_symmetry_space_group_name_H-M "P -1"
_symmetry_group_IT_number 2
_symmetry_cell_setting 'triclinic'
loop_
_space_group_symop_operation_xyz
x,y,z
-x,-y,-z
loop_
_atom_site_type_symbol
_atom_site_label
_atom_site_fract_x
_atom_site_fract_y
_atom_site_fract_z
Si Si1 0.268733 0.167371 0.180914
Si Si2 0.529704 0.629900 0.360269
Si Si3 0.108711 0.860495 0.211810
Si Si4 0.539889 0.479725 0.943157
Si Si5 0.197568 0.955617 0.461196
Si Si6 0.620860 0.801232 0.029457
Si Si7 0.069911 0.351790 0.239047
O O1 0.584512 0.170718 0.409916
O O2 0.210140 0.367450 0.273273
O O3 0.181907 0.202398 0.059797
O O4 0.076402 0.919632 0.963885
O O5 0.254997 0.664309 0.210718
O O6 0.454118 0.433627 0.167586
O O7 0.693740 0.539410 0.494394
O O8 0.704497 0.875953 0.558319
O O9 0.062475 0.841241 0.248166
O O10 0.489536 0.708047 0.967702
O O11 0.333403 0.235742 0.667188
O O12 0.500000 0.500000 0.000000
O O13 0.849600 0.496796 0.149120
O O14 0.948232 0.912361 0.316253
O O15 0.500000 0.000000 0.000000
#
# Coordination Sequence:
#
# PCOD8000764 Si02
#       7
#     2   2   2   2   2   2   2
#     4   9  18  36  68 108 138 176 230 292 366 431
#     4  10  20  40  70 106 143 188 236 293 368 431
#     4  10  19  39  77 102 142 187 231 300 369 434
#     4  11  26  49  74  99 142 200 250 298 358 430
#     4  11  24  46  71 107 144 184 242 298 371 435
#     4  12  29  47  71 105 148 194 249 300 357 440
#     4   9  18  37  69 102 138 180 233 295 356 426
#
# _framework density 23.823298000000001
#
# number of rings (size 3 to 8) (size 9 to 14) (size 15 to 20)
#    0.000    1.714    2.857    0.857    6.000    5.143 
#    2.571    1.429    0.000    0.000    0.000    0.000 
#    0.000    0.000    0.000    0.000    0.000    0.000 
#
# Total GULP energy -173593.218048 kJ/mol
# GULP energy per Si atom -12399.515575 kJ/mol
# Density = 2.376908 g / cm^3
# Si number density = 23.823298 Si / 1000 Ang^3
#
#
#
# Elastic Constant Matrix: (Units=GPa)
#
#
# Indices 1 2 3 4 5 6 
#
# 1 121.3698 58.3184 47.7365 -11.8939 -10.4310 8.2518
# 2 58.3184 116.2500 50.8051 -5.2151 0.5142 7.6478
# 3 47.7365 50.8051 88.2777 -34.1900 -3.1421 11.8696
# 4 -11.8939 -5.2151 -34.1900 34.4057 4.0053 -0.7148
# 5 -10.4310 0.5142 -3.1421 4.0053 33.5533 -10.1637
# 6 8.2518 7.6478 11.8696 -0.7148 -10.1637 34.9931
#
#
#
# Elastic Compliance Matrix: (Units=1/GPa)
#
#
# Indices 1 2 3 4 5 6 
#
# 1 0.012265 -0.004192 -0.004801 -0.001598 0.003841 0.000735
# 2 -0.004192 0.014415 -0.009422 -0.008472 -0.001244 0.000500
# 3 -0.004801 -0.009422 0.031228 0.028270 -0.004238 -0.008055
# 4 -0.001598 -0.008472 0.028270 0.055953 -0.006888 -0.008219
# 5 0.003841 -0.001244 -0.004238 -0.006888 0.034695 0.010740
# 6 0.000735 0.000500 -0.008055 -0.008219 0.010740 0.033978
#
#
# Mechanical properties :
#
#
# Convention : Reuss Voigt Hill
#
# Bulk Modulus (GPa) = 47.44232 71.06862 59.25547
# Shear Modulus (GPa) = 22.08565 31.85958 26.97262
#
# Velocity S-wave (km/s) = 3.04807 3.66092 3.36846
# Velocity P-wave (km/s) = 5.68728 6.91130 6.32895
#
# Compressibility (1/GPa) = 0.02107823
#
# Stress axis : x y z
#
# Youngs Moduli (GPa) = 81.53031 69.37014 32.02250
#
# Poissons Ratio (x) = 0.29079 0.15375
# Poissons Ratio (y) = 0.34176 0.30172
# Poissons Ratio (z) = 0.39145 0.65362
#
# Static dielectric constant tensor:
#      x y z
#    x 4.211070 -0.129410 -0.142160 
#    y -0.129410 3.012340 -0.309390 
#    z -0.142160 -0.309390 4.305290 
# 
# 
# High freq. dielectric constant tensor:
#      x y z
#    x 1.941580 0.013760 -0.001580 
#    y 0.013760 1.937320 0.001010 
#    z -0.001580 0.001010 1.953380 
# 
# From -- ./inp_files/598057.got.cif
#   From: 2010.06.25/outbox.cif.g09.slc.cpg/sg2_300_cif.got.tgz:598057.got - 2010.06.27 13:26:56.
