data_PCOD8000633
_publ_section_title
;
Structure prediction by ZEFSAII (Michael W. Deem and Ramdas Pophale) SiO2 
 PCOD8000633
Probable space group: P -1
;
_chemical_formula_sum "Si O2"
_cell_formula_units_Z 16
_cell_length_a 14.799476
_cell_length_b 10.652893
_cell_length_c 8.327795
_cell_angle_alpha 42.279412
_cell_angle_beta 89.986351
_cell_angle_gamma 107.025508
_cell_volume 795.118153
_symmetry_space_group_name_H-M "P -1"
_symmetry_group_IT_number 2
_symmetry_cell_setting 'triclinic'
loop_
_space_group_symop_operation_xyz
x,y,z
-x,-y,-z
loop_
_atom_site_type_symbol
_atom_site_label
_atom_site_fract_x
_atom_site_fract_y
_atom_site_fract_z
Si Si1 0.703362 0.673565 0.194964
Si Si2 0.708039 0.069226 0.417949
Si Si3 0.843446 0.105685 0.660922
Si Si4 0.542819 0.680584 0.960435
Si Si5 0.785339 0.399622 0.586754
Si Si6 0.244750 0.191269 0.576361
Si Si7 0.664924 0.363743 0.931945
Si Si8 0.950764 0.826618 0.297428
O O1 0.727472 0.473349 0.383354
O O2 0.700048 0.738227 0.318922
O O3 0.598131 0.613901 0.163531
O O4 0.792129 0.860916 0.925870
O O5 0.808687 0.155180 0.443324
O O6 0.615814 0.898455 0.676189
O O7 0.728493 0.982073 0.333809
O O8 0.684273 0.259616 0.189915
O O9 0.810498 0.217839 0.695299
O O10 0.963057 0.184076 0.580095
O O11 0.500000 0.500000 0.000000
O O12 0.454429 0.716757 0.012431
O O13 0.713489 0.311575 0.824502
O O14 0.888558 0.598337 0.440794
O O15 0.285657 0.389520 0.269785
O O16 0.124404 0.107084 0.666926
O O17 0.000000 0.000000 0.000000
#
# Coordination Sequence:
#
# PCOD8000633 Si02
#       8
#     2   2   2   2   2   2   2   2
#     4   9  21  39  61  88 114 160 201 242 297 344
#     4  11  24  39  62  86 127 157 193 249 302 349
#     4  11  21  38  61  93 117 157 201 242 296 354
#     4  11  22  40  64  86 121 160 198 247 299 357
#     4  10  22  38  66  87 122 155 198 250 288 352
#     4  10  21  41  62  86 121 158 193 253 294 348
#     4  10  22  41  57  88 119 157 197 242 298 347
#     4  10  19  39  66  88 117 156 202 242 293 355
#
# _framework density 20.122796999999998
#
# number of rings (size 3 to 8) (size 9 to 14) (size 15 to 20)
#    0.000    2.000    3.750    1.500    1.750    2.500 
#    0.000    5.625    0.000    0.000    0.000    0.000 
#    0.000    0.000    0.000    0.000    0.000    0.000 
#
# Total GULP energy -198381.048933 kJ/mol
# GULP energy per Si atom -12398.815558 kJ/mol
# Density = 2.007700 g / cm^3
# Si number density = 20.122797 Si / 1000 Ang^3
#
#
#
# Elastic Constant Matrix: (Units=GPa)
#
#
# Indices 1 2 3 4 5 6 
#
# 1 132.6463 41.4886 50.3800 9.5322 -8.9348 34.6293
# 2 41.4886 72.0841 17.7804 8.8079 -2.6042 22.3143
# 3 50.3800 17.7804 102.2146 6.5397 7.1726 26.1166
# 4 9.5322 8.8079 6.5397 18.2494 3.1164 6.7327
# 5 -8.9348 -2.6042 7.1726 3.1164 31.5150 7.6765
# 6 34.6293 22.3143 26.1166 6.7327 7.6765 39.3918
#
#
#
# Elastic Compliance Matrix: (Units=1/GPa)
#
#
# Indices 1 2 3 4 5 6 
#
# 1 0.012652 -0.003579 -0.004068 -0.001786 0.006170 -0.007295
# 2 -0.003579 0.018865 0.000550 -0.005112 0.002769 -0.007570
# 3 -0.004068 0.000550 0.013158 -0.000595 -0.002875 -0.004797
# 4 -0.001786 -0.005112 -0.000595 0.061033 -0.005744 -0.004452
# 5 0.006170 0.002769 -0.002875 -0.005744 0.037722 -0.011456
# 6 -0.007295 -0.007570 -0.004797 -0.004452 -0.011456 0.042261
#
#
# Mechanical properties :
#
#
# Convention : Reuss Voigt Hill
#
# Bulk Modulus (GPa) = 32.80839 58.47145 45.63992
# Shear Modulus (GPa) = 23.80420 30.98429 27.39425
#
# Velocity S-wave (km/s) = 3.44313 3.92824 3.69366
# Velocity P-wave (km/s) = 5.66978 7.04948 6.39693
#
# Compressibility (1/GPa) = 0.03048001
#
# Stress axis : x y z
#
# Youngs Moduli (GPa) = 79.04024 53.00731 75.99737
#
# Poissons Ratio (x) = 0.18972 0.30917
# Poissons Ratio (y) = 0.28289 -0.04176
# Poissons Ratio (z) = 0.32155 -0.02913
#
# Static dielectric constant tensor:
#      x y z
#    x 3.980090 0.167680 0.066880 
#    y 0.167680 3.488160 0.017360 
#    z 0.066880 0.017360 3.717690 
# 
# 
# High freq. dielectric constant tensor:
#      x y z
#    x 1.794770 0.006080 0.006770 
#    y 0.006080 1.763940 0.000800 
#    z 0.006770 0.000800 1.792930 
# 
# From -- ./inp_files/306267.got.cif
#   From: 2010.06.25/outbox.cif.g09.slc.cpg/sg2_154_cif.got.tgz:306267.got - 2010.06.27 13:26:56.
