data_PCOD8000061
_publ_section_title
;
Structure prediction by ZEFSAII (Michael W. Deem and Ramdas Pophale) SiO2 
 PCOD8000061
Probable space group: P 1
;
_chemical_formula_sum "Si O2"
_cell_formula_units_Z 8
_cell_length_a 5.163092
_cell_length_b 5.172145
_cell_length_c 14.216579
_cell_angle_alpha 104.448439
_cell_angle_beta 115.970015
_cell_angle_gamma 60.915829
_cell_volume 297.946735
_symmetry_space_group_name_H-M "P 1"
_symmetry_group_IT_number 1
_symmetry_cell_setting 'triclinic'
loop_
_space_group_symop_operation_xyz
x,y,z
loop_
_atom_site_type_symbol
_atom_site_label
_atom_site_fract_x
_atom_site_fract_y
_atom_site_fract_z
Si Si1 0.634830 0.387930 0.730770
Si Si2 0.481074 0.631881 0.339969
Si Si3 0.523890 0.359340 0.912560
Si Si4 0.898317 0.525497 0.120336
Si Si5 0.329946 0.919662 0.157873
Si Si6 0.907293 0.982558 0.414088
Si Si7 0.210121 0.035810 0.656898
Si Si8 0.954949 0.753847 0.949920
O O1 0.675769 0.466996 0.856143
O O2 0.397075 0.234633 0.688723
O O3 0.968617 0.163532 0.718221
O O4 0.459751 0.692277 0.674317
O O5 0.276485 0.712223 0.214028
O O6 0.723077 0.287821 0.354587
O O7 0.234272 0.750735 0.396861
O O8 0.671436 0.831370 0.379066
O O9 0.135758 0.540524 0.870604
O O10 0.634396 0.400906 0.039089
O O11 0.617782 0.008391 0.880781
O O12 0.964368 0.600210 0.034668
O O13 0.713475 0.792720 0.189428
O O14 0.192342 0.265116 0.199629
O O15 0.160891 0.935758 0.031356
O O16 0.989599 0.073805 0.535659
#
# Coordination Sequence:
#
# PCOD8000061 Si02
#       8
#     1   1   1   1   1   1   1   1
#     4  12  26  44  74 100 138 175 230 275 334 411
#     4  12  26  44  74 100 138 175 230 275 334 411
#     4  10  23  37  58  94 118 174 212 268 320 385
#     4  10  21  38  60  83 131 161 217 262 324 380
#     4  10  23  37  58  94 118 174 212 268 320 385
#     4  12  26  47  71 102 136 177 221 284 344 401
#     4  12  26  47  71 102 136 177 221 284 344 401
#     4  10  21  38  60  83 131 161 217 262 324 380
#
# _framework density 26.850435000000001
#
# number of rings (size 3 to 8) (size 9 to 14) (size 15 to 20)
#    0.000    1.000    0.000    6.000    7.000    0.000 
#    0.000    0.000    0.000    0.000    0.000    0.000 
#    0.000    0.000    0.000    0.000    0.000    0.000 
#
# Total GULP energy -99159.061969 kJ/mol
# GULP energy per Si atom -12394.882746 kJ/mol
# Density = 2.678932 g / cm^3
# Si number density = 26.850435 Si / 1000 Ang^3
#
#
#
# Elastic Constant Matrix: (Units=GPa)
#
#
# Indices 1 2 3 4 5 6 
#
# 1 86.5175 58.3670 -11.0213 11.0852 -23.1659 -13.2996
# 2 58.3670 187.6155 1.9755 -32.3970 -10.1886 -52.1737
# 3 -11.0213 1.9755 72.9559 1.7985 6.4160 -6.1490
# 4 11.0852 -32.3970 1.7985 41.4724 -1.3114 -11.7769
# 5 -23.1659 -10.1886 6.4160 -1.3114 34.9215 14.3764
# 6 -13.2996 -52.1737 -6.1490 -11.7769 14.3764 52.1517
#
#
#
# Elastic Compliance Matrix: (Units=1/GPa)
#
#
# Indices 1 2 3 4 5 6 
#
# 1 0.036055 -0.024995 0.001915 -0.037371 0.027930 -0.031724
# 2 -0.024995 0.029319 -0.000406 0.039683 -0.022089 0.037960
# 3 0.001915 -0.000406 0.014437 -0.000890 -0.002466 0.002263
# 4 -0.037371 0.039683 -0.000890 0.080405 -0.033707 0.057513
# 5 0.027930 -0.022089 -0.002466 -0.033707 0.055638 -0.038216
# 6 -0.031724 0.037960 0.002263 0.057513 -0.038216 0.072850
#
#
# Mechanical properties :
#
#
# Convention : Reuss Voigt Hill
#
# Bulk Modulus (GPa) = 30.45270 49.52571 39.98920
# Shear Modulus (GPa) = 14.42490 45.56032 29.99261
#
# Velocity S-wave (km/s) = 2.32034 4.12371 3.34582
# Velocity P-wave (km/s) = 4.30637 6.41548 5.46367
#
# Compressibility (1/GPa) = 0.03283781
#
# Stress axis : x y z
#
# Youngs Moduli (GPa) = 27.73563 34.10725 69.26802
#
# Poissons Ratio (x) = 0.85251 -0.13263
# Poissons Ratio (y) = 0.69325 0.02813
# Poissons Ratio (z) = -0.05311 0.01385
#
# Static dielectric constant tensor:
#      x y z
#    x 5.717970 0.154370 1.795890 
#    y 0.154370 5.653250 1.024160 
#    z 1.795890 1.024160 9.341800 
# 
# 
# High freq. dielectric constant tensor:
#      x y z
#    x 2.104300 -0.000080 0.014620 
#    y -0.000080 2.105990 0.006410 
#    z 0.014620 0.006410 2.083390 
# 
# From -- ./inp_files/644.got.cif
#   From: 2010.03.12/outbox.cif.g09.slc.cpg/sg1_1_cif.got.tgz:644.got - 2010.03.29 11:57:58.
