data_PCOD8000527
_publ_section_title
;
Structure prediction by ZEFSAII (Michael W. Deem and Ramdas Pophale) SiO2 
 PCOD8000527
Probable space group: P -1
;
_chemical_formula_sum "Si O2"
_cell_formula_units_Z 16
_cell_length_a 15.864761
_cell_length_b 12.514043
_cell_length_c 9.975367
_cell_angle_alpha 48.051512
_cell_angle_beta 61.132103
_cell_angle_gamma 34.303447
_cell_volume 818.655134
_symmetry_space_group_name_H-M "P -1"
_symmetry_group_IT_number 2
_symmetry_cell_setting 'triclinic'
loop_
_space_group_symop_operation_xyz
x,y,z
-x,-y,-z
loop_
_atom_site_type_symbol
_atom_site_label
_atom_site_fract_x
_atom_site_fract_y
_atom_site_fract_z
Si Si1 0.798605 0.917127 0.506487
Si Si2 0.870049 0.539710 0.366147
Si Si3 0.373029 0.635449 0.098783
Si Si4 0.852728 0.884561 0.188593
Si Si5 0.425140 0.153979 0.799260
Si Si6 0.470970 0.648836 0.512410
Si Si7 0.599765 0.867932 0.664244
Si Si8 0.175940 0.600348 0.222424
O O1 0.813739 0.961649 0.308755
O O2 0.703496 0.883413 0.598956
O O3 0.965301 0.690792 0.626466
O O4 0.708132 0.130487 0.496261
O O5 0.757294 0.654554 0.229314
O O6 0.821161 0.487312 0.565004
O O7 0.127767 0.305032 0.700146
O O8 0.443201 0.497294 0.297194
O O9 0.231699 0.697990 0.113552
O O10 0.500000 0.500000 0.000000
O O11 0.288286 0.885981 0.978758
O O12 0.012233 0.781081 0.125111
O O13 0.465699 0.273960 0.654705
O O14 0.483607 0.986238 0.775217
O O15 0.500000 0.000000 0.000000
O O16 0.500000 0.500000 0.500000
O O17 0.702095 0.609395 0.795876
O O18 0.500000 0.000000 0.500000
#
# Coordination Sequence:
#
# PCOD8000527 Si02
#       8
#     2   2   2   2   2   2   2   2
#     4  10  19  39  63  95 122 165 208 263 314 375
#     4  11  20  39  69  95 127 161 214 265 328 371
#     4  12  25  39  62  97 132 167 214 262 316 378
#     4  11  21  36  65 101 129 159 207 263 328 383
#     4  11  25  41  64  93 126 165 216 267 310 377
#     4  11  25  46  62  87 132 177 212 257 317 378
#     4  11  18  35  64  94 123 157 207 262 320 364
#     4  11  20  38  61  97 129 163 203 269 325 368
#
# _framework density 19.544249000000001
#
# number of rings (size 3 to 8) (size 9 to 14) (size 15 to 20)
#    0.000    1.000    6.250    1.875    3.500    0.000 
#    0.000    4.375    0.000    0.000    0.000    0.000 
#    0.000    0.000    0.000    0.000    0.000    0.000 
#
# Total GULP energy -198345.089157 kJ/mol
# GULP energy per Si atom -12396.568072 kJ/mol
# Density = 1.949977 g / cm^3
# Si number density = 19.544249 Si / 1000 Ang^3
#
#
#
# Elastic Constant Matrix: (Units=GPa)
#
#
# Indices 1 2 3 4 5 6 
#
# 1 86.8987 52.0508 38.0043 -1.3076 5.0319 -11.8966
# 2 52.0508 150.6210 48.7828 -22.1916 12.0512 1.4032
# 3 38.0043 48.7828 122.7116 -14.2935 12.9239 -7.2057
# 4 -1.3076 -22.1916 -14.2935 31.0482 -1.4774 6.9104
# 5 5.0319 12.0512 12.9239 -1.4774 29.1801 -4.4763
# 6 -11.8966 1.4032 -7.2057 6.9104 -4.4763 36.5319
#
#
#
# Elastic Compliance Matrix: (Units=1/GPa)
#
#
# Indices 1 2 3 4 5 6 
#
# 1 0.017385 -0.006035 -0.003549 -0.006614 0.001753 0.006659
# 2 -0.006035 0.010565 -0.001402 0.007495 -0.003002 -0.004433
# 3 -0.003549 -0.001402 0.010566 0.003577 -0.003323 -0.000102
# 4 -0.006614 0.007495 0.003577 0.040985 -0.002976 -0.009854
# 5 0.001753 -0.003002 -0.003323 -0.002976 0.037321 0.005167
# 6 0.006659 -0.004433 -0.000102 -0.009854 0.005167 0.032189
#
#
# Mechanical properties :
#
#
# Convention : Reuss Voigt Hill
#
# Bulk Modulus (GPa) = 60.44433 70.87857 65.66145
# Shear Modulus (GPa) = 28.32874 34.11160 31.22017
#
# Velocity S-wave (km/s) = 3.81132 4.18227 4.00110
# Velocity P-wave (km/s) = 7.09664 7.72440 7.41716
#
# Compressibility (1/GPa) = 0.01654415
#
# Stress axis : x y z
#
# Youngs Moduli (GPa) = 57.51927 94.65515 94.63971
#
# Poissons Ratio (x) = 0.57127 0.33588
# Poissons Ratio (y) = 0.34715 0.13267
# Poissons Ratio (z) = 0.20414 0.13269
#
# Static dielectric constant tensor:
#      x y z
#    x 3.573120 -0.138560 -0.020730 
#    y -0.138560 4.160080 -0.184330 
#    z -0.020730 -0.184330 3.441800 
# 
# 
# High freq. dielectric constant tensor:
#      x y z
#    x 1.759460 -0.015160 -0.008430 
#    y -0.015160 1.773880 -0.022790 
#    z -0.008430 -0.022790 1.742860 
# 
# From -- ./inp_files/306742.got.cif
#   From: 2010.06.25/outbox.cif.g09.slc.cpg/sg2_154_cif.got.tgz:306742.got - 2010.06.27 13:26:56.
