data_PCOD8000674
_publ_section_title
;
Structure prediction by ZEFSAII (Michael W. Deem and Ramdas Pophale) SiO2 
 PCOD8000674
Probable space group: P -1
;
_chemical_formula_sum "Si O2"
_cell_formula_units_Z 16
_cell_length_a 14.168834
_cell_length_b 9.166540
_cell_length_c 19.928919
_cell_angle_alpha 62.670274
_cell_angle_beta 19.492167
_cell_angle_gamma 59.400390
_cell_volume 741.462426
_symmetry_space_group_name_H-M "P -1"
_symmetry_group_IT_number 2
_symmetry_cell_setting 'triclinic'
loop_
_space_group_symop_operation_xyz
x,y,z
-x,-y,-z
loop_
_atom_site_type_symbol
_atom_site_label
_atom_site_fract_x
_atom_site_fract_y
_atom_site_fract_z
Si Si1 0.257787 0.826467 0.725822
Si Si2 0.400469 0.414773 0.147424
Si Si3 0.325146 0.639684 0.893917
Si Si4 0.068368 0.279324 0.548684
Si Si5 0.458590 0.450508 0.717727
Si Si6 0.652458 0.016074 0.498010
Si Si7 0.788539 0.797357 0.142593
Si Si8 0.998486 0.196058 0.466562
O O1 0.453442 0.635764 0.651794
O O2 0.235928 0.854335 0.653582
O O3 0.414351 0.955274 0.627890
O O4 0.929349 0.873091 0.968532
O O5 0.666000 0.404730 0.023984
O O6 0.101209 0.534693 0.352534
O O7 0.314930 0.236015 0.229181
O O8 0.500000 0.500000 0.000000
O O9 0.590149 0.727157 0.686095
O O10 0.346540 0.478942 0.864063
O O11 0.018201 0.772028 0.055562
O O12 0.920189 0.242335 0.586918
O O13 0.065018 0.135120 0.637479
O O14 0.249250 0.379762 0.824059
O O15 0.771545 0.312345 0.541619
O O16 0.515739 0.095631 0.644509
O O17 0.000000 0.000000 0.500000
#
# Coordination Sequence:
#
# PCOD8000674 Si02
#       8
#     2   2   2   2   2   2   2   2
#     4  10  22  38  61  90 129 168 209 269 319 379
#     4  11  23  42  70  97 125 176 225 270 329 397
#     4  10  19  39  67  89 125 170 223 262 308 404
#     4  11  20  42  66  88 130 175 211 268 329 388
#     4  11  20  42  65  88 131 175 212 261 330 393
#     4  11  22  39  62  96 130 164 214 275 321 379
#     4  11  23  38  65  95 126 172 220 258 330 389
#     4  11  22  41  67  95 126 170 219 271 330 389
#
# _framework density 21.578973999999999
#
# number of rings (size 3 to 8) (size 9 to 14) (size 15 to 20)
#    0.000    1.250    5.000    3.375    0.000    3.500 
#    4.500    4.375    0.000    0.000    0.000    0.000 
#    0.000    0.000    0.000    0.000    0.000    0.000 
#
# Total GULP energy -198219.361713 kJ/mol
# GULP energy per Si atom -12388.710107 kJ/mol
# Density = 2.152986 g / cm^3
# Si number density = 21.578974 Si / 1000 Ang^3
#
#
#
# Elastic Constant Matrix: (Units=GPa)
#
#
# Indices 1 2 3 4 5 6 
#
# 1 113.7029 37.8694 42.3076 -22.7808 8.3226 -11.9993
# 2 37.8694 93.9517 22.2776 -19.2329 9.1036 5.2818
# 3 42.3076 22.2776 62.7332 -15.8302 15.9784 1.9898
# 4 -22.7808 -19.2329 -15.8302 24.3353 -6.5668 -2.1253
# 5 8.3226 9.1036 15.9784 -6.5668 34.4512 -2.0611
# 6 -11.9993 5.2818 1.9898 -2.1253 -2.0611 36.6511
#
#
#
# Elastic Compliance Matrix: (Units=1/GPa)
#
#
# Indices 1 2 3 4 5 6 
#
# 1 0.014715 -0.003166 -0.007800 0.007476 0.002700 0.006283
# 2 -0.003166 0.013759 -0.000547 0.006928 -0.001456 -0.002670
# 3 -0.007800 -0.000547 0.025271 0.005984 -0.008790 -0.003994
# 4 0.007476 0.006928 0.005984 0.059280 0.005178 0.004853
# 5 0.002700 -0.001456 -0.008790 0.005178 0.034049 0.003786
# 6 0.006283 -0.002670 -0.003994 0.004853 0.003786 0.030437
#
#
# Mechanical properties :
#
#
# Convention : Reuss Voigt Hill
#
# Bulk Modulus (GPa) = 32.55354 52.81077 42.68216
# Shear Modulus (GPa) = 23.72176 30.28306 27.00241
#
# Velocity S-wave (km/s) = 3.31917 3.75021 3.54125
# Velocity P-wave (km/s) = 5.45964 6.57864 6.04509
#
# Compressibility (1/GPa) = 0.03071863
#
# Stress axis : x y z
#
# Youngs Moduli (GPa) = 67.95860 72.67885 39.57173
#
# Poissons Ratio (x) = 0.23011 0.30866
# Poissons Ratio (y) = 0.21516 0.02164
# Poissons Ratio (z) = 0.53007 0.03975
#
# Static dielectric constant tensor:
#      x y z
#    x 4.406410 -0.135760 0.063410 
#    y -0.135760 3.894850 -0.039260 
#    z 0.063410 -0.039260 3.716740 
# 
# 
# High freq. dielectric constant tensor:
#      x y z
#    x 1.861320 -0.006040 -0.006840 
#    y -0.006040 1.846150 0.000420 
#    z -0.006840 0.000420 1.808010 
# 
# From -- ./inp_files/181345.got.cif
#   From: 2010.06.25/outbox.cif.g09.slc.cpg/sg2_91_cif.got.tgz:181345.got - 2010.06.27 13:26:56.
