data_PCOD8000008
_publ_section_title
;
Structure prediction by ZEFSAII (Michael W. Deem and Ramdas Pophale) SiO2 
 PCOD8000008
Probable space group: P 1
;
_chemical_formula_sum "Si O2"
_cell_formula_units_Z 6
_cell_length_a 9.340671
_cell_length_b 9.361773
_cell_length_c 14.728179
_cell_angle_alpha 152.549927
_cell_angle_beta 152.588992
_cell_angle_gamma 44.184387
_cell_volume 257.715319
_symmetry_space_group_name_H-M "P 1"
_symmetry_group_IT_number 1
_symmetry_cell_setting 'triclinic'
loop_
_space_group_symop_operation_xyz
x,y,z
loop_
_atom_site_type_symbol
_atom_site_label
_atom_site_fract_x
_atom_site_fract_y
_atom_site_fract_z
Si Si1 0.643210 0.667180 0.590470
Si Si2 0.218421 0.252659 0.253157
Si Si3 0.710198 0.596839 0.089178
Si Si4 0.369840 0.579377 0.191779
Si Si5 0.294670 0.171863 0.750297
Si Si6 0.625400 0.321958 0.691040
O O1 0.521893 0.343658 0.403363
O O2 0.556163 0.557195 0.376391
O O3 0.451710 0.903388 0.654258
O O4 0.035689 0.856724 0.927209
O O5 0.357060 0.372935 0.499163
O O6 0.948691 0.410454 0.158453
O O7 0.383052 0.474003 0.898446
O O8 0.603852 0.507590 0.875856
O O9 0.897377 0.988630 0.424477
O O10 0.539650 0.937234 0.445803
O O11 0.420123 0.311549 0.999407
O O12 0.983798 0.492648 0.945542
#
# Coordination Sequence:
#
# PCOD8000008 Si02
#       6
#     1   1   1   1   1   1
#     4  10  19  40  59  85 116 156 189 241 288 335
#     4  10  20  35  64  83 115 154 195 233 288 347
#     4  10  19  40  59  85 116 156 189 241 288 335
#     4  12  21  37  65  88 113 160 192 234 298 342
#     4  10  20  35  64  83 115 154 195 233 288 347
#     4  12  21  37  65  88 113 160 192 234 298 342
#
# _framework density 23.281500999999999
#
# number of rings (size 3 to 8) (size 9 to 14) (size 15 to 20)
#    0.000    1.333    6.667    2.000    0.000    0.000 
#    0.000    0.000   44.000    0.000    0.000    0.000 
#    0.000    0.000    0.000    0.000    0.000    0.000 
#
# Total GULP energy -74355.713439 kJ/mol
# GULP energy per Si atom -12392.618906 kJ/mol
# Density = 2.322851 g / cm^3
# Si number density = 23.281501 Si / 1000 Ang^3
#
#
#
# Elastic Constant Matrix: (Units=GPa)
#
#
# Indices 1 2 3 4 5 6 
#
# 1 69.5251 25.9098 48.4385 4.8542 -9.0231 35.7509
# 2 25.9098 32.8867 23.6759 -13.6505 -4.3442 17.3426
# 3 48.4385 23.6759 182.2626 3.0672 4.6674 34.1772
# 4 4.8542 -13.6505 3.0672 34.5099 42.7030 -0.7311
# 5 -9.0231 -4.3442 4.6674 42.7030 62.2138 7.1034
# 6 35.7509 17.3426 34.1772 -0.7311 7.1034 34.5872
#
#
#
# Elastic Compliance Matrix: (Units=1/GPa)
#
#
# Indices 1 2 3 4 5 6 
#
# 1 -0.004255 0.021738 -0.002753 0.059868 -0.040651 0.005833
# 2 0.021738 0.023746 -0.001251 -0.042885 0.039146 -0.042087
# 3 -0.002753 -0.001251 0.007029 -0.000166 -0.000516 -0.003370
# 4 0.059868 -0.042885 -0.000166 -0.083538 0.069462 -0.056247
# 5 -0.040651 0.039146 -0.000516 0.069462 -0.038412 0.032257
# 6 0.005833 -0.042087 -0.003370 -0.056247 0.032257 0.039502
#
#
# Mechanical properties :
#
#
# Convention : Reuss Voigt Hill
#
# Bulk Modulus (GPa) = 16.13204 53.41364 34.77284
# Shear Modulus (GPa) = -70.68867 38.70553 -15.99157
#
# Velocity S-wave (km/s) = -5.51620 4.08180 -2.62368
# Velocity P-wave (km/s) = 5.79889 6.72363 2.40624
#
# Compressibility (1/GPa) = 0.06198843
#
# Stress axis : x y z
#
# Youngs Moduli (GPa) = -235.03674 42.11267 142.27425
#
# Poissons Ratio (x) = -0.91545 0.39173
# Poissons Ratio (y) = 5.10928 0.17793
# Poissons Ratio (z) = -0.64713 0.05267
#
# Static dielectric constant tensor:
#      x y z
#    x 5.244420 0.976400 1.461010 
#    y 0.976400 4.839080 1.159480 
#    z 1.461010 1.159480 6.445040 
# 
# 
# High freq. dielectric constant tensor:
#      x y z
#    x 1.920650 0.038900 0.015750 
#    y 0.038900 1.892590 0.011300 
#    z 0.015750 0.011300 1.953690 
# 
# From -- ./inp_files/146.got.cif
#   From: 2010.03.12/outbox.cif.g09.slc.cpg/sg1_1_cif.got.tgz:146.got - 2010.03.29 11:57:58.
