data_PCOD8000795
_publ_section_title
;
Structure prediction by ZEFSAII (Michael W. Deem and Ramdas Pophale) SiO2 
 PCOD8000795
Probable space group: P -1
;
_chemical_formula_sum "Si O2"
_cell_formula_units_Z 12
_cell_length_a 8.377630
_cell_length_b 9.845382
_cell_length_c 9.538097
_cell_angle_alpha 114.099103
_cell_angle_beta 63.206300
_cell_angle_gamma 129.065395
_cell_volume 536.412307
_symmetry_space_group_name_H-M "P -1"
_symmetry_group_IT_number 2
_symmetry_cell_setting 'triclinic'
loop_
_space_group_symop_operation_xyz
x,y,z
-x,-y,-z
loop_
_atom_site_type_symbol
_atom_site_label
_atom_site_fract_x
_atom_site_fract_y
_atom_site_fract_z
Si Si1 0.426422 0.813825 0.510255
Si Si2 0.870878 0.465793 0.678200
Si Si3 0.940989 0.051662 0.826634
Si Si4 0.389834 0.271693 0.355861
Si Si5 0.832451 0.614762 0.324124
Si Si6 0.916487 0.171366 0.183033
O O1 0.365362 0.691477 0.343263
O O2 0.597914 0.801321 0.526733
O O3 0.243114 0.771749 0.678464
O O4 0.500000 0.000000 0.500000
O O5 0.000000 0.500000 0.500000
O O6 0.969431 0.405250 0.735573
O O7 0.860334 0.633354 0.807805
O O8 0.085754 0.223211 0.747067
O O9 0.723992 0.894878 0.773986
O O10 0.865233 0.105758 0.016626
O O11 0.086305 0.976283 0.781072
O O12 0.621263 0.430816 0.272296
O O13 0.237292 0.344008 0.480663
#
# Coordination Sequence:
#
# PCOD8000795 Si02
#       6
#     2   2   2   2   2   2
#     4  11  21  38  64  92 117 155 202 249 301 348
#     4  10  19  40  61  84 122 154 197 244 296 350
#     4  11  24  42  60  85 127 162 199 237 308 358
#     4  11  22  37  64  92 117 149 206 256 285 354
#     4  11  22  39  63  92 115 161 200 248 301 347
#     4  10  23  43  58  84 124 164 192 247 299 359
#
# _framework density 22.370851999999999
#
# number of rings (size 3 to 8) (size 9 to 14) (size 15 to 20)
#    0.000    1.333    3.333    4.500    2.333    1.333 
#    3.000    1.667    0.000    0.000    0.000    0.000 
#    0.000    0.000    0.000    0.000    0.000    0.000 
#
# Total GULP energy -148695.273995 kJ/mol
# GULP energy per Si atom -12391.272833 kJ/mol
# Density = 2.231993 g / cm^3
# Si number density = 22.370852 Si / 1000 Ang^3
#
#
#
# Elastic Constant Matrix: (Units=GPa)
#
#
# Indices 1 2 3 4 5 6 
#
# 1 62.7707 29.7069 32.3023 5.0136 24.0962 2.4649
# 2 29.7069 165.5688 53.4192 13.7133 36.6473 8.1772
# 3 32.3023 53.4192 84.6895 20.5283 28.9950 9.3165
# 4 5.0136 13.7133 20.5283 34.3991 5.3913 6.4504
# 5 24.0962 36.6473 28.9950 5.3913 31.3650 12.8461
# 6 2.4649 8.1772 9.3165 6.4504 12.8461 35.5910
#
#
#
# Elastic Compliance Matrix: (Units=1/GPa)
#
#
# Indices 1 2 3 4 5 6 
#
# 1 0.024500 0.000669 -0.004357 0.000515 -0.017997 0.005692
# 2 0.000669 0.008742 -0.002723 -0.000947 -0.008883 0.002036
# 3 -0.004357 -0.002723 0.021561 -0.009482 -0.012375 0.001468
# 4 0.000515 -0.000947 -0.009482 0.035212 0.005805 -0.005813
# 5 -0.017997 -0.008883 -0.012375 0.005805 0.075439 -0.021754
# 6 0.005692 0.002036 0.001468 -0.005813 -0.021754 0.035756
#
#
# Mechanical properties :
#
#
# Convention : Reuss Voigt Hill
#
# Bulk Modulus (GPa) = 23.81942 60.43176 42.12559
# Shear Modulus (GPa) = 21.92755 33.44439 27.68597
#
# Velocity S-wave (km/s) = 3.13419 3.87072 3.52176
# Velocity P-wave (km/s) = 4.87526 6.85922 5.95050
#
# Compressibility (1/GPa) = 0.04198255
#
# Stress axis : x y z
#
# Youngs Moduli (GPa) = 40.81632 114.38815 46.38107
#
# Poissons Ratio (x) = -0.07657 0.20207
# Poissons Ratio (y) = -0.02732 0.12629
# Poissons Ratio (z) = 0.17782 0.31145
#
# Static dielectric constant tensor:
#      x y z
#    x -5.996250 -4.350090 1.294060 
#    y -4.350090 2.550420 0.834030 
#    z 1.294060 0.834030 3.868450 
# 
# 
# High freq. dielectric constant tensor:
#      x y z
#    x 1.872380 -0.012250 0.020490 
#    y -0.012250 1.908640 0.022320 
#    z 0.020490 0.022320 1.845860 
# 
# From -- ./inp_files/145630.got.cif
#   From: 2010.06.25/outbox.cif.g09.slc.cpg/sg2_73_cif.got.tgz:145630.got - 2010.06.27 13:26:56.
