data_PCOD8000790
_publ_section_title
;
Structure prediction by ZEFSAII (Michael W. Deem and Ramdas Pophale) SiO2 
 PCOD8000790
Probable space group: P -1
;
_chemical_formula_sum "Si O2"
_cell_formula_units_Z 12
_cell_length_a 8.646023
_cell_length_b 14.618492
_cell_length_c 14.404725
_cell_angle_alpha 31.043024
_cell_angle_beta 123.826516
_cell_angle_gamma 102.601798
_cell_volume 621.561247
_symmetry_space_group_name_H-M "P -1"
_symmetry_group_IT_number 2
_symmetry_cell_setting 'triclinic'
loop_
_space_group_symop_operation_xyz
x,y,z
-x,-y,-z
loop_
_atom_site_type_symbol
_atom_site_label
_atom_site_fract_x
_atom_site_fract_y
_atom_site_fract_z
Si Si1 0.877933 0.388167 0.580550
Si Si2 0.225073 0.747247 0.803896
Si Si3 0.419767 0.510517 0.258456
Si Si4 0.154416 0.843492 0.381367
Si Si5 0.261225 0.491400 0.873204
Si Si6 0.040023 0.674438 0.124187
O O1 0.597274 0.558763 0.317963
O O2 0.986604 0.174552 0.734165
O O3 0.000000 0.500000 0.500000
O O4 0.921557 0.311061 0.767829
O O5 0.198996 0.579615 0.881757
O O6 0.244705 0.697963 0.962697
O O7 0.462683 0.700935 0.883896
O O8 0.000000 0.000000 0.500000
O O9 0.579698 0.273625 0.463931
O O10 0.281604 0.491051 0.311686
O O11 0.160262 0.710006 0.587455
O O12 0.043380 0.094428 0.152348
O O13 0.141722 0.376558 0.907256
#
# Coordination Sequence:
#
# PCOD8000790 Si02
#       6
#     2   2   2   2   2   2
#     4  10  19  40  61  82 123 155 185 240 288 341
#     4  10  20  41  61  82 119 154 195 240 285 344
#     4   9  22  36  57  89 118 145 199 241 277 346
#     4   9  21  38  57  86 120 148 193 232 286 345
#     4  10  22  38  62  87 115 154 193 239 288 340
#     4  12  20  38  63  87 117 155 188 237 297 339
#
# _framework density 19.306222999999999
#
# number of rings (size 3 to 8) (size 9 to 14) (size 15 to 20)
#    1.000    1.000    1.667    2.000    0.000    2.000 
#    0.000   14.167    0.000    0.000    0.000    0.000 
#    0.000    0.000    0.000    0.000    0.000    0.000 
#
# Total GULP energy -148674.980132 kJ/mol
# GULP energy per Si atom -12389.581678 kJ/mol
# Density = 1.926228 g / cm^3
# Si number density = 19.306223 Si / 1000 Ang^3
#
#
#
# Elastic Constant Matrix: (Units=GPa)
#
#
# Indices 1 2 3 4 5 6 
#
# 1 83.9405 39.6324 30.9852 0.8585 -3.0776 -0.7739
# 2 39.6324 106.3869 48.8220 12.8056 -0.9989 14.9562
# 3 30.9852 48.8220 76.4774 5.2998 -6.1397 8.8927
# 4 0.8585 12.8056 5.2998 28.5371 2.9846 3.6834
# 5 -3.0776 -0.9989 -6.1397 2.9846 22.4083 -6.6959
# 6 -0.7739 14.9562 8.8927 3.6834 -6.6959 14.3806
#
#
#
# Elastic Compliance Matrix: (Units=1/GPa)
#
#
# Indices 1 2 3 4 5 6 
#
# 1 0.016414 -0.006000 -0.003859 0.001043 0.004127 0.011165
# 2 -0.006000 0.017578 -0.007166 -0.003618 -0.006366 -0.016211
# 3 -0.003859 -0.007166 0.019912 -0.000328 0.003671 -0.003275
# 4 0.001043 -0.003618 -0.000328 0.038807 -0.008183 -0.009728
# 5 0.004127 -0.006366 0.003671 -0.008183 0.056917 0.033170
# 6 0.011165 -0.016211 -0.003275 -0.009728 0.033170 0.106960
#
#
# Mechanical properties :
#
#
# Convention : Reuss Voigt Hill
#
# Bulk Modulus (GPa) = 50.36727 56.18713 53.27720
# Shear Modulus (GPa) = 16.82045 22.88956 19.85500
#
# Velocity S-wave (km/s) = 2.95489 3.44700 3.21039
# Velocity P-wave (km/s) = 6.14712 6.70885 6.43412
#
# Compressibility (1/GPa) = 0.01985416
#
# Stress axis : x y z
#
# Youngs Moduli (GPa) = 60.92260 56.88867 50.22051
#
# Poissons Ratio (x) = 0.34134 0.19380
# Poissons Ratio (y) = 0.36555 0.35988
# Poissons Ratio (z) = 0.23510 0.40766
#
# Static dielectric constant tensor:
#      x y z
#    x 3.388610 -0.153040 0.098920 
#    y -0.153040 3.687370 0.234940 
#    z 0.098920 0.234940 3.281550 
# 
# 
# High freq. dielectric constant tensor:
#      x y z
#    x 1.744080 -0.015520 0.005420 
#    y -0.015520 1.762700 0.017760 
#    z 0.005420 0.017760 1.730610 
# 
# From -- ./inp_files/199909.got.cif
#   From: 2010.06.25/outbox.cif.g09.slc.cpg/sg2_100_cif.got.tgz:199909.got - 2010.06.27 13:26:56.
