data_PCOD8000859
_publ_section_title
;
Structure prediction by ZEFSAII (Michael W. Deem and Ramdas Pophale) SiO2 
 PCOD8000859
Probable space group: P -1
;
_chemical_formula_sum "Si O2"
_cell_formula_units_Z 16
_cell_length_a 8.856603
_cell_length_b 13.763010
_cell_length_c 9.267200
_cell_angle_alpha 102.964894
_cell_angle_beta 72.712342
_cell_angle_gamma 134.117053
_cell_volume 774.082097
_symmetry_space_group_name_H-M "P -1"
_symmetry_group_IT_number 2
_symmetry_cell_setting 'triclinic'
loop_
_space_group_symop_operation_xyz
x,y,z
-x,-y,-z
loop_
_atom_site_type_symbol
_atom_site_label
_atom_site_fract_x
_atom_site_fract_y
_atom_site_fract_z
Si Si1 0.832796 0.509855 0.997521
Si Si2 0.871133 0.744303 0.105736
Si Si3 0.025970 0.122996 0.593727
Si Si4 0.326647 0.011211 0.550595
Si Si5 0.428199 0.327183 0.218166
Si Si6 0.488603 0.289991 0.488500
Si Si7 0.000837 0.909012 0.859739
Si Si8 0.617899 0.463978 0.759556
O O1 0.902129 0.641396 0.103235
O O2 0.592356 0.373112 0.059034
O O3 0.811635 0.522377 0.835667
O O4 0.000000 0.500000 0.000000
O O5 0.001277 0.871926 0.223741
O O6 0.615835 0.658417 0.143791
O O7 0.969616 0.800285 0.936466
O O8 0.268510 0.262612 0.544346
O O9 0.000000 0.000000 0.500000
O O10 0.853298 0.111497 0.547482
O O11 0.441473 0.155878 0.497122
O O12 0.500000 0.000000 0.500000
O O13 0.218663 0.992717 0.730303
O O14 0.562883 0.340815 0.321240
O O15 0.205386 0.170725 0.214146
O O16 0.370837 0.419619 0.266551
O O17 0.655973 0.406644 0.593898
O O18 0.000000 0.000000 0.000000
#
# Coordination Sequence:
#
# PCOD8000859 Si02
#       8
#     2   2   2   2   2   2   2   2
#     4  11  23  39  60  92 128 159 197 263 326 370
#     4  10  20  38  62  90 119 160 211 258 305 373
#     4   9  18  36  60  84 117 160 207 253 302 371
#     4  11  25  41  59  91 134 167 202 262 323 365
#     4  11  21  39  65  91 117 159 218 260 300 372
#     4  10  21  38  64  87 119 166 215 252 303 380
#     4  12  22  38  69  94 118 167 219 251 309 377
#     4  10  19  40  64  89 121 156 208 262 311 365
#
# _framework density 20.669640000000001
#
# number of rings (size 3 to 8) (size 9 to 14) (size 15 to 20)
#    0.000    1.500    3.750    3.375    1.750    2.000 
#    0.000    1.250    0.000    0.000    0.000    0.000 
#    0.000    0.000    0.000    0.000    0.000    0.000 
#
# Total GULP energy -198219.792794 kJ/mol
# GULP energy per Si atom -12388.737050 kJ/mol
# Density = 2.062260 g / cm^3
# Si number density = 20.669640 Si / 1000 Ang^3
#
#
#
# Elastic Constant Matrix: (Units=GPa)
#
#
# Indices 1 2 3 4 5 6 
#
# 1 132.3158 38.2710 49.3791 13.9009 7.7644 -9.4302
# 2 38.2710 77.7150 39.5779 10.6764 6.3693 -9.3925
# 3 49.3791 39.5779 120.4853 13.4054 20.2801 -6.6044
# 4 13.9009 10.6764 13.4054 37.3731 1.5508 7.9711
# 5 7.7644 6.3693 20.2801 1.5508 28.2831 -2.6562
# 6 -9.4302 -9.3925 -6.6044 7.9711 -2.6562 21.9958
#
#
#
# Elastic Compliance Matrix: (Units=1/GPa)
#
#
# Indices 1 2 3 4 5 6 
#
# 1 0.009852 -0.002744 -0.002723 -0.002602 0.000310 0.003215
# 2 -0.002744 0.017522 -0.003894 -0.004025 0.000444 0.006649
# 3 -0.002723 -0.003894 0.012128 -0.002097 -0.006887 0.000740
# 4 -0.002602 -0.004025 -0.002097 0.032919 -0.000128 -0.015409
# 5 0.000310 0.000444 -0.006887 -0.000128 0.040416 0.003182
# 6 0.003215 0.006649 0.000740 -0.015409 0.003182 0.055871
#
#
# Mechanical properties :
#
#
# Convention : Reuss Voigt Hill
#
# Bulk Modulus (GPa) = 48.12223 64.99688 56.55956
# Shear Modulus (GPa) = 25.72611 31.08294 28.40453
#
# Velocity S-wave (km/s) = 3.53176 3.88209 3.71106
# Velocity P-wave (km/s) = 6.32165 7.18387 6.76651
#
# Compressibility (1/GPa) = 0.02078042
#
# Stress axis : x y z
#
# Youngs Moduli (GPa) = 101.50404 57.07141 82.45571
#
# Poissons Ratio (x) = 0.15663 0.22449
# Poissons Ratio (y) = 0.27857 0.32104
# Poissons Ratio (z) = 0.27635 0.22221
#
# Static dielectric constant tensor:
#      x y z
#    x 3.767570 0.158000 0.522480 
#    y 0.158000 3.872400 0.149770 
#    z 0.522480 0.149770 4.194790 
# 
# 
# High freq. dielectric constant tensor:
#      x y z
#    x 1.774580 -0.008350 0.030150 
#    y -0.008350 1.809040 0.005750 
#    z 0.030150 0.005750 1.814420 
# 
# From -- ./inp_files/208198.got.cif
#   From: 2010.06.25/outbox.cif.g09.slc.cpg/sg2_105_cif.got.tgz:208198.got - 2010.06.27 13:26:56.
