data_PCOD8000415
_publ_section_title
;
Structure prediction by ZEFSAII (Michael W. Deem and Ramdas Pophale) SiO2 
 PCOD8000415
Probable space group: P -1
;
_chemical_formula_sum "Si O2"
_cell_formula_units_Z 14
_cell_length_a 9.617490
_cell_length_b 12.632645
_cell_length_c 12.260036
_cell_angle_alpha 141.185100
_cell_angle_beta 51.865427
_cell_angle_gamma 136.568748
_cell_volume 637.233319
_symmetry_space_group_name_H-M "P -1"
_symmetry_group_IT_number 2
_symmetry_cell_setting 'triclinic'
loop_
_space_group_symop_operation_xyz
x,y,z
-x,-y,-z
loop_
_atom_site_type_symbol
_atom_site_label
_atom_site_fract_x
_atom_site_fract_y
_atom_site_fract_z
Si Si1 0.425628 0.071379 0.991004
Si Si2 0.197265 0.388590 0.077184
Si Si3 0.800201 0.370516 0.925577
Si Si4 0.768284 0.092112 0.539563
Si Si5 0.849063 0.256072 0.290217
Si Si6 0.604078 0.291225 0.615667
Si Si7 0.007918 0.055462 0.212548
O O1 0.237989 0.100652 0.140611
O O2 0.610321 0.273598 0.021953
O O3 0.500000 0.000000 0.000000
O O4 0.355984 0.916951 0.802395
O O5 0.236307 0.488328 0.021704
O O6 0.386142 0.522315 0.176396
O O7 0.999773 0.390976 0.229726
O O8 0.158171 0.171904 0.910491
O O9 0.828732 0.205490 0.715905
O O10 0.000000 0.500000 0.000000
O O11 0.655045 0.177252 0.590694
O O12 0.966963 0.119031 0.401360
O O13 0.617905 0.859502 0.444938
O O14 0.774825 0.368979 0.498391
O O15 0.973399 0.168985 0.222720
#
# Coordination Sequence:
#
# PCOD8000415 Si02
#       7
#     2   2   2   2   2   2   2
#     4  11  22  40  63  85 120 167 202 237 309 370
#     4  10  20  33  58  93 121 152 203 249 295 352
#     4  11  22  40  63  85 118 165 212 243 292 372
#     4   9  19  37  59  87 121 158 198 251 307 347
#     4  10  19  39  61  91 125 161 198 247 307 357
#     4   9  17  33  60  89 121 158 198 246 301 363
#     4  10  22  40  62  93 127 156 195 256 308 354
#
# _framework density 21.969975999999999
#
# number of rings (size 3 to 8) (size 9 to 14) (size 15 to 20)
#    0.000    2.000    1.429    3.857    2.000    0.571 
#    2.571    3.571    0.000    0.000    0.000    0.000 
#    0.000    0.000    0.000    0.000    0.000    0.000 
#
# Total GULP energy -173556.600954 kJ/mol
# GULP energy per Si atom -12396.900068 kJ/mol
# Density = 2.191997 g / cm^3
# Si number density = 21.969976 Si / 1000 Ang^3
#
#
#
# Elastic Constant Matrix: (Units=GPa)
#
#
# Indices 1 2 3 4 5 6 
#
# 1 101.6557 41.1619 38.7901 -6.4930 9.3551 9.4507
# 2 41.1619 127.3697 23.0276 -1.1830 4.6454 1.0176
# 3 38.7901 23.0276 112.4313 -2.4001 7.3005 10.7603
# 4 -6.4930 -1.1830 -2.4001 27.8866 3.8948 11.2984
# 5 9.3551 4.6454 7.3005 3.8948 24.6801 8.4820
# 6 9.4507 1.0176 10.7603 11.2984 8.4820 27.6529
#
#
#
# Elastic Compliance Matrix: (Units=1/GPa)
#
#
# Indices 1 2 3 4 5 6 
#
# 1 0.013492 -0.003598 -0.003217 0.004867 -0.002751 -0.004372
# 2 -0.003598 0.009154 -0.000800 -0.001195 -0.000576 0.001869
# 3 -0.003217 -0.000800 0.010582 0.001620 -0.000851 -0.003390
# 4 0.004867 -0.001195 0.001620 0.045574 -0.002368 -0.020144
# 5 -0.002751 -0.000576 -0.000851 -0.002368 0.046411 -0.011976
# 6 -0.004372 0.001869 -0.003390 -0.020144 -0.011976 0.050810
#
#
# Mechanical properties :
#
#
# Convention : Reuss Voigt Hill
#
# Bulk Modulus (GPa) = 55.56482 60.82398 58.19440
# Shear Modulus (GPa) = 25.34811 31.94242 28.64527
#
# Velocity S-wave (km/s) = 3.40039 3.81716 3.61479
# Velocity P-wave (km/s) = 6.38459 6.86824 6.63083
#
# Compressibility (1/GPa) = 0.01799700
#
# Stress axis : x y z
#
# Youngs Moduli (GPa) = 74.11728 109.24602 94.49616
#
# Poissons Ratio (x) = 0.39308 0.30400
# Poissons Ratio (y) = 0.26668 0.07564
# Poissons Ratio (z) = 0.23844 0.08744
#
# Static dielectric constant tensor:
#      x y z
#    x 3.508830 0.144070 0.249250 
#    y 0.144070 4.240530 0.032270 
#    z 0.249250 0.032270 4.202820 
# 
# 
# High freq. dielectric constant tensor:
#      x y z
#    x 1.814680 0.015950 0.015550 
#    y 0.015950 1.885190 -0.007470 
#    z 0.015550 -0.007470 1.872860 
# 
# From -- ./inp_files/393280.got.cif
#   From: 2010.06.25/outbox.cif.g09.slc.cpg/sg2_197_cif.got.tgz:393280.got - 2010.06.27 13:26:56.
