data_PCOD8000444
_publ_section_title
;
Structure prediction by ZEFSAII (Michael W. Deem and Ramdas Pophale) SiO2 
 PCOD8000444
Probable space group: P -1
;
_chemical_formula_sum "Si O2"
_cell_formula_units_Z 16
_cell_length_a 14.350065
_cell_length_b 15.589423
_cell_length_c 8.943982
_cell_angle_alpha 137.357702
_cell_angle_beta 42.857719
_cell_angle_gamma 139.125268
_cell_volume 813.374053
_symmetry_space_group_name_H-M "P -1"
_symmetry_group_IT_number 2
_symmetry_cell_setting 'triclinic'
loop_
_space_group_symop_operation_xyz
x,y,z
-x,-y,-z
loop_
_atom_site_type_symbol
_atom_site_label
_atom_site_fract_x
_atom_site_fract_y
_atom_site_fract_z
Si Si1 0.986542 0.173539 0.495643
Si Si2 0.872302 0.352075 0.028353
Si Si3 0.998521 0.297234 0.321605
Si Si4 0.163455 0.159991 0.776628
Si Si5 0.598103 0.392513 0.322572
Si Si6 0.204905 0.623118 0.516263
Si Si7 0.270442 0.291735 0.503835
Si Si8 0.497392 0.371604 0.744745
O O1 0.987424 0.262182 0.463706
O O2 0.162942 0.213473 0.386857
O O3 0.885930 0.006598 0.371861
O O4 0.909483 0.222703 0.781569
O O5 0.703441 0.313476 0.108213
O O6 0.871559 0.366062 0.224799
O O7 0.000000 0.500000 0.000000
O O8 0.135636 0.457259 0.336515
O O9 0.836154 0.288328 0.445310
O O10 0.033349 0.185411 0.045434
O O11 0.175534 0.210905 0.657992
O O12 0.325553 0.239636 0.775970
O O13 0.435969 0.289482 0.296096
O O14 0.693458 0.542551 0.315863
O O15 0.557288 0.429648 0.582327
O O16 0.390453 0.686068 0.387983
O O17 0.500000 0.500000 0.000000
#
# Coordination Sequence:
#
# PCOD8000444 Si02
#       8
#     2   2   2   2   2   2   2   2
#     4  12  23  39  58  87 124 161 193 238 299 352
#     4  11  19  37  62  85 117 150 197 245 289 345
#     4  11  22  38  58  89 120 151 201 247 286 353
#     4  11  24  38  60  88 120 160 196 237 300 359
#     4   9  20  35  60  93 111 144 203 249 288 335
#     4  10  21  37  62  91 112 150 202 248 294 330
#     4  10  20  38  59  85 121 149 199 244 291 345
#     4  10  19  39  62  88 119 151 192 248 294 347
#
# _framework density 19.671147000000001
#
# number of rings (size 3 to 8) (size 9 to 14) (size 15 to 20)
#    0.000    1.500    3.750    2.250    0.000    0.000 
#    2.250    7.500    0.000    0.000    0.000    0.000 
#    0.000    0.000    0.000    0.000    0.000    0.000 
#
# Total GULP energy -198425.634119 kJ/mol
# GULP energy per Si atom -12401.602132 kJ/mol
# Density = 1.962637 g / cm^3
# Si number density = 19.671147 Si / 1000 Ang^3
#
#
#
# Elastic Constant Matrix: (Units=GPa)
#
#
# Indices 1 2 3 4 5 6 
#
# 1 167.2516 45.9582 35.9812 -1.1764 -15.7904 12.6296
# 2 45.9582 65.7799 33.1618 10.6359 -3.6382 15.0323
# 3 35.9812 33.1618 93.1696 15.5101 -8.5822 9.2381
# 4 -1.1764 10.6359 15.5101 27.3600 0.4525 5.3164
# 5 -15.7904 -3.6382 -8.5822 0.4525 24.6600 -4.5738
# 6 12.6296 15.0323 9.2381 5.3164 -4.5738 27.6315
#
#
#
# Elastic Compliance Matrix: (Units=1/GPa)
#
#
# Indices 1 2 3 4 5 6 
#
# 1 0.008118 -0.005158 -0.001439 0.003186 0.003803 -0.000407
# 2 -0.005158 0.023982 -0.005162 -0.004911 -0.003052 -0.008523
# 3 -0.001439 -0.005162 0.014476 -0.006407 0.003556 0.000448
# 4 0.003186 -0.004911 -0.006407 0.043328 -0.002716 -0.005428
# 5 0.003803 -0.003052 0.003556 -0.002716 0.045069 0.006717
# 6 -0.000407 -0.008523 0.000448 -0.005428 0.006717 0.043020
#
#
# Mechanical properties :
#
#
# Convention : Reuss Voigt Hill
#
# Bulk Modulus (GPa) = 43.37087 61.82261 52.59674
# Shear Modulus (GPa) = 23.90091 30.00362 26.95227
#
# Velocity S-wave (km/s) = 3.48950 3.90970 3.70556
# Velocity P-wave (km/s) = 6.19123 7.20259 6.71597
#
# Compressibility (1/GPa) = 0.02305695
#
# Stress axis : x y z
#
# Youngs Moduli (GPa) = 123.18088 41.69852 69.08025
#
# Poissons Ratio (x) = 0.21510 0.09940
# Poissons Ratio (y) = 0.63541 0.35660
# Poissons Ratio (z) = 0.17725 0.21525
#
# Static dielectric constant tensor:
#      x y z
#    x 4.002320 0.100230 -0.127430 
#    y 0.100230 3.323780 -0.122550 
#    z -0.127430 -0.122550 3.563830 
# 
# 
# High freq. dielectric constant tensor:
#      x y z
#    x 1.790300 0.001150 -0.007680 
#    y 0.001150 1.735770 -0.009520 
#    z -0.007680 -0.009520 1.756040 
# 
# From -- ./inp_files/316027.got.cif
#   From: 2010.06.25/outbox.cif.g09.slc.cpg/sg2_159_cif.got.tgz:316027.got - 2010.06.27 13:26:56.
