data_PCOD8000881
_publ_section_title
;
Structure prediction by ZEFSAII (Michael W. Deem and Ramdas Pophale) SiO2 
 PCOD8000881
Probable space group: P -1
;
_chemical_formula_sum "Si O2"
_cell_formula_units_Z 16
_cell_length_a 9.480048
_cell_length_b 11.339637
_cell_length_c 13.622304
_cell_angle_alpha 96.152705
_cell_angle_beta 151.664384
_cell_angle_gamma 86.646018
_cell_volume 689.058258
_symmetry_space_group_name_H-M "P -1"
_symmetry_group_IT_number 2
_symmetry_cell_setting 'triclinic'
loop_
_space_group_symop_operation_xyz
x,y,z
-x,-y,-z
loop_
_atom_site_type_symbol
_atom_site_label
_atom_site_fract_x
_atom_site_fract_y
_atom_site_fract_z
Si Si1 0.841987 0.402651 0.266359
Si Si2 0.225210 0.875053 0.448438
Si Si3 0.545121 0.305489 0.271683
Si Si4 0.413709 0.360019 0.826841
Si Si5 0.489497 0.557179 0.313905
Si Si6 0.240002 0.096603 0.701244
Si Si7 0.122951 0.742912 0.178553
Si Si8 0.691523 0.057751 0.825823
O O1 0.758134 0.345714 0.315328
O O2 0.813929 0.545736 0.264328
O O3 0.184988 0.381464 0.454241
O O4 0.648551 0.338530 0.055502
O O5 0.314356 0.794771 0.587847
O O6 0.264265 0.810587 0.365007
O O7 0.874599 0.904162 0.255062
O O8 0.448147 0.993076 0.597979
O O9 0.480203 0.415916 0.312586
O O10 0.229769 0.254720 0.029747
O O11 0.585901 0.419047 0.844345
O O12 0.234794 0.235178 0.677198
O O13 0.238645 0.610570 0.233643
O O14 0.565931 0.057969 0.862326
O O15 0.000000 0.000000 0.500000
O O16 0.253682 0.807502 0.166017
O O17 0.000000 0.000000 0.000000
#
# Coordination Sequence:
#
# PCOD8000881 Si02
#       8
#     2   2   2   2   2   2   2   2
#     4  10  22  37  68  97 128 175 218 260 325 387
#     4  11  24  43  67  93 131 168 219 265 315 387
#     4  11  23  40  63  96 134 170 209 269 321 386
#     4  10  19  40  64  96 133 165 218 268 316 381
#     4  11  23  39  65  97 130 174 214 262 325 382
#     4  10  21  39  70  92 122 173 213 267 318 373
#     4  12  25  42  65  95 134 171 210 267 328 384
#     4  11  23  45  68  91 127 175 212 268 330 377
#
# _framework density 23.220099000000001
#
# number of rings (size 3 to 8) (size 9 to 14) (size 15 to 20)
#    0.000    1.250    2.500    4.500    0.000    4.500 
#    0.000    0.625    0.000    0.000    0.000    0.000 
#    0.000    0.000    0.000    0.000    0.000    0.000 
#
# Total GULP energy -198237.079080 kJ/mol
# GULP energy per Si atom -12389.817442 kJ/mol
# Density = 2.316725 g / cm^3
# Si number density = 23.220099 Si / 1000 Ang^3
#
#
#
# Elastic Constant Matrix: (Units=GPa)
#
#
# Indices 1 2 3 4 5 6 
#
# 1 58.7027 9.7921 26.1856 -13.2968 10.8173 -22.9507
# 2 9.7921 78.3230 22.4465 16.3414 2.1437 -7.4471
# 3 26.1856 22.4465 83.9537 -4.4827 9.5689 -1.6183
# 4 -13.2968 16.3414 -4.4827 38.5960 -3.8143 6.1622
# 5 10.8173 2.1437 9.5689 -3.8143 35.9615 -3.0242
# 6 -22.9507 -7.4471 -1.6183 6.1622 -3.0242 39.0137
#
#
#
# Elastic Compliance Matrix: (Units=1/GPa)
#
#
# Indices 1 2 3 4 5 6 
#
# 1 0.028821 -0.001332 -0.007455 0.006781 -0.004629 0.014961
# 2 -0.001332 0.016250 -0.004308 -0.008395 -0.000021 0.003464
# 3 -0.007455 -0.004308 0.015598 0.001674 -0.001892 -0.004972
# 4 0.006781 -0.008395 0.001674 0.032531 0.001248 -0.002585
# 5 -0.004629 -0.000021 -0.001892 0.001248 0.029778 -0.000694
# 6 0.014961 0.003464 -0.004972 -0.002585 -0.000694 0.035243
#
#
# Mechanical properties :
#
#
# Convention : Reuss Voigt Hill
#
# Bulk Modulus (GPa) = 29.00451 37.53644 33.27048
# Shear Modulus (GPa) = 25.52258 33.55124 29.53691
#
# Velocity S-wave (km/s) = 3.31895 3.80534 3.57044
# Velocity P-wave (km/s) = 5.21589 5.95886 5.59971
#
# Compressibility (1/GPa) = 0.03447740
#
# Stress axis : x y z
#
# Youngs Moduli (GPa) = 34.69682 61.53719 64.11209
#
# Poissons Ratio (x) = 0.08199 0.47796
# Poissons Ratio (y) = 0.04623 0.27622
# Poissons Ratio (z) = 0.25867 0.26512
#
# Static dielectric constant tensor:
#      x y z
#    x 4.170700 -0.110640 0.235900 
#    y -0.110640 4.391860 0.165700 
#    z 0.235900 0.165700 4.118680 
# 
# 
# High freq. dielectric constant tensor:
#      x y z
#    x 1.906960 -0.014200 0.022280 
#    y -0.014200 1.922150 0.017930 
#    z 0.022280 0.017930 1.910920 
# 
# From -- ./inp_files/272895.got.cif
#   From: 2010.06.25/outbox.cif.g09.slc.cpg/sg2_137_cif.got.tgz:272895.got - 2010.06.27 13:26:56.
