data_PCOD8000342
_publ_section_title
;
Structure prediction by ZEFSAII (Michael W. Deem and Ramdas Pophale) SiO2 
 PCOD8000342
Probable space group: P -1
;
_chemical_formula_sum "Si O2"
_cell_formula_units_Z 16
_cell_length_a 14.083333
_cell_length_b 11.593545
_cell_length_c 16.244535
_cell_angle_alpha 136.910994
_cell_angle_beta 150.709599
_cell_angle_gamma 50.076946
_cell_volume 886.355582
_symmetry_space_group_name_H-M "P -1"
_symmetry_group_IT_number 2
_symmetry_cell_setting 'triclinic'
loop_
_space_group_symop_operation_xyz
x,y,z
-x,-y,-z
loop_
_atom_site_type_symbol
_atom_site_label
_atom_site_fract_x
_atom_site_fract_y
_atom_site_fract_z
Si Si1 0.486088 0.823446 0.944831
Si Si2 0.828036 0.431986 0.442540
Si Si3 0.569802 0.227162 0.935009
Si Si4 0.335830 0.387539 0.442125
Si Si5 0.173972 0.056839 0.104203
Si Si6 0.256902 0.422475 0.710130
Si Si7 0.276100 0.443474 0.112832
Si Si8 0.094631 0.351956 0.093424
O O1 0.280807 0.745397 0.724754
O O2 0.653065 0.693387 0.971832
O O3 0.498255 0.842680 0.063434
O O4 0.500000 0.000000 0.000000
O O5 0.825458 0.529762 0.577066
O O6 0.722256 0.557861 0.362285
O O7 0.040135 0.379013 0.547576
O O8 0.382623 0.265816 0.757366
O O9 0.703128 0.096147 0.919200
O O10 0.689663 0.398087 0.117538
O O11 0.319760 0.183033 0.329273
O O12 0.549421 0.448465 0.659532
O O13 0.259718 0.444305 0.322886
O O14 0.074890 0.158399 0.006339
O O15 0.000000 0.000000 0.000000
O O16 0.165222 0.346863 0.050713
O O17 0.118380 0.564190 0.012538
#
# Coordination Sequence:
#
# PCOD8000342 Si02
#       8
#     2   2   2   2   2   2   2   2
#     4  10  21  35  57  81 114 145 178 231 276 328
#     4   9  18  36  55  81 104 143 185 227 272 324
#     4  10  20  35  56  81 110 147 180 225 278 327
#     4   9  20  34  59  80 110 143 184 232 273 325
#     4  10  21  35  53  82 114 147 177 228 283 324
#     4   9  19  34  58  78 109 142 187 223 269 335
#     4  10  19  39  59  85 104 147 196 224 275 329
#     4   9  21  35  60  81 110 146 186 231 276 328
#
# _framework density 18.051447
#
# number of rings (size 3 to 8) (size 9 to 14) (size 15 to 20)
#    0.750    1.750    0.000    1.875    1.750    3.000 
#    0.000    9.375    0.000    0.000    0.000    0.000 
#    0.000    0.000    0.000    0.000    0.000    0.000 
#
# Total GULP energy -198264.356747 kJ/mol
# GULP energy per Si atom -12391.522297 kJ/mol
# Density = 1.801036 g / cm^3
# Si number density = 18.051447 Si / 1000 Ang^3
#
#
#
# Elastic Constant Matrix: (Units=GPa)
#
#
# Indices 1 2 3 4 5 6 
#
# 1 107.1811 64.4067 31.4457 2.3917 5.3351 -5.6282
# 2 64.4067 137.8084 46.2158 -9.3006 7.1344 -1.9702
# 3 31.4457 46.2158 66.5349 -14.4418 5.4455 -2.3591
# 4 2.3917 -9.3006 -14.4418 24.0005 2.3444 -0.7449
# 5 5.3351 7.1344 5.4455 2.3444 28.4255 1.4537
# 6 -5.6282 -1.9702 -2.3591 -0.7449 1.4537 31.6649
#
#
#
# Elastic Compliance Matrix: (Units=1/GPa)
#
#
# Indices 1 2 3 4 5 6 
#
# 1 0.014106 -0.005631 -0.003972 -0.005917 -0.000073 0.001725
# 2 -0.005631 0.011745 -0.004942 0.002230 -0.001101 -0.000535
# 3 -0.003972 -0.004942 0.023508 0.013021 -0.003653 0.001212
# 4 -0.005917 0.002230 0.013021 0.051616 -0.006280 0.001560
# 5 -0.000073 -0.001101 -0.003653 -0.006280 0.036800 -0.002191
# 6 0.001725 -0.000535 0.001212 0.001560 -0.002191 0.032082
#
#
# Mechanical properties :
#
#
# Convention : Reuss Voigt Hill
#
# Bulk Modulus (GPa) = 49.33859 66.18454 57.76157
# Shear Modulus (GPa) = 24.30681 28.11527 26.21104
#
# Velocity S-wave (km/s) = 3.67349 3.95081 3.81467
# Velocity P-wave (km/s) = 6.73678 7.58656 7.17426
#
# Compressibility (1/GPa) = 0.02026811
#
# Stress axis : x y z
#
# Youngs Moduli (GPa) = 70.89399 85.13932 42.53856
#
# Poissons Ratio (x) = 0.47943 0.16898
# Poissons Ratio (y) = 0.39922 0.21022
# Poissons Ratio (z) = 0.28162 0.42076
#
# Static dielectric constant tensor:
#      x y z
#    x 3.433280 0.044660 -0.052990 
#    y 0.044660 3.230320 -0.116250 
#    z -0.052990 -0.116250 3.307550 
# 
# 
# High freq. dielectric constant tensor:
#      x y z
#    x 1.714470 -0.001950 0.001840 
#    y -0.001950 1.687760 -0.005090 
#    z 0.001840 -0.005090 1.688830 
# 
# From -- ./inp_files/573483.got.cif
#   From: 2010.06.25/outbox.cif.g09.slc.cpg/sg2_287_cif.got.tgz:573483.got - 2010.06.27 13:26:56.
