data_PCOD8000400
_publ_section_title
;
Structure prediction by ZEFSAII (Michael W. Deem and Ramdas Pophale) SiO2 
 PCOD8000400
Probable space group: P -1
;
_chemical_formula_sum "Si O2"
_cell_formula_units_Z 16
_cell_length_a 15.868295
_cell_length_b 11.414249
_cell_length_c 18.473152
_cell_angle_alpha 39.467295
_cell_angle_beta 158.068899
_cell_angle_gamma 142.415361
_cell_volume 752.165670
_symmetry_space_group_name_H-M "P -1"
_symmetry_group_IT_number 2
_symmetry_cell_setting 'triclinic'
loop_
_space_group_symop_operation_xyz
x,y,z
-x,-y,-z
loop_
_atom_site_type_symbol
_atom_site_label
_atom_site_fract_x
_atom_site_fract_y
_atom_site_fract_z
Si Si1 0.108840 0.092266 0.966787
Si Si2 0.254277 0.445208 0.287395
Si Si3 0.821218 0.736254 0.426807
Si Si4 0.951077 0.701211 0.949784
Si Si5 0.595442 0.393962 0.227866
Si Si6 0.007672 0.434462 0.648348
Si Si7 0.646515 0.413464 0.949963
Si Si8 0.954041 0.161973 0.296081
O O1 0.397453 0.184256 0.155995
O O2 0.992752 0.257093 0.774355
O O3 0.000000 0.000000 0.000000
O O4 0.042061 0.931376 0.926742
O O5 0.500000 0.500000 0.500000
O O6 0.257249 0.362407 0.247636
O O7 0.054280 0.270325 0.250792
O O8 0.173375 0.637186 0.129469
O O9 0.548787 0.615836 0.254293
O O10 0.993410 0.615405 0.598241
O O11 0.843797 0.782742 0.507419
O O12 0.879910 0.932340 0.332021
O O13 0.862094 0.598064 0.005367
O O14 0.734798 0.496539 0.218505
O O15 0.457104 0.536960 0.080787
O O16 0.788340 0.362892 0.452116
O O17 0.728824 0.223641 0.115089
#
# Coordination Sequence:
#
# PCOD8000400 Si02
#       8
#     2   2   2   2   2   2   2   2
#     4  12  24  41  64  96 129 171 217 261 321 386
#     4  10  22  41  62  87 126 166 200 264 316 371
#     4  10  21  37  60  89 119 157 206 258 312 378
#     4  10  23  39  60  93 124 160 217 251 312 392
#     4  10  22  43  64  93 129 169 213 269 324 377
#     4  10  24  41  64  94 131 169 216 265 324 382
#     4  10  19  39  61  86 123 159 202 261 314 369
#     4  10  21  36  61  89 116 156 210 254 313 372
#
# _framework density 21.271908
#
# number of rings (size 3 to 8) (size 9 to 14) (size 15 to 20)
#    0.000    1.750    1.250    2.250    1.750    5.500 
#    0.000    5.000    0.000    0.000    0.000    0.000 
#    0.000    0.000    0.000    0.000    0.000    0.000 
#
# Total GULP energy -198413.454203 kJ/mol
# GULP energy per Si atom -12400.840888 kJ/mol
# Density = 2.122349 g / cm^3
# Si number density = 21.271908 Si / 1000 Ang^3
#
#
#
# Elastic Constant Matrix: (Units=GPa)
#
#
# Indices 1 2 3 4 5 6 
#
# 1 82.6415 50.7165 26.3398 -11.9387 -1.1398 -1.8430
# 2 50.7165 132.6483 52.1894 -17.1385 8.7782 -13.0311
# 3 26.3398 52.1894 90.3808 -13.7120 6.5228 -4.8138
# 4 -11.9387 -17.1385 -13.7120 41.8598 0.7755 -5.6533
# 5 -1.1398 8.7782 6.5228 0.7755 27.8775 -1.4772
# 6 -1.8430 -13.0311 -4.8138 -5.6533 -1.4772 32.8262
#
#
#
# Elastic Compliance Matrix: (Units=1/GPa)
#
#
# Indices 1 2 3 4 5 6 
#
# 1 0.016346 -0.005767 -0.001447 0.001616 0.002715 -0.001183
# 2 -0.005767 0.012555 -0.004739 0.002575 -0.002925 0.004277
# 3 -0.001447 -0.004739 0.014798 0.002609 -0.002072 0.000563
# 4 0.001616 0.002575 0.002609 0.027114 -0.001787 0.006085
# 5 0.002715 -0.002925 -0.002072 -0.001787 0.037441 0.000064
# 6 -0.001183 0.004277 0.000563 0.006085 0.000064 0.033228
#
#
# Mechanical properties :
#
#
# Convention : Reuss Voigt Hill
#
# Bulk Modulus (GPa) = 50.52804 62.68467 56.60636
# Shear Modulus (GPa) = 29.07205 32.27435 30.67320
#
# Velocity S-wave (km/s) = 3.70088 3.89939 3.80143
# Velocity P-wave (km/s) = 6.48591 7.05733 6.77764
#
# Compressibility (1/GPa) = 0.01979099
#
# Stress axis : x y z
#
# Youngs Moduli (GPa) = 61.17850 79.65050 67.57640
#
# Poissons Ratio (x) = 0.45937 0.09779
# Poissons Ratio (y) = 0.35283 0.32027
# Poissons Ratio (z) = 0.08853 0.37749
#
# Static dielectric constant tensor:
#      x y z
#    x 3.771870 -0.098120 -0.020200 
#    y -0.098120 3.864410 0.052630 
#    z -0.020200 0.052630 3.876260 
# 
# 
# High freq. dielectric constant tensor:
#      x y z
#    x 1.831850 -0.006940 -0.009170 
#    y -0.006940 1.830900 0.005160 
#    z -0.009170 0.005160 1.840100 
# 
# From -- ./inp_files/532426.got.cif
#   From: 2010.06.25/outbox.cif.g09.slc.cpg/sg2_267_cif.got.tgz:532426.got - 2010.06.27 13:26:56.
