data_PCOD8000523
_publ_section_title
;
Structure prediction by ZEFSAII (Michael W. Deem and Ramdas Pophale) SiO2 
 PCOD8000523
Probable space group: P -1
;
_chemical_formula_sum "Si O2"
_cell_formula_units_Z 16
_cell_length_a 12.281046
_cell_length_b 11.008196
_cell_length_c 12.696773
_cell_angle_alpha 96.856421
_cell_angle_beta 61.812658
_cell_angle_gamma 42.602292
_cell_volume 637.222526
_symmetry_space_group_name_H-M "P -1"
_symmetry_group_IT_number 2
_symmetry_cell_setting 'triclinic'
loop_
_space_group_symop_operation_xyz
x,y,z
-x,-y,-z
loop_
_atom_site_type_symbol
_atom_site_label
_atom_site_fract_x
_atom_site_fract_y
_atom_site_fract_z
Si Si1 0.131174 0.583216 0.228891
Si Si2 0.334876 0.722176 0.344764
Si Si3 0.914938 0.542518 0.210037
Si Si4 0.205829 0.887271 0.650274
Si Si5 0.701555 0.568650 0.496956
Si Si6 0.802611 0.907787 0.629018
Si Si7 0.409213 0.049406 0.782893
Si Si8 0.632443 0.294524 0.005660
O O1 0.478575 0.300536 0.056830
O O2 0.100446 0.478184 0.180486
O O3 0.987665 0.712652 0.421301
O O4 0.975424 0.824876 0.252393
O O5 0.371437 0.695057 0.450126
O O6 0.538076 0.432388 0.177316
O O7 0.410344 0.784911 0.261353
O O8 0.000000 0.000000 0.500000
O O9 0.773592 0.571830 0.355443
O O10 0.656483 0.837038 0.291718
O O11 0.118855 0.286710 0.007945
O O12 0.460713 0.680288 0.597354
O O13 0.984508 0.979235 0.802790
O O14 0.987109 0.251044 0.384584
O O15 0.577936 0.771969 0.662407
O O16 0.607705 0.964990 0.749960
O O17 0.500000 0.500000 0.000000
#
# Coordination Sequence:
#
# PCOD8000523 Si02
#       8
#     2   2   2   2   2   2   2   2
#     4  10  19  39  63  93 119 156 209 253 302 364
#     4  11  20  39  67  90 119 154 217 259 297 365
#     4  11  23  39  66  97 118 161 217 255 303 361
#     4  10  22  37  64  88 122 165 199 262 299 360
#     4  12  24  44  57  90 138 164 200 252 318 365
#     4  11  24  39  63  92 126 172 196 252 320 372
#     4  11  24  39  66  92 123 165 211 255 300 373
#     4  10  20  36  67  94 116 154 211 260 306 353
#
# _framework density 25.108965999999999
#
# number of rings (size 3 to 8) (size 9 to 14) (size 15 to 20)
#    0.000    1.250    6.250    2.250    3.500    1.500 
#    0.000    1.250    0.000    0.000    0.000    0.000 
#    0.000    0.000    0.000    0.000    0.000    0.000 
#
# Total GULP energy -198440.964035 kJ/mol
# GULP energy per Si atom -12402.560252 kJ/mol
# Density = 2.505182 g / cm^3
# Si number density = 25.108966 Si / 1000 Ang^3
#
#
#
# Elastic Constant Matrix: (Units=GPa)
#
#
# Indices 1 2 3 4 5 6 
#
# 1 130.7252 19.4895 20.8946 5.2100 -20.9000 -31.5578
# 2 19.4895 52.0184 23.8770 8.6203 -0.5853 -15.7956
# 3 20.8946 23.8770 71.7135 1.3835 -10.8979 -11.1495
# 4 5.2100 8.6203 1.3835 14.5485 -11.2328 -6.5758
# 5 -20.9000 -0.5853 -10.8979 -11.2328 37.3738 5.1544
# 6 -31.5578 -15.7956 -11.1495 -6.5758 5.1544 32.1962
#
#
#
# Elastic Compliance Matrix: (Units=1/GPa)
#
#
# Indices 1 2 3 4 5 6 
#
# 1 0.011333 -0.002246 -0.000002 0.007459 0.007110 0.010390
# 2 -0.002246 0.029841 -0.009513 -0.021452 -0.010908 0.006509
# 3 -0.000002 -0.009513 0.018596 0.011598 0.008372 0.002799
# 4 0.007459 -0.021452 0.011598 0.116614 0.039748 0.018257
# 5 0.007110 -0.010908 0.008372 0.039748 0.044183 0.005562
# 6 0.010390 0.006509 0.002799 0.018257 0.005562 0.048245
#
#
# Mechanical properties :
#
#
# Convention : Reuss Voigt Hill
#
# Bulk Modulus (GPa) = 27.58802 42.55328 35.07065
# Shear Modulus (GPa) = 16.42496 29.50342 22.96419
#
# Velocity S-wave (km/s) = 2.56040 3.43157 3.02749
# Velocity P-wave (km/s) = 4.44433 5.71709 5.12041
#
# Compressibility (1/GPa) = 0.03624762
#
# Stress axis : x y z
#
# Youngs Moduli (GPa) = 88.24080 33.51134 53.77506
#
# Poissons Ratio (x) = 0.07527 0.00011
# Poissons Ratio (y) = 0.19819 0.51155
# Poissons Ratio (z) = 0.00018 0.31879
#
# Static dielectric constant tensor:
#      x y z
#    x 5.065090 -0.082740 -0.061470 
#    y -0.082740 4.126660 -0.081620 
#    z -0.061470 -0.081620 4.982360 
# 
# 
# High freq. dielectric constant tensor:
#      x y z
#    x 2.011840 -0.010480 -0.000960 
#    y -0.010480 1.969190 -0.009650 
#    z -0.000960 -0.009650 2.002290 
# 
# From -- ./inp_files/428372.got.cif
#   From: 2010.06.25/outbox.cif.g09.slc.cpg/sg2_215_cif.got.tgz:428372.got - 2010.06.27 13:26:56.
