data_PCOD8000912
_publ_section_title
;
Structure prediction by ZEFSAII (Michael W. Deem and Ramdas Pophale) SiO2 
 PCOD8000912
Probable space group: P -1
;
_chemical_formula_sum "Si O2"
_cell_formula_units_Z 16
_cell_length_a 8.649870
_cell_length_b 19.277464
_cell_length_c 22.601503
_cell_angle_alpha 25.550301
_cell_angle_beta 29.286974
_cell_angle_gamma 35.073325
_cell_volume 786.226364
_symmetry_space_group_name_H-M "P -1"
_symmetry_group_IT_number 2
_symmetry_cell_setting 'triclinic'
loop_
_space_group_symop_operation_xyz
x,y,z
-x,-y,-z
loop_
_atom_site_type_symbol
_atom_site_label
_atom_site_fract_x
_atom_site_fract_y
_atom_site_fract_z
Si Si1 0.214270 0.983808 0.759814
Si Si2 0.274372 0.160977 0.378965
Si Si3 0.423631 0.319592 0.402373
Si Si4 0.240721 0.204953 0.014712
Si Si5 0.976591 0.097506 0.873051
Si Si6 0.245553 0.550120 0.696968
Si Si7 0.126499 0.441898 0.566254
Si Si8 0.820619 0.162512 0.291161
O O1 0.246444 0.162460 0.587737
O O2 0.161009 0.984909 0.847069
O O3 0.546580 0.867679 0.722446
O O4 0.913981 0.925394 0.871837
O O5 0.544251 0.158232 0.339591
O O6 0.055984 0.334741 0.318163
O O7 0.082213 0.011644 0.574037
O O8 0.609603 0.350937 0.375650
O O9 0.686821 0.300736 0.277053
O O10 0.132738 0.466076 0.371741
O O11 0.127740 0.207521 0.119140
O O12 0.619745 0.157921 0.923180
O O13 0.138968 0.383862 0.883320
O O14 0.153783 0.249523 0.711053
O O15 0.000000 0.000000 0.000000
O O16 0.513706 0.513113 0.583718
O O17 0.000000 0.500000 0.500000
#
# Coordination Sequence:
#
# PCOD8000912 Si02
#       8
#     2   2   2   2   2   2   2   2
#     4  10  21  41  64  85 120 164 198 235 300 366
#     4   9  21  40  61  87 121 163 198 238 296 362
#     4  10  19  40  66  83 119 165 198 240 295 356
#     4  11  23  40  62  91 122 158 195 247 303 350
#     4  12  24  40  62  93 122 151 200 260 295 340
#     4  11  21  38  65  85 119 164 200 240 295 360
#     4  10  19  41  61  82 120 157 197 238 297 359
#     4   9  21  38  59  90 125 152 197 251 293 347
#
# _framework density 20.350372
#
# number of rings (size 3 to 8) (size 9 to 14) (size 15 to 20)
#    0.000    1.750    5.000    1.125    1.750    5.500 
#    4.500    0.625    0.000    0.000    0.000    0.000 
#    0.000    0.000    0.000    0.000    0.000    0.000 
#
# Total GULP energy -198336.458284 kJ/mol
# GULP energy per Si atom -12396.028643 kJ/mol
# Density = 2.030405 g / cm^3
# Si number density = 20.350372 Si / 1000 Ang^3
#
#
#
# Elastic Constant Matrix: (Units=GPa)
#
#
# Indices 1 2 3 4 5 6 
#
# 1 39.2419 18.9999 27.0201 -5.7542 7.1677 10.4199
# 2 18.9999 72.9940 11.1397 -4.4656 16.7628 -3.8223
# 3 27.0201 11.1397 98.7871 -3.5437 5.5007 -1.7814
# 4 -5.7542 -4.4656 -3.5437 32.7103 2.1118 4.0326
# 5 7.1677 16.7628 5.5007 2.1118 34.7965 0.1884
# 6 10.4199 -3.8223 -1.7814 4.0326 0.1884 29.3802
#
#
#
# Elastic Compliance Matrix: (Units=1/GPa)
#
#
# Indices 1 2 3 4 5 6 
#
# 1 0.044373 -0.009665 -0.010930 0.007811 -0.003129 -0.018709
# 2 -0.009665 0.017972 0.001128 0.000607 -0.006913 0.005795
# 3 -0.010930 0.001128 0.013059 -0.000943 -0.000326 0.004946
# 4 0.007811 0.000607 -0.000943 0.033062 -0.003720 -0.007262
# 5 -0.003129 -0.006913 -0.000326 -0.003720 0.032988 0.000490
# 6 -0.018709 0.005795 0.004946 -0.007262 0.000490 0.042720
#
#
# Mechanical properties :
#
#
# Convention : Reuss Voigt Hill
#
# Bulk Modulus (GPa) = 27.42009 36.14917 31.78463
# Shear Modulus (GPa) = 21.25279 29.63495 25.44387
#
# Velocity S-wave (km/s) = 3.23514 3.82021 3.53978
# Velocity P-wave (km/s) = 5.24004 6.10415 5.68853
#
# Compressibility (1/GPa) = 0.03646961
#
# Stress axis : x y z
#
# Youngs Moduli (GPa) = 22.53610 55.64334 76.57776
#
# Poissons Ratio (x) = 0.53781 0.83699
# Poissons Ratio (y) = 0.21782 -0.08640
# Poissons Ratio (z) = 0.24632 -0.06278
#
# Static dielectric constant tensor:
#      x y z
#    x 3.407040 0.309180 0.071450 
#    y 0.309180 4.374650 0.381960 
#    z 0.071450 0.381960 3.791300 
# 
# 
# High freq. dielectric constant tensor:
#      x y z
#    x 1.761560 0.010670 -0.002750 
#    y 0.010670 1.809730 0.010180 
#    z -0.002750 0.010180 1.797040 
# 
# From -- ./inp_files/190366.got.cif
#   From: 2010.06.25/outbox.cif.g09.slc.cpg/sg2_96_cif.got.tgz:190366.got - 2010.06.27 13:26:56.
