data_PCOD8000939
_publ_section_title
;
Structure prediction by ZEFSAII (Michael W. Deem and Ramdas Pophale) SiO2 
 PCOD8000939
Probable space group: P -1
;
_chemical_formula_sum "Si O2"
_cell_formula_units_Z 16
_cell_length_a 7.492296
_cell_length_b 10.910555
_cell_length_c 13.435092
_cell_angle_alpha 81.601607
_cell_angle_beta 52.579585
_cell_angle_gamma 109.789469
_cell_volume 724.094336
_symmetry_space_group_name_H-M "P -1"
_symmetry_group_IT_number 2
_symmetry_cell_setting 'triclinic'
loop_
_space_group_symop_operation_xyz
x,y,z
-x,-y,-z
loop_
_atom_site_type_symbol
_atom_site_label
_atom_site_fract_x
_atom_site_fract_y
_atom_site_fract_z
Si Si1 0.111850 0.285809 0.609388
Si Si2 0.529789 0.194488 0.796343
Si Si3 0.350614 0.976501 0.707607
Si Si4 0.745400 0.731604 0.958097
Si Si5 0.514844 0.593971 0.353265
Si Si6 0.611967 0.851348 0.519640
Si Si7 0.213245 0.563884 0.782389
Si Si8 0.646695 0.424925 0.053383
O O1 0.244683 0.450252 0.502795
O O2 0.286106 0.292528 0.643976
O O3 0.143040 0.173241 0.539833
O O4 0.804964 0.223002 0.745203
O O5 0.396899 0.046736 0.792754
O O6 0.590035 0.329155 0.690498
O O7 0.336177 0.177211 0.954340
O O8 0.358464 0.082520 0.607400
O O9 0.584106 0.947539 0.603344
O O10 0.064078 0.822150 0.825453
O O11 0.616610 0.709188 0.894422
O O12 0.630665 0.568510 0.060802
O O13 0.696114 0.550453 0.239077
O O14 0.342010 0.685654 0.637152
O O15 0.307020 0.636548 0.852600
O O16 0.894701 0.475022 0.888526
#
# Coordination Sequence:
#
# PCOD8000939 Si02
#       8
#     2   2   2   2   2   2   2   2
#     4  10  22  40  63  96 131 167 220 266 323 381
#     4  12  23  42  65  96 132 176 215 261 328 394
#     4  11  24  45  64  90 136 180 213 260 323 396
#     4  11  23  43  62  98 126 173 220 265 325 385
#     4  10  20  39  63  96 133 166 209 276 326 376
#     4  10  22  44  64  92 128 174 214 265 321 382
#     4  10  19  40  66  96 126 167 211 279 325 375
#     4  10  21  39  67  95 128 160 225 273 323 378
#
# _framework density 22.096568000000001
#
# number of rings (size 3 to 8) (size 9 to 14) (size 15 to 20)
#    0.000    1.500    3.750    1.500    0.000    0.500 
#   13.500    0.625    0.000    0.000    0.000    0.000 
#    0.000    0.000    0.000    0.000    0.000    0.000 
#
# Total GULP energy -198298.164575 kJ/mol
# GULP energy per Si atom -12393.635286 kJ/mol
# Density = 2.204628 g / cm^3
# Si number density = 22.096568 Si / 1000 Ang^3
#
#
#
# Elastic Constant Matrix: (Units=GPa)
#
#
# Indices 1 2 3 4 5 6 
#
# 1 68.6644 26.4858 21.3901 -1.7286 -9.1466 2.0916
# 2 26.4858 100.5538 23.5004 13.4298 -2.7249 4.6686
# 3 21.3901 23.5004 71.5334 11.1956 -8.6246 4.3857
# 4 -1.7286 13.4298 11.1956 30.5282 -8.7187 -2.8802
# 5 -9.1466 -2.7249 -8.6246 -8.7187 32.7433 2.8730
# 6 2.0916 4.6686 4.3857 -2.8802 2.8730 32.4922
#
#
#
# Elastic Compliance Matrix: (Units=1/GPa)
#
#
# Indices 1 2 3 4 5 6 
#
# 1 0.018539 -0.004546 -0.004389 0.006179 0.005278 0.000133
# 2 -0.004546 0.012384 -0.001976 -0.005741 -0.002153 -0.001539
# 3 -0.004389 -0.001976 0.017156 -0.005350 0.001914 -0.002393
# 4 0.006179 -0.005741 -0.005350 0.040928 0.010399 0.003858
# 5 0.005278 -0.002153 0.001914 0.010399 0.035327 -0.002491
# 6 0.000133 -0.001539 -0.002393 0.003858 -0.002491 0.031874
#
#
# Mechanical properties :
#
#
# Convention : Reuss Voigt Hill
#
# Bulk Modulus (GPa) = 38.08503 42.61160 40.34832
# Shear Modulus (GPa) = 26.76929 30.44444 28.60687
#
# Velocity S-wave (km/s) = 3.48439 3.71589 3.60200
# Velocity P-wave (km/s) = 5.78456 6.14301 5.96648
#
# Compressibility (1/GPa) = 0.02625703
#
# Stress axis : x y z
#
# Youngs Moduli (GPa) = 53.94084 80.75015 58.28933
#
# Poissons Ratio (x) = 0.36707 0.25583
# Poissons Ratio (y) = 0.24520 0.11518
# Poissons Ratio (z) = 0.23675 0.15956
#
# Static dielectric constant tensor:
#      x y z
#    x 3.789490 -0.179790 -0.076070 
#    y -0.179790 4.084770 0.353880 
#    z -0.076070 0.353880 3.889070 
# 
# 
# High freq. dielectric constant tensor:
#      x y z
#    x 1.856270 -0.019300 -0.006610 
#    y -0.019300 1.871000 0.021560 
#    z -0.006610 0.021560 1.862140 
# 
# From -- ./inp_files/497982.got.cif
#   From: 2010.06.25/outbox.cif.g09.slc.cpg/sg2_249_cif.got.tgz:497982.got - 2010.06.27 13:26:56.
