data_PCOD8000747
_publ_section_title
;
Structure prediction by ZEFSAII (Michael W. Deem and Ramdas Pophale) SiO2 
 PCOD8000747
Probable space group: P -1
;
_chemical_formula_sum "Si O2"
_cell_formula_units_Z 16
_cell_length_a 9.774623
_cell_length_b 24.310339
_cell_length_c 27.749740
_cell_angle_alpha 163.890371
_cell_angle_beta 153.934733
_cell_angle_gamma 23.875814
_cell_volume 729.002186
_symmetry_space_group_name_H-M "P -1"
_symmetry_group_IT_number 2
_symmetry_cell_setting 'triclinic'
loop_
_space_group_symop_operation_xyz
x,y,z
-x,-y,-z
loop_
_atom_site_type_symbol
_atom_site_label
_atom_site_fract_x
_atom_site_fract_y
_atom_site_fract_z
Si Si1 0.537513 0.303555 0.879738
Si Si2 0.247089 0.503736 0.188514
Si Si3 0.752043 0.296159 0.738758
Si Si4 0.321015 0.493596 0.388548
Si Si5 0.545033 0.891516 0.145526
Si Si6 0.392290 0.398750 0.523902
Si Si7 0.170316 0.714803 0.944779
Si Si8 0.642131 0.923732 0.532434
O O1 0.158243 0.359152 0.824374
O O2 0.728815 0.101831 0.735533
O O3 0.500000 0.500000 0.000000
O O4 0.812041 0.225819 0.944266
O O5 0.359571 0.623660 0.283254
O O6 0.401124 0.537479 0.315986
O O7 0.380564 0.246083 0.997447
O O8 0.494339 0.481124 0.847776
O O9 0.666548 0.089158 0.544762
O O10 0.140810 0.240339 0.829710
O O11 0.500000 0.500000 0.500000
O O12 0.568742 0.482238 0.412469
O O13 0.199068 0.295872 0.187460
O O14 0.982070 0.708167 0.453739
O O15 0.509724 0.137286 0.332735
O O16 0.213233 0.884928 0.062768
O O17 0.000000 0.500000 0.500000
O O18 0.500000 0.000000 0.500000
#
# Coordination Sequence:
#
# PCOD8000747 Si02
#       8
#     2   2   2   2   2   2   2   2
#     4  12  22  35  65 104 139 170 228 292 353 423
#     4  11  23  42  69 106 142 173 226 297 354 413
#     4  10  19  39  70 102 136 174 217 283 365 416
#     4  11  27  52  70  95 147 192 231 291 364 430
#     4  11  22  43  75 103 140 180 228 292 360 408
#     4  12  30  47  70  99 138 191 250 285 337 429
#     4  10  21  41  68 105 135 175 228 286 355 424
#     4  11  24  40  69 102 137 184 231 287 360 416
#
# _framework density 21.947807999999998
#
# number of rings (size 3 to 8) (size 9 to 14) (size 15 to 20)
#    0.000    1.000    2.500    5.250    8.750    1.500 
#    0.000    1.250    0.000    0.000    0.000    0.000 
#    0.000    0.000    0.000    0.000    0.000    0.000 
#
# Total GULP energy -198262.055192 kJ/mol
# GULP energy per Si atom -12391.378449 kJ/mol
# Density = 2.189785 g / cm^3
# Si number density = 21.947808 Si / 1000 Ang^3
#
#
#
# Elastic Constant Matrix: (Units=GPa)
#
#
# Indices 1 2 3 4 5 6 
#
# 1 114.0793 24.3400 36.2131 -16.6215 1.1951 10.5185
# 2 24.3400 62.8917 18.9274 -24.8948 -3.9393 8.5405
# 3 36.2131 18.9274 97.5567 -17.2556 -7.7661 8.3466
# 4 -16.6215 -24.8948 -17.2556 41.3035 3.3316 -4.9752
# 5 1.1951 -3.9393 -7.7661 3.3316 44.0596 -10.1322
# 6 10.5185 8.5405 8.3466 -4.9752 -10.1322 34.9068
#
#
#
# Elastic Compliance Matrix: (Units=1/GPa)
#
#
# Indices 1 2 3 4 5 6 
#
# 1 0.010725 -0.002454 -0.003212 0.001371 -0.001675 -0.002154
# 2 -0.002454 0.022132 -0.001083 0.011549 0.000369 -0.002664
# 3 -0.003212 -0.001083 0.012390 0.002994 0.001766 -0.000791
# 4 0.001371 0.011549 0.002994 0.033106 -0.000862 0.000514
# 5 -0.001675 0.000369 0.001766 -0.000862 0.024775 0.007061
# 6 -0.002154 -0.002664 -0.000791 0.000514 0.007061 0.032260
#
#
# Mechanical properties :
#
#
# Convention : Reuss Voigt Hill
#
# Bulk Modulus (GPa) = 31.49550 48.16541 39.83046
# Shear Modulus (GPa) = 31.35394 37.05712 34.20553
#
# Velocity S-wave (km/s) = 3.78374 4.11350 3.95206
# Velocity P-wave (km/s) = 5.78535 6.67489 6.24598
#
# Compressibility (1/GPa) = 0.03175057
#
# Stress axis : x y z
#
# Youngs Moduli (GPa) = 93.24198 45.18259 80.70741
#
# Poissons Ratio (x) = 0.11087 0.25920
# Poissons Ratio (y) = 0.22881 0.08741
# Poissons Ratio (z) = 0.29945 0.04894
#
# Static dielectric constant tensor:
#      x y z
#    x 4.255500 -0.074530 0.186830 
#    y -0.074530 3.629840 -0.075430 
#    z 0.186830 -0.075430 4.505370 
# 
# 
# High freq. dielectric constant tensor:
#      x y z
#    x 1.879450 0.003990 0.005380 
#    y 0.003990 1.836350 -0.005800 
#    z 0.005380 -0.005800 1.877820 
# 
# From -- ./inp_files/608675.got.cif
#   From: 2010.06.25/outbox.cif.g09.slc.cpg/sg2_305_cif.got.tgz:608675.got - 2010.06.27 13:26:56.
