data_PCOD8000434
_publ_section_title
;
Structure prediction by ZEFSAII (Michael W. Deem and Ramdas Pophale) SiO2 
 PCOD8000434
Probable space group: P -1
;
_chemical_formula_sum "Si O2"
_cell_formula_units_Z 16
_cell_length_a 9.088518
_cell_length_b 17.653541
_cell_length_c 9.212220
_cell_angle_alpha 94.171544
_cell_angle_beta 59.238990
_cell_angle_gamma 135.424327
_cell_volume 780.317149
_symmetry_space_group_name_H-M "P -1"
_symmetry_group_IT_number 2
_symmetry_cell_setting 'triclinic'
loop_
_space_group_symop_operation_xyz
x,y,z
-x,-y,-z
loop_
_atom_site_type_symbol
_atom_site_label
_atom_site_fract_x
_atom_site_fract_y
_atom_site_fract_z
Si Si1 0.308596 0.480898 0.896625
Si Si2 0.787177 0.841609 0.369644
Si Si3 0.132395 0.729178 0.554254
Si Si4 0.394177 0.554432 0.178877
Si Si5 0.259466 0.120599 0.213139
Si Si6 0.785850 0.735734 0.587577
Si Si7 0.556623 0.778228 0.183392
Si Si8 0.306743 0.746445 0.760398
O O1 0.367617 0.410367 0.849638
O O2 0.487670 0.588148 0.699833
O O3 0.455054 0.564805 0.979600
O O4 0.980982 0.385579 0.041613
O O5 0.884401 0.795083 0.383574
O O6 0.796482 0.843309 0.190688
O O7 0.473334 0.741942 0.579756
O O8 0.973845 0.975178 0.357199
O O9 0.378688 0.784803 0.338199
O O10 0.227217 0.781374 0.681277
O O11 0.905655 0.583438 0.650422
O O12 0.022588 0.767113 0.542977
O O13 0.389545 0.641659 0.229029
O O14 0.236824 0.197187 0.294187
O O15 0.502700 0.160855 0.186654
O O16 0.321129 0.146621 0.015438
#
# Coordination Sequence:
#
# PCOD8000434 Si02
#       8
#     2   2   2   2   2   2   2   2
#     4   9  17  33  60  93 112 139 188 241 278 343
#     4  10  23  40  57  80 119 154 195 237 281 332
#     4   9  20  37  59  89 122 142 183 236 293 346
#     4   9  17  34  59  86 119 148 180 229 293 345
#     4  11  22  39  61  81 112 156 202 234 275 331
#     4  10  19  39  62  85 116 152 187 235 284 338
#     4  11  21  39  58  84 114 158 187 234 289 336
#     4   9  19  36  59  85 116 142 191 234 279 336
#
# _framework density 20.504484000000001
#
# number of rings (size 3 to 8) (size 9 to 14) (size 15 to 20)
#    0.000    2.250    1.250    3.000    0.000    2.000 
#    6.750    7.500    2.750    0.000    0.000    0.000 
#    0.000    0.000    0.000    0.000    0.000    0.000 
#
# Total GULP energy -198216.564393 kJ/mol
# GULP energy per Si atom -12388.535275 kJ/mol
# Density = 2.045781 g / cm^3
# Si number density = 20.504484 Si / 1000 Ang^3
#
#
#
# Elastic Constant Matrix: (Units=GPa)
#
#
# Indices 1 2 3 4 5 6 
#
# 1 141.6416 44.0195 53.1490 -8.7336 16.5300 15.7956
# 2 44.0195 56.0469 25.6740 -11.6878 -1.8835 13.7734
# 3 53.1490 25.6740 73.2407 0.2294 11.7896 5.4745
# 4 -8.7336 -11.6878 0.2294 23.5713 5.4811 8.8819
# 5 16.5300 -1.8835 11.7896 5.4811 25.6490 7.0617
# 6 15.7956 13.7734 5.4745 8.8819 7.0617 26.6149
#
#
#
# Elastic Compliance Matrix: (Units=1/GPa)
#
#
# Indices 1 2 3 4 5 6 
#
# 1 0.012222 -0.005382 -0.005845 0.004456 -0.005641 -0.003256
# 2 -0.005382 0.038351 -0.009728 0.023952 0.012808 -0.026043
# 3 -0.005845 -0.009728 0.021885 -0.008813 -0.007590 0.008956
# 4 0.004456 0.023952 -0.008813 0.070119 -0.002117 -0.036065
# 5 -0.005641 0.012808 -0.007590 -0.002117 0.051549 -0.014690
# 6 -0.003256 -0.026043 0.008956 -0.036065 -0.014690 0.067074
#
#
# Mechanical properties :
#
#
# Convention : Reuss Voigt Hill
#
# Bulk Modulus (GPa) = 32.73590 57.40160 45.06875
# Shear Modulus (GPa) = 15.95943 25.03948 20.49946
#
# Velocity S-wave (km/s) = 2.79290 3.49832 3.16532
# Velocity P-wave (km/s) = 5.13812 6.66131 5.94867
#
# Compressibility (1/GPa) = 0.03054750
#
# Stress axis : x y z
#
# Youngs Moduli (GPa) = 81.81807 26.07516 45.69261
#
# Poissons Ratio (x) = 0.14033 0.26709
# Poissons Ratio (y) = 0.44034 0.44450
# Poissons Ratio (z) = 0.47825 0.25366
#
# Static dielectric constant tensor:
#      x y z
#    x 4.156530 0.262280 0.279220 
#    y 0.262280 3.454430 -0.040490 
#    z 0.279220 -0.040490 3.671290 
# 
# 
# High freq. dielectric constant tensor:
#      x y z
#    x 1.808610 0.010740 0.016020 
#    y 0.010740 1.770980 -0.011380 
#    z 0.016020 -0.011380 1.794720 
# 
# From -- ./inp_files/202067.got.cif
#   From: 2010.06.25/outbox.cif.g09.slc.cpg/sg2_102_cif.got.tgz:202067.got - 2010.06.27 13:26:56.
