data_PCOD8000425
_publ_section_title
;
Structure prediction by ZEFSAII (Michael W. Deem and Ramdas Pophale) SiO2 
 PCOD8000425
Probable space group: P -1
;
_chemical_formula_sum "Si O2"
_cell_formula_units_Z 16
_cell_length_a 23.528896
_cell_length_b 17.640990
_cell_length_c 15.233004
_cell_angle_alpha 150.486346
_cell_angle_beta 19.875738
_cell_angle_gamma 160.312317
_cell_volume 717.775927
_symmetry_space_group_name_H-M "P -1"
_symmetry_group_IT_number 2
_symmetry_cell_setting 'triclinic'
loop_
_space_group_symop_operation_xyz
x,y,z
-x,-y,-z
loop_
_atom_site_type_symbol
_atom_site_label
_atom_site_fract_x
_atom_site_fract_y
_atom_site_fract_z
Si Si1 0.283980 0.759548 0.022105
Si Si2 0.283887 0.688273 0.260255
Si Si3 0.859904 0.870977 0.217264
Si Si4 0.595309 0.752608 0.215749
Si Si5 0.394893 0.597779 0.835757
Si Si6 0.522365 0.848485 0.587410
Si Si7 0.459624 0.321929 0.978198
Si Si8 0.079943 0.932743 0.501885
O O1 0.067604 0.740342 0.304573
O O2 0.234007 0.582787 0.981691
O O3 0.331975 0.718409 0.814376
O O4 0.500000 0.000000 0.000000
O O5 0.000000 0.500000 0.500000
O O6 0.369307 0.909379 0.324305
O O7 0.319308 0.586515 0.032197
O O8 0.440048 0.747845 0.178757
O O9 0.686846 0.635521 0.286770
O O10 0.724586 0.850385 0.309143
O O11 0.897340 0.040484 0.399166
O O12 0.128302 0.986681 0.917868
O O13 0.426818 0.734508 0.513325
O O14 0.605870 0.577653 0.044999
O O15 0.490126 0.699050 0.216013
O O16 0.688525 0.823879 0.633171
O O17 0.171477 0.155194 0.251666
#
# Coordination Sequence:
#
# PCOD8000425 Si02
#       8
#     2   2   2   2   2   2   2   2
#     4  10  19  39  61  95 128 169 207 265 316 373
#     4  12  24  40  66  97 124 169 219 271 321 385
#     4  11  20  36  67  99 129 165 217 268 312 378
#     4  10  23  42  63  93 126 173 214 267 320 379
#     4  11  21  38  65 101 128 164 219 261 322 372
#     4  12  21  38  64  92 131 162 219 265 313 374
#     4  10  24  45  64  89 130 175 216 260 331 382
#     4  10  20  40  64  90 130 176 206 259 322 382
#
# _framework density 22.291079
#
# number of rings (size 3 to 8) (size 9 to 14) (size 15 to 20)
#    0.000    1.250    5.000    3.000    0.000    3.000 
#    0.000    3.125    0.000    0.000    0.000    0.000 
#    0.000    0.000    0.000    0.000    0.000    0.000 
#
# Total GULP energy -198288.860789 kJ/mol
# GULP energy per Si atom -12393.053799 kJ/mol
# Density = 2.224034 g / cm^3
# Si number density = 22.291079 Si / 1000 Ang^3
#
#
#
# Elastic Constant Matrix: (Units=GPa)
#
#
# Indices 1 2 3 4 5 6 
#
# 1 118.7787 27.8351 60.5716 4.1546 3.2918 -10.5558
# 2 27.8351 74.3747 14.7385 -4.1889 -13.6963 -14.0664
# 3 60.5716 14.7385 98.2323 4.5301 10.8470 13.4973
# 4 4.1546 -4.1889 4.5301 30.4229 1.6506 0.6678
# 5 3.2918 -13.6963 10.8470 1.6506 46.1803 12.2563
# 6 -10.5558 -14.0664 13.4973 0.6678 12.2563 32.7640
#
#
#
# Elastic Compliance Matrix: (Units=1/GPa)
#
#
# Indices 1 2 3 4 5 6 
#
# 1 0.014707 -0.002386 -0.009624 -0.000996 -0.001669 0.008323
# 2 -0.002386 0.016834 -0.002435 0.002656 0.004079 0.005882
# 3 -0.009624 -0.002435 0.018219 -0.001419 -0.001310 -0.011132
# 4 -0.000996 0.002656 -0.001419 0.033577 -0.000221 0.000802
# 5 -0.001669 0.004079 -0.001310 -0.000221 0.025349 -0.007725
# 6 0.008323 0.005882 -0.011132 0.000802 -0.007725 0.043187
#
#
# Mechanical properties :
#
#
# Convention : Reuss Voigt Hill
#
# Bulk Modulus (GPa) = 47.91708 55.29736 51.60722
# Shear Modulus (GPa) = 26.63539 34.42282 30.52910
#
# Velocity S-wave (km/s) = 3.46047 3.93395 3.70478
# Velocity P-wave (km/s) = 6.12448 6.74503 6.44223
#
# Compressibility (1/GPa) = 0.02086938
#
# Stress axis : x y z
#
# Youngs Moduli (GPa) = 67.99702 59.40249 54.88736
#
# Poissons Ratio (x) = 0.14175 0.52821
# Poissons Ratio (y) = 0.16226 0.13367
# Poissons Ratio (z) = 0.65437 0.14467
#
# Static dielectric constant tensor:
#      x y z
#    x 4.329540 -0.102820 0.515710 
#    y -0.102820 3.877320 0.047630 
#    z 0.515710 0.047630 4.570300 
# 
# 
# High freq. dielectric constant tensor:
#      x y z
#    x 1.876320 -0.008300 0.021570 
#    y -0.008300 1.862360 0.011240 
#    z 0.021570 0.011240 1.879450 
# 
# From -- ./inp_files/464850.got.cif
#   From: 2010.06.25/outbox.cif.g09.slc.cpg/sg2_233_cif.got.tgz:464850.got - 2010.06.27 13:26:56.
