data_PCOD8000729
_publ_section_title
;
Structure prediction by ZEFSAII (Michael W. Deem and Ramdas Pophale) SiO2 
 PCOD8000729
Probable space group: P -1
;
_chemical_formula_sum "Si O2"
_cell_formula_units_Z 16
_cell_length_a 8.763869
_cell_length_b 14.255287
_cell_length_c 11.019250
_cell_angle_alpha 140.666443
_cell_angle_beta 113.605719
_cell_angle_gamma 62.228192
_cell_volume 770.087058
_symmetry_space_group_name_H-M "P -1"
_symmetry_group_IT_number 2
_symmetry_cell_setting 'triclinic'
loop_
_space_group_symop_operation_xyz
x,y,z
-x,-y,-z
loop_
_atom_site_type_symbol
_atom_site_label
_atom_site_fract_x
_atom_site_fract_y
_atom_site_fract_z
Si Si1 0.621853 0.107922 0.966598
Si Si2 0.094505 0.571069 0.207491
Si Si3 0.158999 0.855055 0.376402
Si Si4 0.611673 0.605247 0.698773
Si Si5 0.091571 0.897361 0.129428
Si Si6 0.886542 0.769483 0.544736
Si Si7 0.500210 0.939750 0.572800
Si Si8 0.183038 0.214457 0.199816
O O1 0.783787 0.147238 0.991404
O O2 0.488024 0.088332 0.801244
O O3 0.675268 0.946206 0.892005
O O4 0.534643 0.242869 0.162474
O O5 0.143524 0.710953 0.301523
O O6 0.271050 0.462312 0.213055
O O7 0.965283 0.630571 0.339122
O O8 0.000000 0.500000 0.000000
O O9 0.174673 0.819260 0.202214
O O10 0.339345 0.880155 0.500767
O O11 0.000000 0.000000 0.500000
O O12 0.500000 0.500000 0.500000
O O13 0.732813 0.651997 0.683125
O O14 0.041945 0.083028 0.316959
O O15 0.931760 0.827352 0.985839
O O16 0.678673 0.807952 0.513039
O O17 0.931663 0.723144 0.653518
O O18 0.500000 0.000000 0.500000
#
# Coordination Sequence:
#
# PCOD8000729 Si02
#       8
#     2   2   2   2   2   2   2   2
#     4  10  23  42  72  96 130 168 229 277 323 400
#     4  12  29  46  64 100 143 180 219 275 341 402
#     4  12  23  40  72  99 135 175 226 274 332 396
#     4  12  30  45  63 101 144 179 217 276 343 403
#     4  10  20  40  73 104 121 170 231 283 322 385
#     4  10  22  43  70  97 131 170 224 284 323 400
#     4  10  19  39  69 100 125 166 229 279 323 377
#     4  10  23  45  73  94 125 177 233 271 333 390
#
# _framework density 20.776871
#
# number of rings (size 3 to 8) (size 9 to 14) (size 15 to 20)
#    0.000    1.500    3.750    2.625   12.250    0.500 
#    2.250    1.250    0.000    0.000    0.000    0.000 
#    0.000    0.000    0.000    0.000    0.000    0.000 
#
# Total GULP energy -198293.490072 kJ/mol
# GULP energy per Si atom -12393.343130 kJ/mol
# Density = 2.072958 g / cm^3
# Si number density = 20.776871 Si / 1000 Ang^3
#
#
#
# Elastic Constant Matrix: (Units=GPa)
#
#
# Indices 1 2 3 4 5 6 
#
# 1 97.6887 29.5900 58.4473 9.8849 21.7785 7.0752
# 2 29.5900 93.0488 33.4778 -3.2179 11.7617 16.9505
# 3 58.4473 33.4778 140.9622 -9.7737 12.6529 -1.9158
# 4 9.8849 -3.2179 -9.7737 30.3830 -4.9444 4.8386
# 5 21.7785 11.7617 12.6529 -4.9444 44.4233 -1.6934
# 6 7.0752 16.9505 -1.9158 4.8386 -1.6934 34.1107
#
#
#
# Elastic Compliance Matrix: (Units=1/GPa)
#
#
# Indices 1 2 3 4 5 6 
#
# 1 0.017631 -0.002193 -0.006794 -0.009004 -0.007207 -0.002030
# 2 -0.002193 0.013805 -0.002128 0.002274 -0.001986 -0.006946
# 3 -0.006794 -0.002128 0.010678 0.005289 0.001533 0.002392
# 4 -0.009004 0.002274 0.005289 0.039526 0.006543 -0.004247
# 5 -0.007207 -0.001986 0.001533 0.006543 0.026975 0.002979
# 6 -0.002030 -0.006946 0.002392 -0.004247 0.002979 0.034074
#
#
# Mechanical properties :
#
#
# Convention : Reuss Voigt Hill
#
# Bulk Modulus (GPa) = 50.29243 63.85889 57.07566
# Shear Modulus (GPa) = 29.14671 35.79570 32.47121
#
# Velocity S-wave (km/s) = 3.74952 4.15524 3.95758
# Velocity P-wave (km/s) = 6.55772 7.33646 6.95799
#
# Compressibility (1/GPa) = 0.01988371
#
# Stress axis : x y z
#
# Youngs Moduli (GPa) = 56.71949 72.43808 93.64836
#
# Poissons Ratio (x) = 0.15884 0.63628
# Poissons Ratio (y) = 0.12437 0.19928
# Poissons Ratio (z) = 0.38537 0.15414
#
# Static dielectric constant tensor:
#      x y z
#    x 3.563130 0.591020 -0.506060 
#    y 0.591020 2.984650 0.735080 
#    z -0.506060 0.735080 3.113410 
# 
# 
# High freq. dielectric constant tensor:
#      x y z
#    x 1.817420 0.010710 0.004790 
#    y 0.010710 1.810400 -0.021280 
#    z 0.004790 -0.021280 1.816390 
# 
# From -- ./inp_files/399844.got.cif
#   From: 2010.06.25/outbox.cif.g09.slc.cpg/sg2_200_cif.got.tgz:399844.got - 2010.06.27 13:26:56.
