data_PCOD8000711
_publ_section_title
;
Structure prediction by ZEFSAII (Michael W. Deem and Ramdas Pophale) SiO2 
 PCOD8000711
Probable space group: P -1
;
_chemical_formula_sum "Si O2"
_cell_formula_units_Z 16
_cell_length_a 9.331320
_cell_length_b 9.227484
_cell_length_c 15.435831
_cell_angle_alpha 77.916645
_cell_angle_beta 145.194400
_cell_angle_gamma 91.222359
_cell_volume 714.335701
_symmetry_space_group_name_H-M "P -1"
_symmetry_group_IT_number 2
_symmetry_cell_setting 'triclinic'
loop_
_space_group_symop_operation_xyz
x,y,z
-x,-y,-z
loop_
_atom_site_type_symbol
_atom_site_label
_atom_site_fract_x
_atom_site_fract_y
_atom_site_fract_z
Si Si1 0.943319 0.630143 0.098356
Si Si2 0.647303 0.978993 0.484750
Si Si3 0.118761 0.755199 0.476970
Si Si4 0.253682 0.357881 0.818063
Si Si5 0.770014 0.331240 0.004065
Si Si6 0.506085 0.447277 0.681482
Si Si7 0.952876 0.688029 0.586889
Si Si8 0.848359 0.896389 0.885532
O O1 0.832024 0.698602 0.126476
O O2 0.255699 0.597209 0.262174
O O3 0.890912 0.467738 0.073320
O O4 0.816852 0.755412 0.947058
O O5 0.837599 0.088287 0.556651
O O6 0.436626 0.004279 0.298348
O O7 0.500000 0.000000 0.500000
O O8 0.847711 0.809847 0.596350
O O9 0.390843 0.630054 0.608151
O O10 0.876525 0.715966 0.313818
O O11 0.059615 0.765296 0.549017
O O12 0.568729 0.298534 0.979109
O O13 0.178709 0.544513 0.752879
O O14 0.596717 0.379251 0.827551
O O15 0.994074 0.174964 0.114381
O O16 0.284497 0.375157 0.549792
O O17 0.000000 0.000000 0.000000
#
# Coordination Sequence:
#
# PCOD8000711 Si02
#       8
#     2   2   2   2   2   2   2   2
#     4  11  24  39  68 100 131 176 226 282 332 389
#     4  12  28  44  70 100 137 176 229 275 325 405
#     4  11  22  42  67  97 137 176 220 272 345 395
#     4  11  24  40  70 103 130 171 229 284 334 392
#     4  11  20  43  65  97 133 169 225 276 331 401
#     4  10  19  39  68  94 126 171 227 267 332 391
#     4  11  23  43  68  96 136 175 215 278 340 399
#     4  11  26  46  70  95 138 183 218 268 347 404
#
# _framework density 22.398433000000001
#
# number of rings (size 3 to 8) (size 9 to 14) (size 15 to 20)
#    0.000    1.000    2.500    6.000    7.000    1.000 
#    0.000    0.625    0.000    0.000    0.000    0.000 
#    0.000    0.000    0.000    0.000    0.000    0.000 
#
# Total GULP energy -198443.653643 kJ/mol
# GULP energy per Si atom -12402.728353 kJ/mol
# Density = 2.234745 g / cm^3
# Si number density = 22.398433 Si / 1000 Ang^3
#
#
#
# Elastic Constant Matrix: (Units=GPa)
#
#
# Indices 1 2 3 4 5 6 
#
# 1 180.7810 29.1626 2.6431 -6.4128 9.2284 -13.4431
# 2 29.1626 87.5288 1.1867 1.9566 7.5014 -13.4921
# 3 2.6431 1.1867 36.9554 -2.7483 8.3106 7.2462
# 4 -6.4128 1.9566 -2.7483 21.6139 -4.9815 8.2120
# 5 9.2284 7.5014 8.3106 -4.9815 30.5620 3.0227
# 6 -13.4431 -13.4921 7.2462 8.2120 3.0227 36.8584
#
#
#
# Elastic Compliance Matrix: (Units=1/GPa)
#
#
# Indices 1 2 3 4 5 6 
#
# 1 0.006023 -0.001679 -0.000305 0.001020 -0.001308 0.001522
# 2 -0.001679 0.013350 -0.000955 -0.004965 -0.003902 0.005888
# 3 -0.000305 -0.000955 0.030301 0.005040 -0.006398 -0.007016
# 4 0.001020 -0.004965 0.005040 0.056001 0.010226 -0.015752
# 5 -0.001308 -0.003902 -0.006398 0.010226 0.038078 -0.006049
# 6 0.001522 0.005888 -0.007016 -0.015752 -0.006049 0.035226
#
#
# Mechanical properties :
#
#
# Convention : Reuss Voigt Hill
#
# Bulk Modulus (GPa) = 22.83287 41.24998 32.04142
# Shear Modulus (GPa) = 25.06813 35.95839 30.51326
#
# Velocity S-wave (km/s) = 3.34906 4.01109 3.69493
# Velocity P-wave (km/s) = 5.01707 6.31729 5.70435
#
# Compressibility (1/GPa) = 0.04379651
#
# Stress axis : x y z
#
# Youngs Moduli (GPa) = 166.03131 74.90587 33.00174
#
# Poissons Ratio (x) = 0.12574 0.01008
# Poissons Ratio (y) = 0.27871 0.03152
# Poissons Ratio (z) = 0.05070 0.07153
#
# Static dielectric constant tensor:
#      x y z
#    x 5.272540 0.041630 -0.846830 
#    y 0.041630 4.218970 -0.456050 
#    z -0.846830 -0.456050 5.543430 
# 
# 
# High freq. dielectric constant tensor:
#      x y z
#    x 1.894350 -0.003620 0.011200 
#    y -0.003620 1.878270 0.007780 
#    z 0.011200 0.007780 1.877430 
# 
# From -- ./inp_files/185146.got.cif
#   From: 2010.06.25/outbox.cif.g09.slc.cpg/sg2_93_cif.got.tgz:185146.got - 2010.06.27 13:26:56.
