data_PCOD8000885
_publ_section_title
;
Structure prediction by ZEFSAII (Michael W. Deem and Ramdas Pophale) SiO2 
 PCOD8000885
Probable space group: P -1
;
_chemical_formula_sum "Si O2"
_cell_formula_units_Z 12
_cell_length_a 15.850741
_cell_length_b 7.851786
_cell_length_c 6.969107
_cell_angle_alpha 100.958963
_cell_angle_beta 132.450759
_cell_angle_gamma 64.647391
_cell_volume 571.947928
_symmetry_space_group_name_H-M "P -1"
_symmetry_group_IT_number 2
_symmetry_cell_setting 'triclinic'
loop_
_space_group_symop_operation_xyz
x,y,z
-x,-y,-z
loop_
_atom_site_type_symbol
_atom_site_label
_atom_site_fract_x
_atom_site_fract_y
_atom_site_fract_z
Si Si1 0.050340 0.519607 0.285190
Si Si2 0.677832 0.512985 0.361309
Si Si3 0.410273 0.182961 0.021214
Si Si4 0.490302 0.317501 0.532074
Si Si5 0.853279 0.773533 0.316504
Si Si6 0.348876 0.845933 0.894254
O O1 0.176520 0.552090 0.467746
O O2 0.072398 0.329190 0.398649
O O3 0.946330 0.705183 0.265236
O O4 0.000000 0.500000 0.000000
O O5 0.640797 0.605739 0.534615
O O6 0.640725 0.334055 0.251365
O O7 0.585195 0.674442 0.108598
O O8 0.494621 0.175770 0.335146
O O9 0.266425 0.279952 0.901379
O O10 0.426405 0.962478 0.934080
O O11 0.500000 0.500000 0.500000
O O12 0.606343 0.205796 0.828938
O O13 0.798024 0.004130 0.295014
#
# Coordination Sequence:
#
# PCOD8000885 Si02
#       6
#     2   2   2   2   2   2
#     4  10  19  40  65  87 120 158 202 252 309 355
#     4  11  23  41  63  89 127 161 200 259 303 354
#     4   9  21  42  60  91 120 163 198 249 305 355
#     4  12  23  40  63  91 128 165 202 247 303 364
#     4   8  20  39  61  89 121 152 202 249 304 354
#     4  10  22  42  61  94 124 161 204 247 304 365
#
# _framework density 20.980930000000001
#
# number of rings (size 3 to 8) (size 9 to 14) (size 15 to 20)
#    1.000    1.000    1.667    2.000    0.000    1.333 
#    6.000    0.833    0.000    0.000    0.000    0.000 
#    0.000    0.000    0.000    0.000    0.000    0.000 
#
# Total GULP energy -148745.359611 kJ/mol
# GULP energy per Si atom -12395.446634 kJ/mol
# Density = 2.093318 g / cm^3
# Si number density = 20.980930 Si / 1000 Ang^3
#
#
#
# Elastic Constant Matrix: (Units=GPa)
#
#
# Indices 1 2 3 4 5 6 
#
# 1 111.0205 55.2103 30.0179 3.4955 -9.2104 -1.9436
# 2 55.2103 151.6216 48.6581 1.3207 -3.1242 -5.5804
# 3 30.0179 48.6581 118.6281 10.5230 -14.6871 3.1101
# 4 3.4955 1.3207 10.5230 37.2124 -2.3745 1.9289
# 5 -9.2104 -3.1242 -14.6871 -2.3745 30.5935 -2.2396
# 6 -1.9436 -5.5804 3.1101 1.9289 -2.2396 29.9246
#
#
#
# Elastic Compliance Matrix: (Units=1/GPa)
#
#
# Indices 1 2 3 4 5 6 
#
# 1 0.011376 -0.003755 -0.000986 -0.000512 0.002555 0.000365
# 2 -0.003755 0.008950 -0.003010 0.000709 -0.001491 0.001581
# 3 -0.000986 -0.003010 0.010693 -0.002488 0.004244 -0.001259
# 4 -0.000512 0.000709 -0.002488 0.027720 0.000775 -0.001371
# 5 0.002555 -0.001491 0.004244 0.000775 0.035552 0.002058
# 6 0.000365 0.001581 -0.001259 -0.001371 0.002058 0.034109
#
#
# Mechanical properties :
#
#
# Convention : Reuss Voigt Hill
#
# Bulk Modulus (GPa) = 64.44717 72.11588 68.28152
# Shear Modulus (GPa) = 33.54045 36.03837 34.78941
#
# Velocity S-wave (km/s) = 4.00261 4.14898 4.07645
# Velocity P-wave (km/s) = 7.22114 7.57620 7.40080
#
# Compressibility (1/GPa) = 0.01551659
#
# Stress axis : x y z
#
# Youngs Moduli (GPa) = 87.90455 111.73240 93.52043
#
# Poissons Ratio (x) = 0.41960 0.09222
# Poissons Ratio (y) = 0.33011 0.28147
# Poissons Ratio (z) = 0.08668 0.33628
#
# Static dielectric constant tensor:
#      x y z
#    x 53.482600 -35.664320 10.417110 
#    y -35.664320 29.395570 -7.729950 
#    z 10.417110 -7.729950 5.926070 
# 
# 
# High freq. dielectric constant tensor:
#      x y z
#    x 1.839110 -0.011540 -0.008220 
#    y -0.011540 1.832220 -0.016240 
#    z -0.008220 -0.016240 1.806580 
# 
# From -- ./inp_files/44785.got.cif
#   From: 2010.06.25/outbox.cif.g09.slc.cpg/sg2_23_cif.got.tgz:44785.got - 2010.06.27 13:26:56.
