data_PCOD8000193
_publ_section_title
;
Structure prediction by ZEFSAII (Michael W. Deem and Ramdas Pophale) SiO2 
 PCOD8000193
Probable space group: P 1
;
_chemical_formula_sum "Si O2"
_cell_formula_units_Z 8
_cell_length_a 8.441375
_cell_length_b 5.124142
_cell_length_c 11.735437
_cell_angle_alpha 94.337504
_cell_angle_beta 142.890363
_cell_angle_gamma 78.643918
_cell_volume 297.412589
_symmetry_space_group_name_H-M "P 1"
_symmetry_group_IT_number 1
_symmetry_cell_setting 'triclinic'
loop_
_space_group_symop_operation_xyz
x,y,z
loop_
_atom_site_type_symbol
_atom_site_label
_atom_site_fract_x
_atom_site_fract_y
_atom_site_fract_z
Si Si1 0.827670 0.664590 0.714510
Si Si2 0.194552 0.940924 0.780723
Si Si3 0.758958 0.394112 0.449079
Si Si4 0.720802 0.580726 0.002988
Si Si5 0.006828 0.012486 0.093739
Si Si6 0.015351 0.593013 0.401468
Si Si7 0.301361 0.024757 0.492221
Si Si8 0.263384 0.211318 0.046228
O O1 0.670683 0.512391 0.528349
O O2 0.617889 0.879326 0.677103
O O3 0.010808 0.803014 0.747407
O O4 0.005902 0.458958 0.897097
O O5 0.404206 0.725960 0.818099
O O6 0.016719 0.146744 0.598328
O O7 0.351699 0.092886 0.967004
O O8 0.511206 0.302593 0.247696
O O9 0.855776 0.612867 0.430828
O O10 0.763881 0.279914 0.968832
O O11 0.799814 0.569743 0.180301
O O12 0.896548 0.745965 0.036654
O O13 0.166307 0.992657 0.064303
O O14 0.222342 0.035718 0.314901
O O15 0.125521 0.859598 0.458496
O O16 0.258347 0.325598 0.526397
#
# Coordination Sequence:
#
# PCOD8000193 Si02
#       8
#     1   1   1   1   1   1   1   1
#     4  11  27  46  72 107 144 188 243 298 351 436
#     4  11  27  46  72 107 144 188 243 298 351 436
#     4  11  27  46  74 105 144 191 240 295 363 424
#     4  10  24  44  72 105 145 184 243 293 355 431
#     4  10  24  44  72 106 141 192 234 297 359 424
#     4  10  24  44  72 106 141 192 234 297 359 424
#     4  10  24  44  72 105 145 184 243 293 355 431
#     4  11  27  46  74 105 144 191 240 295 363 424
#
# _framework density 26.898655999999999
#
# number of rings (size 3 to 8) (size 9 to 14) (size 15 to 20)
#    0.000    1.500    0.000    1.500   21.000    4.000 
#    0.000    0.000    0.000    0.000    0.000    0.000 
#    0.000    0.000    0.000    0.000    0.000    0.000 
#
# Total GULP energy -99247.576121 kJ/mol
# GULP energy per Si atom -12405.947015 kJ/mol
# Density = 2.683743 g / cm^3
# Si number density = 26.898656 Si / 1000 Ang^3
#
#
#
# Elastic Constant Matrix: (Units=GPa)
#
#
# Indices 1 2 3 4 5 6 
#
# 1 99.1165 -2.6896 27.4933 -12.1885 -10.6561 9.1377
# 2 -2.6896 82.7764 15.6584 -16.0001 -10.4992 -8.4757
# 3 27.4933 15.6584 115.8165 -2.0785 -8.9202 -5.5394
# 4 -12.1885 -16.0001 -2.0785 32.6394 1.5303 -1.7050
# 5 -10.6561 -10.4992 -8.9202 1.5303 40.1468 -7.8199
# 6 9.1377 -8.4757 -5.5394 -1.7050 -7.8199 58.7896
#
#
#
# Elastic Compliance Matrix: (Units=1/GPa)
#
#
# Indices 1 2 3 4 5 6 
#
# 1 0.011991 0.002132 -0.002903 0.005145 0.002640 -0.001330
# 2 0.002132 0.014812 -0.001931 0.007864 0.004179 0.002406
# 3 -0.002903 -0.001931 0.009707 -0.001404 0.001169 0.001202
# 4 0.005145 0.007864 -0.001404 0.036309 0.002023 0.001524
# 5 0.002640 0.004179 0.001169 0.002023 0.027672 0.004042
# 6 -0.001330 0.002406 0.001202 0.001524 0.004042 0.018258
#
#
# Mechanical properties :
#
#
# Convention : Reuss Voigt Hill
#
# Bulk Modulus (GPa) = 32.14698 42.07043 37.10871
# Shear Modulus (GPa) = 37.16880 43.46497 40.31689
#
# Velocity S-wave (km/s) = 3.72130 4.02416 3.87569
# Velocity P-wave (km/s) = 5.51736 6.10460 5.81839
#
# Compressibility (1/GPa) = 0.03110712
#
# Stress axis : x y z
#
# Youngs Moduli (GPa) = 83.39401 67.51430 103.02093
#
# Poissons Ratio (x) = -0.14394 0.29904
# Poissons Ratio (y) = -0.17779 0.19889
# Poissons Ratio (z) = 0.24207 0.13034
#
# Static dielectric constant tensor:
#      x y z
#    x 4.842140 -0.161430 -0.378830 
#    y -0.161430 5.116190 -0.173680 
#    z -0.378830 -0.173680 5.295250 
# 
# 
# High freq. dielectric constant tensor:
#      x y z
#    x 2.080380 -0.000730 -0.019620 
#    y -0.000730 2.085700 -0.005720 
#    z -0.019620 -0.005720 2.095770 
# 
# From -- ./inp_files/6270.got.cif
#   From: 2010.03.12/outbox.cif.g09.slc.cpg/sg1_4_cif.got.tgz:6270.got - 2010.03.29 11:57:58.
