data_PCOD8000959
_publ_section_title
;
Structure prediction by ZEFSAII (Michael W. Deem and Ramdas Pophale) SiO2 
 PCOD8000959
Probable space group: P -1
;
_chemical_formula_sum "Si O2"
_cell_formula_units_Z 14
_cell_length_a 13.098870
_cell_length_b 9.456310
_cell_length_c 11.542103
_cell_angle_alpha 115.454105
_cell_angle_beta 31.795478
_cell_angle_gamma 115.865012
_cell_volume 672.554883
_symmetry_space_group_name_H-M "P -1"
_symmetry_group_IT_number 2
_symmetry_cell_setting 'triclinic'
loop_
_space_group_symop_operation_xyz
x,y,z
-x,-y,-z
loop_
_atom_site_type_symbol
_atom_site_label
_atom_site_fract_x
_atom_site_fract_y
_atom_site_fract_z
Si Si1 0.417464 0.157253 0.767196
Si Si2 0.286609 0.627188 0.874589
Si Si3 0.093131 0.348359 0.090340
Si Si4 0.966528 0.328236 0.666200
Si Si5 0.712358 0.192206 0.291591
Si Si6 0.359880 0.855479 0.223088
Si Si7 0.367640 0.202250 0.268344
O O1 0.528327 0.200249 0.554872
O O2 0.574325 0.191057 0.730023
O O3 0.313306 0.975766 0.807090
O O4 0.246902 0.264451 0.985267
O O5 0.278119 0.668271 0.762665
O O6 0.507778 0.668123 0.723569
O O7 0.206912 0.439953 0.902090
O O8 0.152359 0.727383 0.119437
O O9 0.011310 0.479764 0.296666
O O10 0.916338 0.216722 0.173137
O O11 0.844910 0.253133 0.646494
O O12 0.827895 0.731403 0.552152
O O13 0.324324 0.037442 0.321055
O O14 0.527521 0.823508 0.961920
#
# Coordination Sequence:
#
# PCOD8000959 Si02
#       7
#     2   2   2   2   2   2   2
#     4  11  25  42  63  90 130 167 203 251 315 371
#     4   9  21  40  64  94 119 160 212 253 302 359
#     4  10  24  41  62  96 126 160 208 256 307 371
#     4   9  22  38  64  97 117 160 205 259 311 353
#     4  11  23  44  62  90 125 170 209 250 307 364
#     4  10  21  40  63  95 122 161 209 254 305 369
#     4  10  19  40  67  91 125 157 211 258 303 363
#
# _framework density 20.816146
#
# number of rings (size 3 to 8) (size 9 to 14) (size 15 to 20)
#    0.857    1.143    1.429    1.286    2.000    3.429 
#    2.571    1.429    0.000    0.000    0.000    0.000 
#    0.000    0.000    0.000    0.000    0.000    0.000 
#
# Total GULP energy -173584.348976 kJ/mol
# GULP energy per Si atom -12398.882070 kJ/mol
# Density = 2.076877 g / cm^3
# Si number density = 20.816146 Si / 1000 Ang^3
#
#
#
# Elastic Constant Matrix: (Units=GPa)
#
#
# Indices 1 2 3 4 5 6 
#
# 1 96.3852 37.9621 33.7779 13.0622 -31.8593 3.9296
# 2 37.9621 66.7282 31.3957 9.3312 -16.1279 -10.2876
# 3 33.7779 31.3957 56.7712 17.5341 -27.0815 -3.6204
# 4 13.0622 9.3312 17.5341 32.4669 -7.2089 -13.8745
# 5 -31.8593 -16.1279 -27.0815 -7.2089 38.4011 -1.5319
# 6 3.9296 -10.2876 -3.6204 -13.8745 -1.5319 29.5419
#
#
#
# Elastic Compliance Matrix: (Units=1/GPa)
#
#
# Indices 1 2 3 4 5 6 
#
# 1 0.018030 -0.008098 -0.000121 -0.005798 0.010087 -0.007433
# 2 -0.008098 0.025324 -0.011794 0.006632 -0.002699 0.011425
# 3 -0.000121 -0.011794 0.037102 -0.015003 0.018070 -0.005653
# 4 -0.005798 0.006632 -0.015003 0.049131 -0.002417 0.024191
# 5 0.010087 -0.002699 0.018070 -0.002417 0.045612 0.001163
# 6 -0.007433 0.011425 -0.005653 0.024191 0.001163 0.049547
#
#
# Mechanical properties :
#
#
# Convention : Reuss Voigt Hill
#
# Bulk Modulus (GPa) = 24.73368 47.35069 36.04219
# Shear Modulus (GPa) = 17.96973 27.86524 22.91749
#
# Velocity S-wave (km/s) = 2.94132 3.66271 3.32165
# Velocity P-wave (km/s) = 4.84178 6.37838 5.66245
#
# Compressibility (1/GPa) = 0.04043069
#
# Stress axis : x y z
#
# Youngs Moduli (GPa) = 55.46428 39.48883 26.95300
#
# Poissons Ratio (x) = 0.31976 0.00325
# Poissons Ratio (y) = 0.44912 0.31788
# Poissons Ratio (z) = 0.00668 0.46573
#
# Static dielectric constant tensor:
#      x y z
#    x 3.625120 0.157550 -0.122980 
#    y 0.157550 3.701670 -0.106370 
#    z -0.122980 -0.106370 3.553060 
# 
# 
# High freq. dielectric constant tensor:
#      x y z
#    x 1.816030 0.007950 -0.015780 
#    y 0.007950 1.809540 -0.004690 
#    z -0.015780 -0.004690 1.802850 
# 
# From -- ./inp_files/414867.got.cif
#   From: 2010.06.25/outbox.cif.g09.slc.cpg/sg2_208_cif.got.tgz:414867.got - 2010.06.27 13:26:56.
