data_PCOD8000253
_publ_section_title
;
Structure prediction by ZEFSAII (Michael W. Deem and Ramdas Pophale) SiO2 
 PCOD8000253
Probable space group: P 1
;
_chemical_formula_sum "Si O2"
_cell_formula_units_Z 8
_cell_length_a 12.230038
_cell_length_b 8.686770
_cell_length_c 5.466421
_cell_angle_alpha 103.995227
_cell_angle_beta 104.122605
_cell_angle_gamma 35.208725
_cell_volume 323.776633
_symmetry_space_group_name_H-M "P 1"
_symmetry_group_IT_number 1
_symmetry_cell_setting 'triclinic'
loop_
_space_group_symop_operation_xyz
x,y,z
loop_
_atom_site_type_symbol
_atom_site_label
_atom_site_fract_x
_atom_site_fract_y
_atom_site_fract_z
Si Si1 0.770620 0.808420 0.612380
Si Si2 0.112293 0.896119 0.399434
Si Si3 0.479110 0.283931 0.270760
Si Si4 0.003612 0.320420 0.212268
Si Si5 0.523536 0.812035 0.569843
Si Si6 0.825167 0.291844 0.770723
Si Si7 0.791211 0.063311 0.025439
Si Si8 0.335618 0.097008 0.064189
O O1 0.925350 0.526019 0.453703
O O2 0.626065 0.861915 0.701690
O O3 0.647309 0.058571 0.463461
O O4 0.877498 0.802220 0.859357
O O5 0.125626 0.038810 0.293538
O O6 0.039487 0.023021 0.680836
O O7 0.953148 0.951458 0.242942
O O8 0.318234 0.582537 0.408609
O O9 0.584840 0.257473 0.101244
O O10 0.374032 0.240778 0.114615
O O11 0.117610 0.301580 0.077716
O O12 0.829735 0.438158 0.013041
O O13 0.679774 0.493404 0.545786
O O14 0.440907 0.903931 0.287130
O O15 0.379969 0.956916 0.777632
O O16 0.744160 0.233329 0.842759
#
# Coordination Sequence:
#
# PCOD8000253 Si02
#       8
#     1   1   1   1   1   1   1   1
#     4  11  24  49  75 104 146 200 251 314 374 448
#     4  11  27  48  70 110 151 195 250 308 382 453
#     4  11  26  47  71 109 152 194 250 307 384 448
#     4  11  27  46  74 110 149 199 254 313 376 448
#     4  11  24  47  75 108 151 199 253 315 377 449
#     4  11  25  48  72 105 153 200 250 306 386 451
#     4  11  26  46  75 106 147 202 246 313 378 451
#     4  11  27  45  76 114 149 197 258 316 375 452
#
# _framework density 24.708390999999999
#
# number of rings (size 3 to 8) (size 9 to 14) (size 15 to 20)
#    0.000    1.000    2.500    2.250    8.750    4.000 
#    0.000    0.000    0.000    0.000    0.000    0.000 
#    0.000    0.000    0.000    0.000    0.000    0.000 
#
# Total GULP energy -99173.220325 kJ/mol
# GULP energy per Si atom -12396.652541 kJ/mol
# Density = 2.465215 g / cm^3
# Si number density = 24.708391 Si / 1000 Ang^3
#
#
#
# Elastic Constant Matrix: (Units=GPa)
#
#
# Indices 1 2 3 4 5 6 
#
# 1 147.9279 19.2636 24.6438 13.3302 -22.8656 -5.8528
# 2 19.2636 117.8472 25.4425 16.2530 -11.2089 5.9143
# 3 24.6438 25.4425 80.1796 21.8366 -22.6397 2.9399
# 4 13.3302 16.2530 21.8366 44.3020 4.0184 -12.2925
# 5 -22.8656 -11.2089 -22.6397 4.0184 43.6562 4.0096
# 6 -5.8528 5.9143 2.9399 -12.2925 4.0096 22.9353
#
#
#
# Elastic Compliance Matrix: (Units=1/GPa)
#
#
# Indices 1 2 3 4 5 6 
#
# 1 0.007708 -0.000511 -0.000606 -0.002056 0.003743 0.000420
# 2 -0.000511 0.009984 -0.000522 -0.005178 0.003048 -0.005946
# 3 -0.000606 -0.000522 0.020951 -0.014690 0.012945 -0.012842
# 4 -0.002056 -0.005178 -0.014690 0.041540 -0.016404 0.027825
# 5 0.003743 0.003048 0.012945 -0.016404 0.035385 -0.016468
# 6 0.000420 -0.005946 -0.012842 0.027825 -0.016468 0.064680
#
#
# Mechanical properties :
#
#
# Convention : Reuss Voigt Hill
#
# Bulk Modulus (GPa) = 28.27591 53.85049 41.06320
# Shear Modulus (GPa) = 25.59979 40.61902 33.10940
#
# Velocity S-wave (km/s) = 3.22231 4.05895 3.66458
# Velocity P-wave (km/s) = 5.03121 6.61880 5.87884
#
# Compressibility (1/GPa) = 0.03536579
#
# Stress axis : x y z
#
# Youngs Moduli (GPa) = 129.73750 100.15754 47.73060
#
# Poissons Ratio (x) = 0.05115 0.02890
# Poissons Ratio (y) = 0.06626 0.02493
# Poissons Ratio (z) = 0.07857 0.05232
#
# Static dielectric constant tensor:
#      x y z
#    x 4.772850 0.137750 -0.086220 
#    y 0.137750 4.211370 0.072840 
#    z -0.086220 0.072840 4.411250 
# 
# 
# High freq. dielectric constant tensor:
#      x y z
#    x 2.003850 0.010480 -0.007970 
#    y 0.010480 1.968830 0.008730 
#    z -0.007970 0.008730 1.985580 
# 
# From -- ./inp_files/2231.got.cif
#   From: 2010.03.12/outbox.cif.g09.slc.cpg/sg1_2_cif.got.tgz:2231.got - 2010.03.29 11:57:58.
