data_PCOD8000931
_publ_section_title
;
Structure prediction by ZEFSAII (Michael W. Deem and Ramdas Pophale) SiO2 
 PCOD8000931
Probable space group: P -1
;
_chemical_formula_sum "Si O2"
_cell_formula_units_Z 16
_cell_length_a 9.502773
_cell_length_b 14.058929
_cell_length_c 11.387031
_cell_angle_alpha 147.936323
_cell_angle_beta 82.309131
_cell_angle_gamma 86.106844
_cell_volume 751.299304
_symmetry_space_group_name_H-M "P -1"
_symmetry_group_IT_number 2
_symmetry_cell_setting 'triclinic'
loop_
_space_group_symop_operation_xyz
x,y,z
-x,-y,-z
loop_
_atom_site_type_symbol
_atom_site_label
_atom_site_fract_x
_atom_site_fract_y
_atom_site_fract_z
Si Si1 0.168485 0.110308 0.918764
Si Si2 0.327547 0.510565 0.515140
Si Si3 0.892230 0.462167 0.634268
Si Si4 0.860014 0.484879 0.924704
Si Si5 0.792536 0.805819 0.749465
Si Si6 0.161774 0.856070 0.296446
Si Si7 0.852771 0.116701 0.939313
Si Si8 0.671713 0.918179 0.364669
O O1 0.289250 0.026271 0.712775
O O2 0.034621 0.019743 0.838503
O O3 0.086327 0.334922 0.142417
O O4 0.250854 0.073301 0.997434
O O5 0.500000 0.500000 0.500000
O O6 0.267901 0.510910 0.386783
O O7 0.311337 0.325891 0.391809
O O8 0.218457 0.705879 0.783346
O O9 0.901932 0.387607 0.689354
O O10 0.031593 0.328377 0.402292
O O11 0.790780 0.345812 0.854336
O O12 0.734138 0.692005 0.141971
O O13 0.000000 0.500000 0.000000
O O14 0.773564 0.957566 0.805527
O O15 0.176430 0.804045 0.104618
O O16 0.270628 0.970895 0.429285
O O17 0.000000 0.000000 0.500000
O O18 0.500000 0.000000 0.500000
#
# Coordination Sequence:
#
# PCOD8000931 Si02
#       8
#     2   2   2   2   2   2   2   2
#     4  10  19  40  66  94 127 167 224 273 327 407
#     4  11  25  43  62  97 140 172 210 279 343 395
#     4  10  20  40  70  97 125 170 227 274 331 401
#     4  11  23  41  73  99 130 179 234 279 335 401
#     4  11  22  38  70  97 124 169 225 271 333 398
#     4  12  23  40  66  98 130 178 235 277 328 407
#     4  12  23  38  67  98 125 173 226 270 326 407
#     4  11  26  44  65  99 138 174 222 292 346 394
#
# _framework density 21.296438999999999
#
# number of rings (size 3 to 8) (size 9 to 14) (size 15 to 20)
#    0.000    1.000    5.000    2.625    0.000    4.000 
#    0.000    2.500    0.000    0.000    0.000    0.000 
#    0.000    0.000    0.000    0.000    0.000    0.000 
#
# Total GULP energy -198316.362822 kJ/mol
# GULP energy per Si atom -12394.772676 kJ/mol
# Density = 2.124797 g / cm^3
# Si number density = 21.296439 Si / 1000 Ang^3
#
#
#
# Elastic Constant Matrix: (Units=GPa)
#
#
# Indices 1 2 3 4 5 6 
#
# 1 143.7972 36.0884 42.5151 -6.4275 0.9904 12.9222
# 2 36.0884 122.2012 31.5174 -0.5325 4.9764 16.7695
# 3 42.5151 31.5174 82.8217 -5.8441 1.8678 9.1570
# 4 -6.4275 -0.5325 -5.8441 33.3306 7.6681 10.5420
# 5 0.9904 4.9764 1.8678 7.6681 33.9331 1.0284
# 6 12.9222 16.7695 9.1570 10.5420 1.0284 30.1531
#
#
#
# Elastic Compliance Matrix: (Units=1/GPa)
#
#
# Indices 1 2 3 4 5 6 
#
# 1 0.008633 -0.001269 -0.003525 0.001892 -0.000221 -0.002577
# 2 -0.001269 0.009893 -0.002484 0.001258 -0.001422 -0.004595
# 3 -0.003525 -0.002484 0.015383 0.003102 -0.000995 -0.002830
# 4 0.001892 0.001258 0.003102 0.037738 -0.008473 -0.015357
# 5 -0.000221 -0.001422 -0.000995 -0.008473 0.031561 0.003074
# 6 -0.002577 -0.004595 -0.002830 -0.015357 0.003074 0.042948
#
#
# Mechanical properties :
#
#
# Convention : Reuss Voigt Hill
#
# Bulk Modulus (GPa) = 51.67520 63.22908 57.45214
# Shear Modulus (GPa) = 29.91099 35.39665 32.65382
#
# Velocity S-wave (km/s) = 3.75174 4.08130 3.91998
# Velocity P-wave (km/s) = 6.56390 7.20859 6.89379
#
# Compressibility (1/GPa) = 0.01935164
#
# Stress axis : x y z
#
# Youngs Moduli (GPa) = 115.83862 101.08441 65.00633
#
# Poissons Ratio (x) = 0.12831 0.22914
# Poissons Ratio (y) = 0.14704 0.16149
# Poissons Ratio (z) = 0.40832 0.25111
#
# Static dielectric constant tensor:
#      x y z
#    x 3.594040 0.175990 0.214440 
#    y 0.175990 3.982270 -0.050920 
#    z 0.214440 -0.050920 4.014070 
# 
# 
# High freq. dielectric constant tensor:
#      x y z
#    x 1.808150 0.012470 0.023040 
#    y 0.012470 1.842700 -0.005230 
#    z 0.023040 -0.005230 1.844170 
# 
# From -- ./inp_files/297389.got.cif
#   From: 2010.06.25/outbox.cif.g09.slc.cpg/sg2_149_cif.got.tgz:297389.got - 2010.06.27 13:26:56.
