data_PCOD8000551
_publ_section_title
;
Structure prediction by ZEFSAII (Michael W. Deem and Ramdas Pophale) SiO2 
 PCOD8000551
Probable space group: P -1
;
_chemical_formula_sum "Si O2"
_cell_formula_units_Z 16
_cell_length_a 10.946604
_cell_length_b 14.806359
_cell_length_c 11.891930
_cell_angle_alpha 149.457917
_cell_angle_beta 59.228832
_cell_angle_gamma 128.851280
_cell_volume 760.784159
_symmetry_space_group_name_H-M "P -1"
_symmetry_group_IT_number 2
_symmetry_cell_setting 'triclinic'
loop_
_space_group_symop_operation_xyz
x,y,z
-x,-y,-z
loop_
_atom_site_type_symbol
_atom_site_label
_atom_site_fract_x
_atom_site_fract_y
_atom_site_fract_z
Si Si1 0.290654 0.200041 0.075704
Si Si2 0.096100 0.890050 0.665887
Si Si3 0.636383 0.304371 0.000903
Si Si4 0.810255 0.920560 0.764069
Si Si5 0.192800 0.933338 0.424462
Si Si6 0.166609 0.267520 0.669883
Si Si7 0.874989 0.536009 0.521756
Si Si8 0.337383 0.810103 0.896370
O O1 0.302015 0.173074 0.175620
O O2 0.207871 0.345184 0.244949
O O3 0.462126 0.277785 0.022908
O O4 0.192946 0.988074 0.837010
O O5 0.203381 0.905579 0.524012
O O6 0.991675 0.005995 0.807125
O O7 0.974990 0.664228 0.506232
O O8 0.673626 0.123670 0.750121
O O9 0.754946 0.501155 0.093658
O O10 0.650939 0.319391 0.145076
O O11 0.773034 0.760948 0.511998
O O12 0.788684 0.105278 0.922522
O O13 0.020433 0.800064 0.311876
O O14 0.226034 0.156730 0.615939
O O15 0.731064 0.333599 0.332540
O O16 0.000000 0.500000 0.500000
O O17 0.500000 0.000000 0.000000
#
# Coordination Sequence:
#
# PCOD8000551 Si02
#       8
#     2   2   2   2   2   2   2   2
#     4  11  23  39  64  92 130 169 211 272 333 382
#     4  10  22  44  64  87 126 177 218 264 316 390
#     4  12  24  38  64  98 133 165 217 268 331 385
#     4  10  19  39  64  89 127 161 210 262 331 373
#     4  10  22  43  63  88 127 175 218 267 317 381
#     4  10  22  40  64  93 123 170 214 268 321 386
#     4  11  24  42  67  97 127 172 223 262 327 403
#     4  12  23  36  64 102 134 166 207 276 335 382
#
# _framework density 21.030932
#
# number of rings (size 3 to 8) (size 9 to 14) (size 15 to 20)
#    0.000    1.250    2.500    5.625    1.750    1.500 
#    2.250    0.625    0.000    0.000    0.000    0.000 
#    0.000    0.000    0.000    0.000    0.000    0.000 
#
# Total GULP energy -198349.582994 kJ/mol
# GULP energy per Si atom -12396.848937 kJ/mol
# Density = 2.098307 g / cm^3
# Si number density = 21.030932 Si / 1000 Ang^3
#
#
#
# Elastic Constant Matrix: (Units=GPa)
#
#
# Indices 1 2 3 4 5 6 
#
# 1 98.6234 39.6344 40.7605 2.6923 -15.0860 2.0215
# 2 39.6344 92.9964 28.5882 4.0204 -1.3342 -0.9317
# 3 40.7605 28.5882 77.0487 6.3820 -3.0404 4.5856
# 4 2.6923 4.0204 6.3820 39.4466 3.2272 -1.5856
# 5 -15.0860 -1.3342 -3.0404 3.2272 36.8790 -0.0639
# 6 2.0215 -0.9317 4.5856 -1.5856 -0.0639 26.6201
#
#
#
# Elastic Compliance Matrix: (Units=1/GPa)
#
#
# Indices 1 2 3 4 5 6 
#
# 1 0.015417 -0.004579 -0.006215 -0.000051 0.005632 -0.000250
# 2 -0.004579 0.013545 -0.002702 -0.000452 -0.001564 0.001257
# 3 -0.006215 -0.002702 0.017575 -0.002173 -0.001006 -0.002782
# 4 -0.000051 -0.000452 -0.002173 0.026032 -0.002491 0.001907
# 5 0.005632 -0.001564 -0.001006 -0.002491 0.029498 -0.000387
# 6 -0.000250 0.001257 -0.002782 0.001907 -0.000387 0.038220
#
#
# Mechanical properties :
#
#
# Convention : Reuss Voigt Hill
#
# Bulk Modulus (GPa) = 51.16818 54.07054 52.61936
# Shear Modulus (GPa) = 28.76933 31.23483 30.00208
#
# Velocity S-wave (km/s) = 3.70260 3.85799 3.78109
# Velocity P-wave (km/s) = 6.53160 6.75361 6.64353
#
# Compressibility (1/GPa) = 0.01954340
#
# Stress axis : x y z
#
# Youngs Moduli (GPa) = 64.86451 73.82685 56.89758
#
# Poissons Ratio (x) = 0.33808 0.35364
# Poissons Ratio (y) = 0.29704 0.15375
# Poissons Ratio (z) = 0.40316 0.19950
#
# Static dielectric constant tensor:
#      x y z
#    x 3.918090 -0.124340 -0.190620 
#    y -0.124340 3.728410 -0.022880 
#    z -0.190620 -0.022880 3.660270 
# 
# 
# High freq. dielectric constant tensor:
#      x y z
#    x 1.825170 -0.003650 -0.017110 
#    y -0.003650 1.813370 0.000080 
#    z -0.017110 0.000080 1.810200 
# 
# From -- ./inp_files/427671.got.cif
#   From: 2010.06.25/outbox.cif.g09.slc.cpg/sg2_214_cif.got.tgz:427671.got - 2010.06.27 13:26:56.
