data_PCOD8000659
_publ_section_title
;
Structure prediction by ZEFSAII (Michael W. Deem and Ramdas Pophale) SiO2 
 PCOD8000659
Probable space group: P -1
;
_chemical_formula_sum "Si O2"
_cell_formula_units_Z 16
_cell_length_a 9.265968
_cell_length_b 11.915981
_cell_length_c 17.891821
_cell_angle_alpha 38.646016
_cell_angle_beta 40.448790
_cell_angle_gamma 41.201042
_cell_volume 736.973400
_symmetry_space_group_name_H-M "P -1"
_symmetry_group_IT_number 2
_symmetry_cell_setting 'triclinic'
loop_
_space_group_symop_operation_xyz
x,y,z
-x,-y,-z
loop_
_atom_site_type_symbol
_atom_site_label
_atom_site_fract_x
_atom_site_fract_y
_atom_site_fract_z
Si Si1 0.265784 0.916637 0.469667
Si Si2 0.367621 0.229316 0.353250
Si Si3 0.788587 0.848346 0.026772
Si Si4 0.446550 0.385116 0.386577
Si Si5 0.654052 0.421563 0.054372
Si Si6 0.496375 0.244094 0.681630
Si Si7 0.492815 0.280881 0.908677
Si Si8 0.168440 0.547726 0.547097
O O1 0.321480 0.710953 0.598474
O O2 0.436263 0.904319 0.337746
O O3 0.334540 0.036433 0.443221
O O4 0.000000 0.000000 0.500000
O O5 0.437213 0.224108 0.415494
O O6 0.567622 0.265012 0.207063
O O7 0.109074 0.403011 0.352680
O O8 0.605634 0.836015 0.168370
O O9 0.715677 0.781816 0.010792
O O10 0.063901 0.703837 0.010414
O O11 0.736945 0.081211 0.925269
O O12 0.452550 0.574897 0.245152
O O13 0.221889 0.431555 0.507854
O O14 0.606663 0.605798 0.032910
O O15 0.500000 0.500000 0.000000
O O16 0.294074 0.443636 0.627727
O O17 0.740765 0.274581 0.593195
#
# Coordination Sequence:
#
# PCOD8000659 Si02
#       8
#     2   2   2   2   2   2   2   2
#     4  11  23  41  66  99 128 170 217 275 331 399
#     4  11  23  42  61 100 131 172 213 266 341 395
#     4  11  23  47  70  97 134 177 235 275 320 402
#     4  10  22  43  63  96 136 168 216 271 340 397
#     4  11  26  45  67  99 141 180 220 276 336 397
#     4  10  21  38  67  97 124 167 222 276 321 386
#     4  10  24  46  70  99 128 185 230 274 331 387
#     4  10  19  39  66  95 129 166 213 269 336 390
#
# _framework density 21.710415999999999
#
# number of rings (size 3 to 8) (size 9 to 14) (size 15 to 20)
#    0.000    1.500    2.500    1.875    1.750    1.500 
#   24.750    0.000    0.000    0.000    0.000    0.000 
#    0.000    0.000    0.000    0.000    0.000    0.000 
#
# Total GULP energy -198223.436987 kJ/mol
# GULP energy per Si atom -12388.964812 kJ/mol
# Density = 2.166100 g / cm^3
# Si number density = 21.710416 Si / 1000 Ang^3
#
#
#
# Elastic Constant Matrix: (Units=GPa)
#
#
# Indices 1 2 3 4 5 6 
#
# 1 119.4605 59.1271 32.3172 -3.0212 10.7943 6.0044
# 2 59.1271 122.6018 34.6483 -0.2449 5.8649 -0.9803
# 3 32.3172 34.6483 77.3664 -2.8189 5.9321 7.0203
# 4 -3.0212 -0.2449 -2.8189 23.2141 -3.9021 -2.9283
# 5 10.7943 5.8649 5.9321 -3.9021 30.4396 6.6874
# 6 6.0044 -0.9803 7.0203 -2.9283 6.6874 42.3377
#
#
#
# Elastic Compliance Matrix: (Units=1/GPa)
#
#
# Indices 1 2 3 4 5 6 
#
# 1 0.011714 -0.004853 -0.002422 0.000648 -0.002457 -0.000939
# 2 -0.004853 0.011435 -0.003235 -0.000763 -0.000275 0.001480
# 3 -0.002422 -0.003235 0.015692 0.001128 -0.000969 -0.002102
# 4 0.000648 -0.000763 0.001128 0.044373 0.004948 0.001991
# 5 -0.002457 -0.000275 -0.000969 0.004948 0.035651 -0.004786
# 6 -0.000939 0.001480 -0.002102 0.001991 -0.004786 0.025029
#
#
# Mechanical properties :
#
#
# Convention : Reuss Voigt Hill
#
# Bulk Modulus (GPa) = 56.11644 63.51265 59.81454
# Shear Modulus (GPa) = 29.26446 32.08737 30.67592
#
# Velocity S-wave (km/s) = 3.67542 3.84861 3.76301
# Velocity P-wave (km/s) = 6.62687 7.00479 6.81845
#
# Compressibility (1/GPa) = 0.01782009
#
# Stress axis : x y z
#
# Youngs Moduli (GPa) = 85.36707 87.45264 63.72596
#
# Poissons Ratio (x) = 0.42445 0.15437
# Poissons Ratio (y) = 0.41432 0.20614
# Poissons Ratio (z) = 0.20679 0.28288
#
# Static dielectric constant tensor:
#      x y z
#    x 4.292190 0.201860 0.112870 
#    y 0.201860 4.241130 0.006870 
#    z 0.112870 0.006870 3.670450 
# 
# 
# High freq. dielectric constant tensor:
#      x y z
#    x 1.867900 0.010850 0.017020 
#    y 0.010850 1.861210 0.001910 
#    z 0.017020 0.001910 1.831850 
# 
# From -- ./inp_files/559629.got.cif
#   From: 2010.06.25/outbox.cif.g09.slc.cpg/sg2_280_cif.got.tgz:559629.got - 2010.06.27 13:26:56.
