data_PCOD8000842
_publ_section_title
;
Structure prediction by ZEFSAII (Michael W. Deem and Ramdas Pophale) SiO2 
 PCOD8000842
Probable space group: P -1
;
_chemical_formula_sum "Si O2"
_cell_formula_units_Z 16
_cell_length_a 12.323077
_cell_length_b 9.378408
_cell_length_c 11.700197
_cell_angle_alpha 55.343326
_cell_angle_beta 130.959787
_cell_angle_gamma 125.759834
_cell_volume 789.721445
_symmetry_space_group_name_H-M "P -1"
_symmetry_group_IT_number 2
_symmetry_cell_setting 'triclinic'
loop_
_space_group_symop_operation_xyz
x,y,z
-x,-y,-z
loop_
_atom_site_type_symbol
_atom_site_label
_atom_site_fract_x
_atom_site_fract_y
_atom_site_fract_z
Si Si1 0.846632 0.319674 0.671253
Si Si2 0.239207 0.354042 0.607508
Si Si3 0.682404 0.900971 0.377286
Si Si4 0.324756 0.862614 0.930982
Si Si5 0.172234 0.537433 0.821205
Si Si6 0.101775 0.798470 0.481468
Si Si7 0.358616 0.330414 0.942706
Si Si8 0.353898 0.929561 0.164581
O O1 0.742897 0.434296 0.500405
O O2 0.906842 0.233181 0.645215
O O3 0.747435 0.156863 0.757396
O O4 0.995997 0.454121 0.780760
O O5 0.302848 0.292236 0.562675
O O6 0.342825 0.330993 0.794482
O O7 0.064571 0.232989 0.568292
O O8 0.510432 0.884813 0.297096
O O9 0.754140 0.035384 0.256529
O O10 0.791683 0.989563 0.519224
O O11 0.288854 0.657949 0.944779
O O12 0.258998 0.841040 0.024086
O O13 0.500000 0.000000 0.000000
O O14 0.178462 0.661401 0.656177
O O15 0.215836 0.360545 0.894392
O O16 0.500000 0.500000 0.000000
O O17 0.386941 0.147445 0.088576
#
# Coordination Sequence:
#
# PCOD8000842 Si02
#       8
#     2   2   2   2   2   2   2   2
#     4  11  23  41  60  90 128 160 194 255 306 361
#     4  11  21  39  66  88 115 160 210 248 294 364
#     4  10  21  38  62  88 117 160 209 251 289 360
#     4   9  18  36  60  86 117 157 199 251 287 350
#     4  10  20  38  64  88 121 160 210 246 294 360
#     4  10  19  40  63  90 117 159 207 250 301 353
#     4  12  22  38  64  94 111 159 208 249 301 362
#     4  11  25  39  59  92 128 158 196 250 316 353
#
# _framework density 20.26031
#
# number of rings (size 3 to 8) (size 9 to 14) (size 15 to 20)
#    0.000    1.500    3.750    3.375    1.750    2.000 
#    0.000    1.250    0.000    0.000    0.000    0.000 
#    0.000    0.000    0.000    0.000    0.000    0.000 
#
# Total GULP energy -198315.720128 kJ/mol
# GULP energy per Si atom -12394.732508 kJ/mol
# Density = 2.021420 g / cm^3
# Si number density = 20.260310 Si / 1000 Ang^3
#
#
#
# Elastic Constant Matrix: (Units=GPa)
#
#
# Indices 1 2 3 4 5 6 
#
# 1 98.2849 54.2859 37.4742 -4.0519 0.2958 -5.0327
# 2 54.2859 119.7681 41.7722 14.5085 -4.0357 -10.1639
# 3 37.4742 41.7722 60.2281 8.2310 2.6652 6.3185
# 4 -4.0519 14.5085 8.2310 32.3785 -0.9022 1.5248
# 5 0.2958 -4.0357 2.6652 -0.9022 26.7194 -6.1002
# 6 -5.0327 -10.1639 6.3185 1.5248 -6.1002 32.1889
#
#
#
# Elastic Compliance Matrix: (Units=1/GPa)
#
#
# Indices 1 2 3 4 5 6 
#
# 1 0.016391 -0.005340 -0.007602 0.006288 0.000476 0.002161
# 2 -0.005340 0.014467 -0.006769 -0.005603 0.004125 0.006109
# 3 -0.007602 -0.006769 0.027969 -0.004740 -0.006114 -0.009750
# 4 0.006288 -0.005603 -0.004740 0.035467 0.000422 -0.001456
# 5 0.000476 0.004125 -0.006114 0.000422 0.041027 0.010332
# 6 0.002161 0.006109 -0.009750 -0.001456 0.010332 0.037274
#
#
# Mechanical properties :
#
#
# Convention : Reuss Voigt Hill
#
# Bulk Modulus (GPa) = 51.53203 60.59395 56.06299
# Shear Modulus (GPa) = 22.88478 27.90727 25.39602
#
# Velocity S-wave (km/s) = 3.36451 3.71541 3.54430
# Velocity P-wave (km/s) = 6.37051 6.95545 6.66940
#
# Compressibility (1/GPa) = 0.01940541
#
# Stress axis : x y z
#
# Youngs Moduli (GPa) = 61.00891 69.12322 35.75368
#
# Poissons Ratio (x) = 0.36914 0.27179
# Poissons Ratio (y) = 0.32581 0.24200
# Poissons Ratio (z) = 0.46378 0.46787
#
# Static dielectric constant tensor:
#      x y z
#    x 3.666430 -0.349220 0.075650 
#    y -0.349220 3.875440 0.212570 
#    z 0.075650 0.212570 3.848530 
# 
# 
# High freq. dielectric constant tensor:
#      x y z
#    x 1.774100 -0.022010 0.015450 
#    y -0.022010 1.792190 0.019750 
#    z 0.015450 0.019750 1.777380 
# 
# From -- ./inp_files/397471.got.cif
#   From: 2010.06.25/outbox.cif.g09.slc.cpg/sg2_199_cif.got.tgz:397471.got - 2010.06.27 13:26:56.
