data_PCOD8000945
_publ_section_title
;
Structure prediction by ZEFSAII (Michael W. Deem and Ramdas Pophale) SiO2 
 PCOD8000945
Probable space group: P -1
;
_chemical_formula_sum "Si O2"
_cell_formula_units_Z 16
_cell_length_a 15.003337
_cell_length_b 24.302254
_cell_length_c 18.826992
_cell_angle_alpha 19.510784
_cell_angle_beta 151.142202
_cell_angle_gamma 160.327463
_cell_volume 767.592731
_symmetry_space_group_name_H-M "P -1"
_symmetry_group_IT_number 2
_symmetry_cell_setting 'triclinic'
loop_
_space_group_symop_operation_xyz
x,y,z
-x,-y,-z
loop_
_atom_site_type_symbol
_atom_site_label
_atom_site_fract_x
_atom_site_fract_y
_atom_site_fract_z
Si Si1 0.581681 0.192240 0.603973
Si Si2 0.995644 0.555392 0.659080
Si Si3 0.745784 0.652549 0.131915
Si Si4 0.462398 0.668251 0.284883
Si Si5 0.095105 0.796733 0.071384
Si Si6 0.643305 0.331126 0.114028
Si Si7 0.813265 0.131348 0.721096
Si Si8 0.875745 0.328875 0.056050
O O1 0.590623 0.393827 0.367926
O O2 0.715833 0.207046 0.749938
O O3 0.747472 0.246943 0.583231
O O4 0.278735 0.932971 0.706301
O O5 0.710159 0.417694 0.660009
O O6 0.004287 0.371671 0.860879
O O7 0.229801 0.722126 0.678795
O O8 0.047659 0.722816 0.431327
O O9 0.850304 0.699010 0.068233
O O10 0.986387 0.852999 0.110978
O O11 0.532547 0.659863 0.972725
O O12 0.500000 0.500000 0.500000
O O13 0.324318 0.668050 0.122213
O O14 0.747819 0.939658 0.166043
O O15 0.462655 0.136337 0.163027
O O16 0.892448 0.580683 0.946008
O O17 0.000000 0.500000 0.000000
#
# Coordination Sequence:
#
# PCOD8000945 Si02
#       8
#     2   2   2   2   2   2   2   2
#     4  10  19  40  67  85 115 162 209 240 290 361
#     4  11  22  41  60  85 128 161 192 244 312 355
#     4  11  22  39  64  93 116 155 214 244 286 355
#     4  10  24  40  62  91 117 157 209 243 293 362
#     4  10  20  41  63  86 122 162 197 246 297 356
#     4  11  25  37  57  96 123 155 198 252 304 347
#     4  11  20  40  65  84 119 164 201 245 299 354
#     4  10  21  42  62  83 124 159 192 248 305 345
#
# _framework density 20.844387000000001
#
# number of rings (size 3 to 8) (size 9 to 14) (size 15 to 20)
#    0.000    1.500    3.750    1.875    1.750    2.000 
#    2.250    0.000    0.000    0.000    0.000    0.000 
#    0.000    0.000    0.000    0.000    0.000    0.000 
#
# Total GULP energy -198417.240185 kJ/mol
# GULP energy per Si atom -12401.077512 kJ/mol
# Density = 2.079694 g / cm^3
# Si number density = 20.844387 Si / 1000 Ang^3
#
#
#
# Elastic Constant Matrix: (Units=GPa)
#
#
# Indices 1 2 3 4 5 6 
#
# 1 97.5571 29.9930 15.6126 4.7145 -7.2219 14.3299
# 2 29.9930 84.2056 19.5696 -13.5056 -1.0995 7.3198
# 3 15.6126 19.5696 64.8764 -13.3583 -3.0542 13.4193
# 4 4.7145 -13.5056 -13.3583 26.9716 2.5135 0.5043
# 5 -7.2219 -1.0995 -3.0542 2.5135 34.5570 -2.1042
# 6 14.3299 7.3198 13.4193 0.5043 -2.1042 32.0826
#
#
#
# Elastic Compliance Matrix: (Units=1/GPa)
#
#
# Indices 1 2 3 4 5 6 
#
# 1 0.013049 -0.004764 -0.002035 -0.005848 0.002600 -0.003628
# 2 -0.004764 0.015279 -0.001756 0.007748 -0.001279 -0.000830
# 3 -0.002035 -0.001756 0.019858 0.009431 0.000154 -0.007135
# 4 -0.005848 0.007748 0.009431 0.047081 -0.003816 -0.004091
# 5 0.002600 -0.001279 0.000154 -0.003816 0.029797 0.001080
# 6 -0.003628 -0.000830 -0.007135 -0.004091 0.001080 0.036099
#
#
# Mechanical properties :
#
#
# Convention : Reuss Voigt Hill
#
# Bulk Modulus (GPa) = 32.17741 41.88773 37.03257
# Shear Modulus (GPa) = 26.50709 30.81983 28.66346
#
# Velocity S-wave (km/s) = 3.56991 3.84939 3.71228
# Velocity P-wave (km/s) = 5.69762 6.31634 6.01494
#
# Compressibility (1/GPa) = 0.03107770
#
# Stress axis : x y z
#
# Youngs Moduli (GPa) = 76.63706 65.45117 50.35756
#
# Poissons Ratio (x) = 0.31178 0.10246
# Poissons Ratio (y) = 0.36506 0.08840
# Poissons Ratio (z) = 0.15593 0.11490
#
# Static dielectric constant tensor:
#      x y z
#    x 3.855920 -0.020800 -0.137640 
#    y -0.020800 3.978270 -0.294330 
#    z -0.137640 -0.294330 3.572700 
# 
# 
# High freq. dielectric constant tensor:
#      x y z
#    x 1.823950 -0.001250 -0.012200 
#    y -0.001250 1.817370 -0.019590 
#    z -0.012200 -0.019590 1.796790 
# 
# From -- ./inp_files/188538.got.cif
#   From: 2010.06.25/outbox.cif.g09.slc.cpg/sg2_95_cif.got.tgz:188538.got - 2010.06.27 13:26:56.
