data_PCOD8000242
_publ_section_title
;
Structure prediction by ZEFSAII (Michael W. Deem and Ramdas Pophale) SiO2 
 PCOD8000242
Probable space group: P 1
;
_chemical_formula_sum "Si O2"
_cell_formula_units_Z 8
_cell_length_a 11.348092
_cell_length_b 14.089910
_cell_length_c 5.020760
_cell_angle_alpha 48.113160
_cell_angle_beta 59.279150
_cell_angle_gamma 32.402971
_cell_volume 317.438589
_symmetry_space_group_name_H-M "P 1"
_symmetry_group_IT_number 1
_symmetry_cell_setting 'triclinic'
loop_
_space_group_symop_operation_xyz
x,y,z
loop_
_atom_site_type_symbol
_atom_site_label
_atom_site_fract_x
_atom_site_fract_y
_atom_site_fract_z
Si Si1 0.315440 0.137300 0.233110
Si Si2 0.794424 0.747053 0.546388
Si Si3 0.452005 0.547948 0.359138
Si Si4 0.834527 0.090300 0.671665
Si Si5 0.658849 0.612379 0.304312
Si Si6 0.266447 0.908901 0.556916
Si Si7 0.968870 0.841627 0.493621
Si Si8 0.062234 0.400348 0.521242
O O1 0.192469 0.320568 0.240506
O O2 0.576419 0.975729 0.254161
O O3 0.262285 0.026031 0.561694
O O4 0.231480 0.217985 0.878980
O O5 0.900390 0.749862 0.658040
O O6 0.969272 0.602261 0.370739
O O7 0.739064 0.647108 0.910535
O O8 0.589698 0.330286 0.480790
O O9 0.618511 0.499064 0.458185
O O10 0.235992 0.652943 0.565896
O O11 0.370790 0.703032 0.935165
O O12 0.021466 0.059836 0.443540
O O13 0.856193 0.957099 0.690052
O O14 0.876379 0.009816 0.071122
O O15 0.429101 0.836253 0.268154
O O16 0.848334 0.466662 0.586674
#
# Coordination Sequence:
#
# PCOD8000242 Si02
#       8
#     1   1   1   1   1   1   1   1
#     4  12  26  43  72 108 152 187 243 299 373 438
#     4  12  28  50  75 109 158 193 246 310 371 438
#     4  11  25  49  76 107 150 193 244 312 371 431
#     4  11  27  47  76 106 146 196 249 300 364 441
#     4  12  22  48  77 111 149 193 238 315 375 427
#     4  11  24  42  74 111 148 189 244 305 372 436
#     4  11  29  49  75 107 147 199 250 296 364 449
#     4  12  27  44  69 113 144 198 238 301 368 440
#
# _framework density 25.201723999999999
#
# number of rings (size 3 to 8) (size 9 to 14) (size 15 to 20)
#    0.000    0.500    5.000    1.500    5.250    2.000 
#    0.000    0.000    0.000    0.000    0.000    0.000 
#    0.000    0.000    0.000    0.000    0.000    0.000 
#
# Total GULP energy -99213.355998 kJ/mol
# GULP energy per Si atom -12401.669500 kJ/mol
# Density = 2.514436 g / cm^3
# Si number density = 25.201724 Si / 1000 Ang^3
#
#
#
# Elastic Constant Matrix: (Units=GPa)
#
#
# Indices 1 2 3 4 5 6 
#
# 1 135.7106 32.4609 1.1934 -12.1180 12.0876 9.1556
# 2 32.4609 143.7334 11.1927 -23.0227 5.7069 19.6276
# 3 1.1934 11.1927 27.5906 -9.8729 21.1756 -5.5583
# 4 -12.1180 -23.0227 -9.8729 33.1890 2.2813 5.5577
# 5 12.0876 5.7069 21.1756 2.2813 35.6540 -1.2162
# 6 9.1556 19.6276 -5.5583 5.5577 -1.2162 44.5654
#
#
#
# Elastic Compliance Matrix: (Units=1/GPa)
#
#
# Indices 1 2 3 4 5 6 
#
# 1 0.008870 -0.001274 0.007889 0.005439 -0.007877 -0.001171
# 2 -0.001274 0.009028 -0.002301 0.005920 -0.000187 -0.004745
# 3 0.007889 -0.002301 0.098054 0.033795 -0.062510 0.005702
# 4 0.005439 0.005920 0.033795 0.049143 -0.026224 -0.006354
# 5 -0.007877 -0.000187 -0.062510 -0.026224 0.069520 -0.000928
# 6 -0.001171 -0.004745 0.005702 -0.006354 -0.000928 0.026247
#
#
# Mechanical properties :
#
#
# Convention : Reuss Voigt Hill
#
# Bulk Modulus (GPa) = 8.02694 44.08098 26.05396
# Shear Modulus (GPa) = 17.02068 40.16086 28.59077
#
# Velocity S-wave (km/s) = 2.60162 3.99629 3.37185
# Velocity P-wave (km/s) = 3.49522 6.23081 5.05171
#
# Compressibility (1/GPa) = 0.12458045
#
# Stress axis : x y z
#
# Youngs Moduli (GPa) = 112.73791 110.76870 10.19848
#
# Poissons Ratio (x) = 0.14109 -0.08045
# Poissons Ratio (y) = 0.14359 0.02346
# Poissons Ratio (z) = -0.88936 0.25484
#
# Static dielectric constant tensor:
#      x y z
#    x 4.684900 -0.072870 0.108640 
#    y -0.072870 4.821300 -0.104110 
#    z 0.108640 -0.104110 4.084240 
# 
# 
# High freq. dielectric constant tensor:
#      x y z
#    x 2.009500 0.001460 0.015810 
#    y 0.001460 2.018680 -0.007180 
#    z 0.015810 -0.007180 1.980620 
# 
# From -- ./inp_files/2492.got.cif
#   From: 2010.03.12/outbox.cif.g09.slc.cpg/sg1_2_cif.got.tgz:2492.got - 2010.03.29 11:57:58.
