data_PCOD8000416
_publ_section_title
;
Structure prediction by ZEFSAII (Michael W. Deem and Ramdas Pophale) SiO2 
 PCOD8000416
Probable space group: P -1
;
_chemical_formula_sum "Si O2"
_cell_formula_units_Z 16
_cell_length_a 11.725184
_cell_length_b 8.315647
_cell_length_c 14.252191
_cell_angle_alpha 98.815632
_cell_angle_beta 130.003630
_cell_angle_gamma 49.880518
_cell_volume 728.739740
_symmetry_space_group_name_H-M "P -1"
_symmetry_group_IT_number 2
_symmetry_cell_setting 'triclinic'
loop_
_space_group_symop_operation_xyz
x,y,z
-x,-y,-z
loop_
_atom_site_type_symbol
_atom_site_label
_atom_site_fract_x
_atom_site_fract_y
_atom_site_fract_z
Si Si1 0.116815 0.264359 0.095795
Si Si2 0.830159 0.581845 0.687902
Si Si3 0.527275 0.583594 0.416410
Si Si4 0.902587 0.050554 0.553699
Si Si5 0.528617 0.254011 0.804767
Si Si6 0.181942 0.729167 0.954645
Si Si7 0.932482 0.175935 0.761506
Si Si8 0.900331 0.398076 0.286645
O O1 0.230910 0.232819 0.251440
O O2 0.924218 0.292554 0.021581
O O3 0.303218 0.027125 0.113107
O O4 0.000000 0.500000 0.000000
O O5 0.633910 0.639601 0.542666
O O6 0.961455 0.346764 0.800350
O O7 0.975057 0.541122 0.677775
O O8 0.664013 0.312584 0.443821
O O9 0.470766 0.717238 0.302582
O O10 0.315633 0.687833 0.366657
O O11 0.035052 0.047034 0.702875
O O12 0.000000 0.000000 0.500000
O O13 0.927635 0.843092 0.582885
O O14 0.294559 0.389083 0.731425
O O15 0.592352 0.374599 0.900329
O O16 0.200850 0.616552 0.857489
O O17 0.036872 0.005249 0.889189
#
# Coordination Sequence:
#
# PCOD8000416 Si02
#       8
#     2   2   2   2   2   2   2   2
#     4  11  24  42  64  96 126 163 212 271 313 357
#     4  10  23  43  61  91 137 164 202 262 323 364
#     4  11  23  41  66  96 123 172 210 256 314 382
#     4  10  19  39  61  91 126 159 211 250 302 380
#     4  12  23  41  67  95 124 167 221 249 312 387
#     4  10  22  43  68  90 126 168 210 266 309 376
#     4  10  21  43  66  91 124 171 213 253 318 373
#     4  10  23  43  64  93 130 167 203 263 319 369
#
# _framework density 21.955712999999999
#
# number of rings (size 3 to 8) (size 9 to 14) (size 15 to 20)
#    0.000    1.500    2.500    3.000    1.750    1.000 
#    2.250    9.375    0.000    0.000    0.000    0.000 
#    0.000    0.000    0.000    0.000    0.000    0.000 
#
# Total GULP energy -198250.422911 kJ/mol
# GULP energy per Si atom -12390.651432 kJ/mol
# Density = 2.190574 g / cm^3
# Si number density = 21.955713 Si / 1000 Ang^3
#
#
#
# Elastic Constant Matrix: (Units=GPa)
#
#
# Indices 1 2 3 4 5 6 
#
# 1 123.4430 42.6065 30.4503 6.0907 -5.4556 15.4920
# 2 42.6065 92.9014 22.9683 -8.1634 -0.5641 2.2434
# 3 30.4503 22.9683 74.8465 6.6110 -0.0589 6.0999
# 4 6.0907 -8.1634 6.6110 35.7312 7.7243 -7.8737
# 5 -5.4556 -0.5641 -0.0589 7.7243 30.5551 -2.4055
# 6 15.4920 2.2434 6.0999 -7.8737 -2.4055 40.6502
#
#
#
# Elastic Compliance Matrix: (Units=1/GPa)
#
#
# Indices 1 2 3 4 5 6 
#
# 1 0.011190 -0.004783 -0.002375 -0.004064 0.002596 -0.004278
# 2 -0.004783 0.014138 -0.003086 0.005552 -0.001808 0.002474
# 3 -0.002375 -0.003086 0.015766 -0.003729 0.000335 -0.001993
# 4 -0.004064 0.005552 -0.003729 0.034258 -0.008667 0.007925
# 5 0.002596 -0.001808 0.000335 -0.008667 0.035308 -0.000529
# 6 -0.004278 0.002474 -0.001993 0.007925 -0.000529 0.027897
#
#
# Mechanical properties :
#
#
# Convention : Reuss Voigt Hill
#
# Bulk Modulus (GPa) = 48.53041 53.69343 51.11192
# Shear Modulus (GPa) = 30.13650 34.39838 32.26744
#
# Velocity S-wave (km/s) = 3.70889 3.96247 3.83777
# Velocity P-wave (km/s) = 6.36340 6.74117 6.55501
#
# Compressibility (1/GPa) = 0.02060564
#
# Stress axis : x y z
#
# Youngs Moduli (GPa) = 89.36854 70.73284 63.42766
#
# Poissons Ratio (x) = 0.33829 0.15064
# Poissons Ratio (y) = 0.42742 0.19575
# Poissons Ratio (z) = 0.21225 0.21829
#
# Static dielectric constant tensor:
#      x y z
#    x 3.946210 0.134050 -0.227190 
#    y 0.134050 4.112980 -0.027510 
#    z -0.227190 -0.027510 3.967690 
# 
# 
# High freq. dielectric constant tensor:
#      x y z
#    x 1.864070 0.007920 -0.028660 
#    y 0.007920 1.863920 0.006780 
#    z -0.028660 0.006780 1.860910 
# 
# From -- ./inp_files/239156.got.cif
#   From: 2010.06.25/outbox.cif.g09.slc.cpg/sg2_120_cif.got.tgz:239156.got - 2010.06.27 13:26:56.
