data_PCOD8000326
_publ_section_title
;
Structure prediction by ZEFSAII (Michael W. Deem and Ramdas Pophale) SiO2 
 PCOD8000326
Probable space group: P -1
;
_chemical_formula_sum "Si O2"
_cell_formula_units_Z 14
_cell_length_a 21.613361
_cell_length_b 15.123832
_cell_length_c 8.166181
_cell_angle_alpha 122.321446
_cell_angle_beta 144.520782
_cell_angle_gamma 33.021935
_cell_volume 746.019074
_symmetry_space_group_name_H-M "P -1"
_symmetry_group_IT_number 2
_symmetry_cell_setting 'triclinic'
loop_
_space_group_symop_operation_xyz
x,y,z
-x,-y,-z
loop_
_atom_site_type_symbol
_atom_site_label
_atom_site_fract_x
_atom_site_fract_y
_atom_site_fract_z
Si Si1 0.181558 0.901583 0.871751
Si Si2 0.856693 0.866832 0.784397
Si Si3 0.490998 0.481362 0.651660
Si Si4 0.729251 0.524111 0.674775
Si Si5 0.463152 0.123482 0.244431
Si Si6 0.396389 0.952801 0.865183
Si Si7 0.459285 0.715089 0.007558
O O1 0.302515 0.714179 0.034288
O O2 0.301089 0.861432 0.947976
O O3 0.000000 0.000000 0.500000
O O4 0.118893 0.034198 0.005492
O O5 0.684829 0.951874 0.598740
O O6 0.803484 0.910042 0.518205
O O7 0.047114 0.650683 0.011315
O O8 0.500000 0.500000 0.500000
O O9 0.349335 0.498747 0.389780
O O10 0.419273 0.638752 0.754207
O O11 0.656248 0.698073 0.733634
O O12 0.660237 0.550336 0.369004
O O13 0.443968 0.164032 0.047911
O O14 0.385632 0.069640 0.060724
O O15 0.456935 0.810853 0.970813
#
# Coordination Sequence:
#
# PCOD8000326 Si02
#       7
#     2   2   2   2   2   2   2
#     4  11  21  36  56  82 120 147 185 235 280 337
#     4  10  19  39  58  83 110 153 189 227 280 335
#     4  11  21  36  56  83 116 149 185 234 282 337
#     4  11  21  36  61  83 114 149 187 235 284 333
#     4   9  19  41  60  80 116 150 189 233 280 329
#     4   9  20  38  61  80 115 151 189 234 278 332
#     4  11  20  36  57  86 114 149 187 233 287 329
#
# _framework density 18.766276000000001
#
# number of rings (size 3 to 8) (size 9 to 14) (size 15 to 20)
#    0.857    0.857    2.857    5.143    0.000    2.286 
#    0.000    5.000    0.000    0.000    0.000    0.000 
#    0.000    0.000    0.000    0.000    0.000    0.000 
#
# Total GULP energy -173549.970671 kJ/mol
# GULP energy per Si atom -12396.426477 kJ/mol
# Density = 1.872356 g / cm^3
# Si number density = 18.766276 Si / 1000 Ang^3
#
#
#
# Elastic Constant Matrix: (Units=GPa)
#
#
# Indices 1 2 3 4 5 6 
#
# 1 30.9996 18.0097 39.4018 -11.5305 -7.2434 3.6879
# 2 18.0097 111.9586 60.0142 6.9265 12.0200 -4.1237
# 3 39.4018 60.0142 129.0457 -5.1444 3.0807 5.7867
# 4 -11.5305 6.9265 -5.1444 44.6438 -1.4302 1.4142
# 5 -7.2434 12.0200 3.0807 -1.4302 18.7086 1.7695
# 6 3.6879 -4.1237 5.7867 1.4142 1.7695 23.6497
#
#
#
# Elastic Compliance Matrix: (Units=1/GPa)
#
#
# Indices 1 2 3 4 5 6 
#
# 1 0.085944 -0.009195 -0.021487 0.023078 0.045862 -0.014559
# 2 -0.009195 0.014703 -0.004228 -0.005773 -0.013355 0.006376
# 3 -0.021487 -0.004228 0.016374 -0.003261 -0.008496 -0.000562
# 4 0.023078 -0.005773 -0.003261 0.029610 0.016086 -0.006782
# 5 0.045862 -0.013355 -0.008496 0.016086 0.083800 -0.014633
# 6 -0.014559 0.006376 -0.000562 -0.006782 -0.014633 0.047304
#
#
# Mechanical properties :
#
#
# Convention : Reuss Voigt Hill
#
# Bulk Modulus (GPa) = 21.18565 56.31725 38.75145
# Shear Modulus (GPa) = 13.76314 27.70563 20.73439
#
# Velocity S-wave (km/s) = 2.71107 3.84650 3.32757
# Velocity P-wave (km/s) = 4.59495 7.05708 5.95466
#
# Compressibility (1/GPa) = 0.04720176
#
# Stress axis : x y z
#
# Youngs Moduli (GPa) = 11.63545 68.01413 61.07222
#
# Poissons Ratio (x) = 0.62537 1.31228
# Poissons Ratio (y) = 0.10699 0.25818
# Poissons Ratio (z) = 0.25002 0.28753
#
# Static dielectric constant tensor:
#      x y z
#    x 3.156030 -0.019410 -0.091120 
#    y -0.019410 3.492280 0.219880 
#    z -0.091120 0.219880 3.680350 
# 
# 
# High freq. dielectric constant tensor:
#      x y z
#    x 1.699600 0.001240 -0.009470 
#    y 0.001240 1.733250 0.016550 
#    z -0.009470 0.016550 1.733550 
# 
# From -- ./inp_files/354439.got.cif
#   From: 2010.06.25/outbox.cif.g09.slc.cpg/sg2_178_cif.got.tgz:354439.got - 2010.06.27 13:26:56.
