data_PCOD8000867
_publ_section_title
;
Structure prediction by ZEFSAII (Michael W. Deem and Ramdas Pophale) SiO2 
 PCOD8000867
Probable space group: P -1
;
_chemical_formula_sum "Si O2"
_cell_formula_units_Z 12
_cell_length_a 8.301297
_cell_length_b 11.580626
_cell_length_c 14.273763
_cell_angle_alpha 56.606692
_cell_angle_beta 32.499805
_cell_angle_gamma 46.881693
_cell_volume 536.979482
_symmetry_space_group_name_H-M "P -1"
_symmetry_group_IT_number 2
_symmetry_cell_setting 'triclinic'
loop_
_space_group_symop_operation_xyz
x,y,z
-x,-y,-z
loop_
_atom_site_type_symbol
_atom_site_label
_atom_site_fract_x
_atom_site_fract_y
_atom_site_fract_z
Si Si1 0.239646 0.594875 0.894590
Si Si2 0.262451 0.328780 0.292504
Si Si3 0.858678 0.641505 0.255705
Si Si4 0.823110 0.154193 0.953426
Si Si5 0.478746 0.244882 0.894363
Si Si6 0.156771 0.842756 0.431722
O O1 0.491112 0.670866 0.745186
O O2 0.468390 0.415639 0.823534
O O3 0.082664 0.584015 0.076472
O O4 0.924756 0.709504 0.929245
O O5 0.955563 0.504826 0.345744
O O6 0.129934 0.205257 0.434727
O O7 0.474060 0.283348 0.113416
O O8 0.457795 0.704633 0.406198
O O9 0.910930 0.779488 0.216697
O O10 0.696666 0.130255 0.924305
O O11 0.000000 0.000000 0.000000
O O12 0.672464 0.140060 0.755296
O O13 0.000000 0.000000 0.500000
#
# Coordination Sequence:
#
# PCOD8000867 Si02
#       6
#     2   2   2   2   2   2
#     4   9  18  37  69  97 120 156 219 269 305 366
#     4  11  20  40  65  93 123 168 216 260 315 378
#     4  10  19  40  64  91 125 167 214 260 311 378
#     4  11  21  39  68  96 126 168 210 262 319 377
#     4  10  20  40  66  93 133 160 211 264 313 380
#     4  11  25  41  59  92 137 171 205 260 329 373
#
# _framework density 22.347221999999999
#
# number of rings (size 3 to 8) (size 9 to 14) (size 15 to 20)
#    0.000    1.667    3.333    2.500    0.000    0.667 
#    0.000   16.667    0.000    0.000    0.000    0.000 
#    0.000    0.000    0.000    0.000    0.000    0.000 
#
# Total GULP energy -148744.510745 kJ/mol
# GULP energy per Si atom -12395.375895 kJ/mol
# Density = 2.229636 g / cm^3
# Si number density = 22.347222 Si / 1000 Ang^3
#
#
#
# Elastic Constant Matrix: (Units=GPa)
#
#
# Indices 1 2 3 4 5 6 
#
# 1 167.5065 65.5996 37.4374 4.6460 -19.6355 -15.8232
# 2 65.5996 116.9054 32.0552 1.6859 -3.7413 -1.7778
# 3 37.4374 32.0552 53.3856 8.6478 -20.5199 7.8968
# 4 4.6460 1.6859 8.6478 28.4710 10.9385 1.6282
# 5 -19.6355 -3.7413 -20.5199 10.9385 41.3379 -1.6104
# 6 -15.8232 -1.7778 7.8968 1.6282 -1.6104 38.9278
#
#
#
# Elastic Compliance Matrix: (Units=1/GPa)
#
#
# Indices 1 2 3 4 5 6 
#
# 1 0.009060 -0.004034 -0.003153 -0.001677 0.002986 0.004332
# 2 -0.004034 0.012698 -0.007770 0.004493 -0.005809 0.000088
# 3 -0.003153 -0.007770 0.037775 -0.018150 0.021054 -0.007669
# 4 -0.001677 0.004493 -0.018150 0.049246 -0.022422 0.000218
# 5 0.002986 -0.005809 0.021054 -0.022422 0.041442 -0.000671
# 6 0.004332 0.000088 -0.007669 0.000218 -0.000671 0.028972
#
#
# Mechanical properties :
#
#
# Convention : Reuss Voigt Hill
#
# Bulk Modulus (GPa) = 33.76002 67.55354 50.65678
# Shear Modulus (GPa) = 22.83319 35.26105 29.04712
#
# Velocity S-wave (km/s) = 3.19994 3.97655 3.60920
# Velocity P-wave (km/s) = 5.36588 7.16789 6.33132
#
# Compressibility (1/GPa) = 0.02962083
#
# Stress axis : x y z
#
# Youngs Moduli (GPa) = 110.37550 78.74956 26.47246
#
# Poissons Ratio (x) = 0.31766 0.08346
# Poissons Ratio (y) = 0.44523 0.20568
# Poissons Ratio (z) = 0.34800 0.61187
#
# Static dielectric constant tensor:
#      x y z
#    x 4.379750 0.112560 -0.318090 
#    y 0.112560 3.776620 0.267790 
#    z -0.318090 0.267790 3.699470 
# 
# 
# High freq. dielectric constant tensor:
#      x y z
#    x 1.896990 0.004620 -0.023650 
#    y 0.004620 1.866200 0.018210 
#    z -0.023650 0.018210 1.845690 
# 
# From -- ./inp_files/144822.got.cif
#   From: 2010.06.25/outbox.cif.g09.slc.cpg/sg2_73_cif.got.tgz:144822.got - 2010.06.27 13:26:56.
