data_PCOD8000065
_publ_section_title
;
Structure prediction by ZEFSAII (Michael W. Deem and Ramdas Pophale) SiO2 
 PCOD8000065
Probable space group: P 1
;
_chemical_formula_sum "Si O2"
_cell_formula_units_Z 8
_cell_length_a 15.816749
_cell_length_b 9.304260
_cell_length_c 11.738720
_cell_angle_alpha 141.000444
_cell_angle_beta 155.905940
_cell_angle_gamma 27.516993
_cell_volume 320.964408
_symmetry_space_group_name_H-M "P 1"
_symmetry_group_IT_number 1
_symmetry_cell_setting 'triclinic'
loop_
_space_group_symop_operation_xyz
x,y,z
loop_
_atom_site_type_symbol
_atom_site_label
_atom_site_fract_x
_atom_site_fract_y
_atom_site_fract_z
Si Si1 0.600270 0.890370 0.022870
Si Si2 0.183895 0.958509 0.946579
Si Si3 0.675776 0.730193 0.257743
Si Si4 0.120600 0.685563 0.891905
Si Si5 0.618863 0.341106 0.732133
Si Si6 0.224901 0.353674 0.404997
Si Si7 0.241132 0.112066 0.508187
Si Si8 0.536179 0.400881 0.417996
O O1 0.592204 0.974891 0.201772
O O2 0.911714 0.709253 0.243467
O O3 0.555655 0.654597 0.837916
O O4 0.357786 0.156374 0.795806
O O5 0.222448 0.147006 0.188678
O O6 0.398930 0.810826 0.013881
O O7 0.252116 0.675680 0.928135
O O8 0.860763 0.192395 0.646467
O O9 0.891920 0.374342 0.248568
O O10 0.857208 0.710086 0.568697
O O11 0.368675 0.399095 0.105484
O O12 0.962125 0.026414 0.968297
O O13 0.444939 0.374079 0.643681
O O14 0.516775 0.303981 0.461092
O O15 0.332404 0.194929 0.563606
O O16 0.387482 0.759138 0.463567
#
# Coordination Sequence:
#
# PCOD8000065 Si02
#       8
#     1   1   1   1   1   1   1   1
#     4  10  22  44  61  93 135 165 207 265 317 375
#     4  11  22  41  66  95 127 167 212 268 309 373
#     4  11  25  39  64  96 136 164 202 266 331 366
#     4  11  21  40  62  97 130 165 210 265 313 375
#     4  10  21  38  67  96 121 169 216 261 305 381
#     4  11  19  39  68  94 120 168 214 259 314 371
#     4  10  21  41  66  92 126 169 206 263 314 376
#     4  10  21  42  68  91 129 167 217 259 309 377
#
# _framework density 24.924880999999999
#
# number of rings (size 3 to 8) (size 9 to 14) (size 15 to 20)
#    0.000    1.500    6.250    0.750    0.000    6.000 
#    2.250    2.500    0.000    0.000    0.000    0.000 
#    0.000    0.000    0.000    0.000    0.000    0.000 
#
# Total GULP energy -99194.274054 kJ/mol
# GULP energy per Si atom -12399.284257 kJ/mol
# Density = 2.486815 g / cm^3
# Si number density = 24.924881 Si / 1000 Ang^3
#
#
#
# Elastic Constant Matrix: (Units=GPa)
#
#
# Indices 1 2 3 4 5 6 
#
# 1 191.7608 43.4925 85.6615 -27.0355 23.2425 6.7367
# 2 43.4925 67.0160 39.7789 -25.8943 -5.9680 6.4401
# 3 85.6615 39.7789 142.0240 -32.3359 -10.9704 12.1626
# 4 -27.0355 -25.8943 -32.3359 50.3402 -0.6216 -14.6345
# 5 23.2425 -5.9680 -10.9704 -0.6216 55.4220 5.9366
# 6 6.7367 6.4401 12.1626 -14.6345 5.9366 36.1176
#
#
#
# Elastic Compliance Matrix: (Units=1/GPa)
#
#
# Indices 1 2 3 4 5 6 
#
# 1 0.008710 -0.003303 -0.004791 0.000285 -0.005118 0.001534
# 2 -0.003303 0.021692 -0.001966 0.008216 0.003405 0.000179
# 3 -0.004791 -0.001966 0.011779 0.003441 0.004387 -0.002049
# 4 0.000285 0.008216 0.003441 0.029072 0.000812 0.008969
# 5 -0.005118 0.003405 0.004387 0.000812 0.021905 -0.004401
# 6 0.001534 0.000179 -0.002049 0.008969 -0.004401 0.032417
#
#
# Mechanical properties :
#
#
# Convention : Reuss Voigt Hill
#
# Bulk Modulus (GPa) = 45.32190 82.07405 63.69798
# Shear Modulus (GPa) = 32.66954 43.83382 38.25168
#
# Velocity S-wave (km/s) = 3.62431 4.19816 3.92175
# Velocity P-wave (km/s) = 5.97805 7.51661 6.79104
#
# Compressibility (1/GPa) = 0.02206439
#
# Stress axis : x y z
#
# Youngs Moduli (GPa) = 114.80486 46.09892 84.89901
#
# Poissons Ratio (x) = 0.15224 0.40671
# Poissons Ratio (y) = 0.37915 0.16687
# Poissons Ratio (z) = 0.54998 0.09061
#
# Static dielectric constant tensor:
#      x y z
#    x 5.120410 -0.366400 -0.829900 
#    y -0.366400 5.011250 0.123270 
#    z -0.829900 0.123270 5.172660 
# 
# 
# High freq. dielectric constant tensor:
#      x y z
#    x 1.987330 -0.017580 -0.036000 
#    y -0.017580 2.042350 0.005130 
#    z -0.036000 0.005130 2.003220 
# 
# From -- ./inp_files/6831.got.cif
#   From: 2010.03.12/outbox.cif.g09.slc.cpg/sg1_4_cif.got.tgz:6831.got - 2010.03.29 11:57:58.
