data_PCOD8000727
_publ_section_title
;
Structure prediction by ZEFSAII (Michael W. Deem and Ramdas Pophale) SiO2 
 PCOD8000727
Probable space group: P -1
;
_chemical_formula_sum "Si O2"
_cell_formula_units_Z 16
_cell_length_a 15.000002
_cell_length_b 26.399669
_cell_length_c 8.097780
_cell_angle_alpha 42.150627
_cell_angle_beta 52.641931
_cell_angle_gamma 20.726529
_cell_volume 709.148729
_symmetry_space_group_name_H-M "P -1"
_symmetry_group_IT_number 2
_symmetry_cell_setting 'triclinic'
loop_
_space_group_symop_operation_xyz
x,y,z
-x,-y,-z
loop_
_atom_site_type_symbol
_atom_site_label
_atom_site_fract_x
_atom_site_fract_y
_atom_site_fract_z
Si Si1 0.094375 0.438992 0.311327
Si Si2 0.314685 0.199270 0.027565
Si Si3 0.573903 0.530014 0.250802
Si Si4 0.316257 0.915337 0.919996
Si Si5 0.776177 0.542514 0.178855
Si Si6 0.652364 0.027661 0.773091
Si Si7 0.078144 0.190189 0.325444
Si Si8 0.987920 0.076194 0.204452
O O1 0.410853 0.231423 0.491595
O O2 0.930956 0.591887 0.262704
O O3 0.938170 0.458118 0.375872
O O4 0.063267 0.516077 0.007128
O O5 0.508535 0.061438 0.986689
O O6 0.473220 0.150616 0.099663
O O7 0.224022 0.175996 0.268514
O O8 0.500000 0.500000 0.500000
O O9 0.738634 0.477843 0.329273
O O10 0.758998 0.401219 0.191906
O O11 0.316992 0.729020 0.983885
O O12 0.106958 0.092888 0.621374
O O13 0.470927 0.761694 0.002854
O O14 0.174818 0.952243 0.131958
O O15 0.801284 0.888269 0.803517
O O16 0.900657 0.919537 0.836757
O O17 0.000000 0.000000 0.500000
#
# Coordination Sequence:
#
# PCOD8000727 Si02
#       8
#     2   2   2   2   2   2   2   2
#     4  10  19  39  68  99 132 169 223 282 341 399
#     4  10  22  39  65 100 137 171 220 285 352 394
#     4  12  26  46  68  99 138 182 233 277 332 405
#     4  10  22  42  69 100 128 178 230 279 338 408
#     4  10  21  39  68 101 127 172 229 283 325 398
#     4  11  24  42  64 100 139 176 224 277 350 413
#     4  12  23  40  67  96 138 179 223 286 334 404
#     4  11  26  46  70  95 137 183 226 282 337 405
#
# _framework density 22.562262
#
# number of rings (size 3 to 8) (size 9 to 14) (size 15 to 20)
#    0.000    1.250    3.750    1.875    0.000    3.000 
#    2.250    0.000    0.000    0.000    0.000    0.000 
#    0.000    0.000    0.000    0.000    0.000    0.000 
#
# Total GULP energy -198230.483544 kJ/mol
# GULP energy per Si atom -12389.405221 kJ/mol
# Density = 2.251091 g / cm^3
# Si number density = 22.562262 Si / 1000 Ang^3
#
#
#
# Elastic Constant Matrix: (Units=GPa)
#
#
# Indices 1 2 3 4 5 6 
#
# 1 76.8064 43.6393 6.4054 -1.6823 -6.5568 3.0895
# 2 43.6393 147.5662 17.5419 -1.9756 -15.3982 8.1971
# 3 6.4054 17.5419 58.3465 13.4167 -9.7917 -7.0580
# 4 -1.6823 -1.9756 13.4167 35.6846 -10.0237 -7.8844
# 5 -6.5568 -15.3982 -9.7917 -10.0237 23.4240 -5.6303
# 6 3.0895 8.1971 -7.0580 -7.8844 -5.6303 31.1152
#
#
#
# Elastic Compliance Matrix: (Units=1/GPa)
#
#
# Indices 1 2 3 4 5 6 
#
# 1 0.015735 -0.004406 -0.000335 0.001203 0.001925 0.000176
# 2 -0.004406 0.008864 -0.002047 0.002044 0.004359 -0.001055
# 3 -0.000335 -0.002047 0.020610 -0.004985 0.006273 0.005120
# 4 0.001203 0.002044 -0.004985 0.037682 0.018386 0.011087
# 5 0.001925 0.004359 0.006273 0.018386 0.060350 0.015663
# 6 0.000176 -0.001055 0.005120 0.011087 0.015663 0.039204
#
#
# Mechanical properties :
#
#
# Convention : Reuss Voigt Hill
#
# Bulk Modulus (GPa) = 31.61464 46.43248 39.02356
# Shear Modulus (GPa) = 24.20544 32.38693 28.29618
#
# Velocity S-wave (km/s) = 3.27896 3.79284 3.54522
# Velocity P-wave (km/s) = 5.32710 6.30914 5.83880
#
# Compressibility (1/GPa) = 0.03163092
#
# Stress axis : x y z
#
# Youngs Moduli (GPa) = 63.55356 112.81836 48.52112
#
# Poissons Ratio (x) = 0.49709 0.01626
# Poissons Ratio (y) = 0.28002 0.09934
# Poissons Ratio (z) = 0.02130 0.23099
#
# Static dielectric constant tensor:
#      x y z
#    x 4.061410 0.229680 -0.171470 
#    y 0.229680 4.191980 0.279170 
#    z -0.171470 0.279170 3.552630 
# 
# 
# High freq. dielectric constant tensor:
#      x y z
#    x 1.880830 0.006400 -0.007730 
#    y 0.006400 1.915860 0.000940 
#    z -0.007730 0.000940 1.867260 
# 
# From -- ./inp_files/273491.got.cif
#   From: 2010.06.25/outbox.cif.g09.slc.cpg/sg2_137_cif.got.tgz:273491.got - 2010.06.27 13:26:56.
