data_PCOD8000407
_publ_section_title
;
Structure prediction by ZEFSAII (Michael W. Deem and Ramdas Pophale) SiO2 
 PCOD8000407
Probable space group: P -1
;
_chemical_formula_sum "Si O2"
_cell_formula_units_Z 16
_cell_length_a 15.176823
_cell_length_b 9.010223
_cell_length_c 14.555322
_cell_angle_alpha 138.224519
_cell_angle_beta 139.717520
_cell_angle_gamma 64.116265
_cell_volume 815.863962
_symmetry_space_group_name_H-M "P -1"
_symmetry_group_IT_number 2
_symmetry_cell_setting 'triclinic'
loop_
_space_group_symop_operation_xyz
x,y,z
-x,-y,-z
loop_
_atom_site_type_symbol
_atom_site_label
_atom_site_fract_x
_atom_site_fract_y
_atom_site_fract_z
Si Si1 0.468795 0.728698 0.331829
Si Si2 0.153799 0.601374 0.290007
Si Si3 0.562888 0.433572 0.427921
Si Si4 0.161795 0.110613 0.588733
Si Si5 0.158123 0.538741 0.054464
Si Si6 0.151896 0.070133 0.764258
Si Si7 0.592912 0.046454 0.005935
Si Si8 0.606256 0.555557 0.191891
O O1 0.528917 0.590214 0.392533
O O2 0.295906 0.638450 0.144677
O O3 0.545846 0.691424 0.283312
O O4 0.500000 0.000000 0.500000
O O5 0.265282 0.506588 0.393298
O O6 0.197285 0.636329 0.233253
O O7 0.166334 0.850177 0.457355
O O8 0.989757 0.420828 0.082570
O O9 0.500000 0.500000 0.500000
O O10 0.486731 0.155129 0.223107
O O11 0.223369 0.180930 0.773974
O O12 0.243755 0.278632 0.650650
O O13 0.999910 0.124839 0.465926
O O14 0.123789 0.259949 0.898484
O O15 0.249632 0.954776 0.845406
O O16 0.500000 0.000000 0.000000
O O17 0.619952 0.308984 0.117695
O O18 0.500000 0.500000 0.000000
#
# Coordination Sequence:
#
# PCOD8000407 Si02
#       8
#     2   2   2   2   2   2   2   2
#     4  12  25  41  62  92 129 163 206 262 312 367
#     4  10  20  36  66  88 117 159 209 254 299 375
#     4  12  23  40  64  95 121 162 216 256 308 367
#     4  10  22  38  63  90 122 159 206 253 315 371
#     4  10  19  39  61  89 119 159 204 249 309 365
#     4  10  20  40  63  89 119 161 205 255 310 375
#     4  12  22  39  64  90 125 163 210 258 305 372
#     4  12  25  39  61  90 127 164 208 259 314 366
#
# _framework density 19.611111999999999
#
# number of rings (size 3 to 8) (size 9 to 14) (size 15 to 20)
#    0.000    1.000    3.750    3.750    1.750    0.500 
#    0.000    0.625    2.750    0.000    0.000    0.000 
#    0.000    0.000    0.000    0.000    0.000    0.000 
#
# Total GULP energy -198288.066460 kJ/mol
# GULP energy per Si atom -12393.004154 kJ/mol
# Density = 1.956648 g / cm^3
# Si number density = 19.611112 Si / 1000 Ang^3
#
#
#
# Elastic Constant Matrix: (Units=GPa)
#
#
# Indices 1 2 3 4 5 6 
#
# 1 131.6454 42.0727 48.2268 -4.3596 1.6144 -4.4863
# 2 42.0727 99.8836 50.7279 -12.7476 14.6839 -15.9695
# 3 48.2268 50.7279 98.7665 -10.1808 3.1687 -10.3067
# 4 -4.3596 -12.7476 -10.1808 36.2456 -7.5509 3.4732
# 5 1.6144 14.6839 3.1687 -7.5509 47.3368 2.4997
# 6 -4.4863 -15.9695 -10.3067 3.4732 2.4997 28.6594
#
#
#
# Elastic Compliance Matrix: (Units=1/GPa)
#
#
# Indices 1 2 3 4 5 6 
#
# 1 0.009680 -0.002623 -0.003582 -0.000498 0.000709 -0.001236
# 2 -0.002623 0.016125 -0.005952 0.002111 -0.004524 0.006573
# 3 -0.003582 -0.005952 0.015219 0.001875 0.001182 0.001265
# 4 -0.000498 0.002111 0.001875 0.029868 0.004117 -0.002206
# 5 0.000709 -0.004524 0.001182 0.004117 0.023321 -0.004518
# 6 -0.001236 0.006573 0.001265 -0.002206 -0.004518 0.039478
#
#
# Mechanical properties :
#
#
# Convention : Reuss Voigt Hill
#
# Bulk Modulus (GPa) = 59.85389 68.03893 63.94641
# Shear Modulus (GPa) = 30.56697 35.06623 32.81660
#
# Velocity S-wave (km/s) = 3.95226 4.23316 4.09512
# Velocity P-wave (km/s) = 7.17034 7.65913 7.41876
#
# Compressibility (1/GPa) = 0.01670735
#
# Stress axis : x y z
#
# Youngs Moduli (GPa) = 103.31078 62.01466 65.70871
#
# Poissons Ratio (x) = 0.16269 0.23538
# Poissons Ratio (y) = 0.27103 0.39113
# Poissons Ratio (z) = 0.37007 0.36914
#
# Static dielectric constant tensor:
#      x y z
#    x 3.709020 -0.407040 -0.006160 
#    y -0.407040 3.344730 -0.371780 
#    z -0.006160 -0.371780 4.013000 
# 
# 
# High freq. dielectric constant tensor:
#      x y z
#    x 1.777970 -0.026250 -0.010710 
#    y -0.026250 1.746560 -0.013560 
#    z -0.010710 -0.013560 1.778500 
# 
# From -- ./inp_files/312376.got.cif
#   From: 2010.06.25/outbox.cif.g09.slc.cpg/sg2_157_cif.got.tgz:312376.got - 2010.06.27 13:26:56.
