data_PCOD8000811
_publ_section_title
;
Structure prediction by ZEFSAII (Michael W. Deem and Ramdas Pophale) SiO2 
 PCOD8000811
Probable space group: P -1
;
_chemical_formula_sum "Si O2"
_cell_formula_units_Z 16
_cell_length_a 5.239842
_cell_length_b 15.507865
_cell_length_c 14.105314
_cell_angle_alpha 84.645603
_cell_angle_beta 57.378792
_cell_angle_gamma 84.263727
_cell_volume 959.475586
_symmetry_space_group_name_H-M "P -1"
_symmetry_group_IT_number 2
_symmetry_cell_setting 'triclinic'
loop_
_space_group_symop_operation_xyz
x,y,z
-x,-y,-z
loop_
_atom_site_type_symbol
_atom_site_label
_atom_site_fract_x
_atom_site_fract_y
_atom_site_fract_z
Si Si1 0.486311 0.737932 0.967784
Si Si2 0.174807 0.068373 0.399186
Si Si3 0.198670 0.704421 0.831775
Si Si4 0.686219 0.435635 0.897762
Si Si5 0.247671 0.971277 0.816308
Si Si6 0.268964 0.848058 0.664857
Si Si7 0.786882 0.493524 0.135202
Si Si8 0.717375 0.076062 0.974740
O O1 0.384633 0.746078 0.876778
O O2 0.838436 0.713038 0.915490
O O3 0.299749 0.663307 0.060297
O O4 0.418233 0.827324 0.030365
O O5 0.932770 0.136425 0.390279
O O6 0.399532 0.015871 0.284016
O O7 0.614826 0.877399 0.577849
O O8 0.000000 0.000000 0.500000
O O9 0.282386 0.749545 0.710617
O O10 0.300074 0.603464 0.814369
O O11 0.525689 0.448332 0.826176
O O12 0.031876 0.465068 0.818445
O O13 0.500000 0.500000 0.000000
O O14 0.035077 0.060455 0.854314
O O15 0.105485 0.907158 0.774484
O O16 0.218568 0.924572 0.926758
O O17 0.000000 0.500000 0.000000
O O18 0.500000 0.000000 0.000000
#
# Coordination Sequence:
#
# PCOD8000811 Si02
#       8
#     2   2   2   2   2   2   2   2
#     4  12  20  27  45  59  89 132 164 194 229 263
#     4  10  20  36  54  69  90 123 162 208 251 288
#     4  12  18  29  44  66  91 124 161 198 227 281
#     4  10  16  28  37  60  82 116 168 188 221 277
#     4   9  20  32  48  65  94 125 161 200 231 279
#     4  10  20  33  48  73  91 119 165 195 246 288
#     4  10  16  27  41  57  88 118 160 188 228 274
#     4  11  21  33  44  68 100 131 168 199 229 283
#
# _framework density 16.675775999999999
#
# number of rings (size 3 to 8) (size 9 to 14) (size 15 to 20)
#    0.750    0.750    6.250    3.375    1.750    0.000 
#    0.000    0.000    0.000    0.000    0.000    0.000 
#    0.000    0.000    0.000    6.750    0.500    0.000 
#
# Total GULP energy -198211.499360 kJ/mol
# GULP energy per Si atom -12388.218710 kJ/mol
# Density = 1.663782 g / cm^3
# Si number density = 16.675776 Si / 1000 Ang^3
#
#
#
# Elastic Constant Matrix: (Units=GPa)
#
#
# Indices 1 2 3 4 5 6 
#
# 1 116.1900 22.0961 9.5091 -7.7627 1.1847 -10.4939
# 2 22.0961 94.5269 19.5376 -25.8511 -3.0664 1.6603
# 3 9.5091 19.5376 41.1744 -16.1232 -9.1355 -4.4428
# 4 -7.7627 -25.8511 -16.1232 21.7596 1.1081 1.9024
# 5 1.1847 -3.0664 -9.1355 1.1081 19.1287 -7.7357
# 6 -10.4939 1.6603 -4.4428 1.9024 -7.7357 26.2318
#
#
#
# Elastic Compliance Matrix: (Units=1/GPa)
#
#
# Indices 1 2 3 4 5 6 
#
# 1 0.009412 -0.002124 -0.000689 -0.000032 0.000318 0.003879
# 2 -0.002124 0.016304 -0.000193 0.018734 0.000277 -0.003191
# 3 -0.000689 -0.000193 0.042104 0.028526 0.023171 0.011632
# 4 -0.000032 0.018734 0.028526 0.088681 0.011763 0.000670
# 5 0.000318 0.000277 0.023171 0.011763 0.072636 0.024601
# 6 0.003879 -0.003191 0.011632 0.000670 0.024601 0.049052
#
#
# Mechanical properties :
#
#
# Convention : Reuss Voigt Hill
#
# Bulk Modulus (GPa) = 16.17920 39.35299 27.76609
# Shear Modulus (GPa) = 16.40407 26.80725 21.60566
#
# Velocity S-wave (km/s) = 3.13981 4.01378 3.60339
# Velocity P-wave (km/s) = 4.78203 6.71794 5.83089
#
# Compressibility (1/GPa) = 0.06180776
#
# Stress axis : x y z
#
# Youngs Moduli (GPa) = 106.24822 61.33596 23.75066
#
# Poissons Ratio (x) = 0.13029 0.01637
# Poissons Ratio (y) = 0.22569 0.00458
# Poissons Ratio (z) = 0.07321 0.01182
#
# Static dielectric constant tensor:
#      x y z
#    x -26.211550 1.547170 0.211610 
#    y 1.547170 3.074920 -0.218090 
#    z 0.211610 -0.218090 2.613310 
# 
# 
# High freq. dielectric constant tensor:
#      x y z
#    x 1.673110 -0.008270 -0.000430 
#    y -0.008270 1.628930 -0.035530 
#    z -0.000430 -0.035530 1.567260 
# 
# From -- ./inp_files/483580.got.cif
#   From: 2010.06.25/outbox.cif.g09.slc.cpg/sg2_242_cif.got.tgz:483580.got - 2010.06.27 13:26:56.
