data_PCOD8000157
_publ_section_title
;
Structure prediction by ZEFSAII (Michael W. Deem and Ramdas Pophale) SiO2 
 PCOD8000157
Probable space group: P 1
;
_chemical_formula_sum "Si O2"
_cell_formula_units_Z 8
_cell_length_a 8.919046
_cell_length_b 5.058341
_cell_length_c 9.524144
_cell_angle_alpha 106.639110
_cell_angle_beta 114.865169
_cell_angle_gamma 94.681258
_cell_volume 363.304981
_symmetry_space_group_name_H-M "P 1"
_symmetry_group_IT_number 1
_symmetry_cell_setting 'triclinic'
loop_
_space_group_symop_operation_xyz
x,y,z
loop_
_atom_site_type_symbol
_atom_site_label
_atom_site_fract_x
_atom_site_fract_y
_atom_site_fract_z
Si Si1 0.271430 0.836520 0.760830
Si Si2 0.610490 0.947999 0.064801
Si Si3 0.160521 0.266708 0.994100
Si Si4 0.999318 0.107164 0.184039
Si Si5 0.532111 0.517018 0.212974
Si Si6 0.975854 0.469519 0.730472
Si Si7 0.075893 0.737679 0.405361
Si Si8 0.815018 0.829699 0.539565
O O1 0.243349 0.861231 0.586224
O O2 0.151611 0.534821 0.718658
O O3 0.469574 0.861438 0.873133
O O4 0.201862 0.077239 0.853034
O O5 0.596428 0.680585 0.119742
O O6 0.577420 0.211026 0.180920
O O7 0.795669 0.020103 0.080149
O O8 0.072126 0.059280 0.051816
O O9 0.331166 0.481972 0.147071
O O10 0.031337 0.453678 0.912957
O O11 0.073115 0.433003 0.297424
O O12 0.077307 0.937002 0.303695
O O13 0.616907 0.695736 0.409590
O O14 0.871665 0.711961 0.692577
O O15 0.854448 0.167614 0.596174
O O16 0.910208 0.711159 0.432286
#
# Coordination Sequence:
#
# PCOD8000157 Si02
#       8
#     1   1   1   1   1   1   1   1
#     4  10  23  40  68  89 122 165 218 244 298 376
#     4  11  21  39  61  93 121 163 208 252 302 370
#     4  11  25  41  64  96 129 159 205 261 317 358
#     4  12  25  40  63  95 130 160 198 264 321 355
#     4  11  22  38  62  92 123 162 211 252 296 371
#     4  11  20  37  62  91 116 163 206 254 293 366
#     4  11  22  39  64  91 123 166 210 245 308 372
#     4  11  20  36  64  91 116 156 218 250 287 358
#
# _framework density 22.020067000000001
#
# number of rings (size 3 to 8) (size 9 to 14) (size 15 to 20)
#    0.000    1.000    6.250    2.250    1.750    0.000 
#    0.000    2.500    0.000    0.000    3.250    0.000 
#    0.000    0.000    0.000    0.000    0.000    0.000 
#
# Total GULP energy -99182.132389 kJ/mol
# GULP energy per Si atom -12397.766549 kJ/mol
# Density = 2.196995 g / cm^3
# Si number density = 22.020067 Si / 1000 Ang^3
#
#
#
# Elastic Constant Matrix: (Units=GPa)
#
#
# Indices 1 2 3 4 5 6 
#
# 1 64.0674 23.8508 51.5307 -6.4827 24.8467 19.2366
# 2 23.8508 134.9134 51.7444 -14.4295 13.1252 6.5826
# 3 51.5307 51.7444 134.1440 -23.4878 46.9478 18.6587
# 4 -6.4827 -14.4295 -23.4878 47.6098 5.2859 3.2485
# 5 24.8467 13.1252 46.9478 5.2859 40.7485 3.5228
# 6 19.2366 6.5826 18.6587 3.2485 3.5228 24.0892
#
#
#
# Elastic Compliance Matrix: (Units=1/GPa)
#
#
# Indices 1 2 3 4 5 6 
#
# 1 0.030308 -0.001524 -0.002084 0.005670 -0.014525 -0.020813
# 2 -0.001524 0.008870 -0.003761 0.000284 0.002253 0.001339
# 3 -0.002084 -0.003761 0.021811 0.012770 -0.023221 -0.012529
# 4 0.005670 0.000284 0.012770 0.031564 -0.021000 -0.015682
# 5 -0.014525 0.002253 -0.023221 -0.021000 0.060161 0.023004
# 6 -0.020813 0.001339 -0.012529 -0.015682 0.023004 0.066222
#
#
# Mechanical properties :
#
#
# Convention : Reuss Voigt Hill
#
# Bulk Modulus (GPa) = 21.62059 65.26405 43.44232
# Shear Modulus (GPa) = 20.07308 36.22277 28.14793
#
# Velocity S-wave (km/s) = 3.02252 4.06025 3.57919
# Velocity P-wave (km/s) = 4.69262 7.18913 6.07060
#
# Compressibility (1/GPa) = 0.04625222
#
# Stress axis : x y z
#
# Youngs Moduli (GPa) = 32.99500 112.74041 45.84754
#
# Poissons Ratio (x) = 0.17180 0.09552
# Poissons Ratio (y) = 0.05028 0.17243
# Poissons Ratio (z) = 0.06875 0.42401
#
# Static dielectric constant tensor:
#      x y z
#    x 3.634090 0.043200 0.490140 
#    y 0.043200 4.086540 -0.117390 
#    z 0.490140 -0.117390 4.252110 
# 
# 
# High freq. dielectric constant tensor:
#      x y z
#    x 1.816760 0.003110 0.037180 
#    y 0.003110 1.885290 -0.002470 
#    z 0.037180 -0.002470 1.876330 
# 
# From -- ./inp_files/2860.got.cif
#   From: 2010.03.12/outbox.cif.g09.slc.cpg/sg1_2_cif.got.tgz:2860.got - 2010.03.29 11:57:58.
