data_PCOD8000355
_publ_section_title
;
Structure prediction by ZEFSAII (Michael W. Deem and Ramdas Pophale) SiO2 
 PCOD8000355
Probable space group: P -1
;
_chemical_formula_sum "Si O2"
_cell_formula_units_Z 16
_cell_length_a 14.693276
_cell_length_b 7.261184
_cell_length_c 11.235629
_cell_angle_alpha 54.574250
_cell_angle_beta 104.091611
_cell_angle_gamma 73.620950
_cell_volume 800.210815
_symmetry_space_group_name_H-M "P -1"
_symmetry_group_IT_number 2
_symmetry_cell_setting 'triclinic'
loop_
_space_group_symop_operation_xyz
x,y,z
-x,-y,-z
loop_
_atom_site_type_symbol
_atom_site_label
_atom_site_fract_x
_atom_site_fract_y
_atom_site_fract_z
Si Si1 0.842795 0.392616 0.837334
Si Si2 0.261944 0.256122 0.891586
Si Si3 0.623956 0.733553 0.509142
Si Si4 0.763310 0.852644 0.825482
Si Si5 0.576191 0.231258 0.463599
Si Si6 0.380502 0.536487 0.825540
Si Si7 0.921012 0.803151 0.074506
Si Si8 0.396545 0.936951 0.833366
O O1 0.747120 0.489514 0.671604
O O2 0.797529 0.585503 0.863784
O O3 0.884123 0.093948 0.006294
O O4 0.946225 0.393233 0.810130
O O5 0.273668 0.511410 0.781560
O O6 0.334960 0.029574 0.904068
O O7 0.305028 0.140279 0.081887
O O8 0.133886 0.329233 0.814166
O O9 0.536938 0.642757 0.542286
O O10 0.589676 0.991220 0.479514
O O11 0.618279 0.811429 0.339415
O O12 0.873615 0.845060 0.907290
O O13 0.683711 0.119607 0.624429
O O14 0.571145 0.451670 0.291774
O O15 0.343297 0.798394 0.793943
O O16 0.473623 0.272573 0.023322
#
# Coordination Sequence:
#
# PCOD8000355 Si02
#       8
#     2   2   2   2   2   2   2   2
#     4  10  19  39  60  82 110 146 191 238 272 319
#     4  10  22  34  53  84 112 143 185 227 274 334
#     4   9  19  34  59  81 114 146 183 233 273 327
#     4   9  20  35  60  82 116 140 182 236 279 322
#     4   9  18  34  56  90 107 143 190 221 282 336
#     4  10  21  35  58  77 117 153 177 226 279 332
#     4   9  22  35  58  89 105 145 195 230 277 325
#     4  10  21  37  52  81 117 150 183 216 280 343
#
# _framework density 19.994731999999999
#
# number of rings (size 3 to 8) (size 9 to 14) (size 15 to 20)
#    0.750    1.750    0.000    1.500    3.500    3.000 
#    0.000    2.500    0.000    6.750    0.000    0.000 
#    0.000    0.000    0.000    0.000    0.000    0.000 
#
# Total GULP energy -198289.754937 kJ/mol
# GULP energy per Si atom -12393.109684 kJ/mol
# Density = 1.994922 g / cm^3
# Si number density = 19.994732 Si / 1000 Ang^3
#
#
#
# Elastic Constant Matrix: (Units=GPa)
#
#
# Indices 1 2 3 4 5 6 
#
# 1 147.1996 38.6397 41.7267 -1.4626 -2.0456 5.2528
# 2 38.6397 79.7249 22.9135 12.2312 -3.9008 -6.6421
# 3 41.7267 22.9135 81.4311 2.6531 0.1845 -13.1026
# 4 -1.4626 12.2312 2.6531 14.1536 -2.5297 -3.3415
# 5 -2.0456 -3.9008 0.1845 -2.5297 34.2169 2.0800
# 6 5.2528 -6.6421 -13.1026 -3.3415 2.0800 29.7864
#
#
#
# Elastic Compliance Matrix: (Units=1/GPa)
#
#
# Indices 1 2 3 4 5 6 
#
# 1 0.009371 -0.004299 -0.004401 0.004670 0.000687 -0.004071
# 2 -0.004299 0.017649 -0.001939 -0.014728 0.000546 0.002150
# 3 -0.004401 -0.001939 0.016308 -0.000238 -0.001049 0.007564
# 4 0.004670 -0.014728 -0.000238 0.085943 0.004645 0.005105
# 5 0.000687 0.000546 -0.001049 0.004645 0.029801 -0.002021
# 6 -0.004071 0.002150 0.007564 0.005105 -0.002021 0.038811
#
#
# Mechanical properties :
#
#
# Convention : Reuss Voigt Hill
#
# Bulk Modulus (GPa) = 45.34914 57.21283 51.28098
# Shear Modulus (GPa) = 22.07408 29.30308 25.68858
#
# Velocity S-wave (km/s) = 3.32625 3.83239 3.58825
# Velocity P-wave (km/s) = 6.12223 6.94687 6.54755
#
# Compressibility (1/GPa) = 0.02205113
#
# Stress axis : x y z
#
# Youngs Moduli (GPa) = 106.71645 56.65989 61.31901
#
# Poissons Ratio (x) = 0.24357 0.26985
# Poissons Ratio (y) = 0.45875 0.11889
# Poissons Ratio (z) = 0.46964 0.10985
#
# Static dielectric constant tensor:
#      x y z
#    x 3.676120 0.115770 -0.023640 
#    y 0.115770 3.551250 0.180550 
#    z -0.023640 0.180550 3.449940 
# 
# 
# High freq. dielectric constant tensor:
#      x y z
#    x 1.775520 0.010810 -0.003680 
#    y 0.010810 1.783680 0.012790 
#    z -0.003680 0.012790 1.750490 
# 
# From -- ./inp_files/445547.got.cif
#   From: 2010.06.25/outbox.cif.g09.slc.cpg/sg2_223_cif.got.tgz:445547.got - 2010.06.27 13:26:56.
