data_PCOD8000569
_publ_section_title
;
Structure prediction by ZEFSAII (Michael W. Deem and Ramdas Pophale) SiO2 
 PCOD8000569
Probable space group: P -1
;
_chemical_formula_sum "Si O2"
_cell_formula_units_Z 12
_cell_length_a 18.791792
_cell_length_b 15.833708
_cell_length_c 9.046852
_cell_angle_alpha 143.756288
_cell_angle_beta 144.306329
_cell_angle_gamma 22.108855
_cell_volume 572.900782
_symmetry_space_group_name_H-M "P -1"
_symmetry_group_IT_number 2
_symmetry_cell_setting 'triclinic'
loop_
_space_group_symop_operation_xyz
x,y,z
-x,-y,-z
loop_
_atom_site_type_symbol
_atom_site_label
_atom_site_fract_x
_atom_site_fract_y
_atom_site_fract_z
Si Si1 0.807781 0.863126 0.255274
Si Si2 0.654166 0.062921 0.598946
Si Si3 0.158244 0.289031 0.361187
Si Si4 0.714062 0.233472 0.464055
Si Si5 0.100886 0.030658 0.887455
Si Si6 0.765751 0.617193 0.671436
O O1 0.045593 0.647827 0.332407
O O2 0.761299 0.921398 0.430409
O O3 0.704074 0.083453 0.299541
O O4 0.726889 0.786253 0.953263
O O5 0.423902 0.312388 0.536464
O O6 0.656451 0.925063 0.522600
O O7 0.775329 0.081615 0.907306
O O8 0.210748 0.353206 0.415440
O O9 0.000000 0.500000 0.500000
O O10 0.073394 0.219356 0.047763
O O11 0.500000 0.500000 0.500000
O O12 0.773863 0.176441 0.311925
O O13 0.883801 0.165190 0.740931
#
# Coordination Sequence:
#
# PCOD8000569 Si02
#       6
#     2   2   2   2   2   2
#     4  11  23  39  60  95 122 165 205 256 307 361
#     4  10  22  37  61  94 123 159 202 250 311 365
#     4  10  19  39  64  93 125 160 201 256 309 366
#     4  11  24  44  65  84 124 171 210 249 304 371
#     4   9  23  42  61  92 120 163 213 248 300 369
#     4  11  21  39  63  91 132 158 198 260 312 362
#
# _framework density 20.946035999999999
#
# number of rings (size 3 to 8) (size 9 to 14) (size 15 to 20)
#    1.000    0.667    3.333    1.000    0.000    7.333 
#    0.000    1.667    0.000    0.000    0.000    0.000 
#    0.000    0.000    0.000    0.000    0.000    0.000 
#
# Total GULP energy -148722.584208 kJ/mol
# GULP energy per Si atom -12393.548684 kJ/mol
# Density = 2.089836 g / cm^3
# Si number density = 20.946036 Si / 1000 Ang^3
#
#
#
# Elastic Constant Matrix: (Units=GPa)
#
#
# Indices 1 2 3 4 5 6 
#
# 1 54.1203 25.9674 37.1769 -1.2992 -18.8467 -7.9737
# 2 25.9674 131.3958 56.1958 -6.0934 -0.2821 -21.0382
# 3 37.1769 56.1958 109.9477 -16.2743 -17.3634 -28.4797
# 4 -1.2992 -6.0934 -16.2743 36.4102 -1.3740 5.2479
# 5 -18.8467 -0.2821 -17.3634 -1.3740 34.6981 -1.3159
# 6 -7.9737 -21.0382 -28.4797 5.2479 -1.3159 35.9585
#
#
#
# Elastic Compliance Matrix: (Units=1/GPa)
#
#
# Indices 1 2 3 4 5 6 
#
# 1 0.028541 -0.002898 -0.006473 -0.001934 0.012172 0.000235
# 2 -0.002898 0.010380 -0.004572 -0.000809 -0.003742 0.001790
# 3 -0.006473 -0.004572 0.017869 0.005861 0.005978 0.009405
# 4 -0.001934 -0.000809 0.005861 0.030072 0.003046 -0.000538
# 5 0.012172 -0.003742 0.005978 0.003046 0.038749 0.006218
# 6 0.000235 0.001790 0.009405 -0.000538 0.006218 0.036664
#
#
# Mechanical properties :
#
#
# Convention : Reuss Voigt Hill
#
# Bulk Modulus (GPa) = 34.59842 59.34935 46.97388
# Shear Modulus (GPa) = 25.02552 33.15493 29.09023
#
# Velocity S-wave (km/s) = 3.46028 3.98285 3.73073
# Velocity P-wave (km/s) = 5.70250 7.03894 6.40567
#
# Compressibility (1/GPa) = 0.02890305
#
# Stress axis : x y z
#
# Youngs Moduli (GPa) = 35.03709 96.33931 55.96437
#
# Poissons Ratio (x) = 0.27922 0.36223
# Poissons Ratio (y) = 0.10155 0.25589
# Poissons Ratio (z) = 0.22678 0.44050
#
# Static dielectric constant tensor:
#      x y z
#    x 3.546330 0.000320 -0.195680 
#    y 0.000320 3.953380 -0.256020 
#    z -0.195680 -0.256020 3.927670 
# 
# 
# High freq. dielectric constant tensor:
#      x y z
#    x 1.805640 -0.009470 -0.020790 
#    y -0.009470 1.818380 -0.004660 
#    z -0.020790 -0.004660 1.818300 
# 
# From -- ./inp_files/335807.got.cif
#   From: 2010.06.25/outbox.cif.g09.slc.cpg/sg2_168_cif.got.tgz:335807.got - 2010.06.27 13:26:56.
