data_PCOD8000655
_publ_section_title
;
Structure prediction by ZEFSAII (Michael W. Deem and Ramdas Pophale) SiO2 
 PCOD8000655
Probable space group: P -1
;
_chemical_formula_sum "Si O2"
_cell_formula_units_Z 14
_cell_length_a 11.539433
_cell_length_b 8.927130
_cell_length_c 7.575088
_cell_angle_alpha 76.364211
_cell_angle_beta 61.678587
_cell_angle_gamma 82.124357
_cell_volume 667.282426
_symmetry_space_group_name_H-M "P -1"
_symmetry_group_IT_number 2
_symmetry_cell_setting 'triclinic'
loop_
_space_group_symop_operation_xyz
x,y,z
-x,-y,-z
loop_
_atom_site_type_symbol
_atom_site_label
_atom_site_fract_x
_atom_site_fract_y
_atom_site_fract_z
Si Si1 0.990671 0.699826 0.634466
Si Si2 0.742858 0.176453 0.666638
Si Si3 0.803590 0.190567 0.995308
Si Si4 0.060616 0.353962 0.715043
Si Si5 0.618467 0.319809 0.386045
Si Si6 0.767347 0.889232 0.926931
Si Si7 0.662485 0.666253 0.309234
O O1 0.933841 0.684046 0.484475
O O2 0.879933 0.766905 0.824477
O O3 0.110989 0.815930 0.523570
O O4 0.039763 0.534731 0.718640
O O5 0.745345 0.264541 0.831825
O O6 0.640318 0.260137 0.587418
O O7 0.712921 0.994456 0.771804
O O8 0.942479 0.265400 0.921858
O O9 0.824618 0.006861 0.000002
O O10 0.697259 0.214005 0.220161
O O11 0.201379 0.297911 0.702827
O O12 0.663644 0.493633 0.279784
O O13 0.460970 0.309448 0.474682
O O14 0.650804 0.788909 0.121895
#
# Coordination Sequence:
#
# PCOD8000655 Si02
#       7
#     2   2   2   2   2   2   2
#     4  10  19  39  66  93 126 167 206 266 315 371
#     4   9  21  41  64  91 126 167 206 259 310 384
#     4   9  23  41  66  96 125 163 212 262 319 369
#     4  10  21  38  66  96 127 159 217 260 315 372
#     4  11  23  46  67  85 134 173 209 259 315 372
#     4  10  23  40  61  99 129 157 216 259 326 368
#     4  11  25  41  62  99 122 171 217 256 312 384
#
# _framework density 20.980622
#
# number of rings (size 3 to 8) (size 9 to 14) (size 15 to 20)
#    0.857    1.143    1.429    1.286    2.000    4.000 
#    2.571    1.429    0.000    0.000    0.000    0.000 
#    0.000    0.000    0.000    0.000    0.000    0.000 
#
# Total GULP energy -173526.562348 kJ/mol
# GULP energy per Si atom -12394.754453 kJ/mol
# Density = 2.093287 g / cm^3
# Si number density = 20.980622 Si / 1000 Ang^3
#
#
#
# Elastic Constant Matrix: (Units=GPa)
#
#
# Indices 1 2 3 4 5 6 
#
# 1 70.3816 32.3713 39.7829 -0.3615 -8.9962 -6.1550
# 2 32.3713 109.6241 63.2221 -9.8677 -5.5952 -6.5913
# 3 39.7829 63.2221 119.8673 -3.3012 -16.6379 -2.7158
# 4 -0.3615 -9.8677 -3.3012 45.5221 -9.5930 7.7461
# 5 -8.9962 -5.5952 -16.6379 -9.5930 22.1520 -0.4800
# 6 -6.1550 -6.5913 -2.7158 7.7461 -0.4800 10.9383
#
#
#
# Elastic Compliance Matrix: (Units=1/GPa)
#
#
# Indices 1 2 3 4 5 6 
#
# 1 0.019080 -0.002522 -0.004370 -0.001612 0.003335 0.009420
# 2 -0.002522 0.014002 -0.006658 0.001431 -0.001776 0.004274
# 3 -0.004370 -0.006658 0.014395 0.001942 0.008112 -0.003916
# 4 -0.001612 0.001431 0.001942 0.028408 0.013053 -0.019108
# 5 0.003335 -0.001776 0.008112 0.013053 0.057709 -0.003891
# 6 0.009420 0.004274 -0.003916 -0.019108 -0.003891 0.111686
#
#
# Mechanical properties :
#
#
# Convention : Reuss Voigt Hill
#
# Bulk Modulus (GPa) = 49.07755 63.40284 56.24019
# Shear Modulus (GPa) = 17.90995 26.68892 22.29943
#
# Velocity S-wave (km/s) = 2.92489 3.57049 3.26369
# Velocity P-wave (km/s) = 5.90332 6.87627 6.40829
#
# Compressibility (1/GPa) = 0.02037592
#
# Stress axis : x y z
#
# Youngs Moduli (GPa) = 52.40955 71.41854 69.46636
#
# Poissons Ratio (x) = 0.18015 0.30359
# Poissons Ratio (y) = 0.13220 0.46253
# Poissons Ratio (z) = 0.22904 0.47552
#
# Static dielectric constant tensor:
#      x y z
#    x 3.529850 -0.033800 0.033040 
#    y -0.033800 3.663700 -0.218930 
#    z 0.033040 -0.218930 3.802330 
# 
# 
# High freq. dielectric constant tensor:
#      x y z
#    x 1.796250 -0.005560 -0.001760 
#    y -0.005560 1.816070 -0.014630 
#    z -0.001760 -0.014630 1.830020 
# 
# From -- ./inp_files/163434.got.cif
#   From: 2010.06.25/outbox.cif.g09.slc.cpg/sg2_82_cif.got.tgz:163434.got - 2010.06.27 13:26:56.
