data_PCOD8000152
_publ_section_title
;
Structure prediction by ZEFSAII (Michael W. Deem and Ramdas Pophale) SiO2 
 PCOD8000152
Probable space group: P 1
;
_chemical_formula_sum "Si O2"
_cell_formula_units_Z 8
_cell_length_a 8.845957
_cell_length_b 7.614747
_cell_length_c 8.117620
_cell_angle_alpha 84.400957
_cell_angle_beta 68.757977
_cell_angle_gamma 130.408766
_cell_volume 342.863623
_symmetry_space_group_name_H-M "P 1"
_symmetry_group_IT_number 1
_symmetry_cell_setting 'triclinic'
loop_
_space_group_symop_operation_xyz
x,y,z
loop_
_atom_site_type_symbol
_atom_site_label
_atom_site_fract_x
_atom_site_fract_y
_atom_site_fract_z
Si Si1 0.663990 0.343490 0.024440
Si Si2 0.498395 0.974998 0.847257
Si Si3 0.295891 0.161301 0.766312
Si Si4 0.809632 0.920891 0.008632
Si Si5 0.410478 0.403355 0.351223
Si Si6 0.013447 0.393338 0.063949
Si Si7 0.657537 0.644239 0.777540
Si Si8 0.911670 0.133008 0.469083
O O1 0.458454 0.298049 0.197093
O O2 0.862013 0.447949 0.073184
O O3 0.544309 0.074541 0.009566
O O4 0.773808 0.556972 0.815413
O O5 0.391709 0.046476 0.775531
O O6 0.747060 0.123840 0.648899
O O7 0.295741 0.658506 0.948229
O O8 0.390911 0.285838 0.538511
O O9 0.392350 0.383021 0.841354
O O10 0.008964 0.927793 0.908938
O O11 0.655829 0.797008 0.908288
O O12 0.631724 0.720134 0.243590
O O13 0.953866 0.217095 0.949903
O O14 0.179854 0.339365 0.413860
O O15 0.908540 0.210551 0.281344
O O16 0.811021 0.849221 0.546352
#
# Coordination Sequence:
#
# PCOD8000152 Si02
#       8
#     1   1   1   1   1   1   1   1
#     4  10  25  48  71 101 145 186 232 290 349 416
#     4  11  26  48  71 102 147 184 234 288 356 414
#     4  11  23  46  76 100 141 190 230 291 351 417
#     4  11  24  43  73 102 144 181 237 286 352 412
#     4  11  25  45  73 106 139 186 238 286 348 420
#     4  12  27  44  73 104 143 187 231 293 350 412
#     4  10  22  46  70 102 134 186 232 282 346 415
#     4  12  26  44  71 107 141 182 238 286 348 418
#
# _framework density 23.332892000000001
#
# number of rings (size 3 to 8) (size 9 to 14) (size 15 to 20)
#    0.000    1.000    1.250    4.500   10.500    0.000 
#    6.750    1.250    0.000    0.000    0.000    0.000 
#    0.000    0.000    0.000    0.000    0.000    0.000 
#
# Total GULP energy -99149.877396 kJ/mol
# GULP energy per Si atom -12393.734675 kJ/mol
# Density = 2.327979 g / cm^3
# Si number density = 23.332892 Si / 1000 Ang^3
#
#
#
# Elastic Constant Matrix: (Units=GPa)
#
#
# Indices 1 2 3 4 5 6 
#
# 1 105.8416 26.1274 60.0785 -1.3090 2.8772 16.5890
# 2 26.1274 141.2298 36.9841 -0.5927 -11.1716 -0.7822
# 3 60.0785 36.9841 116.4396 -16.7295 0.9321 10.4781
# 4 -1.3090 -0.5927 -16.7295 38.7988 0.4584 -1.6751
# 5 2.8772 -11.1716 0.9321 0.4584 55.4577 -0.4317
# 6 16.5890 -0.7822 10.4781 -1.6751 -0.4317 33.2136
#
#
#
# Elastic Compliance Matrix: (Units=1/GPa)
#
#
# Indices 1 2 3 4 5 6 
#
# 1 0.014524 -0.000926 -0.007131 -0.002813 -0.000837 -0.005179
# 2 -0.000926 0.008001 -0.002325 -0.000873 0.001717 0.001363
# 3 -0.007131 -0.002325 0.013879 0.005688 -0.000383 -0.000590
# 4 -0.002813 -0.000873 0.005688 0.028166 -0.000351 0.001006
# 5 -0.000837 0.001717 -0.000383 -0.000351 0.018437 0.000801
# 6 -0.005179 0.001363 -0.000590 0.001006 0.000801 0.032974
#
#
# Mechanical properties :
#
#
# Convention : Reuss Voigt Hill
#
# Bulk Modulus (GPa) = 63.94166 67.76566 65.85366
# Shear Modulus (GPa) = 35.22149 41.51541 38.36845
#
# Velocity S-wave (km/s) = 3.88947 4.22271 4.05951
# Velocity P-wave (km/s) = 6.90175 7.27194 7.08926
#
# Compressibility (1/GPa) = 0.01563926
#
# Stress axis : x y z
#
# Youngs Moduli (GPa) = 68.85020 124.99125 72.04954
#
# Poissons Ratio (x) = 0.11577 0.51379
# Poissons Ratio (y) = 0.06377 0.16752
# Poissons Ratio (z) = 0.49098 0.29061
#
# Static dielectric constant tensor:
#      x y z
#    x 4.475660 0.010540 0.251450 
#    y 0.010540 4.358220 -0.128680 
#    z 0.251450 -0.128680 4.088620 
# 
# 
# High freq. dielectric constant tensor:
#      x y z
#    x 1.950140 0.005040 0.017270 
#    y 0.005040 1.928640 -0.009920 
#    z 0.017270 -0.009920 1.904380 
# 
# From -- ./inp_files/4245.got.cif
#   From: 2010.03.12/outbox.cif.g09.slc.cpg/sg1_3_cif.got.tgz:4245.got - 2010.03.29 11:57:58.
