data_PCOD8000015
_publ_section_title
;
Structure prediction by ZEFSAII (Michael W. Deem and Ramdas Pophale) SiO2 
 PCOD8000015
Probable space group: P 1
;
_chemical_formula_sum "Si O2"
_cell_formula_units_Z 8
_cell_length_a 8.750073
_cell_length_b 15.295051
_cell_length_c 8.895287
_cell_angle_alpha 29.997450
_cell_angle_beta 52.336201
_cell_angle_gamma 49.868236
_cell_volume 450.699486
_symmetry_space_group_name_H-M "P 1"
_symmetry_group_IT_number 1
_symmetry_cell_setting 'triclinic'
loop_
_space_group_symop_operation_xyz
x,y,z
loop_
_atom_site_type_symbol
_atom_site_label
_atom_site_fract_x
_atom_site_fract_y
_atom_site_fract_z
Si Si1 0.906280 0.072050 0.226780
Si Si2 0.891927 0.754758 0.894753
Si Si3 0.711346 0.774913 0.297689
Si Si4 0.891939 0.396892 0.252609
Si Si5 0.906282 0.415925 0.882899
Si Si6 0.263016 0.208869 0.146667
Si Si7 0.711356 0.134220 0.938374
Si Si8 0.263008 0.865668 0.489883
O O1 0.827377 0.278610 0.029877
O O2 0.864994 0.067240 0.082605
O O3 0.797453 0.942192 0.577211
O O4 0.148127 0.987427 0.235355
O O5 0.129915 0.732395 0.819599
O O6 0.871170 0.587007 0.060895
O O7 0.768760 0.766302 0.103154
O O8 0.864989 0.611005 0.538835
O O9 0.487498 0.751176 0.478502
O O10 0.718688 0.966490 0.074925
O O11 0.129931 0.278798 0.273175
O O12 0.768786 0.288555 0.580886
O O13 0.797460 0.434040 0.085355
O O14 0.148130 0.334754 0.888017
O O15 0.270038 0.998694 0.426977
O O16 0.487506 0.224744 0.004913
#
# Coordination Sequence:
#
# PCOD8000015 Si02
#       8
#     1   1   1   1   1   1   1   1
#     4   9  19  38  56  80 111 141 181 226 268 319
#     4  10  20  36  56  82 112 142 181 224 266 322
#     4  11  20  36  60  82 108 145 180 222 275 320
#     4  10  20  36  56  82 112 142 181 224 266 322
#     4   9  19  38  56  80 111 141 181 226 268 319
#     4   8  19  38  56  78 111 142 180 226 267 317
#     4  11  20  36  60  82 108 145 180 222 275 320
#     4   8  19  38  56  78 111 142 180 226 267 317
#
# _framework density 17.750184999999998
#
# number of rings (size 3 to 8) (size 9 to 14) (size 15 to 20)
#    1.500    1.000    0.000    3.000    0.000    2.000 
#    4.500    0.000    0.000    0.000    0.000    0.000 
#    0.000    0.000    0.000    0.000    0.000    0.000 
#
# Total GULP energy -99119.052025 kJ/mol
# GULP energy per Si atom -12389.881503 kJ/mol
# Density = 1.770979 g / cm^3
# Si number density = 17.750185 Si / 1000 Ang^3
#
#
#
# Elastic Constant Matrix: (Units=GPa)
#
#
# Indices 1 2 3 4 5 6 
#
# 1 48.0511 26.8262 8.2427 -5.4569 -3.2485 7.4431
# 2 26.8262 77.4904 19.8851 0.4818 -14.0017 13.0722
# 3 8.2427 19.8851 83.2865 -8.4209 -6.2830 6.3355
# 4 -5.4569 0.4818 -8.4209 23.6898 2.7128 3.8936
# 5 -3.2485 -14.0017 -6.2830 2.7128 27.5834 5.3197
# 6 7.4431 13.0722 6.3355 3.8936 5.3197 25.2437
#
#
#
# Elastic Compliance Matrix: (Units=1/GPa)
#
#
# Indices 1 2 3 4 5 6 
#
# 1 0.027242 -0.009078 0.000469 0.007478 -0.001190 -0.004352
# 2 -0.009078 0.020172 -0.002782 -0.003254 0.010552 -0.008793
# 3 0.000469 -0.002782 0.013553 0.005314 0.001846 -0.003308
# 4 0.007478 -0.003254 0.005314 0.047607 -0.002573 -0.008654
# 5 -0.001190 0.010552 0.001846 -0.002573 0.044970 -0.014657
# 6 -0.004352 -0.008793 -0.003308 -0.008654 -0.014657 0.050704
#
#
# Mechanical properties :
#
#
# Convention : Reuss Voigt Hill
#
# Bulk Modulus (GPa) = 26.18924 35.41511 30.80218
# Shear Modulus (GPa) = 20.85434 25.56165 23.20799
#
# Velocity S-wave (km/s) = 3.43137 3.79895 3.61983
# Velocity P-wave (km/s) = 5.52136 6.26402 5.90438
#
# Compressibility (1/GPa) = 0.03818362
#
# Stress axis : x y z
#
# Youngs Moduli (GPa) = 36.70807 49.57437 73.78639
#
# Poissons Ratio (x) = 0.45006 -0.03459
# Poissons Ratio (y) = 0.33325 0.20525
# Poissons Ratio (z) = -0.01721 0.13790
#
# Static dielectric constant tensor:
#      x y z
#    x 3.190040 0.008380 -0.075470 
#    y 0.008380 3.230890 -0.071010 
#    z -0.075470 -0.071010 3.121010 
# 
# 
# High freq. dielectric constant tensor:
#      x y z
#    x 1.673750 0.011120 -0.006860 
#    y 0.011120 1.683740 -0.010800 
#    z -0.006860 -0.010800 1.677500 
# 
# From -- ./inp_files/3547.got.cif
#   From: 2010.03.12/outbox.cif.g09.slc.cpg/sg1_2_cif.got.tgz:3547.got - 2010.03.29 11:57:58.
