data_PCOD8000687
_publ_section_title
;
Structure prediction by ZEFSAII (Michael W. Deem and Ramdas Pophale) SiO2 
 PCOD8000687
Probable space group: P -1
;
_chemical_formula_sum "Si O2"
_cell_formula_units_Z 14
_cell_length_a 15.235101
_cell_length_b 19.343853
_cell_length_c 7.400832
_cell_angle_alpha 121.329798
_cell_angle_beta 58.502963
_cell_angle_gamma 161.226748
_cell_volume 595.953216
_symmetry_space_group_name_H-M "P -1"
_symmetry_group_IT_number 2
_symmetry_cell_setting 'triclinic'
loop_
_space_group_symop_operation_xyz
x,y,z
-x,-y,-z
loop_
_atom_site_type_symbol
_atom_site_label
_atom_site_fract_x
_atom_site_fract_y
_atom_site_fract_z
Si Si1 0.284542 0.052661 0.816791
Si Si2 0.113432 0.259313 0.480201
Si Si3 0.567459 0.709879 0.481208
Si Si4 0.887623 0.924416 0.776741
Si Si5 0.857706 0.143298 0.942602
Si Si6 0.107891 0.498277 0.117104
Si Si7 0.313510 0.684218 0.761944
O O1 0.611885 0.281841 0.776252
O O2 0.192920 0.081184 0.968868
O O3 0.170425 0.936414 0.591858
O O4 0.134200 0.894522 0.924309
O O5 0.341794 0.478531 0.437942
O O6 0.225867 0.249731 0.333741
O O7 0.061875 0.246082 0.724633
O O8 0.732125 0.855316 0.683496
O O9 0.435876 0.698157 0.534353
O O10 0.783807 0.834764 0.272774
O O11 0.547732 0.917498 0.892465
O O12 0.961728 0.310271 0.085081
O O13 0.905519 0.426777 0.274694
O O14 0.164544 0.533934 0.890332
#
# Coordination Sequence:
#
# PCOD8000687 Si02
#       7
#     2   2   2   2   2   2   2
#     4  11  25  42  60  99 128 160 214 256 305 381
#     4  12  24  39  67  93 126 169 207 254 318 366
#     4  11  21  39  66  95 122 165 212 256 308 377
#     4  11  21  41  61  88 132 162 208 264 304 367
#     4  11  20  42  66  92 126 165 207 254 314 368
#     4  10  21  39  68  90 129 165 203 262 312 367
#     4  10  19  39  67  96 120 164 215 250 311 378
#
# _framework density 23.491776999999999
#
# number of rings (size 3 to 8) (size 9 to 14) (size 15 to 20)
#    0.000    1.143    5.714    2.143    0.000    2.857 
#    0.000    1.429    0.000    0.000    0.000    0.000 
#    0.000    0.000    0.000    0.000    0.000    0.000 
#
# Total GULP energy -173653.237614 kJ/mol
# GULP energy per Si atom -12403.802687 kJ/mol
# Density = 2.343831 g / cm^3
# Si number density = 23.491777 Si / 1000 Ang^3
#
#
#
# Elastic Constant Matrix: (Units=GPa)
#
#
# Indices 1 2 3 4 5 6 
#
# 1 110.9752 49.3081 32.8430 -2.7476 -32.1592 1.0388
# 2 49.3081 129.7797 11.3098 3.0055 -24.6705 -10.7200
# 3 32.8430 11.3098 36.7052 -2.8963 -10.3847 7.2180
# 4 -2.7476 3.0055 -2.8963 12.9593 0.7609 -10.6528
# 5 -32.1592 -24.6705 -10.3847 0.7609 34.0905 -4.9751
# 6 1.0388 -10.7200 7.2180 -10.6528 -4.9751 45.5385
#
#
#
# Elastic Compliance Matrix: (Units=1/GPa)
#
#
# Indices 1 2 3 4 5 6 
#
# 1 0.016944 -0.003332 -0.011437 0.003293 0.010387 0.002547
# 2 -0.003332 0.010056 0.000625 -0.001021 0.004730 0.002622
# 3 -0.011437 0.000625 0.038629 0.001715 0.000627 -0.005245
# 4 0.003293 -0.001021 0.001715 0.096725 0.004011 0.022478
# 5 0.010387 0.004730 0.000627 0.004011 0.043602 0.006479
# 6 0.002547 0.002622 -0.005245 0.022478 0.006479 0.029316
#
#
# Mechanical properties :
#
#
# Convention : Reuss Voigt Hill
#
# Bulk Modulus (GPa) = 26.78002 51.59802 39.18902
# Shear Modulus (GPa) = 18.11551 30.78428 24.44990
#
# Velocity S-wave (km/s) = 2.77996 3.62391 3.22962
# Velocity P-wave (km/s) = 4.66141 6.28667 5.53403
#
# Compressibility (1/GPa) = 0.03734127
#
# Stress axis : x y z
#
# Youngs Moduli (GPa) = 59.01798 99.43981 25.88739
#
# Poissons Ratio (x) = 0.33137 0.29606
# Poissons Ratio (y) = 0.19667 -0.01618
# Poissons Ratio (z) = 0.67497 -0.06215
#
# Static dielectric constant tensor:
#      x y z
#    x 4.349910 0.035140 -0.059160 
#    y 0.035140 4.313810 -0.113650 
#    z -0.059160 -0.113650 3.830360 
# 
# 
# High freq. dielectric constant tensor:
#      x y z
#    x 1.938340 -0.004850 -0.004480 
#    y -0.004850 1.940710 -0.007800 
#    z -0.004480 -0.007800 1.901620 
# 
# From -- ./inp_files/188907.got.cif
#   From: 2010.06.25/outbox.cif.g09.slc.cpg/sg2_95_cif.got.tgz:188907.got - 2010.06.27 13:26:56.
