data_PCOD8000028
_publ_section_title
;
Structure prediction by ZEFSAII (Michael W. Deem and Ramdas Pophale) SiO2 
 PCOD8000028
Probable space group: P 1
;
_chemical_formula_sum "Si O2"
_cell_formula_units_Z 8
_cell_length_a 6.884455
_cell_length_b 7.075468
_cell_length_c 7.679660
_cell_angle_alpha 76.188138
_cell_angle_beta 61.426476
_cell_angle_gamma 85.759778
_cell_volume 318.665644
_symmetry_space_group_name_H-M "P 1"
_symmetry_group_IT_number 1
_symmetry_cell_setting 'triclinic'
loop_
_space_group_symop_operation_xyz
x,y,z
loop_
_atom_site_type_symbol
_atom_site_label
_atom_site_fract_x
_atom_site_fract_y
_atom_site_fract_z
Si Si1 0.910800 0.359530 0.572290
Si Si2 0.652679 0.480624 0.350984
Si Si3 0.299557 0.097608 0.364835
Si Si4 0.281601 0.081759 0.997282
Si Si5 0.928750 0.375380 0.939843
Si Si6 0.258918 0.682294 0.592596
Si Si7 0.557679 0.976517 0.586139
Si Si8 0.951437 0.774844 0.344528
O O1 0.717313 0.330695 0.514527
O O2 0.826015 0.301314 0.814526
O O3 0.010197 0.588105 0.483308
O O4 0.105187 0.228571 0.468575
O O5 0.392048 0.520223 0.461977
O O6 0.788723 0.685792 0.282223
O O7 0.723768 0.398866 0.151814
O O8 0.384323 0.155837 0.122601
O O9 0.200156 0.869030 0.453812
O O10 0.493059 0.126437 0.422581
O O11 0.157277 0.873031 0.131493
O O12 0.486586 0.058282 0.785311
O O13 0.105169 0.228559 0.968560
O O14 0.053078 0.584109 0.805636
O O15 0.421625 0.771350 0.654906
O O16 0.818310 0.936909 0.475156
#
# Coordination Sequence:
#
# PCOD8000028 Si02
#       8
#     1   1   1   1   1   1   1   1
#     4  10  20  39  58  86 115 147 192 235 279 336
#     4   9  21  40  59  82 119 145 191 234 283 330
#     4  10  20  39  58  86 115 147 192 235 279 336
#     4  12  21  36  63  85 113 155 188 227 290 335
#     4  12  21  36  63  85 113 155 188 227 290 335
#     4   9  21  41  58  84 119 145 188 241 275 335
#     4   9  21  40  59  82 119 145 191 234 283 330
#     4   9  21  41  58  84 119 145 188 241 275 335
#
# _framework density 25.104680999999999
#
# number of rings (size 3 to 8) (size 9 to 14) (size 15 to 20)
#    1.500    0.500    2.500    1.500    0.000    2.000 
#    0.000    1.250    0.000    0.000    0.000    0.000 
#    0.000    0.000    0.000    0.000    0.000    0.000 
#
# Total GULP energy -99169.363835 kJ/mol
# GULP energy per Si atom -12396.170479 kJ/mol
# Density = 2.504754 g / cm^3
# Si number density = 25.104681 Si / 1000 Ang^3
#
#
#
# Elastic Constant Matrix: (Units=GPa)
#
#
# Indices 1 2 3 4 5 6 
#
# 1 75.1147 30.0259 57.3624 6.7061 30.1459 -19.0425
# 2 30.0259 134.2090 71.5361 19.5086 10.8243 -43.7486
# 3 57.3624 71.5361 187.1699 29.5547 33.8877 -6.0470
# 4 6.7061 19.5086 29.5547 58.2064 2.6423 -1.9094
# 5 30.1459 10.8243 33.8877 2.6423 52.2359 -3.7063
# 6 -19.0425 -43.7486 -6.0470 -1.9094 -3.7063 37.3425
#
#
#
# Elastic Compliance Matrix: (Units=1/GPa)
#
#
# Indices 1 2 3 4 5 6 
#
# 1 0.024559 0.003659 -0.006774 0.000300 -0.009503 0.014785
# 2 0.003659 0.017433 -0.006823 -0.002122 0.000307 0.021106
# 3 -0.006774 -0.006823 0.010465 -0.002484 -0.002056 -0.010084
# 4 0.000300 -0.002122 -0.002484 0.019027 0.000796 -0.001683
# 5 -0.009503 0.000307 -0.002056 0.000796 0.025700 -0.002227
# 6 0.014785 0.021106 -0.010084 -0.001683 -0.002227 0.057106
#
#
# Mechanical properties :
#
#
# Convention : Reuss Voigt Hill
#
# Bulk Modulus (GPa) = 30.69347 79.37137 55.03242
# Shear Modulus (GPa) = 27.02321 45.39490 36.20906
#
# Velocity S-wave (km/s) = 3.28445 4.25694 3.80191
# Velocity P-wave (km/s) = 5.16103 7.47307 6.42195
#
# Compressibility (1/GPa) = 0.03258022
#
# Stress axis : x y z
#
# Youngs Moduli (GPa) = 40.71863 57.36235 95.55512
#
# Poissons Ratio (x) = -0.20987 0.64731
# Poissons Ratio (y) = -0.14897 0.65196
# Poissons Ratio (z) = 0.27583 0.39138
#
# Static dielectric constant tensor:
#      x y z
#    x 4.647820 0.177370 0.246090 
#    y 0.177370 4.658080 -0.079170 
#    z 0.246090 -0.079170 4.911060 
# 
# 
# High freq. dielectric constant tensor:
#      x y z
#    x 2.017540 0.014050 0.009410 
#    y 0.014050 2.015360 -0.003780 
#    z 0.009410 -0.003780 1.991800 
# 
# From -- ./inp_files/4110.got.cif
#   From: 2010.03.12/outbox.cif.g09.slc.cpg/sg1_3_cif.got.tgz:4110.got - 2010.03.29 11:57:58.
