data_PCOD8000684
_publ_section_title
;
Structure prediction by ZEFSAII (Michael W. Deem and Ramdas Pophale) SiO2 
 PCOD8000684
Probable space group: P -1
;
_chemical_formula_sum "Si O2"
_cell_formula_units_Z 16
_cell_length_a 13.920962
_cell_length_b 17.739901
_cell_length_c 26.147415
_cell_angle_alpha 20.517762
_cell_angle_beta 158.333518
_cell_angle_gamma 157.407245
_cell_volume 762.695321
_symmetry_space_group_name_H-M "P -1"
_symmetry_group_IT_number 2
_symmetry_cell_setting 'triclinic'
loop_
_space_group_symop_operation_xyz
x,y,z
-x,-y,-z
loop_
_atom_site_type_symbol
_atom_site_label
_atom_site_fract_x
_atom_site_fract_y
_atom_site_fract_z
Si Si1 0.230540 0.352126 0.815621
Si Si2 0.561406 0.124579 0.602040
Si Si3 0.399851 0.904734 0.874134
Si Si4 0.318736 0.548361 0.631683
Si Si5 0.272752 0.568582 0.315322
Si Si6 0.708197 0.431763 0.180609
Si Si7 0.400353 0.750412 0.082349
Si Si8 0.155935 0.337307 0.300438
O O1 0.389501 0.553279 0.723637
O O2 0.301862 0.484585 0.820132
O O3 0.891564 0.211802 0.726633
O O4 0.380931 0.172354 0.999647
O O5 0.509004 0.202342 0.469279
O O6 0.413656 0.252558 0.483740
O O7 0.396428 0.846941 0.698034
O O8 0.135467 0.874560 0.726184
O O9 0.568746 0.180088 0.793081
O O10 0.274935 0.770692 0.951423
O O11 0.345432 0.329761 0.753806
O O12 0.000000 0.500000 0.500000
O O13 0.500000 0.500000 0.500000
O O14 0.114362 0.394344 0.301744
O O15 0.032649 0.564114 0.238929
O O16 0.500000 0.500000 0.000000
O O17 0.187992 0.552917 0.140789
O O18 0.500000 0.000000 0.000000
#
# Coordination Sequence:
#
# PCOD8000684 Si02
#       8
#     2   2   2   2   2   2   2   2
#     4  10  22  42  65  88 125 162 203 258 314 364
#     4  10  22  42  65  89 126 160 205 259 311 371
#     4  11  23  41  65  94 125 160 205 261 315 366
#     4   8  18  38  63  94 120 158 202 248 323 374
#     4  12  26  41  61  90 125 169 213 250 309 366
#     4  12  26  41  61  92 121 167 221 248 298 370
#     4  10  19  39  67  95 125 160 202 260 320 381
#     4  11  23  41  65  95 126 159 206 261 314 371
#
# _framework density 20.978232999999999
#
# number of rings (size 3 to 8) (size 9 to 14) (size 15 to 20)
#    0.000    1.500    1.250    3.375    0.000    6.500 
#    4.500    0.000    0.000    0.000    0.000    0.000 
#    0.000    0.000    0.000    0.000    0.000    0.000 
#
# Total GULP energy -198291.668879 kJ/mol
# GULP energy per Si atom -12393.229305 kJ/mol
# Density = 2.093049 g / cm^3
# Si number density = 20.978233 Si / 1000 Ang^3
#
#
#
# Elastic Constant Matrix: (Units=GPa)
#
#
# Indices 1 2 3 4 5 6 
#
# 1 121.2711 26.8477 40.1342 0.9302 -6.6481 -18.2216
# 2 26.8477 76.9092 27.5274 -1.5510 -10.9723 -7.7269
# 3 40.1342 27.5274 107.8337 2.9245 -2.9382 1.0332
# 4 0.9302 -1.5510 2.9245 39.4919 7.9786 -2.8914
# 5 -6.6481 -10.9723 -2.9382 7.9786 28.3239 3.8748
# 6 -18.2216 -7.7269 1.0332 -2.8914 3.8748 34.0190
#
#
#
# Elastic Compliance Matrix: (Units=1/GPa)
#
#
# Indices 1 2 3 4 5 6 
#
# 1 0.010658 -0.001820 -0.003541 0.000202 0.000641 0.005347
# 2 -0.001820 0.015722 -0.003220 0.000039 0.005028 0.002124
# 3 -0.003541 -0.003220 0.011468 -0.001082 -0.000167 -0.003049
# 4 0.000202 0.000039 -0.001082 0.027306 -0.008208 0.003405
# 5 0.000641 0.005028 -0.000167 -0.008208 0.040217 -0.003788
# 6 0.005347 0.002124 -0.003049 0.003405 -0.003788 0.033555
#
#
# Mechanical properties :
#
#
# Convention : Reuss Voigt Hill
#
# Bulk Modulus (GPa) = 48.34757 55.00362 51.67559
# Shear Modulus (GPa) = 30.67780 34.46725 32.57253
#
# Velocity S-wave (km/s) = 3.82823 4.05779 3.94468
# Velocity P-wave (km/s) = 6.52971 6.94482 6.74046
#
# Compressibility (1/GPa) = 0.02068356
#
# Stress axis : x y z
#
# Youngs Moduli (GPa) = 93.82664 63.60548 87.20191
#
# Poissons Ratio (x) = 0.11578 0.30881
# Poissons Ratio (y) = 0.17080 0.28082
# Poissons Ratio (z) = 0.33227 0.20483
#
# Static dielectric constant tensor:
#      x y z
#    x 3.497070 -0.093200 0.273430 
#    y -0.093200 3.486500 0.101250 
#    z 0.273430 0.101250 3.841990 
# 
# 
# High freq. dielectric constant tensor:
#      x y z
#    x 1.838360 0.004760 -0.001680 
#    y 0.004760 1.801060 -0.003700 
#    z -0.001680 -0.003700 1.839800 
# 
# From -- ./inp_files/515590.got.cif
#   From: 2010.06.25/outbox.cif.g09.slc.cpg/sg2_258_cif.got.tgz:515590.got - 2010.06.27 13:26:56.
