data_PCOD8000390
_publ_section_title
;
Structure prediction by ZEFSAII (Michael W. Deem and Ramdas Pophale) SiO2 
 PCOD8000390
Probable space group: P -1
;
_chemical_formula_sum "Si O2"
_cell_formula_units_Z 12
_cell_length_a 13.049697
_cell_length_b 15.627825
_cell_length_c 10.586757
_cell_angle_alpha 52.862780
_cell_angle_beta 70.929990
_cell_angle_gamma 26.240832
_cell_volume 603.397493
_symmetry_space_group_name_H-M "P -1"
_symmetry_group_IT_number 2
_symmetry_cell_setting 'triclinic'
loop_
_space_group_symop_operation_xyz
x,y,z
-x,-y,-z
loop_
_atom_site_type_symbol
_atom_site_label
_atom_site_fract_x
_atom_site_fract_y
_atom_site_fract_z
Si Si1 0.759754 0.786592 0.680837
Si Si2 0.804052 0.248500 0.538574
Si Si3 0.965988 0.752282 0.432618
Si Si4 0.685144 0.626689 0.854713
Si Si5 0.976306 0.160433 0.286956
Si Si6 0.541242 0.750996 0.510414
O O1 0.993167 0.648017 0.636871
O O2 0.873808 0.562225 0.871999
O O3 0.500000 0.000000 0.500000
O O4 0.621945 0.983235 0.675502
O O5 0.500000 0.500000 0.500000
O O6 0.763532 0.329028 0.339740
O O7 0.956482 0.197970 0.606765
O O8 0.008264 0.954448 0.713039
O O9 0.178298 0.509704 0.458433
O O10 0.637587 0.059534 0.235378
O O11 0.650905 0.634193 0.713377
O O12 0.855014 0.373548 0.073238
O O13 0.307543 0.874382 0.458597
#
# Coordination Sequence:
#
# PCOD8000390 Si02
#       6
#     2   2   2   2   2   2
#     4   8  18  36  59  86 118 150 189 235 285 340
#     4  11  22  40  62  84 115 155 194 238 289 340
#     4  10  19  39  61  85 119 154 190 234 290 340
#     4  10  23  39  59  91 115 149 198 236 284 344
#     4  11  23  40  62  83 118 153 193 242 285 340
#     4  10  19  39  61  83 120 155 184 236 291 336
#
# _framework density 19.887388000000001
#
# number of rings (size 3 to 8) (size 9 to 14) (size 15 to 20)
#    0.000    2.333    5.000    0.000    0.000    8.667 
#    0.000    2.500    0.000    0.000    0.000    0.000 
#    0.000    0.000    0.000    0.000    0.000    0.000 
#
# Total GULP energy -148688.550410 kJ/mol
# GULP energy per Si atom -12390.712534 kJ/mol
# Density = 1.984212 g / cm^3
# Si number density = 19.887388 Si / 1000 Ang^3
#
#
#
# Elastic Constant Matrix: (Units=GPa)
#
#
# Indices 1 2 3 4 5 6 
#
# 1 122.7897 47.2541 37.9602 1.5662 -26.8708 -0.5610
# 2 47.2541 162.7310 38.4733 -8.8287 -9.9154 9.5888
# 3 37.9602 38.4733 93.2464 -2.0345 -36.6219 7.8092
# 4 1.5662 -8.8287 -2.0345 7.3379 -4.2364 1.0631
# 5 -26.8708 -9.9154 -36.6219 -4.2364 33.2095 -1.4852
# 6 -0.5610 9.5888 7.8092 1.0631 -1.4852 31.7915
#
#
#
# Elastic Compliance Matrix: (Units=1/GPa)
#
#
# Indices 1 2 3 4 5 6 
#
# 1 0.011037 -0.002808 -0.000728 -0.002074 0.007096 0.001622
# 2 -0.002808 0.008061 -0.002323 0.009202 -0.001356 -0.002281
# 3 -0.000728 -0.002323 0.023286 0.019896 0.026735 -0.004448
# 4 -0.002074 0.009202 0.019896 0.181333 0.045621 -0.011632
# 5 0.007096 -0.001356 0.026735 0.045621 0.070560 -0.004262
# 6 0.001622 -0.002281 -0.004448 -0.011632 -0.004262 0.033454
#
#
# Mechanical properties :
#
#
# Convention : Reuss Voigt Hill
#
# Bulk Modulus (GPa) = 32.61199 69.57138 51.09168
# Shear Modulus (GPa) = 14.29911 31.47307 22.88609
#
# Velocity S-wave (km/s) = 2.68433 3.98246 3.39600
# Velocity P-wave (km/s) = 5.10308 7.49702 6.41275
#
# Compressibility (1/GPa) = 0.03066357
#
# Stress axis : x y z
#
# Youngs Moduli (GPa) = 90.60634 124.05521 42.94453
#
# Poissons Ratio (x) = 0.34840 0.03127
# Poissons Ratio (y) = 0.25446 0.09977
# Poissons Ratio (z) = 0.06598 0.28822
#
# Static dielectric constant tensor:
#      x y z
#    x 4.540750 -0.165690 -0.548710 
#    y -0.165690 3.742930 0.109110 
#    z -0.548710 0.109110 3.467470 
# 
# 
# High freq. dielectric constant tensor:
#      x y z
#    x 1.804690 0.002730 -0.021880 
#    y 0.002730 1.773640 0.000370 
#    z -0.021880 0.000370 1.737420 
# 
# From -- ./inp_files/89550.got.cif
#   From: 2010.06.25/outbox.cif.g09.slc.cpg/sg2_45_cif.got.tgz:89550.got - 2010.06.27 13:26:56.
