data_PCOD8000752
_publ_section_title
;
Structure prediction by ZEFSAII (Michael W. Deem and Ramdas Pophale) SiO2 
 PCOD8000752
Probable space group: P -1
;
_chemical_formula_sum "Si O2"
_cell_formula_units_Z 14
_cell_length_a 14.313929
_cell_length_b 9.657064
_cell_length_c 18.258018
_cell_angle_alpha 152.888038
_cell_angle_beta 31.583673
_cell_angle_gamma 151.485690
_cell_volume 520.102481
_symmetry_space_group_name_H-M "P -1"
_symmetry_group_IT_number 2
_symmetry_cell_setting 'triclinic'
loop_
_space_group_symop_operation_xyz
x,y,z
-x,-y,-z
loop_
_atom_site_type_symbol
_atom_site_label
_atom_site_fract_x
_atom_site_fract_y
_atom_site_fract_z
Si Si1 0.052789 0.553290 0.260183
Si Si2 0.245311 0.247528 0.383690
Si Si3 0.659797 0.725564 0.407153
Si Si4 0.638027 0.348512 0.789681
Si Si5 0.789152 0.225640 0.153559
Si Si6 0.416307 0.267622 0.125743
Si Si7 0.794249 0.541236 0.091643
O O1 0.183705 0.429786 0.164146
O O2 0.956048 0.719773 0.457486
O O3 0.877079 0.235241 0.180832
O O4 0.198806 0.852867 0.245074
O O5 0.418549 0.504995 0.445564
O O6 0.304587 0.326737 0.296950
O O7 0.723917 0.521478 0.326537
O O8 0.787539 0.796310 0.278874
O O9 0.694673 0.077688 0.587271
O O10 0.646911 0.613653 0.848446
O O11 0.419340 0.159026 0.891608
O O12 0.964420 0.304145 0.012659
O O13 0.664025 0.512748 0.091675
O O14 0.335168 0.853681 0.972797
#
# Coordination Sequence:
#
# PCOD8000752 Si02
#       7
#     2   2   2   2   2   2   2
#     4  11  22  40  71 107 140 187 234 295 352 420
#     4  10  19  39  70  99 140 186 233 280 356 422
#     4  11  22  43  73 108 138 186 243 296 351 425
#     4  12  26  43  76 113 142 173 250 311 345 402
#     4  12  23  46  73 106 145 195 235 291 355 444
#     4  10  24  46  71 107 143 190 239 294 354 432
#     4  10  24  46  75  96 148 200 233 275 375 443
#
# _framework density 26.917770999999998
#
# number of rings (size 3 to 8) (size 9 to 14) (size 15 to 20)
#    0.000    1.143    4.286    2.571    0.000    3.429 
#    0.000    4.286    0.000    0.000    0.000    0.000 
#    0.000    0.000    0.000    0.000    0.000    0.000 
#
# Total GULP energy -173641.363163 kJ/mol
# GULP energy per Si atom -12402.954512 kJ/mol
# Density = 2.685650 g / cm^3
# Si number density = 26.917771 Si / 1000 Ang^3
#
#
#
# Elastic Constant Matrix: (Units=GPa)
#
#
# Indices 1 2 3 4 5 6 
#
# 1 187.3910 41.5524 55.0753 -2.1131 -28.0659 -2.9772
# 2 41.5524 84.0916 35.0601 -11.3844 -7.5144 -6.9027
# 3 55.0753 35.0601 72.7530 -23.8479 -3.3237 -10.3145
# 4 -2.1131 -11.3844 -23.8479 31.8547 -2.3119 -2.4685
# 5 -28.0659 -7.5144 -3.3237 -2.3119 48.2628 6.2723
# 6 -2.9772 -6.9027 -10.3145 -2.4685 6.2723 39.1068
#
#
#
# Elastic Compliance Matrix: (Units=1/GPa)
#
#
# Indices 1 2 3 4 5 6 
#
# 1 0.008480 -0.001591 -0.007704 -0.005676 0.004233 -0.002704
# 2 -0.001591 0.015354 -0.005546 0.001385 0.001013 0.001051
# 3 -0.007704 -0.005546 0.029895 0.020274 -0.003371 0.008140
# 4 -0.005676 0.001385 0.020274 0.047291 -0.000492 0.008224
# 5 0.004233 0.001013 -0.003371 -0.000492 0.023630 -0.004209
# 6 -0.002704 0.001051 0.008140 0.008224 -0.004209 0.028892
#
#
# Mechanical properties :
#
#
# Convention : Reuss Voigt Hill
#
# Bulk Modulus (GPa) = 41.58078 67.51236 54.54657
# Shear Modulus (GPa) = 26.14524 38.01473 32.07998
#
# Velocity S-wave (km/s) = 3.11995 3.76207 3.45596
# Velocity P-wave (km/s) = 5.33476 6.63373 6.01939
#
# Compressibility (1/GPa) = 0.02404957
#
# Stress axis : x y z
#
# Youngs Moduli (GPa) = 117.92077 65.12800 33.45022
#
# Poissons Ratio (x) = 0.10359 0.25769
# Poissons Ratio (y) = 0.18757 0.18551
# Poissons Ratio (z) = 0.90841 0.36119
#
# Static dielectric constant tensor:
#      x y z
#    x 5.073640 0.192950 -0.037360 
#    y 0.192950 4.612790 -0.297350 
#    z -0.037360 -0.297350 4.936140 
# 
# 
# High freq. dielectric constant tensor:
#      x y z
#    x 2.105770 0.008500 0.008210 
#    y 0.008500 2.059450 -0.025830 
#    z 0.008210 -0.025830 2.098500 
# 
# From -- ./inp_files/597467.got.cif
#   From: 2010.06.25/outbox.cif.g09.slc.cpg/sg2_299_cif.got.tgz:597467.got - 2010.06.27 13:26:56.
