data_PCOD8000119
_publ_section_title
;
Structure prediction by ZEFSAII (Michael W. Deem and Ramdas Pophale) SiO2 
 PCOD8000119
Probable space group: P 1
;
_chemical_formula_sum "Si O2"
_cell_formula_units_Z 8
_cell_length_a 8.990067
_cell_length_b 7.977706
_cell_length_c 8.179457
_cell_angle_alpha 124.105310
_cell_angle_beta 108.783420
_cell_angle_gamma 107.368812
_cell_volume 364.000343
_symmetry_space_group_name_H-M "P 1"
_symmetry_group_IT_number 1
_symmetry_cell_setting 'triclinic'
loop_
_space_group_symop_operation_xyz
x,y,z
loop_
_atom_site_type_symbol
_atom_site_label
_atom_site_fract_x
_atom_site_fract_y
_atom_site_fract_z
Si Si1 0.968950 0.418420 0.335870
Si Si2 0.841441 0.273037 0.563313
Si Si3 0.558681 0.736412 0.045571
Si Si4 0.308186 0.435787 0.357670
Si Si5 0.232357 0.966996 0.588022
Si Si6 0.189833 0.359736 0.910493
Si Si7 0.542749 0.965784 0.853340
Si Si8 0.498695 0.290318 0.581284
O O1 0.916405 0.443551 0.516634
O O2 0.131342 0.367227 0.379686
O O3 0.059103 0.668061 0.392609
O O4 0.775807 0.191202 0.044977
O O5 0.674458 0.278031 0.590859
O O6 0.017466 0.383416 0.817012
O O7 0.761609 0.986125 0.328619
O O8 0.400350 0.610369 0.064791
O O9 0.481176 0.834231 0.936933
O O10 0.587721 0.538960 0.864735
O O11 0.477425 0.744301 0.575667
O O12 0.403879 0.305803 0.390028
O O13 0.202938 0.323023 0.085927
O O14 0.416787 0.070327 0.834099
O O15 0.139692 0.112291 0.665550
O O16 0.324568 0.030900 0.472361
#
# Coordination Sequence:
#
# PCOD8000119 Si02
#       8
#     1   1   1   1   1   1   1   1
#     4  10  22  43  68  96 131 170 218 268 326 387
#     4  11  24  45  69  97 129 176 221 267 324 391
#     4   9  22  45  68  92 136 174 213 275 322 388
#     4  10  23  43  66  95 135 170 214 272 325 387
#     4  10  22  41  64  95 134 170 212 271 324 389
#     4  11  24  41  67  99 132 170 218 267 330 386
#     4   9  20  41  69  91 128 172 214 267 326 374
#     4  10  23  45  69  95 133 174 220 267 329 382
#
# _framework density 21.978000999999999
#
# number of rings (size 3 to 8) (size 9 to 14) (size 15 to 20)
#    0.000    2.000    0.000    3.000    8.750    2.000 
#    9.000    1.250    0.000    0.000    0.000    0.000 
#    0.000    0.000    0.000    0.000    0.000    0.000 
#
# Total GULP energy -99177.832181 kJ/mol
# GULP energy per Si atom -12397.229023 kJ/mol
# Density = 2.192798 g / cm^3
# Si number density = 21.978001 Si / 1000 Ang^3
#
#
#
# Elastic Constant Matrix: (Units=GPa)
#
#
# Indices 1 2 3 4 5 6 
#
# 1 124.1536 50.5029 41.1968 -1.4559 2.4165 6.9472
# 2 50.5029 129.9151 38.0828 2.1442 2.3799 12.7807
# 3 41.1968 38.0828 87.9827 -3.3233 16.7472 12.1543
# 4 -1.4559 2.1442 -3.3233 35.6668 6.2852 3.4917
# 5 2.4165 2.3799 16.7472 6.2852 29.9677 -5.4484
# 6 6.9472 12.7807 12.1543 3.4917 -5.4484 33.3055
#
#
#
# Elastic Compliance Matrix: (Units=1/GPa)
#
#
# Indices 1 2 3 4 5 6 
#
# 1 0.010560 -0.003008 -0.004111 -0.000175 0.001862 0.000775
# 2 -0.003008 0.009876 -0.002808 -0.000948 0.000882 -0.001894
# 3 -0.004111 -0.002808 0.017836 0.004384 -0.011592 -0.006930
# 4 -0.000175 -0.000948 0.004384 0.030838 -0.009930 -0.006057
# 5 0.001862 0.000882 -0.011592 -0.009930 0.043840 0.011716
# 6 0.000775 -0.001894 -0.006930 -0.006057 0.011716 0.035671
#
#
# Mechanical properties :
#
#
# Convention : Reuss Voigt Hill
#
# Bulk Modulus (GPa) = 54.29601 66.84628 60.57115
# Shear Modulus (GPa) = 28.63456 33.93925 31.28690
#
# Velocity S-wave (km/s) = 3.61345 3.93394 3.77710
# Velocity P-wave (km/s) = 6.49367 7.14952 6.82947
#
# Compressibility (1/GPa) = 0.01841756
#
# Stress axis : x y z
#
# Youngs Moduli (GPa) = 94.69287 101.26034 56.06670
#
# Poissons Ratio (x) = 0.30455 0.23050
# Poissons Ratio (y) = 0.28479 0.15746
# Poissons Ratio (z) = 0.38929 0.28439
#
# Static dielectric constant tensor:
#      x y z
#    x 3.828650 -0.008160 0.100070 
#    y -0.008160 4.070420 0.070510 
#    z 0.100070 0.070510 3.947670 
# 
# 
# High freq. dielectric constant tensor:
#      x y z
#    x 1.856990 0.000890 0.010430 
#    y 0.000890 1.874210 -0.002010 
#    z 0.010430 -0.002010 1.853270 
# 
# From -- ./inp_files/4133.got.cif
#   From: 2010.03.12/outbox.cif.g09.slc.cpg/sg1_3_cif.got.tgz:4133.got - 2010.03.29 11:57:58.
