data_PCOD8000455
_publ_section_title
;
Structure prediction by ZEFSAII (Michael W. Deem and Ramdas Pophale) SiO2 
 PCOD8000455
Probable space group: P -1
;
_chemical_formula_sum "Si O2"
_cell_formula_units_Z 12
_cell_length_a 15.206232
_cell_length_b 7.140585
_cell_length_c 16.332524
_cell_angle_alpha 80.438724
_cell_angle_beta 161.486124
_cell_angle_gamma 91.235344
_cell_volume 500.228929
_symmetry_space_group_name_H-M "P -1"
_symmetry_group_IT_number 2
_symmetry_cell_setting 'triclinic'
loop_
_space_group_symop_operation_xyz
x,y,z
-x,-y,-z
loop_
_atom_site_type_symbol
_atom_site_label
_atom_site_fract_x
_atom_site_fract_y
_atom_site_fract_z
Si Si1 0.123971 0.708279 0.813587
Si Si2 0.835474 0.455348 0.495797
Si Si3 0.185591 0.141419 0.306008
Si Si4 0.749830 0.735133 0.814876
Si Si5 0.149699 0.733948 0.306770
Si Si6 0.849210 0.944091 0.294299
O O1 0.983095 0.621750 0.621709
O O2 0.908017 0.734278 0.700061
O O3 0.113093 0.929097 0.759540
O O4 0.472194 0.555097 0.154865
O O5 0.983823 0.303836 0.560493
O O6 0.938518 0.319618 0.679254
O O7 0.096597 0.303169 0.137900
O O8 0.553801 0.990018 0.637936
O O9 0.012512 0.988830 0.158621
O O10 0.520022 0.624364 0.629454
O O11 0.009509 0.641773 0.119804
O O12 0.000000 0.000000 0.500000
O O13 0.500000 0.000000 0.000000
#
# Coordination Sequence:
#
# PCOD8000455 Si02
#       6
#     2   2   2   2   2   2
#     4  12  27  44  71 102 138 175 221 274 340 397
#     4  12  27  45  69 106 136 172 224 275 328 413
#     4   9  21  37  66  92 133 183 224 271 333 373
#     4   9  19  33  68  90 129 186 231 266 321 379
#     4  10  19  39  62  89 136 176 218 276 319 376
#     4  12  27  50  77  99 133 175 214 276 346 404
#
# _framework density 23.989014999999998
#
# number of rings (size 3 to 8) (size 9 to 14) (size 15 to 20)
#    1.000    0.333    1.667    3.500    2.333    5.333 
#    0.000    5.000    0.000    0.000    0.000    0.000 
#    0.000    0.000    0.000    0.000    0.000    0.000 
#
# Total GULP energy -148787.491236 kJ/mol
# GULP energy per Si atom -12398.957603 kJ/mol
# Density = 2.393442 g / cm^3
# Si number density = 23.989015 Si / 1000 Ang^3
#
#
#
# Elastic Constant Matrix: (Units=GPa)
#
#
# Indices 1 2 3 4 5 6 
#
# 1 96.8151 26.2386 33.9199 0.9591 4.6075 -25.3736
# 2 26.2386 81.5099 31.5717 17.1722 9.4934 -26.6825
# 3 33.9199 31.5717 119.1623 28.8336 -2.5038 -38.0645
# 4 0.9591 17.1722 28.8336 35.2135 -10.7860 2.0873
# 5 4.6075 9.4934 -2.5038 -10.7860 34.7103 1.9387
# 6 -25.3736 -26.6825 -38.0645 2.0873 1.9387 51.3473
#
#
#
# Elastic Compliance Matrix: (Units=1/GPa)
#
#
# Indices 1 2 3 4 5 6 
#
# 1 0.012736 -0.002716 -0.002755 0.002955 -0.000381 0.002734
# 2 -0.002716 0.021106 0.003315 -0.017159 -0.011243 0.013205
# 3 -0.002755 0.003315 0.016971 -0.018003 -0.005687 0.013889
# 4 0.002955 -0.017159 -0.018003 0.059888 0.022958 -0.024104
# 5 -0.000381 -0.011243 -0.005687 0.022958 0.039367 -0.012666
# 6 0.002734 0.013205 0.013889 -0.024104 -0.012666 0.039442
#
#
# Mechanical properties :
#
#
# Convention : Reuss Voigt Hill
#
# Bulk Modulus (GPa) = 21.50503 53.43863 37.47183
# Shear Modulus (GPa) = 23.88665 37.97136 30.92901
#
# Velocity S-wave (km/s) = 3.15895 3.98284 3.59458
# Velocity P-wave (km/s) = 4.72115 6.59358 5.73431
#
# Compressibility (1/GPa) = 0.04650075
#
# Stress axis : x y z
#
# Youngs Moduli (GPa) = 78.51934 47.38012 58.92367
#
# Poissons Ratio (x) = 0.12867 0.16236
# Poissons Ratio (y) = 0.21323 -0.19534
# Poissons Ratio (z) = 0.21636 -0.15707
#
# Static dielectric constant tensor:
#      x y z
#    x 4.220580 0.036170 0.026710 
#    y 0.036170 4.284540 0.011770 
#    z 0.026710 0.011770 3.993090 
# 
# 
# High freq. dielectric constant tensor:
#      x y z
#    x 1.957950 0.001440 -0.000320 
#    y 0.001440 1.954880 0.001920 
#    z -0.000320 0.001920 1.940540 
# 
# From -- ./inp_files/105507.got.cif
#   From: 2010.06.25/outbox.cif.g09.slc.cpg/sg2_53_cif.got.tgz:105507.got - 2010.06.27 13:26:56.
