data_PCOD8000748
_publ_section_title
;
Structure prediction by ZEFSAII (Michael W. Deem and Ramdas Pophale) SiO2 
 PCOD8000748
Probable space group: P -1
;
_chemical_formula_sum "Si O2"
_cell_formula_units_Z 14
_cell_length_a 21.908899
_cell_length_b 11.816614
_cell_length_c 15.789489
_cell_angle_alpha 153.836619
_cell_angle_beta 18.738034
_cell_angle_gamma 151.602480
_cell_volume 566.137379
_symmetry_space_group_name_H-M "P -1"
_symmetry_group_IT_number 2
_symmetry_cell_setting 'triclinic'
loop_
_space_group_symop_operation_xyz
x,y,z
-x,-y,-z
loop_
_atom_site_type_symbol
_atom_site_label
_atom_site_fract_x
_atom_site_fract_y
_atom_site_fract_z
Si Si1 0.479469 0.743107 0.798660
Si Si2 0.142017 0.138457 0.235385
Si Si3 0.880834 0.639431 0.188489
Si Si4 0.577093 0.635661 0.125582
Si Si5 0.067299 0.466857 0.140702
Si Si6 0.283780 0.946588 0.640555
Si Si7 0.482798 0.037914 0.821048
O O1 0.656302 0.596326 0.483429
O O2 0.482563 0.821422 0.747727
O O3 0.283262 0.536518 0.944030
O O4 0.500000 0.000000 0.000000
O O5 0.044097 0.302996 0.539363
O O6 0.272744 0.332226 0.127772
O O7 0.275169 0.975819 0.004089
O O8 0.975431 0.948918 0.273996
O O9 0.906950 0.526450 0.987823
O O10 0.000000 0.500000 0.000000
O O11 0.389692 0.745760 0.417413
O O12 0.673635 0.778557 0.179695
O O13 0.516085 0.325165 0.014036
O O14 0.947161 0.186824 0.144912
O O15 0.350610 0.986903 0.482550
#
# Coordination Sequence:
#
# PCOD8000748 Si02
#       7
#     2   2   2   2   2   2   2
#     4  12  29  50  69 106 152 189 239 305 364 426
#     4  11  21  41  75 113 140 190 239 293 355 437
#     4  12  28  48  73 104 142 193 246 297 363 437
#     4  10  19  39  70 112 148 184 245 287 350 426
#     4  12  23  46  75 103 150 185 241 296 363 417
#     4  10  20  39  73 108 144 194 238 294 348 430
#     4  11  23  43  72 107 152 185 238 296 362 417
#
# _framework density 24.72898
#
# number of rings (size 3 to 8) (size 9 to 14) (size 15 to 20)
#    0.000    0.857    5.714    2.143    2.000    1.143 
#    5.143    3.571    0.000    0.000    0.000    0.000 
#    0.000    0.000    0.000    0.000    0.000    0.000 
#
# Total GULP energy -173674.631228 kJ/mol
# GULP energy per Si atom -12405.330802 kJ/mol
# Density = 2.467270 g / cm^3
# Si number density = 24.728980 Si / 1000 Ang^3
#
#
#
# Elastic Constant Matrix: (Units=GPa)
#
#
# Indices 1 2 3 4 5 6 
#
# 1 84.7933 31.9396 50.8907 -3.6315 6.1401 12.5496
# 2 31.9396 101.2115 39.2054 -24.1238 -3.9441 34.9273
# 3 50.8907 39.2054 158.5079 -16.9082 10.0684 14.6968
# 4 -3.6315 -24.1238 -16.9082 47.5729 10.2265 -3.3823
# 5 6.1401 -3.9441 10.0684 10.2265 38.3051 10.1733
# 6 12.5496 34.9273 14.6968 -3.3823 10.1733 43.4091
#
#
#
# Elastic Compliance Matrix: (Units=1/GPa)
#
#
# Indices 1 2 3 4 5 6 
#
# 1 0.015809 -0.003940 -0.004247 -0.001998 -0.001342 0.000197
# 2 -0.003940 0.018099 -0.001590 0.006315 0.004819 -0.013522
# 3 -0.004247 -0.001590 0.008443 0.002428 -0.002461 0.000415
# 4 -0.001998 0.006315 0.002428 0.026124 -0.006151 -0.001848
# 5 -0.001342 0.004819 -0.002461 -0.006151 0.031926 -0.010618
# 6 0.000197 -0.013522 0.000415 -0.001848 -0.010618 0.036064
#
#
# Mechanical properties :
#
#
# Convention : Reuss Voigt Hill
#
# Bulk Modulus (GPa) = 43.86849 65.39825 54.63337
# Shear Modulus (GPa) = 30.55877 40.68923 35.62400
#
# Velocity S-wave (km/s) = 3.51913 4.06076 3.79961
# Velocity P-wave (km/s) = 5.85582 6.96346 6.43352
#
# Compressibility (1/GPa) = 0.02279540
#
# Stress axis : x y z
#
# Youngs Moduli (GPa) = 63.25446 55.25132 118.44571
#
# Poissons Ratio (x) = 0.21770 0.50307
# Poissons Ratio (y) = 0.24924 0.18836
# Poissons Ratio (z) = 0.26866 0.08787
#
# Static dielectric constant tensor:
#      x y z
#    x 4.149930 0.383690 0.160660 
#    y 0.383690 4.764790 -0.204120 
#    z 0.160660 -0.204120 4.521910 
# 
# 
# High freq. dielectric constant tensor:
#      x y z
#    x 1.975820 0.022900 0.011920 
#    y 0.022900 2.000070 -0.001470 
#    z 0.011920 -0.001470 1.991710 
# 
# From -- ./inp_files/541152.got.cif
#   From: 2010.06.25/outbox.cif.g09.slc.cpg/sg2_271_cif.got.tgz:541152.got - 2010.06.27 13:26:56.
