data_PCOD8000699
_publ_section_title
;
Structure prediction by ZEFSAII (Michael W. Deem and Ramdas Pophale) SiO2 
 PCOD8000699
Probable space group: P -1
;
_chemical_formula_sum "Si O2"
_cell_formula_units_Z 14
_cell_length_a 11.929637
_cell_length_b 10.944527
_cell_length_c 8.901761
_cell_angle_alpha 132.092292
_cell_angle_beta 125.548394
_cell_angle_gamma 47.853141
_cell_volume 620.901143
_symmetry_space_group_name_H-M "P -1"
_symmetry_group_IT_number 2
_symmetry_cell_setting 'triclinic'
loop_
_space_group_symop_operation_xyz
x,y,z
-x,-y,-z
loop_
_atom_site_type_symbol
_atom_site_label
_atom_site_fract_x
_atom_site_fract_y
_atom_site_fract_z
Si Si1 0.089999 0.806195 0.824915
Si Si2 0.675726 0.797728 0.805708
Si Si3 0.060285 0.943295 0.335809
Si Si4 0.618625 0.107897 0.515205
Si Si5 0.393438 0.823284 0.089057
Si Si6 0.691316 0.729724 0.109197
Si Si7 0.986601 0.367487 0.120159
O O1 0.058708 0.651443 0.758132
O O2 0.275022 0.737170 0.910199
O O3 0.013584 0.855824 0.641670
O O4 0.000000 0.000000 0.000000
O O5 0.542476 0.762915 0.591357
O O6 0.846148 0.634403 0.756570
O O7 0.667347 0.990764 0.904306
O O8 0.650727 0.803100 0.968686
O O9 0.248186 0.836070 0.382352
O O10 0.998504 0.805425 0.110462
O O11 0.000000 0.000000 0.500000
O O12 0.588583 0.129819 0.686894
O O13 0.681934 0.893418 0.343335
O O14 0.560561 0.675499 0.027880
O O15 0.861328 0.557792 0.106728
#
# Coordination Sequence:
#
# PCOD8000699 Si02
#       7
#     2   2   2   2   2   2   2
#     4  10  19  39  68  86 119 167 206 244 303 365
#     4  11  21  38  64  88 127 163 202 248 309 366
#     4  11  22  39  69  92 118 160 216 248 292 374
#     4  11  22  40  63  96 117 163 215 249 291 369
#     4  11  20  41  65  91 119 165 214 245 291 378
#     4  11  25  37  64  93 130 159 198 259 318 347
#     4  11  22  44  63  90 128 163 201 250 315 364
#
# _framework density 22.547872999999999
#
# number of rings (size 3 to 8) (size 9 to 14) (size 15 to 20)
#    0.000    1.143    5.714    4.714    2.000    0.571 
#    0.000   10.000    0.000    0.000    0.000    0.000 
#    0.000    0.000    0.000    0.000    0.000    0.000 
#
# Total GULP energy -173573.891562 kJ/mol
# GULP energy per Si atom -12398.135112 kJ/mol
# Density = 2.249655 g / cm^3
# Si number density = 22.547873 Si / 1000 Ang^3
#
#
#
# Elastic Constant Matrix: (Units=GPa)
#
#
# Indices 1 2 3 4 5 6 
#
# 1 149.0661 35.2641 67.7734 -29.0509 -14.7108 -21.8409
# 2 35.2641 94.5423 45.5098 -32.3869 -11.3412 -18.8081
# 3 67.7734 45.5098 93.0390 -38.6525 -14.8419 -2.2811
# 4 -29.0509 -32.3869 -38.6525 29.0187 0.7176 1.9838
# 5 -14.7108 -11.3412 -14.8419 0.7176 47.4596 -18.8845
# 6 -21.8409 -18.8081 -2.2811 1.9838 -18.8845 40.4604
#
#
#
# Elastic Compliance Matrix: (Units=1/GPa)
#
#
# Indices 1 2 3 4 5 6 
#
# 1 0.012591 0.004194 -0.006739 0.007354 0.007211 0.011372
# 2 0.004194 0.024974 0.000329 0.030840 0.014528 0.019161
# 3 -0.006739 0.000329 0.031157 0.034951 0.007166 -0.000098
# 4 0.007354 0.030840 0.034951 0.120109 0.030073 0.028423
# 5 0.007211 0.014528 0.007166 0.030073 0.039758 0.028132
# 6 0.011372 0.019161 -0.000098 0.028423 0.028132 0.051492
#
#
# Mechanical properties :
#
#
# Convention : Reuss Voigt Hill
#
# Bulk Modulus (GPa) = 15.55470 70.41577 42.98523
# Shear Modulus (GPa) = 16.34284 35.92776 26.13530
#
# Velocity S-wave (km/s) = 2.69514 3.99607 3.40825
# Velocity P-wave (km/s) = 4.07413 7.25181 5.88163
#
# Compressibility (1/GPa) = 0.06428926
#
# Stress axis : x y z
#
# Youngs Moduli (GPa) = 79.42052 40.04159 32.09509
#
# Poissons Ratio (x) = -0.16793 0.21630
# Poissons Ratio (y) = -0.33309 -0.01055
# Poissons Ratio (z) = 0.53524 -0.01316
#
# Static dielectric constant tensor:
#      x y z
#    x 4.660690 -0.258900 0.076340 
#    y -0.258900 3.225080 -0.092850 
#    z 0.076340 -0.092850 3.690390 
# 
# 
# High freq. dielectric constant tensor:
#      x y z
#    x 1.915310 -0.013710 -0.006310 
#    y -0.013710 1.864860 -0.037250 
#    z -0.006310 -0.037250 1.873110 
# 
# From -- ./inp_files/260288.got.cif
#   From: 2010.06.25/outbox.cif.g09.slc.cpg/sg2_131_cif.got.tgz:260288.got - 2010.06.27 13:26:56.
