data_PCOD8000725
_publ_section_title
;
Structure prediction by ZEFSAII (Michael W. Deem and Ramdas Pophale) SiO2 
 PCOD8000725
Probable space group: P -1
;
_chemical_formula_sum "Si O2"
_cell_formula_units_Z 14
_cell_length_a 15.686281
_cell_length_b 9.305003
_cell_length_c 15.402911
_cell_angle_alpha 128.205572
_cell_angle_beta 28.218211
_cell_angle_gamma 107.691621
_cell_volume 635.599590
_symmetry_space_group_name_H-M "P -1"
_symmetry_group_IT_number 2
_symmetry_cell_setting 'triclinic'
loop_
_space_group_symop_operation_xyz
x,y,z
-x,-y,-z
loop_
_atom_site_type_symbol
_atom_site_label
_atom_site_fract_x
_atom_site_fract_y
_atom_site_fract_z
Si Si1 0.952868 0.723156 0.241503
Si Si2 0.813792 0.930040 0.928707
Si Si3 0.837448 0.778476 0.176438
Si Si4 0.412135 0.624320 0.813722
Si Si5 0.370126 0.853377 0.644393
Si Si6 0.520380 0.783588 0.112524
Si Si7 0.638694 0.447596 0.726615
O O1 0.955379 0.781133 0.158902
O O2 0.987622 0.480657 0.124966
O O3 0.168350 0.683128 0.080712
O O4 0.711848 0.937220 0.584962
O O5 0.082501 0.771028 0.597477
O O6 0.741977 0.764014 0.932539
O O7 0.643761 0.144812 0.093231
O O8 0.785306 0.037088 0.088921
O O9 0.596165 0.836790 0.444604
O O10 0.790464 0.977280 0.229194
O O11 0.556197 0.404075 0.534124
O O12 0.564788 0.555217 0.737041
O O13 0.491600 0.653490 0.166068
O O14 0.564237 0.661273 0.935499
#
# Coordination Sequence:
#
# PCOD8000725 Si02
#       7
#     2   2   2   2   2   2   2
#     4  10  19  39  68  98 135 172 225 274 331 399
#     4  12  25  45  69 104 136 177 224 281 333 404
#     4   9  19  36  66 105 131 178 224 269 334 410
#     4  11  25  43  67 102 142 174 221 280 338 402
#     4  10  21  38  67  99 140 175 218 274 342 398
#     4  11  24  48  74  93 135 183 227 283 332 391
#     4  11  27  49  67 100 136 178 232 279 331 400
#
# _framework density 22.026446
#
# number of rings (size 3 to 8) (size 9 to 14) (size 15 to 20)
#    0.000    1.429    2.857    1.714    4.000    2.857 
#    0.000    0.000    0.000    0.000    0.000    0.000 
#    0.000    0.000    0.000    0.000    0.000    0.000 
#
# Total GULP energy -173693.326108 kJ/mol
# GULP energy per Si atom -12406.666151 kJ/mol
# Density = 2.197631 g / cm^3
# Si number density = 22.026446 Si / 1000 Ang^3
#
#
#
# Elastic Constant Matrix: (Units=GPa)
#
#
# Indices 1 2 3 4 5 6 
#
# 1 81.7669 45.4518 37.0227 4.0785 -3.5546 1.2066
# 2 45.4518 95.7238 43.0715 7.4814 2.0312 -6.0286
# 3 37.0227 43.0715 108.3759 19.5255 16.6137 0.9148
# 4 4.0785 7.4814 19.5255 27.6559 -5.7641 -4.4681
# 5 -3.5546 2.0312 16.6137 -5.7641 30.8118 8.3353
# 6 1.2066 -6.0286 0.9148 -4.4681 8.3353 26.1715
#
#
#
# Elastic Compliance Matrix: (Units=1/GPa)
#
#
# Indices 1 2 3 4 5 6 
#
# 1 0.018878 -0.007270 -0.005343 0.003833 0.007349 -0.004044
# 2 -0.007270 0.015859 -0.003652 -0.000160 -0.001150 0.004455
# 3 -0.005343 -0.003652 0.016494 -0.012229 -0.011682 0.000461
# 4 0.003833 -0.000160 -0.012229 0.047991 0.015047 0.003615
# 5 0.007349 -0.001150 -0.011682 0.015047 0.045796 -0.012212
# 6 -0.004044 0.004455 0.000461 0.003615 -0.012212 0.043913
#
#
# Mechanical properties :
#
#
# Convention : Reuss Voigt Hill
#
# Bulk Modulus (GPa) = 53.47029 59.66206 56.56617
# Shear Modulus (GPa) = 21.95924 27.61587 24.78755
#
# Velocity S-wave (km/s) = 3.16088 3.54469 3.35827
# Velocity P-wave (km/s) = 6.13594 6.62559 6.38546
#
# Compressibility (1/GPa) = 0.01870197
#
# Stress axis : x y z
#
# Youngs Moduli (GPa) = 52.97122 63.05437 60.62850
#
# Poissons Ratio (x) = 0.45840 0.32393
# Poissons Ratio (y) = 0.38510 0.22141
# Poissons Ratio (z) = 0.28302 0.23027
#
# Static dielectric constant tensor:
#      x y z
#    x 3.799780 0.072620 -0.057340 
#    y 0.072620 3.850280 0.220920 
#    z -0.057340 0.220920 4.073670 
# 
# 
# High freq. dielectric constant tensor:
#      x y z
#    x 1.858300 0.006620 -0.005170 
#    y 0.006620 1.862590 0.012420 
#    z -0.005170 0.012420 1.872460 
# 
# From -- ./inp_files/530089.got.cif
#   From: 2010.06.25/outbox.cif.g09.slc.cpg/sg2_266_cif.got.tgz:530089.got - 2010.06.27 13:26:56.
