data_PCOD8000299
_publ_section_title
;
Structure prediction by ZEFSAII (Michael W. Deem and Ramdas Pophale) SiO2 
 PCOD8000299
Probable space group: P -1
;
_chemical_formula_sum "Si O2"
_cell_formula_units_Z 16
_cell_length_a 8.959030
_cell_length_b 6.651637
_cell_length_c 14.289426
_cell_angle_alpha 108.564847
_cell_angle_beta 74.084399
_cell_angle_gamma 71.841949
_cell_volume 698.003737
_symmetry_space_group_name_H-M "P -1"
_symmetry_group_IT_number 2
_symmetry_cell_setting 'triclinic'
loop_
_space_group_symop_operation_xyz
x,y,z
-x,-y,-z
loop_
_atom_site_type_symbol
_atom_site_label
_atom_site_fract_x
_atom_site_fract_y
_atom_site_fract_z
Si Si1 0.468482 0.180011 0.211070
Si Si2 0.413148 0.551522 0.421763
Si Si3 0.534115 0.498238 0.102561
Si Si4 0.758095 0.481138 0.293938
Si Si5 0.774493 0.036182 0.783152
Si Si6 0.024976 0.033352 0.893368
Si Si7 0.067687 0.664273 0.566791
Si Si8 0.775165 0.699187 0.144746
O O1 0.405884 0.332634 0.338002
O O2 0.537372 0.277386 0.126270
O O3 0.307441 0.137908 0.195042
O O4 0.615148 0.941505 0.187418
O O5 0.500000 0.500000 0.500000
O O6 0.546011 0.616165 0.347374
O O7 0.208606 0.726471 0.494856
O O8 0.370785 0.728992 0.204757
O O9 0.721960 0.499994 0.082530
O O10 0.500000 0.500000 0.000000
O O11 0.820811 0.206819 0.210775
O O12 0.836253 0.490629 0.382034
O O13 0.817610 0.632278 0.236748
O O14 0.852312 0.092786 0.872405
O O15 0.916176 0.914055 0.659862
O O16 0.061898 0.266283 0.917247
O O17 0.000000 0.000000 0.000000
O O18 0.000000 0.500000 0.500000
#
# Coordination Sequence:
#
# PCOD8000299 Si02
#       8
#     2   2   2   2   2   2   2   2
#     4  11  22  44  68  93 137 168 224 279 319 394
#     4  10  19  38  70  91 128 170 215 272 323 385
#     4  11  26  43  70  96 128 178 228 268 331 398
#     4  10  22  43  65  98 129 172 222 268 323 405
#     4  10  25  41  65  98 135 170 217 269 334 386
#     4  11  25  41  66  94 136 170 215 273 335 390
#     4  10  20  40  69  97 133 173 212 274 334 384
#     4  11  23  42  69  93 131 171 221 269 329 388
#
# _framework density 22.922511
#
# number of rings (size 3 to 8) (size 9 to 14) (size 15 to 20)
#    0.000    1.500    3.750    0.000    5.250    3.500 
#    0.000    4.375    2.750    0.000    0.000    0.000 
#    0.000    0.000    0.000    0.000    0.000    0.000 
#
# Total GULP energy -198212.012253 kJ/mol
# GULP energy per Si atom -12388.250766 kJ/mol
# Density = 2.287034 g / cm^3
# Si number density = 22.922511 Si / 1000 Ang^3
#
#
#
# Elastic Constant Matrix: (Units=GPa)
#
#
# Indices 1 2 3 4 5 6 
#
# 1 137.2166 22.2875 23.4146 -6.2044 7.7718 25.7791
# 2 22.2875 70.9941 -4.4137 -23.8398 3.7624 20.9567
# 3 23.4146 -4.4137 43.7850 -10.7380 18.4286 16.4635
# 4 -6.2044 -23.8398 -10.7380 25.5535 6.3829 -0.9518
# 5 7.7718 3.7624 18.4286 6.3829 41.0583 -3.5992
# 6 25.7791 20.9567 16.4635 -0.9518 -3.5992 36.6906
#
#
#
# Elastic Compliance Matrix: (Units=1/GPa)
#
#
# Indices 1 2 3 4 5 6 
#
# 1 0.008693 0.002541 0.002649 0.006473 -0.004868 -0.009057
# 2 0.002541 -0.081440 -0.127127 -0.148914 0.096605 0.107388
# 3 0.002649 -0.127127 -0.146183 -0.204300 0.121050 0.142919
# 4 0.006473 -0.148914 -0.204300 -0.215666 0.153569 0.181649
# 5 -0.004868 0.096605 0.121050 0.153569 -0.071344 -0.109089
# 6 -0.009057 0.107388 0.142919 0.181649 -0.109089 -0.097837
#
#
# Mechanical properties :
#
#
# Convention : Reuss Voigt Hill
#
# Bulk Modulus (GPa) = -2.16073 37.17472 17.50699
# Shear Modulus (GPa) = -9.72439 34.70764 12.49163
#
# Velocity S-wave (km/s) = -2.06192 3.89540 2.33695
# Velocity P-wave (km/s) = 2.57164 6.04028 3.86469
#
# Compressibility (1/GPa) = -0.46280554
#
# Stress axis : x y z
#
# Youngs Moduli (GPa) = 115.03547 -12.27893 -6.84072
#
# Poissons Ratio (x) = 0.03120 0.01812
# Poissons Ratio (y) = -0.29229 -0.86964
# Poissons Ratio (z) = -0.30475 -1.56099
#
# Static dielectric constant tensor:
#      x y z
#    x 6.439160 2.173250 0.397480 
#    y 2.173250 6.517970 0.822640 
#    z 0.397480 0.822640 4.572370 
# 
# 
# High freq. dielectric constant tensor:
#      x y z
#    x 1.934810 0.001460 -0.001450 
#    y 0.001460 1.875190 0.001350 
#    z -0.001450 0.001350 1.913340 
# 
# From -- ./inp_files/488514.got.cif
#   From: 2010.06.25/outbox.cif.g09.slc.cpg/sg2_245_cif.got.tgz:488514.got - 2010.06.27 13:26:56.
