data_PCOD8000547
_publ_section_title
;
Structure prediction by ZEFSAII (Michael W. Deem and Ramdas Pophale) SiO2 
 PCOD8000547
Probable space group: P -1
;
_chemical_formula_sum "Si O2"
_cell_formula_units_Z 16
_cell_length_a 14.549154
_cell_length_b 9.100695
_cell_length_c 17.094641
_cell_angle_alpha 62.282170
_cell_angle_beta 153.843752
_cell_angle_gamma 101.637370
_cell_volume 735.979265
_symmetry_space_group_name_H-M "P -1"
_symmetry_group_IT_number 2
_symmetry_cell_setting 'triclinic'
loop_
_space_group_symop_operation_xyz
x,y,z
-x,-y,-z
loop_
_atom_site_type_symbol
_atom_site_label
_atom_site_fract_x
_atom_site_fract_y
_atom_site_fract_z
Si Si1 0.560578 0.500027 0.173870
Si Si2 0.832722 0.481214 0.237655
Si Si3 0.724408 0.030288 0.662075
Si Si4 0.447424 0.820082 0.661659
Si Si5 0.957646 0.634716 0.008768
Si Si6 0.300725 0.117049 0.031747
Si Si7 0.769704 0.369202 0.640571
Si Si8 0.602040 0.690521 0.306370
O O1 0.781224 0.447882 0.295019
O O2 0.647269 0.300727 0.336627
O O3 0.529308 0.658959 0.173061
O O4 0.299769 0.586093 0.907777
O O5 0.125891 0.344109 0.477970
O O6 0.719208 0.715344 0.081869
O O7 0.770492 0.041311 0.601554
O O8 0.651936 0.237213 0.597973
O O9 0.500000 0.000000 0.500000
O O10 0.946925 0.832896 0.923134
O O11 0.711742 0.673174 0.854994
O O12 0.489333 0.947012 0.725018
O O13 0.000000 0.500000 0.000000
O O14 0.189418 0.540661 0.271151
O O15 0.385845 0.918294 0.099844
O O16 0.035663 0.202449 0.847962
O O17 0.598394 0.547913 0.405070
#
# Coordination Sequence:
#
# PCOD8000547 Si02
#       8
#     2   2   2   2   2   2   2   2
#     4  10  19  39  64  87 125 164 200 247 300 367
#     4   9  21  40  60  90 130 160 196 252 303 348
#     4  10  20  38  59  80 117 155 196 247 312 361
#     4   9  19  39  57  82 120 154 197 244 309 351
#     4  10  22  37  61  86 114 155 202 256 302 361
#     4   9  21  38  60  89 123 157 200 252 293 365
#     4  10  21  41  59  88 123 160 199 253 312 355
#     4  11  21  38  65  91 121 161 208 244 299 366
#
# _framework density 21.739744000000002
#
# number of rings (size 3 to 8) (size 9 to 14) (size 15 to 20)
#    0.000    2.250    1.250    1.500    1.750    1.500 
#    2.250    8.125    0.000    0.000    0.000    0.000 
#    0.000    0.000    0.000    0.000    0.000    0.000 
#
# Total GULP energy -198307.842401 kJ/mol
# GULP energy per Si atom -12394.240150 kJ/mol
# Density = 2.169026 g / cm^3
# Si number density = 21.739744 Si / 1000 Ang^3
#
#
#
# Elastic Constant Matrix: (Units=GPa)
#
#
# Indices 1 2 3 4 5 6 
#
# 1 108.0674 47.7541 22.7759 -6.0966 -24.1738 -4.7333
# 2 47.7541 103.1970 25.9943 8.4943 5.5224 -9.6596
# 3 22.7759 25.9943 51.7560 -5.2969 -9.6959 -5.4346
# 4 -6.0966 8.4943 -5.2969 27.6914 -5.7306 -5.7180
# 5 -24.1738 5.5224 -9.6959 -5.7306 27.5607 3.2222
# 6 -4.7333 -9.6596 -5.4346 -5.7180 3.2222 38.6057
#
#
#
# Elastic Compliance Matrix: (Units=1/GPa)
#
#
# Indices 1 2 3 4 5 6 
#
# 1 0.020602 -0.012956 0.003554 0.014309 0.024912 -0.000175
# 2 -0.012956 0.021007 -0.010525 -0.015650 -0.022736 0.001766
# 3 0.003554 -0.010525 0.027956 0.013467 0.017597 0.002264
# 4 0.014309 -0.015650 0.013467 0.054136 0.031077 0.005159
# 5 0.024912 -0.022736 0.017597 0.031077 0.075560 -0.001861
# 6 -0.000175 0.001766 0.002264 0.005159 -0.001861 0.027561
#
#
# Mechanical properties :
#
#
# Convention : Reuss Voigt Hill
#
# Bulk Modulus (GPa) = 33.65732 50.67435 42.16584
# Shear Modulus (GPa) = 18.07803 29.87131 23.97467
#
# Velocity S-wave (km/s) = 2.88682 3.71083 3.32445
# Velocity P-wave (km/s) = 5.16015 6.45914 5.84584
#
# Compressibility (1/GPa) = 0.02971122
#
# Stress axis : x y z
#
# Youngs Moduli (GPa) = 48.53952 47.60375 35.77038
#
# Poissons Ratio (x) = 0.61675 -0.12713
# Poissons Ratio (y) = 0.62888 0.37648
# Poissons Ratio (z) = -0.17251 0.50102
#
# Static dielectric constant tensor:
#      x y z
#    x 4.244020 0.139180 -0.537770 
#    y 0.139180 4.123070 0.189020 
#    z -0.537770 0.189020 3.921800 
# 
# 
# High freq. dielectric constant tensor:
#      x y z
#    x 1.855500 0.005210 -0.024550 
#    y 0.005210 1.862900 0.022700 
#    z -0.024550 0.022700 1.828860 
# 
# From -- ./inp_files/297423.got.cif
#   From: 2010.06.25/outbox.cif.g09.slc.cpg/sg2_149_cif.got.tgz:297423.got - 2010.06.27 13:26:56.
