data_PCOD8000807
_publ_section_title
;
Structure prediction by ZEFSAII (Michael W. Deem and Ramdas Pophale) SiO2 
 PCOD8000807
Probable space group: P -1
;
_chemical_formula_sum "Si O2"
_cell_formula_units_Z 16
_cell_length_a 6.524839
_cell_length_b 17.573350
_cell_length_c 7.362271
_cell_angle_alpha 88.637815
_cell_angle_beta 61.760784
_cell_angle_gamma 77.905310
_cell_volume 724.410530
_symmetry_space_group_name_H-M "P -1"
_symmetry_group_IT_number 2
_symmetry_cell_setting 'triclinic'
loop_
_space_group_symop_operation_xyz
x,y,z
-x,-y,-z
loop_
_atom_site_type_symbol
_atom_site_label
_atom_site_fract_x
_atom_site_fract_y
_atom_site_fract_z
Si Si1 0.618316 0.218653 0.092897
Si Si2 0.197505 0.575730 0.387282
Si Si3 0.388248 0.090580 0.033991
Si Si4 0.889905 0.176721 0.322978
Si Si5 0.550430 0.670189 0.135536
Si Si6 0.129207 0.266821 0.480322
Si Si7 0.072754 0.462362 0.168368
Si Si8 0.610620 0.815418 0.316503
O O1 0.569849 0.136084 0.049461
O O2 0.384706 0.267033 0.288320
O O3 0.847095 0.204785 0.129418
O O4 0.655606 0.274191 0.906259
O O5 0.441039 0.606498 0.292020
O O6 0.225909 0.511182 0.220071
O O7 0.976754 0.645409 0.412892
O O8 0.153672 0.543530 0.608607
O O9 0.128852 0.107546 0.239401
O O10 0.342459 0.119844 0.845031
O O11 0.500000 0.000000 0.000000
O O12 0.936107 0.248236 0.419427
O O13 0.654680 0.150347 0.492104
O O14 0.640487 0.728575 0.228814
O O15 0.771752 0.624957 0.924156
O O16 0.181405 0.199033 0.617745
O O17 0.000000 0.500000 0.000000
#
# Coordination Sequence:
#
# PCOD8000807 Si02
#       8
#     2   2   2   2   2   2   2   2
#     4   9  21  39  64  90 123 158 214 259 302 375
#     4  11  23  39  63  87 126 171 205 263 322 367
#     4  10  23  40  61  92 128 162 202 252 317 381
#     4  10  21  39  61  90 122 161 203 260 311 364
#     4  11  21  40  62  91 119 164 218 258 312 373
#     4  10  19  40  61  90 122 157 215 258 306 368
#     4  11  25  42  57  91 133 165 209 263 319 385
#     4  10  22  37  64  92 119 162 211 260 304 373
#
# _framework density 22.086921
#
# number of rings (size 3 to 8) (size 9 to 14) (size 15 to 20)
#    0.000    1.750    2.500    1.125    1.750    2.500 
#    0.000    5.625    0.000    0.000    0.000    0.000 
#    0.000    0.000    0.000    0.000    0.000    0.000 
#
# Total GULP energy -198344.716781 kJ/mol
# GULP energy per Si atom -12396.544799 kJ/mol
# Density = 2.203665 g / cm^3
# Si number density = 22.086921 Si / 1000 Ang^3
#
#
#
# Elastic Constant Matrix: (Units=GPa)
#
#
# Indices 1 2 3 4 5 6 
#
# 1 86.2362 28.6320 23.8532 -7.2271 23.7385 -7.2533
# 2 28.6320 107.5238 36.3028 1.4132 9.2205 -3.0888
# 3 23.8532 36.3028 94.7204 -9.0514 20.9064 1.4467
# 4 -7.2271 1.4132 -9.0514 32.5592 -6.0632 -2.7378
# 5 23.7385 9.2205 20.9064 -6.0632 34.1085 -4.7732
# 6 -7.2533 -3.0888 1.4467 -2.7378 -4.7732 20.0182
#
#
#
# Elastic Compliance Matrix: (Units=1/GPa)
#
#
# Indices 1 2 3 4 5 6 
#
# 1 0.015714 -0.003133 -0.000660 0.002084 -0.008834 0.003437
# 2 -0.003133 0.011459 -0.004115 -0.001995 0.001389 0.000989
# 3 -0.000660 -0.004115 0.014153 0.002361 -0.007142 -0.003277
# 4 0.002084 -0.001995 0.002361 0.033225 0.004368 0.005862
# 5 -0.008834 0.001389 -0.007142 0.004368 0.041363 0.007990
# 6 0.003437 0.000989 -0.003277 0.005862 0.007990 0.054296
#
#
# Mechanical properties :
#
#
# Convention : Reuss Voigt Hill
#
# Bulk Modulus (GPa) = 39.20017 51.78403 45.49210
# Shear Modulus (GPa) = 25.70293 30.65001 28.17647
#
# Velocity S-wave (km/s) = 3.41503 3.72923 3.57558
# Velocity P-wave (km/s) = 5.77378 6.48377 6.13905
#
# Compressibility (1/GPa) = 0.02551009
#
# Stress axis : x y z
#
# Youngs Moduli (GPa) = 63.63666 87.26427 70.65700
#
# Poissons Ratio (x) = 0.27337 0.04665
# Poissons Ratio (y) = 0.19936 0.29078
# Poissons Ratio (z) = 0.04201 0.35912
#
# Static dielectric constant tensor:
#      x y z
#    x 3.834050 -0.177860 0.159070 
#    y -0.177860 3.724910 0.062460 
#    z 0.159070 0.062460 4.263490 
# 
# 
# High freq. dielectric constant tensor:
#      x y z
#    x 1.855490 -0.010720 0.002710 
#    y -0.010720 1.847590 0.006790 
#    z 0.002710 0.006790 1.887010 
# 
# From -- ./inp_files/138937.got.cif
#   From: 2010.06.25/outbox.cif.g09.slc.cpg/sg2_70_cif.got.tgz:138937.got - 2010.06.27 13:26:56.
