data_PCOD8000063
_publ_section_title
;
Structure prediction by ZEFSAII (Michael W. Deem and Ramdas Pophale) SiO2 
 PCOD8000063
Probable space group: P 1
;
_chemical_formula_sum "Si O2"
_cell_formula_units_Z 8
_cell_length_a 11.170601
_cell_length_b 11.458021
_cell_length_c 6.625629
_cell_angle_alpha 83.980105
_cell_angle_beta 101.255597
_cell_angle_gamma 153.252183
_cell_volume 369.669823
_symmetry_space_group_name_H-M "P 1"
_symmetry_group_IT_number 1
_symmetry_cell_setting 'triclinic'
loop_
_space_group_symop_operation_xyz
x,y,z
loop_
_atom_site_type_symbol
_atom_site_label
_atom_site_fract_x
_atom_site_fract_y
_atom_site_fract_z
Si Si1 0.950480 0.600900 0.917230
Si Si2 0.125092 0.419305 0.698924
Si Si3 0.834329 0.244243 0.987500
Si Si4 0.404953 0.510602 0.481067
Si Si5 0.806823 0.034519 0.345221
Si Si6 0.133564 0.872604 0.320556
Si Si7 0.321681 0.836091 0.648348
Si Si8 0.615134 0.439427 0.515594
O O1 0.888543 0.424503 0.045665
O O2 0.687008 0.420047 0.736347
O O3 0.196489 0.794018 0.809027
O O4 0.040015 0.776616 0.075719
O O5 0.375794 0.550443 0.684289
O O6 0.167832 0.584393 0.586328
O O7 0.099690 0.411040 0.935730
O O8 0.846571 0.128523 0.560448
O O9 0.633002 0.078512 0.760675
O O10 0.716827 0.060364 0.156709
O O11 0.552996 0.515356 0.564962
O O12 0.100660 0.233281 0.335958
O O13 0.577615 0.737872 0.338659
O O14 0.297808 0.897395 0.434322
O O15 0.867266 0.664945 0.405354
O O16 0.346759 0.162759 0.360360
#
# Coordination Sequence:
#
# PCOD8000063 Si02
#       8
#     1   1   1   1   1   1   1   1
#     4  10  24  41  67 103 126 180 216 283 335 398
#     4   9  22  39  62  99 126 179 208 272 333 384
#     4  11  21  39  67 101 136 167 223 276 337 407
#     4  10  23  46  65  93 136 180 214 278 323 394
#     4  10  23  40  65  94 134 174 217 264 339 388
#     4  11  24  42  69 100 130 175 221 276 339 384
#     4  10  21  38  65  97 142 159 219 277 339 397
#     4  11  24  47  68  95 136 174 230 270 325 398
#
# _framework density 21.640931999999999
#
# number of rings (size 3 to 8) (size 9 to 14) (size 15 to 20)
#    0.750    1.000    1.250    2.250    5.250    1.000 
#    2.250    2.500    0.000    0.000    0.000    0.000 
#    0.000    0.000    0.000    0.000    0.000    0.000 
#
# Total GULP energy -99133.085325 kJ/mol
# GULP energy per Si atom -12391.635666 kJ/mol
# Density = 2.159168 g / cm^3
# Si number density = 21.640932 Si / 1000 Ang^3
#
#
#
# Elastic Constant Matrix: (Units=GPa)
#
#
# Indices 1 2 3 4 5 6 
#
# 1 128.0388 37.6995 43.9494 -6.0483 -12.7725 -7.7379
# 2 37.6995 119.1534 21.4897 3.5172 -4.0247 0.3335
# 3 43.9494 21.4897 70.2855 8.9855 -7.2258 -3.5024
# 4 -6.0483 3.5172 8.9855 27.1592 -3.1608 5.1019
# 5 -12.7725 -4.0247 -7.2258 -3.1608 23.0837 2.1641
# 6 -7.7379 0.3335 -3.5024 5.1019 2.1641 28.4668
#
#
#
# Elastic Compliance Matrix: (Units=1/GPa)
#
#
# Indices 1 2 3 4 5 6 
#
# 1 0.011605 -0.002478 -0.006676 0.005448 0.004548 0.001040
# 2 -0.002478 0.009430 -0.001230 -0.001262 -0.000220 -0.000692
# 3 -0.006676 -0.001230 0.020040 -0.008223 0.001045 0.002059
# 4 0.005448 -0.001262 -0.008223 0.043176 0.006862 -0.007776
# 5 0.004548 -0.000220 0.001045 0.006862 0.047390 -0.003465
# 6 0.001040 -0.000692 0.002059 -0.007776 -0.003465 0.037330
#
#
# Mechanical properties :
#
#
# Convention : Reuss Voigt Hill
#
# Bulk Modulus (GPa) = 49.24301 58.19500 53.71900
# Shear Modulus (GPa) = 25.44426 30.03122 27.73774
#
# Velocity S-wave (km/s) = 3.43264 3.72923 3.58400
# Velocity P-wave (km/s) = 6.20602 6.74481 6.48101
#
# Compressibility (1/GPa) = 0.02030745
#
# Stress axis : x y z
#
# Youngs Moduli (GPa) = 86.16806 106.04392 49.90114
#
# Poissons Ratio (x) = 0.26276 0.33315
# Poissons Ratio (y) = 0.21351 0.06136
# Poissons Ratio (z) = 0.57528 0.13039
#
# Static dielectric constant tensor:
#      x y z
#    x 3.875570 0.033090 -0.010380 
#    y 0.033090 3.834920 0.029280 
#    z -0.010380 0.029280 3.510120 
# 
# 
# High freq. dielectric constant tensor:
#      x y z
#    x 1.845870 0.004320 -0.008850 
#    y 0.004320 1.855430 0.002120 
#    z -0.008850 0.002120 1.822220 
# 
# From -- ./inp_files/666.got.cif
#   From: 2010.03.12/outbox.cif.g09.slc.cpg/sg1_1_cif.got.tgz:666.got - 2010.03.29 11:57:58.
