data_PCOD8000235
_publ_section_title
;
Structure prediction by ZEFSAII (Michael W. Deem and Ramdas Pophale) SiO2 
 PCOD8000235
Probable space group: P 1
;
_chemical_formula_sum "Si O2"
_cell_formula_units_Z 8
_cell_length_a 8.884214
_cell_length_b 11.603033
_cell_length_c 4.881031
_cell_angle_alpha 95.794031
_cell_angle_beta 65.319543
_cell_angle_gamma 53.841039
_cell_volume 325.140633
_symmetry_space_group_name_H-M "P 1"
_symmetry_group_IT_number 1
_symmetry_cell_setting 'triclinic'
loop_
_space_group_symop_operation_xyz
x,y,z
loop_
_atom_site_type_symbol
_atom_site_label
_atom_site_fract_x
_atom_site_fract_y
_atom_site_fract_z
Si Si1 0.252540 0.709530 0.196920
Si Si2 0.781129 0.844732 0.706122
Si Si3 0.173060 0.359060 0.667587
Si Si4 0.744295 0.717775 0.205166
Si Si5 0.963876 0.068245 0.376769
Si Si6 0.543289 0.582573 0.443961
Si Si7 0.034460 0.285976 0.228473
Si Si8 0.679106 0.141329 0.083825
O O1 0.478969 0.580689 0.182234
O O2 0.060269 0.715729 0.458181
O O3 0.332147 0.645370 0.811808
O O4 0.149486 0.890208 0.326774
O O5 0.713040 0.846617 0.448164
O O6 0.695582 0.781935 0.948375
O O7 0.665426 0.019766 0.934203
O O8 0.416745 0.301890 0.403806
O O9 0.052117 0.362045 0.493604
O O10 0.002596 0.537097 0.973666
O O11 0.210147 0.242297 0.845970
O O12 0.564423 0.711576 0.454028
O O13 0.093219 0.125416 0.227332
O O14 0.848904 0.065260 0.196814
O O15 0.767433 0.185008 0.788680
O O16 0.777653 0.407538 0.321974
#
# Coordination Sequence:
#
# PCOD8000235 Si02
#       8
#     1   1   1   1   1   1   1   1
#     4  11  23  41  63  92 127 166 211 262 315 378
#     4  11  23  41  63  92 127 166 211 262 315 378
#     4  11  24  43  65  96 131 168 214 268 320 382
#     4  11  23  41  63  92 127 166 211 262 315 378
#     4  11  24  43  65  96 131 168 214 268 320 382
#     4  11  23  41  63  92 127 166 211 262 315 378
#     4  11  24  43  65  96 131 168 214 268 320 382
#     4  11  24  43  65  96 131 168 214 268 320 382
#
# _framework density 24.604738000000001
#
# number of rings (size 3 to 8) (size 9 to 14) (size 15 to 20)
#    0.000    1.000    0.000    9.000    0.000    6.000 
#    0.000    0.000    0.000    0.000    0.000    0.000 
#    0.000    0.000    0.000    0.000    0.000    0.000 
#
# Total GULP energy -99198.341210 kJ/mol
# GULP energy per Si atom -12399.792651 kJ/mol
# Density = 2.454874 g / cm^3
# Si number density = 24.604738 Si / 1000 Ang^3
#
#
#
# Elastic Constant Matrix: (Units=GPa)
#
#
# Indices 1 2 3 4 5 6 
#
# 1 51.6043 1.5847 3.3201 -1.9656 25.3723 -16.0184
# 2 1.5847 61.3709 13.4583 -24.1336 9.0889 -5.4651
# 3 3.3201 13.4583 109.6571 -26.6683 11.7770 -7.7400
# 4 -1.9656 -24.1336 -26.6683 38.1072 -3.1663 1.8268
# 5 25.3723 9.0889 11.7770 -3.1663 31.2657 -3.5778
# 6 -16.0184 -5.4651 -7.7400 1.8268 -3.5778 27.9558
#
#
#
# Elastic Compliance Matrix: (Units=1/GPa)
#
#
# Indices 1 2 3 4 5 6 
#
# 1 0.044355 0.007856 0.004860 0.006496 -0.036800 0.023162
# 2 0.007856 0.024349 0.002526 0.016250 -0.011916 0.007374
# 3 0.004860 0.002526 0.012150 0.009470 -0.007719 0.005036
# 4 0.006496 0.016250 0.009470 0.042510 -0.008612 0.005641
# 5 -0.036800 -0.011916 -0.007719 -0.008612 0.065446 -0.016614
# 6 0.023162 0.007374 0.005036 0.005641 -0.016614 0.049383
#
#
# Mechanical properties :
#
#
# Convention : Reuss Voigt Hill
#
# Bulk Modulus (GPa) = 8.98166 28.81764 18.89965
# Shear Modulus (GPa) = 20.42306 33.08367 26.75337
#
# Velocity S-wave (km/s) = 2.88418 3.67086 3.30104
# Velocity P-wave (km/s) = 3.84052 5.45020 4.71457
#
# Compressibility (1/GPa) = 0.11133793
#
# Stress axis : x y z
#
# Youngs Moduli (GPa) = 22.54531 41.06936 82.30591
#
# Poissons Ratio (x) = -0.32265 -0.40000
# Poissons Ratio (y) = -0.17712 -0.20789
# Poissons Ratio (z) = -0.10957 -0.10374
#
# Static dielectric constant tensor:
#      x y z
#    x 4.229260 0.050070 -0.080150 
#    y 0.050070 4.255650 -0.395100 
#    z -0.080150 -0.395100 4.632460 
# 
# 
# High freq. dielectric constant tensor:
#      x y z
#    x 1.969180 -0.001260 0.001940 
#    y -0.001260 1.969950 -0.024380 
#    z 0.001940 -0.024380 1.993170 
# 
# From -- ./inp_files/1712.got.cif
#   From: 2010.03.12/outbox.cif.g09.slc.cpg/sg1_1_cif.got.tgz:1712.got - 2010.03.29 11:57:58.
