data_PCOD8000696
_publ_section_title
;
Structure prediction by ZEFSAII (Michael W. Deem and Ramdas Pophale) SiO2 
 PCOD8000696
Probable space group: P -1
;
_chemical_formula_sum "Si O2"
_cell_formula_units_Z 16
_cell_length_a 8.948444
_cell_length_b 8.222071
_cell_length_c 11.518609
_cell_angle_alpha 91.725780
_cell_angle_beta 90.381512
_cell_angle_gamma 47.847391
_cell_volume 627.896728
_symmetry_space_group_name_H-M "P -1"
_symmetry_group_IT_number 2
_symmetry_cell_setting 'triclinic'
loop_
_space_group_symop_operation_xyz
x,y,z
-x,-y,-z
loop_
_atom_site_type_symbol
_atom_site_label
_atom_site_fract_x
_atom_site_fract_y
_atom_site_fract_z
Si Si1 0.481801 0.761935 0.299209
Si Si2 0.152830 0.394723 0.351311
Si Si3 0.891431 0.830062 0.059491
Si Si4 0.256528 0.134382 0.694914
Si Si5 0.143931 0.056493 0.469611
Si Si6 0.405048 0.740056 0.035480
Si Si7 0.705668 0.436246 0.472438
Si Si8 0.746661 0.640360 0.903634
O O1 0.533861 0.916527 0.314222
O O2 0.428637 0.746853 0.171310
O O3 0.678116 0.521846 0.342294
O O4 0.289547 0.850844 0.380001
O O5 0.123788 0.249738 0.417264
O O6 0.266024 0.437982 0.435388
O O7 0.281029 0.292546 0.230314
O O8 0.929846 0.610248 0.320772
O O9 0.759640 0.925553 0.177963
O O10 0.128438 0.625206 0.087195
O O11 0.852938 0.713036 0.967121
O O12 0.827291 0.048750 0.000166
O O13 0.249305 0.996456 0.595392
O O14 0.904036 0.169844 0.474594
O O15 0.500000 0.500000 0.000000
O O16 0.531738 0.781534 0.966580
O O17 0.500000 0.500000 0.500000
#
# Coordination Sequence:
#
# PCOD8000696 Si02
#       8
#     2   2   2   2   2   2   2   2
#     4  12  24  41  68  98 130 179 234 279 347 407
#     4  10  20  39  70 102 132 170 228 284 338 403
#     4  10  22  42  68 100 131 175 236 292 338 398
#     4  10  19  39  68 103 131 165 229 296 342 391
#     4  11  22  41  70 104 132 170 231 290 336 412
#     4  12  28  44  64  96 143 189 230 276 349 426
#     4  11  25  43  65  96 143 180 213 276 356 427
#     4  10  22  40  72 101 133 174 232 295 340 397
#
# _framework density 25.4819
#
# number of rings (size 3 to 8) (size 9 to 14) (size 15 to 20)
#    0.000    1.250    3.750    2.250    3.500    2.000 
#    0.000    0.000    0.000    0.000    0.000    0.000 
#    0.000    0.000    0.000    0.000    0.000    0.000 
#
# Total GULP energy -198308.109821 kJ/mol
# GULP energy per Si atom -12394.256864 kJ/mol
# Density = 2.542390 g / cm^3
# Si number density = 25.481900 Si / 1000 Ang^3
#
#
#
# Elastic Constant Matrix: (Units=GPa)
#
#
# Indices 1 2 3 4 5 6 
#
# 1 77.2257 27.7087 32.2185 4.2399 2.3871 -26.0071
# 2 27.7087 129.6911 52.2703 -15.2251 14.1232 -2.2880
# 3 32.2185 52.2703 199.7492 -7.9621 -11.2771 -11.2173
# 4 4.2399 -15.2251 -7.9621 42.3120 -11.6516 -4.1149
# 5 2.3871 14.1232 -11.2771 -11.6516 23.7052 9.5384
# 6 -26.0071 -2.2880 -11.2173 -4.1149 9.5384 28.7001
#
#
#
# Elastic Compliance Matrix: (Units=1/GPa)
#
#
# Indices 1 2 3 4 5 6 
#
# 1 0.024209 -0.002589 -0.002908 -0.005630 -0.015016 0.024777
# 2 -0.002589 0.010133 -0.002519 0.001752 -0.006003 -0.000276
# 3 -0.002908 -0.002519 0.006489 0.002291 0.006920 -0.002271
# 4 -0.005630 0.001752 0.002291 0.029497 0.017369 -0.005610
# 5 -0.015016 -0.006003 0.006920 0.017369 0.072356 -0.032938
# 6 0.024777 -0.000276 -0.002271 -0.005610 -0.032938 0.066528
#
#
# Mechanical properties :
#
#
# Convention : Reuss Voigt Hill
#
# Bulk Modulus (GPa) = 40.32286 70.11791 55.22039
# Shear Modulus (GPa) = 21.41244 38.57470 29.99357
#
# Velocity S-wave (km/s) = 2.90194 3.89499 3.43454
# Velocity P-wave (km/s) = 5.20450 6.91407 6.11928
#
# Compressibility (1/GPa) = 0.02479983
#
# Stress axis : x y z
#
# Youngs Moduli (GPa) = 41.30765 98.68452 154.10965
#
# Poissons Ratio (x) = 0.25547 0.44816
# Poissons Ratio (y) = 0.10693 0.38815
# Poissons Ratio (z) = 0.12012 0.24856
#
# Static dielectric constant tensor:
#      x y z
#    x 4.758400 -0.171720 -0.148470 
#    y -0.171720 5.270410 -0.448400 
#    z -0.148470 -0.448400 4.755260 
# 
# 
# High freq. dielectric constant tensor:
#      x y z
#    x 2.012300 -0.009070 -0.011160 
#    y -0.009070 2.045270 -0.019440 
#    z -0.011160 -0.019440 2.024550 
# 
# From -- ./inp_files/382673.got.cif
#   From: 2010.06.25/outbox.cif.g09.slc.cpg/sg2_192_cif.got.tgz:382673.got - 2010.06.27 13:26:56.
