data_PCOD8000937
_publ_section_title
;
Structure prediction by ZEFSAII (Michael W. Deem and Ramdas Pophale) SiO2 
 PCOD8000937
Probable space group: P -1
;
_chemical_formula_sum "Si O2"
_cell_formula_units_Z 14
_cell_length_a 11.525459
_cell_length_b 14.125897
_cell_length_c 11.773497
_cell_angle_alpha 139.693369
_cell_angle_beta 48.302745
_cell_angle_gamma 148.773045
_cell_volume 642.333974
_symmetry_space_group_name_H-M "P -1"
_symmetry_group_IT_number 2
_symmetry_cell_setting 'triclinic'
loop_
_space_group_symop_operation_xyz
x,y,z
-x,-y,-z
loop_
_atom_site_type_symbol
_atom_site_label
_atom_site_fract_x
_atom_site_fract_y
_atom_site_fract_z
Si Si1 0.187847 0.079670 0.298918
Si Si2 0.366358 0.839161 0.270130
Si Si3 0.989438 0.758946 0.325440
Si Si4 0.851766 0.901166 0.171245
Si Si5 0.410489 0.744394 0.394558
Si Si6 0.445991 0.654368 0.867334
Si Si7 0.230057 0.330946 0.203678
O O1 0.148196 0.221608 0.489280
O O2 0.435321 0.225229 0.219474
O O3 0.164082 0.959463 0.312713
O O4 0.008518 0.916206 0.168650
O O5 0.314646 0.716328 0.307057
O O6 0.130089 0.745411 0.299526
O O7 0.560209 0.091121 0.397259
O O8 0.471834 0.804762 0.075842
O O9 0.814752 0.549977 0.172053
O O10 0.656764 0.841619 0.315838
O O11 0.746908 0.717725 0.982311
O O12 0.991119 0.124889 0.223204
O O13 0.246871 0.518527 0.357443
O O14 0.565962 0.592022 0.782944
#
# Coordination Sequence:
#
# PCOD8000937 Si02
#       7
#     2   2   2   2   2   2   2
#     4  10  23  40  69  91 121 164 218 255 306 372
#     4  11  25  41  63  95 135 160 210 257 321 367
#     4  11  23  43  63  92 125 171 205 259 311 373
#     4  10  19  40  66  96 118 154 220 265 290 379
#     4  11  22  43  63  91 130 170 197 263 314 374
#     4  11  23  42  65  96 123 164 211 265 302 379
#     4  10  22  37  71  93 119 163 218 252 316 364
#
# _framework density 21.795515999999999
#
# number of rings (size 3 to 8) (size 9 to 14) (size 15 to 20)
#    0.000    1.429    2.857    2.143    4.000    0.571 
#    0.000    5.714    0.000    0.000    0.000    0.000 
#    0.000    0.000    0.000    0.000    0.000    0.000 
#
# Total GULP energy -173674.400069 kJ/mol
# GULP energy per Si atom -12405.314291 kJ/mol
# Density = 2.174591 g / cm^3
# Si number density = 21.795516 Si / 1000 Ang^3
#
#
#
# Elastic Constant Matrix: (Units=GPa)
#
#
# Indices 1 2 3 4 5 6 
#
# 1 86.4385 28.5438 17.4119 9.0799 -0.7006 -1.5656
# 2 28.5438 70.0800 35.2679 9.0578 -4.2101 -12.9230
# 3 17.4119 35.2679 101.9333 0.3227 5.1921 -13.6931
# 4 9.0799 9.0578 0.3227 29.8946 -1.0037 2.6364
# 5 -0.7006 -4.2101 5.1921 -1.0037 27.0635 4.5035
# 6 -1.5656 -12.9230 -13.6931 2.6364 4.5035 21.0920
#
#
#
# Elastic Compliance Matrix: (Units=1/GPa)
#
#
# Indices 1 2 3 4 5 6 
#
# 1 0.013690 -0.005320 -0.000826 -0.002317 0.000014 -0.002493
# 2 -0.005320 0.021851 -0.005468 -0.005711 0.002497 0.009624
# 3 -0.000826 -0.005468 0.012817 0.001127 -0.004233 0.005673
# 4 -0.002317 -0.005711 0.001127 0.036614 0.001497 -0.007836
# 5 0.000014 0.002497 -0.004233 0.001497 0.039856 -0.009914
# 6 -0.002493 0.009624 0.005673 -0.007836 -0.009914 0.059902
#
#
# Mechanical properties :
#
#
# Convention : Reuss Voigt Hill
#
# Bulk Modulus (GPa) = 39.79155 46.76655 43.27905
# Shear Modulus (GPa) = 23.11234 27.42525 25.26879
#
# Velocity S-wave (km/s) = 3.25994 3.55110 3.40863
# Velocity P-wave (km/s) = 5.69789 6.19009 5.94909
#
# Compressibility (1/GPa) = 0.02513097
#
# Stress axis : x y z
#
# Youngs Moduli (GPa) = 73.04393 45.76549 78.01937
#
# Poissons Ratio (x) = 0.24346 0.06447
# Poissons Ratio (y) = 0.38857 0.42658
# Poissons Ratio (z) = 0.06035 0.25023
#
# Static dielectric constant tensor:
#      x y z
#    x 3.939980 -0.081780 0.138190 
#    y -0.081780 3.738210 0.039030 
#    z 0.138190 0.039030 3.990820 
# 
# 
# High freq. dielectric constant tensor:
#      x y z
#    x 1.857020 -0.001540 0.015580 
#    y -0.001540 1.843360 0.002990 
#    z 0.015580 0.002990 1.858130 
# 
# From -- ./inp_files/176953.got.cif
#   From: 2010.06.25/outbox.cif.g09.slc.cpg/sg2_89_cif.got.tgz:176953.got - 2010.06.27 13:26:56.
