data_PCOD8000369
_publ_section_title
;
Structure prediction by ZEFSAII (Michael W. Deem and Ramdas Pophale) SiO2 
 PCOD8000369
Probable space group: P -1
;
_chemical_formula_sum "Si O2"
_cell_formula_units_Z 16
_cell_length_a 6.880234
_cell_length_b 9.885983
_cell_length_c 24.227297
_cell_angle_alpha 46.133128
_cell_angle_beta 50.565079
_cell_angle_gamma 44.074197
_cell_volume 794.802464
_symmetry_space_group_name_H-M "P -1"
_symmetry_group_IT_number 2
_symmetry_cell_setting 'triclinic'
loop_
_space_group_symop_operation_xyz
x,y,z
-x,-y,-z
loop_
_atom_site_type_symbol
_atom_site_label
_atom_site_fract_x
_atom_site_fract_y
_atom_site_fract_z
Si Si1 0.969252 0.543667 0.839587
Si Si2 0.851624 0.352304 0.339718
Si Si3 0.725034 0.025085 0.414856
Si Si4 0.269702 0.425299 0.318674
Si Si5 0.945503 0.164935 0.914812
Si Si6 0.220327 0.685799 0.356129
Si Si7 0.593173 0.013733 0.818572
Si Si8 0.567804 0.262258 0.856008
O O1 0.113172 0.568445 0.749942
O O2 0.803364 0.410848 0.893749
O O3 0.219145 0.397711 0.880043
O O4 0.748587 0.761870 0.848061
O O5 0.909284 0.107730 0.393837
O O6 0.055373 0.358205 0.348230
O O7 0.520869 0.496619 0.380202
O O8 0.558538 0.202361 0.346427
O O9 0.500000 0.000000 0.500000
O O10 0.950251 0.787100 0.418168
O O11 0.125345 0.584343 0.351934
O O12 0.336217 0.561412 0.224315
O O13 0.713724 0.155526 0.918073
O O14 0.248879 0.107194 0.846425
O O15 0.000000 0.000000 0.000000
O O16 0.285074 0.877742 0.275795
O O17 0.671213 0.061623 0.851804
#
# Coordination Sequence:
#
# PCOD8000369 Si02
#       8
#     2   2   2   2   2   2   2   2
#     4  11  20  38  61  88 116 154 197 241 284 351
#     4  11  20  38  61  88 116 154 197 241 284 351
#     4  11  24  40  59  89 124 152 191 248 297 339
#     4  10  20  37  61  88 114 153 202 238 287 349
#     4  11  24  40  59  89 124 152 191 248 297 339
#     4  10  19  39  60  86 115 155 197 241 289 347
#     4  10  20  37  61  88 114 153 202 238 287 349
#     4  10  19  39  60  86 115 155 197 241 289 347
#
# _framework density 20.130787999999999
#
# number of rings (size 3 to 8) (size 9 to 14) (size 15 to 20)
#    0.000    1.500    7.500    0.000    0.000    7.000 
#    4.500    2.500    0.000    0.000    0.000    0.000 
#    0.000    0.000    0.000    0.000    0.000    0.000 
#
# Total GULP energy -198309.319267 kJ/mol
# GULP energy per Si atom -12394.332454 kJ/mol
# Density = 2.008497 g / cm^3
# Si number density = 20.130788 Si / 1000 Ang^3
#
#
#
# Elastic Constant Matrix: (Units=GPa)
#
#
# Indices 1 2 3 4 5 6 
#
# 1 117.8077 37.9222 2.8686 3.2690 -1.8550 10.5827
# 2 37.9222 117.6013 3.9606 -7.5732 5.2490 9.0009
# 3 2.8686 3.9606 25.4599 -3.2187 -2.6879 2.8196
# 4 3.2690 -7.5732 -3.2187 17.4492 2.2601 -7.5989
# 5 -1.8550 5.2490 -2.6879 2.2601 18.2128 -7.6803
# 6 10.5827 9.0009 2.8196 -7.5989 -7.6803 23.1290
#
#
#
# Elastic Compliance Matrix: (Units=1/GPa)
#
#
# Indices 1 2 3 4 5 6 
#
# 1 0.010172 -0.003258 -0.000757 -0.005703 0.000456 -0.005016
# 2 -0.003258 0.010300 -0.000922 0.004418 -0.005101 -0.002647
# 3 -0.000757 -0.000922 0.040920 0.006422 0.005249 -0.000430
# 4 -0.005703 0.004418 0.006422 0.071803 0.000205 0.023766
# 5 0.000456 -0.005101 0.005249 0.000205 0.067072 0.023476
# 6 -0.005016 -0.002647 -0.000430 0.023766 0.023476 0.062217
#
#
# Mechanical properties :
#
#
# Convention : Reuss Voigt Hill
#
# Bulk Modulus (GPa) = 19.41067 38.93019 29.17043
# Shear Modulus (GPa) = 17.26937 26.16603 21.71770
#
# Velocity S-wave (km/s) = 2.93210 3.60919 3.28812
# Velocity P-wave (km/s) = 4.59632 6.06209 5.37936
#
# Compressibility (1/GPa) = 0.05151806
#
# Stress axis : x y z
#
# Youngs Moduli (GPa) = 98.31241 97.08888 24.43802
#
# Poissons Ratio (x) = 0.31633 0.01849
# Poissons Ratio (y) = 0.32032 0.02253
# Poissons Ratio (z) = 0.07438 0.08951
#
# Static dielectric constant tensor:
#      x y z
#    x 3.774460 0.123260 -0.171740 
#    y 0.123260 3.754630 -0.193880 
#    z -0.171740 -0.193880 3.437400 
# 
# 
# High freq. dielectric constant tensor:
#      x y z
#    x 1.788300 0.011400 -0.015740 
#    y 0.011400 1.786430 -0.017380 
#    z -0.015740 -0.017380 1.761940 
# 
# From -- ./inp_files/603965.got.cif
#   From: 2010.06.25/outbox.cif.g09.slc.cpg/sg2_302_cif.got.tgz:603965.got - 2010.06.27 13:26:56.
