data_PCOD8000498
_publ_section_title
;
Structure prediction by ZEFSAII (Michael W. Deem and Ramdas Pophale) SiO2 
 PCOD8000498
Probable space group: P -1
;
_chemical_formula_sum "Si O2"
_cell_formula_units_Z 14
_cell_length_a 12.003483
_cell_length_b 6.500753
_cell_length_c 16.104898
_cell_angle_alpha 70.440286
_cell_angle_beta 135.726743
_cell_angle_gamma 127.308259
_cell_volume 686.546176
_symmetry_space_group_name_H-M "P -1"
_symmetry_group_IT_number 2
_symmetry_cell_setting 'triclinic'
loop_
_space_group_symop_operation_xyz
x,y,z
-x,-y,-z
loop_
_atom_site_type_symbol
_atom_site_label
_atom_site_fract_x
_atom_site_fract_y
_atom_site_fract_z
Si Si1 0.492742 0.450603 0.310593
Si Si2 0.352794 0.468444 0.994072
Si Si3 0.792516 0.465724 0.782838
Si Si4 0.353299 0.698604 0.443962
Si Si5 0.626530 0.934067 0.843159
Si Si6 0.064164 0.597623 0.774563
Si Si7 0.397711 0.088622 0.803805
O O1 0.274938 0.381484 0.217398
O O2 0.594315 0.467622 0.448670
O O3 0.478004 0.226920 0.274860
O O4 0.624336 0.736332 0.299181
O O5 0.278484 0.203401 0.042899
O O6 0.454001 0.725832 0.071094
O O7 0.500000 0.500000 0.000000
O O8 0.171300 0.447486 0.858272
O O9 0.630442 0.342068 0.639796
O O10 0.003325 0.641883 0.828943
O O11 0.786273 0.236426 0.864041
O O12 0.129536 0.594472 0.356333
O O13 0.500000 0.000000 0.500000
O O14 0.469147 0.920191 0.821937
O O15 0.191245 0.882173 0.761738
#
# Coordination Sequence:
#
# PCOD8000498 Si02
#       7
#     2   2   2   2   2   2   2
#     4  10  19  39  63  88 118 169 193 245 309 351
#     4  11  22  40  66  87 122 163 200 249 308 354
#     4   9  21  38  61  88 122 152 207 245 293 358
#     4  10  20  40  64  88 126 159 200 251 297 358
#     4  10  20  39  64  88 123 161 197 250 304 355
#     4  10  22  39  60  95 118 160 206 247 301 355
#     4  10  22  40  63  88 125 155 204 253 297 357
#
# _framework density 20.391926999999999
#
# number of rings (size 3 to 8) (size 9 to 14) (size 15 to 20)
#    0.857    1.143    2.857    0.857    0.000    1.143 
#    5.143    7.143    0.000    0.000    0.000    0.000 
#    0.000    0.000    0.000    0.000    0.000    0.000 
#
# Total GULP energy -173496.553278 kJ/mol
# GULP energy per Si atom -12392.610948 kJ/mol
# Density = 2.034551 g / cm^3
# Si number density = 20.391927 Si / 1000 Ang^3
#
#
#
# Elastic Constant Matrix: (Units=GPa)
#
#
# Indices 1 2 3 4 5 6 
#
# 1 136.0271 52.0600 20.5798 -6.5111 15.7742 5.8311
# 2 52.0600 96.5740 33.7092 -14.3722 13.9771 9.0512
# 3 20.5798 33.7092 62.0162 -25.0666 20.5455 3.0769
# 4 -6.5111 -14.3722 -25.0666 30.6694 4.4911 -5.9476
# 5 15.7742 13.9771 20.5455 4.4911 29.1930 3.2501
# 6 5.8311 9.0512 3.0769 -5.9476 3.2501 45.5001
#
#
#
# Elastic Compliance Matrix: (Units=1/GPa)
#
#
# Indices 1 2 3 4 5 6 
#
# 1 0.009525 -0.004826 0.001466 0.001592 -0.004129 0.000143
# 2 -0.004826 0.015496 -0.006383 0.000676 -0.000208 -0.001929
# 3 0.001466 -0.006383 0.051826 0.047172 -0.042220 0.006759
# 4 0.001592 0.000676 0.047172 0.080873 -0.047990 0.010471
# 5 -0.004129 -0.000208 -0.042220 -0.047990 0.074592 -0.008176
# 6 0.000143 -0.001929 0.006759 0.010471 -0.008176 0.023839
#
#
# Mechanical properties :
#
#
# Convention : Reuss Voigt Hill
#
# Bulk Modulus (GPa) = 17.43308 56.36834 36.90071
# Shear Modulus (GPa) = 16.96309 33.62371 25.29340
#
# Velocity S-wave (km/s) = 2.88732 4.06504 3.52570
# Velocity P-wave (km/s) = 4.43656 7.05232 5.89144
#
# Compressibility (1/GPa) = 0.05736222
#
# Stress axis : x y z
#
# Youngs Moduli (GPa) = 104.98291 64.53372 19.29526
#
# Poissons Ratio (x) = 0.31141 -0.02829
# Poissons Ratio (y) = 0.50660 0.12317
# Poissons Ratio (z) = -0.15393 0.41194
#
# Static dielectric constant tensor:
#      x y z
#    x 3.827740 0.070110 -0.234040 
#    y 0.070110 3.589320 -0.302350 
#    z -0.234040 -0.302350 3.586070 
# 
# 
# High freq. dielectric constant tensor:
#      x y z
#    x 1.805440 0.003520 -0.014660 
#    y 0.003520 1.791810 -0.026870 
#    z -0.014660 -0.026870 1.776760 
# 
# From -- ./inp_files/79412.got.cif
#   From: 2010.06.25/outbox.cif.g09.slc.cpg/sg2_40_cif.got.tgz:79412.got - 2010.06.27 13:26:56.
