data_PCOD8000979
_publ_section_title
;
Structure prediction by ZEFSAII (Michael W. Deem and Ramdas Pophale) SiO2 
 PCOD8000979
Probable space group: P -1
;
_chemical_formula_sum "Si O2"
_cell_formula_units_Z 14
_cell_length_a 15.297325
_cell_length_b 12.462484
_cell_length_c 21.268465
_cell_angle_alpha 33.298019
_cell_angle_beta 18.077804
_cell_angle_gamma 30.276774
_cell_volume 631.489141
_symmetry_space_group_name_H-M "P -1"
_symmetry_group_IT_number 2
_symmetry_cell_setting 'triclinic'
loop_
_space_group_symop_operation_xyz
x,y,z
-x,-y,-z
loop_
_atom_site_type_symbol
_atom_site_label
_atom_site_fract_x
_atom_site_fract_y
_atom_site_fract_z
Si Si1 0.884817 0.296954 0.381337
Si Si2 0.836675 0.993562 0.774926
Si Si3 0.247020 0.301832 0.799555
Si Si4 0.712668 0.942845 0.229225
Si Si5 0.134149 0.669985 0.840389
Si Si6 0.160068 0.476980 0.578511
Si Si7 0.085344 0.327676 0.471751
O O1 0.533355 0.336029 0.617686
O O2 0.949659 0.466047 0.209573
O O3 0.998862 0.332006 0.355082
O O4 0.046189 0.070301 0.346280
O O5 0.838761 0.221516 0.680200
O O6 0.059882 0.833171 0.752954
O O7 0.500000 0.000000 0.000000
O O8 0.373920 0.125032 0.745319
O O9 0.047151 0.225582 0.021971
O O10 0.417232 0.150096 0.350631
O O11 0.803486 0.753668 0.309831
O O12 0.000000 0.000000 0.000000
O O13 0.496823 0.554393 0.661592
O O14 0.000000 0.500000 0.000000
O O15 0.923529 0.544121 0.649158
O O16 0.000000 0.500000 0.500000
#
# Coordination Sequence:
#
# PCOD8000979 Si02
#       7
#     2   2   2   2   2   2   2
#     4  10  19  40  67  99 143 175 226 297 359 417
#     4  12  25  42  68 110 149 184 239 299 359 430
#     4  10  20  37  68 102 136 176 232 294 349 428
#     4  11  26  49  72 100 139 197 244 290 360 432
#     4  12  20  38  70 109 137 183 228 286 374 421
#     4  11  25  45  75 102 143 185 238 301 361 430
#     4  12  29  48  70 105 149 189 245 300 355 435
#
# _framework density 22.169819
#
# number of rings (size 3 to 8) (size 9 to 14) (size 15 to 20)
#    0.000    0.857    5.714    1.714    2.000    5.143 
#    0.000    0.000    0.000    0.000    0.000    0.000 
#    0.000    0.000    0.000    0.000    0.000    0.000 
#
# Total GULP energy -173503.142207 kJ/mol
# GULP energy per Si atom -12393.081586 kJ/mol
# Density = 2.211936 g / cm^3
# Si number density = 22.169819 Si / 1000 Ang^3
#
#
#
# Elastic Constant Matrix: (Units=GPa)
#
#
# Indices 1 2 3 4 5 6 
#
# 1 131.6332 60.3881 24.8535 -13.1986 12.6966 16.5066
# 2 60.3881 112.1669 32.2780 -15.9589 1.1590 23.8176
# 3 24.8535 32.2780 107.3694 -6.9185 0.1109 9.3691
# 4 -13.1986 -15.9589 -6.9185 25.0541 3.1786 3.2858
# 5 12.6966 1.1590 0.1109 3.1786 37.2166 1.7193
# 6 16.5066 23.8176 9.3691 3.2858 1.7193 41.9639
#
#
#
# Elastic Compliance Matrix: (Units=1/GPa)
#
#
# Indices 1 2 3 4 5 6 
#
# 1 0.010793 -0.004822 -0.000721 0.003076 -0.003726 -0.001436
# 2 -0.004822 0.014466 -0.002240 0.006776 0.000917 -0.006382
# 3 -0.000721 -0.002240 0.010299 0.001119 0.000228 -0.000841
# 4 0.003076 0.006776 0.001119 0.047949 -0.004950 -0.008857
# 5 -0.003726 0.000917 0.000228 -0.004950 0.028529 0.000113
# 6 -0.001436 -0.006382 -0.000841 -0.008857 0.000113 0.028893
#
#
# Mechanical properties :
#
#
# Convention : Reuss Voigt Hill
#
# Bulk Modulus (GPa) = 50.02240 65.13430 57.57835
# Shear Modulus (GPa) = 30.64471 36.42358 33.53415
#
# Velocity S-wave (km/s) = 3.72192 4.05771 3.89344
# Velocity P-wave (km/s) = 6.40957 7.16916 6.79998
#
# Compressibility (1/GPa) = 0.01999104
#
# Stress axis : x y z
#
# Youngs Moduli (GPa) = 92.65105 69.12912 97.09428
#
# Poissons Ratio (x) = 0.33335 0.07004
# Poissons Ratio (y) = 0.44678 0.21749
# Poissons Ratio (z) = 0.06683 0.15485
#
# Static dielectric constant tensor:
#      x y z
#    x 5.266510 -1.077450 2.331530 
#    y -1.077450 4.290590 -1.660450 
#    z 2.331530 -1.660450 7.572220 
# 
# 
# High freq. dielectric constant tensor:
#      x y z
#    x 1.874020 0.007510 0.010580 
#    y 0.007510 1.867670 -0.004540 
#    z 0.010580 -0.004540 1.868340 
# 
# From -- ./inp_files/225932.got.cif
#   From: 2010.06.25/outbox.cif.g09.slc.cpg/sg2_113_cif.got.tgz:225932.got - 2010.06.27 13:26:56.
