data_PCOD8000552
_publ_section_title
;
Structure prediction by ZEFSAII (Michael W. Deem and Ramdas Pophale) SiO2 
 PCOD8000552
Probable space group: P -1
;
_chemical_formula_sum "Si O2"
_cell_formula_units_Z 16
_cell_length_a 15.803577
_cell_length_b 9.187891
_cell_length_c 9.215334
_cell_angle_alpha 108.753705
_cell_angle_beta 46.023800
_cell_angle_gamma 79.150979
_cell_volume 726.811495
_symmetry_space_group_name_H-M "P -1"
_symmetry_group_IT_number 2
_symmetry_cell_setting 'triclinic'
loop_
_space_group_symop_operation_xyz
x,y,z
-x,-y,-z
loop_
_atom_site_type_symbol
_atom_site_label
_atom_site_fract_x
_atom_site_fract_y
_atom_site_fract_z
Si Si1 0.876816 0.248267 0.494606
Si Si2 0.365781 0.941182 0.376299
Si Si3 0.555389 0.835969 0.499657
Si Si4 0.175865 0.867512 0.749136
Si Si5 0.318667 0.356939 0.980926
Si Si6 0.214215 0.949654 0.283624
Si Si7 0.887483 0.729316 0.711862
Si Si8 0.361638 0.718028 0.758405
O O1 0.783899 0.294842 0.472465
O O2 0.899050 0.068078 0.495099
O O3 0.039005 0.195313 0.248506
O O4 0.792430 0.430217 0.759140
O O5 0.242002 0.975624 0.646431
O O6 0.522768 0.742327 0.166419
O O7 0.336250 0.921094 0.238835
O O8 0.367779 0.126514 0.451042
O O9 0.668208 0.636643 0.209310
O O10 0.417227 0.849446 0.726059
O O11 0.500000 0.000000 0.500000
O O12 0.241844 0.770912 0.795028
O O13 0.000000 0.000000 0.000000
O O14 0.265177 0.222931 0.035353
O O15 0.133315 0.162821 0.380846
O O16 0.288710 0.773816 0.022114
O O17 0.000000 0.500000 0.500000
O O18 0.500000 0.500000 0.500000
#
# Coordination Sequence:
#
# PCOD8000552 Si02
#       8
#     2   2   2   2   2   2   2   2
#     4  10  23  40  66  92 128 171 214 261 326 388
#     4  10  23  39  67  95 123 173 219 262 329 381
#     4  10  19  39  64  89 129 168 212 261 320 386
#     4  11  24  41  65  93 131 174 217 263 325 394
#     4  10  20  38  68  91 128 167 214 266 317 392
#     4  11  23  39  65  93 131 166 216 271 318 393
#     4  10  22  40  63  94 126 170 212 262 329 387
#     4  12  25  40  65 101 133 168 218 273 329 380
#
# _framework density 22.013961999999999
#
# number of rings (size 3 to 8) (size 9 to 14) (size 15 to 20)
#    0.000    1.500    2.500    3.375    3.500    4.000 
#    2.250    0.000    0.000    2.250    0.000    0.000 
#    0.000    0.000    0.000    0.000    0.000    0.000 
#
# Total GULP energy -198215.516474 kJ/mol
# GULP energy per Si atom -12388.469780 kJ/mol
# Density = 2.196386 g / cm^3
# Si number density = 22.013962 Si / 1000 Ang^3
#
#
#
# Elastic Constant Matrix: (Units=GPa)
#
#
# Indices 1 2 3 4 5 6 
#
# 1 174.5405 39.6535 34.4555 -13.8239 -1.2805 -8.2680
# 2 39.6535 71.3581 17.1087 -0.6044 -11.8962 -4.1278
# 3 34.4555 17.1087 64.9212 -5.0452 -7.0812 -7.3727
# 4 -13.8239 -0.6044 -5.0452 37.3123 7.8900 -7.3822
# 5 -1.2805 -11.8962 -7.0812 7.8900 48.4682 -8.9818
# 6 -8.2680 -4.1278 -7.3727 -7.3822 -8.9818 33.7389
#
#
#
# Elastic Compliance Matrix: (Units=1/GPa)
#
#
# Indices 1 2 3 4 5 6 
#
# 1 0.007343 -0.003558 -0.002777 0.002772 -0.001350 0.001004
# 2 -0.003558 0.017324 -0.002172 -0.001969 0.004444 0.001525
# 3 -0.002777 -0.002172 0.018326 0.001686 0.002558 0.004108
# 4 0.002772 -0.001969 0.001686 0.030103 -0.003886 0.006359
# 5 -0.001350 0.004444 0.002558 -0.003886 0.023856 0.006272
# 6 0.001004 0.001525 0.004108 0.006359 0.006272 0.034031
#
#
# Mechanical properties :
#
#
# Convention : Reuss Voigt Hill
#
# Bulk Modulus (GPa) = 38.49374 54.80613 46.64994
# Shear Modulus (GPa) = 31.91650 38.54401 35.23026
#
# Velocity S-wave (km/s) = 3.81179 4.18890 4.00479
# Velocity P-wave (km/s) = 6.07429 6.95313 6.52852
#
# Compressibility (1/GPa) = 0.02597825
#
# Stress axis : x y z
#
# Youngs Moduli (GPa) = 136.18113 57.72233 54.56650
#
# Poissons Ratio (x) = 0.20539 0.15155
# Poissons Ratio (y) = 0.48456 0.11853
# Poissons Ratio (z) = 0.37822 0.12538
#
# Static dielectric constant tensor:
#      x y z
#    x 4.871290 0.440430 0.187090 
#    y 0.440430 3.961010 -0.251960 
#    z 0.187090 -0.251960 4.513770 
# 
# 
# High freq. dielectric constant tensor:
#      x y z
#    x 1.884030 0.024030 -0.000500 
#    y 0.024030 1.846090 -0.013830 
#    z -0.000500 -0.013830 1.871480 
# 
# From -- ./inp_files/298700.got.cif
#   From: 2010.06.25/outbox.cif.g09.slc.cpg/sg2_150_cif.got.tgz:298700.got - 2010.06.27 13:26:56.
