data_PCOD8000126
_publ_section_title
;
Structure prediction by ZEFSAII (Michael W. Deem and Ramdas Pophale) SiO2 
 PCOD8000126
Probable space group: P 1
;
_chemical_formula_sum "Si O2"
_cell_formula_units_Z 8
_cell_length_a 16.887945
_cell_length_b 5.536417
_cell_length_c 7.803774
_cell_angle_alpha 60.262546
_cell_angle_beta 33.893085
_cell_angle_gamma 51.870939
_cell_volume 319.835659
_symmetry_space_group_name_H-M "P 1"
_symmetry_group_IT_number 1
_symmetry_cell_setting 'triclinic'
loop_
_space_group_symop_operation_xyz
x,y,z
loop_
_atom_site_type_symbol
_atom_site_label
_atom_site_fract_x
_atom_site_fract_y
_atom_site_fract_z
Si Si1 0.709480 0.171950 0.289790
Si Si2 0.648895 0.748593 0.959138
Si Si3 0.091830 0.699938 0.410432
Si Si4 0.533373 0.055222 0.379801
Si Si5 0.433512 0.572715 0.854045
Si Si6 0.983441 0.434526 0.373815
Si Si7 0.055826 0.754137 0.837064
Si Si8 0.379625 0.697789 0.298131
O O1 0.593560 0.273980 0.626059
O O2 0.659226 0.944740 0.348499
O O3 0.679888 0.443612 0.116220
O O4 0.888694 0.034333 0.074482
O O5 0.797158 0.653793 0.598027
O O6 0.632059 0.999617 0.044601
O O7 0.478955 0.880532 0.121372
O O8 0.016294 0.555749 0.456825
O O9 0.066422 0.602326 0.683237
O O10 0.021047 0.074472 0.422406
O O11 0.276042 0.546269 0.086660
O O12 0.429925 0.864985 0.652713
O O13 0.415103 0.412628 0.463695
O O14 0.438311 0.600826 0.036549
O O15 0.081221 0.494130 0.024734
O O16 0.189860 0.883590 0.572557
#
# Coordination Sequence:
#
# PCOD8000126 Si02
#       8
#     1   1   1   1   1   1   1   1
#     4  10  22  44  68  99 140 184 237 294 356 427
#     4  10  23  43  69 100 138 187 233 298 354 427
#     4  11  27  50  70 113 148 189 243 305 355 436
#     4  10  22  41  69  93 138 184 232 290 354 421
#     4  10  24  41  70  99 139 186 233 290 361 420
#     4  12  27  46  79 104 151 194 237 302 368 424
#     4  11  25  47  72 110 145 192 245 300 363 429
#     4  10  24  44  65 100 139 178 240 291 351 430
#
# _framework density 25.012848999999999
#
# number of rings (size 3 to 8) (size 9 to 14) (size 15 to 20)
#    0.000    1.500    1.250    1.500   12.250    1.000 
#    9.000    0.000    0.000    0.000    0.000    0.000 
#    0.000    0.000    0.000    0.000    0.000    0.000 
#
# Total GULP energy -99127.754914 kJ/mol
# GULP energy per Si atom -12390.969364 kJ/mol
# Density = 2.495592 g / cm^3
# Si number density = 25.012849 Si / 1000 Ang^3
#
#
#
# Elastic Constant Matrix: (Units=GPa)
#
#
# Indices 1 2 3 4 5 6 
#
# 1 126.4925 25.9854 60.2296 14.4819 -5.8909 16.1728
# 2 25.9854 47.6722 23.2673 19.6951 -6.2001 12.6379
# 3 60.2296 23.2673 173.0748 27.4879 -11.9943 2.5692
# 4 14.4819 19.6951 27.4879 36.3669 -15.3359 -2.3149
# 5 -5.8909 -6.2001 -11.9943 -15.3359 43.9173 2.6079
# 6 16.1728 12.6379 2.5692 -2.3149 2.6079 30.6340
#
#
#
# Elastic Compliance Matrix: (Units=1/GPa)
#
#
# Indices 1 2 3 4 5 6 
#
# 1 0.010600 -0.002930 -0.003150 -0.000413 0.000252 -0.004176
# 2 -0.002930 0.033755 -0.000527 -0.018126 -0.001294 -0.013594
# 3 -0.003150 -0.000527 0.007588 -0.004099 0.000089 0.000927
# 4 -0.000413 -0.018126 -0.004099 0.046214 0.011779 0.010529
# 5 0.000252 -0.001294 0.000089 0.011779 0.026818 -0.000999
# 6 -0.004176 -0.013594 0.000927 0.010529 -0.000999 0.041259
#
#
# Mechanical properties :
#
#
# Convention : Reuss Voigt Hill
#
# Bulk Modulus (GPa) = 25.82042 62.91158 44.36600
# Shear Modulus (GPa) = 25.99295 38.03411 32.01353
#
# Velocity S-wave (km/s) = 3.22713 3.90370 3.58143
# Velocity P-wave (km/s) = 4.92251 6.74720 5.90576
#
# Compressibility (1/GPa) = 0.03872904
#
# Stress axis : x y z
#
# Youngs Moduli (GPa) = 94.33655 29.62510 131.78105
#
# Poissons Ratio (x) = 0.08681 0.41510
# Poissons Ratio (y) = 0.27643 0.06948
# Poissons Ratio (z) = 0.29715 0.01562
#
# Static dielectric constant tensor:
#      x y z
#    x 4.782400 0.103650 -0.016250 
#    y 0.103650 4.407670 0.034250 
#    z -0.016250 0.034250 4.907900 
# 
# 
# High freq. dielectric constant tensor:
#      x y z
#    x 2.000930 -0.009060 0.002660 
#    y -0.009060 1.975800 -0.002780 
#    z 0.002660 -0.002780 2.014830 
# 
# From -- ./inp_files/1316.got.cif
#   From: 2010.03.12/outbox.cif.g09.slc.cpg/sg1_1_cif.got.tgz:1316.got - 2010.03.29 11:57:58.
