data_PCOD8000081
_publ_section_title
;
Structure prediction by ZEFSAII (Michael W. Deem and Ramdas Pophale) SiO2 
 PCOD8000081
Probable space group: P 1
;
_chemical_formula_sum "Si O2"
_cell_formula_units_Z 8
_cell_length_a 11.564732
_cell_length_b 5.365074
_cell_length_c 8.798012
_cell_angle_alpha 84.889035
_cell_angle_beta 40.985326
_cell_angle_gamma 93.089892
_cell_volume 350.413277
_symmetry_space_group_name_H-M "P 1"
_symmetry_group_IT_number 1
_symmetry_cell_setting 'triclinic'
loop_
_space_group_symop_operation_xyz
x,y,z
loop_
_atom_site_type_symbol
_atom_site_label
_atom_site_fract_x
_atom_site_fract_y
_atom_site_fract_z
Si Si1 0.033160 0.973860 0.303170
Si Si2 0.318801 0.673418 0.925374
Si Si3 0.515049 0.827492 0.439225
Si Si4 0.722369 0.395177 0.151076
Si Si5 0.238014 0.369501 0.292545
Si Si6 0.046538 0.294854 0.007986
Si Si7 0.201820 0.015331 0.600303
Si Si8 0.954216 0.658423 0.666499
O O1 0.904789 0.754534 0.541621
O O2 0.079759 0.207243 0.359257
O O3 0.945493 0.064797 0.231759
O O4 0.218775 0.890572 0.075246
O O5 0.490569 0.800182 0.648097
O O6 0.379829 0.525970 0.021976
O O7 0.186986 0.482732 0.958547
O O8 0.592901 0.586732 0.315757
O O9 0.634216 0.099580 0.265887
O O10 0.320913 0.816070 0.553557
O O11 0.898503 0.444648 0.080495
O O12 0.785714 0.459585 0.910324
O O13 0.319769 0.195616 0.343527
O O14 0.138818 0.554100 0.479004
O O15 0.156280 0.184786 0.774711
O O16 0.011722 0.883875 0.721875
#
# Coordination Sequence:
#
# PCOD8000081 Si02
#       8
#     1   1   1   1   1   1   1   1
#     4   9  20  37  69  94 121 159 232 272 308 366
#     4  10  21  41  67  94 125 169 221 269 316 383
#     4  12  27  41  63  99 141 170 207 270 338 387
#     4  12  27  41  63  99 141 170 207 270 338 387
#     4   9  20  37  69  94 121 159 232 272 308 366
#     4  11  21  40  70  96 123 171 229 264 311 388
#     4  11  21  40  70  96 123 171 229 264 311 388
#     4  10  21  41  67  94 125 169 221 269 316 383
#
# _framework density 22.830183999999999
#
# number of rings (size 3 to 8) (size 9 to 14) (size 15 to 20)
#    0.000    1.500    2.500    2.250    7.000    0.000 
#    0.000    2.500    0.000    0.000    0.000    0.000 
#    0.000    0.000    0.000    0.000    0.000    0.000 
#
# Total GULP energy -99120.555550 kJ/mol
# GULP energy per Si atom -12390.069444 kJ/mol
# Density = 2.277822 g / cm^3
# Si number density = 22.830184 Si / 1000 Ang^3
#
#
#
# Elastic Constant Matrix: (Units=GPa)
#
#
# Indices 1 2 3 4 5 6 
#
# 1 60.9678 19.5397 35.1909 3.2870 24.4558 -23.8433
# 2 19.5397 75.7868 24.8722 -4.5323 8.5135 -15.2951
# 3 35.1909 24.8722 145.2290 -29.3307 38.8201 -21.5675
# 4 3.2870 -4.5323 -29.3307 42.6046 -15.4192 6.0674
# 5 24.4558 8.5135 38.8201 -15.4192 40.8182 -12.0030
# 6 -23.8433 -15.2951 -21.5675 6.0674 -12.0030 44.8483
#
#
#
# Elastic Compliance Matrix: (Units=1/GPa)
#
#
# Indices 1 2 3 4 5 6 
#
# 1 0.030940 -0.003565 -0.003525 -0.012527 -0.015950 0.010964
# 2 -0.003565 0.015059 -0.001538 0.001023 0.001670 0.002810
# 3 -0.003525 -0.001538 0.010634 0.005364 -0.005502 0.000517
# 4 -0.012527 0.001023 0.005364 0.033825 0.013595 -0.004669
# 5 -0.015950 0.001670 -0.005502 0.013595 0.043884 -0.000650
# 6 0.010964 0.002810 0.000517 -0.004669 -0.000650 0.029791
#
#
# Mechanical properties :
#
#
# Convention : Reuss Voigt Hill
#
# Bulk Modulus (GPa) = 25.39480 49.02101 37.20791
# Shear Modulus (GPa) = 25.70482 39.14626 32.42554
#
# Velocity S-wave (km/s) = 3.35910 4.14535 3.77277
# Velocity P-wave (km/s) = 5.11784 6.66562 5.94234
#
# Compressibility (1/GPa) = 0.03937814
#
# Stress axis : x y z
#
# Youngs Moduli (GPa) = 32.32013 66.40391 94.03592
#
# Poissons Ratio (x) = 0.23673 0.33148
# Poissons Ratio (y) = 0.11522 0.14462
# Poissons Ratio (z) = 0.11393 0.10212
#
# Static dielectric constant tensor:
#      x y z
#    x 4.080820 -0.370280 0.670360 
#    y -0.370280 4.298460 -0.355740 
#    z 0.670360 -0.355740 4.461270 
# 
# 
# High freq. dielectric constant tensor:
#      x y z
#    x 1.869310 -0.014170 0.053630 
#    y -0.014170 1.918110 -0.009570 
#    z 0.053630 -0.009570 1.897850 
# 
# From -- ./inp_files/1085.got.cif
#   From: 2010.03.12/outbox.cif.g09.slc.cpg/sg1_1_cif.got.tgz:1085.got - 2010.03.29 11:57:58.
