data_PCOD8000378
_publ_section_title
;
Structure prediction by ZEFSAII (Michael W. Deem and Ramdas Pophale) SiO2 
 PCOD8000378
Probable space group: P -1
;
_chemical_formula_sum "Si O2"
_cell_formula_units_Z 16
_cell_length_a 11.505560
_cell_length_b 11.617284
_cell_length_c 9.788010
_cell_angle_alpha 53.347421
_cell_angle_beta 63.273154
_cell_angle_gamma 50.069184
_cell_volume 800.134679
_symmetry_space_group_name_H-M "P -1"
_symmetry_group_IT_number 2
_symmetry_cell_setting 'triclinic'
loop_
_space_group_symop_operation_xyz
x,y,z
-x,-y,-z
loop_
_atom_site_type_symbol
_atom_site_label
_atom_site_fract_x
_atom_site_fract_y
_atom_site_fract_z
Si Si1 0.824338 0.067966 0.670379
Si Si2 0.756850 0.844223 0.466258
Si Si3 0.052808 0.019810 0.809346
Si Si4 0.772245 0.555634 0.137222
Si Si5 0.493158 0.861420 0.188392
Si Si6 0.497007 0.173274 0.489001
Si Si7 0.099433 0.281732 0.229966
Si Si8 0.268420 0.737144 0.697788
O O1 0.655756 0.145049 0.767456
O O2 0.822664 0.157155 0.465315
O O3 0.900614 0.868257 0.745466
O O4 0.914956 0.102591 0.714162
O O5 0.683024 0.739275 0.518761
O O6 0.842213 0.768154 0.614207
O O7 0.877625 0.858847 0.295482
O O8 0.610227 0.030767 0.425186
O O9 0.181461 0.841161 0.805470
O O10 0.000000 0.000000 0.000000
O O11 0.641944 0.676887 0.225731
O O12 0.720597 0.439542 0.173084
O O13 0.929703 0.442824 0.214330
O O14 0.788284 0.670839 0.935596
O O15 0.478963 0.916534 0.314005
O O16 0.500000 0.000000 0.000000
O O17 0.556595 0.303759 0.370765
#
# Coordination Sequence:
#
# PCOD8000378 Si02
#       8
#     2   2   2   2   2   2   2   2
#     4  11  20  39  66  88 122 164 212 242 309 380
#     4  10  19  39  60  89 121 169 205 246 310 380
#     4  11  22  34  62  97 122 157 209 261 296 362
#     4  11  23  35  65  92 126 153 213 267 305 356
#     4  11  21  37  61  93 117 158 212 261 298 362
#     4   9  20  35  63  87 122 163 207 248 306 370
#     4  11  20  39  63  91 119 171 207 246 313 376
#     4  10  20  41  64  90 123 168 208 252 305 374
#
# _framework density 19.996632000000002
#
# number of rings (size 3 to 8) (size 9 to 14) (size 15 to 20)
#    0.000    1.500    6.250    1.125    1.750    2.000 
#    2.250    1.250    2.750    0.000    0.000    0.000 
#    0.000    0.000    0.000    0.000    0.000    0.000 
#
# Total GULP energy -198315.824367 kJ/mol
# GULP energy per Si atom -12394.739023 kJ/mol
# Density = 1.995112 g / cm^3
# Si number density = 19.996632 Si / 1000 Ang^3
#
#
#
# Elastic Constant Matrix: (Units=GPa)
#
#
# Indices 1 2 3 4 5 6 
#
# 1 149.3479 18.4975 55.0987 8.5139 -16.4444 -0.3300
# 2 18.4975 62.7617 20.6621 4.8803 -12.3815 -9.4229
# 3 55.0987 20.6621 115.7450 14.0869 -19.1238 2.0214
# 4 8.5139 4.8803 14.0869 24.7851 2.7003 -6.8596
# 5 -16.4444 -12.3815 -19.1238 2.7003 30.2252 -0.0706
# 6 -0.3300 -9.4229 2.0214 -6.8596 -0.0706 27.3601
#
#
#
# Elastic Compliance Matrix: (Units=1/GPa)
#
#
# Indices 1 2 3 4 5 6 
#
# 1 0.008328 -0.000885 -0.003308 -0.001107 0.002173 -0.000232
# 2 -0.000885 0.019123 -0.001912 -0.001284 0.006272 0.006411
# 3 -0.003308 -0.001912 0.012468 -0.007161 0.005937 -0.003400
# 4 -0.001107 -0.001284 -0.007161 0.049601 -0.010061 0.012483
# 5 0.002173 0.006272 0.005937 -0.010061 0.041491 -0.000668
# 6 -0.000232 0.006411 -0.003400 0.012483 -0.000668 0.042134
#
#
# Mechanical properties :
#
#
# Convention : Reuss Voigt Hill
#
# Bulk Modulus (GPa) = 36.09076 57.37457 46.73267
# Shear Modulus (GPa) = 25.69486 32.04716 28.87101
#
# Velocity S-wave (km/s) = 3.58852 4.00763 3.80385
# Velocity P-wave (km/s) = 5.93781 7.08302 6.53555
#
# Compressibility (1/GPa) = 0.02770792
#
# Stress axis : x y z
#
# Youngs Moduli (GPa) = 120.07828 52.29228 80.20665
#
# Poissons Ratio (x) = 0.04629 0.26536
# Poissons Ratio (y) = 0.10630 0.15334
# Poissons Ratio (z) = 0.39728 0.09997
#
# Static dielectric constant tensor:
#      x y z
#    x 4.141890 -0.057330 -0.399090 
#    y -0.057330 3.449720 0.077350 
#    z -0.399090 0.077350 3.614760 
# 
# 
# High freq. dielectric constant tensor:
#      x y z
#    x 1.798090 -0.008150 -0.027330 
#    y -0.008150 1.744400 0.005450 
#    z -0.027330 0.005450 1.778860 
# 
# From -- ./inp_files/205249.got.cif
#   From: 2010.06.25/outbox.cif.g09.slc.cpg/sg2_103_cif.got.tgz:205249.got - 2010.06.27 13:26:56.
