data_PCOD8000144
_publ_section_title
;
Structure prediction by ZEFSAII (Michael W. Deem and Ramdas Pophale) SiO2 
 PCOD8000144
Probable space group: P 1
;
_chemical_formula_sum "Si O2"
_cell_formula_units_Z 8
_cell_length_a 5.403252
_cell_length_b 10.948614
_cell_length_c 11.461643
_cell_angle_alpha 137.546706
_cell_angle_beta 128.550980
_cell_angle_gamma 59.819883
_cell_volume 356.743326
_symmetry_space_group_name_H-M "P 1"
_symmetry_group_IT_number 1
_symmetry_cell_setting 'triclinic'
loop_
_space_group_symop_operation_xyz
x,y,z
loop_
_atom_site_type_symbol
_atom_site_label
_atom_site_fract_x
_atom_site_fract_y
_atom_site_fract_z
Si Si1 0.230480 0.803630 0.734980
Si Si2 0.522911 0.322779 0.994558
Si Si3 0.816963 0.709629 0.339876
Si Si4 0.495739 0.056536 0.372425
Si Si5 0.848736 0.602988 0.653867
Si Si6 0.359579 0.458911 0.268043
Si Si7 0.160600 0.130227 0.092712
Si Si8 0.104842 0.253882 0.606027
O O1 0.554350 0.715134 0.711052
O O2 0.925794 0.798041 0.555698
O O3 0.129341 0.716430 0.767853
O O4 0.295248 0.006530 0.936381
O O5 0.640754 0.525512 0.167763
O O6 0.292529 0.340162 0.050740
O O7 0.782651 0.159493 0.987304
O O8 0.350665 0.259066 0.786339
O O9 0.145132 0.648624 0.327093
O O10 0.600155 0.854421 0.304371
O O11 0.261161 0.041617 0.183727
O O12 0.292589 0.161178 0.487239
O O13 0.807183 0.150315 0.488827
O O14 0.720243 0.504110 0.430589
O O15 0.994162 0.459902 0.688984
O O16 0.281655 0.332347 0.265708
#
# Coordination Sequence:
#
# PCOD8000144 Si02
#       8
#     1   1   1   1   1   1   1   1
#     4  11  25  42  73  99 141 178 234 278 346 408
#     4  11  25  44  74  98 143 183 233 278 351 412
#     4  10  25  43  66 106 137 181 225 290 340 409
#     4  12  28  47  71 104 143 178 235 288 342 406
#     4  11  23  46  67 102 138 184 226 285 342 408
#     4  10  22  44  71  96 140 186 229 277 349 408
#     4  11  26  45  71 104 136 187 230 286 342 415
#     4  12  28  45  73 101 144 183 230 286 348 406
#
# _framework density 22.425086
#
# number of rings (size 3 to 8) (size 9 to 14) (size 15 to 20)
#    0.000    1.000    2.500    2.250   12.250    2.000 
#    0.000    0.000    0.000    0.000    0.000    0.000 
#    0.000    0.000    0.000    0.000    0.000    0.000 
#
# Total GULP energy -99129.903064 kJ/mol
# GULP energy per Si atom -12391.237883 kJ/mol
# Density = 2.237405 g / cm^3
# Si number density = 22.425086 Si / 1000 Ang^3
#
#
#
# Elastic Constant Matrix: (Units=GPa)
#
#
# Indices 1 2 3 4 5 6 
#
# 1 114.8596 35.0067 31.8977 1.8668 -15.4683 -6.5774
# 2 35.0067 170.9605 50.2611 -9.6359 -13.2862 -8.2378
# 3 31.8977 50.2611 123.0078 -17.6511 -23.8958 -11.1379
# 4 1.8668 -9.6359 -17.6511 37.0214 0.5345 1.3187
# 5 -15.4683 -13.2862 -23.8958 0.5345 36.1465 3.8008
# 6 -6.5774 -8.2378 -11.1379 1.3187 3.8008 27.0249
#
#
#
# Elastic Compliance Matrix: (Units=1/GPa)
#
#
# Indices 1 2 3 4 5 6 
#
# 1 0.010039 -0.001409 -0.001683 -0.001750 0.002582 0.001043
# 2 -0.001409 0.006894 -0.002194 0.000786 0.000389 0.000761
# 3 -0.001683 -0.002194 0.011506 0.004823 0.005733 0.002622
# 4 -0.001750 0.000786 0.004823 0.029570 0.002288 0.000037
# 5 0.002582 0.000389 0.005733 0.002288 0.032839 -0.001621
# 6 0.001043 0.000761 0.002622 0.000037 -0.001621 0.038795
#
#
# Mechanical properties :
#
#
# Convention : Reuss Voigt Hill
#
# Bulk Modulus (GPa) = 55.96830 71.46210 63.71520
# Shear Modulus (GPa) = 34.20684 39.48275 36.84479
#
# Velocity S-wave (km/s) = 3.90985 4.20056 4.05781
# Velocity P-wave (km/s) = 6.73756 7.44732 7.10131
#
# Compressibility (1/GPa) = 0.01786726
#
# Stress axis : x y z
#
# Youngs Moduli (GPa) = 99.61395 145.05192 86.91389
#
# Poissons Ratio (x) = 0.20432 0.14625
# Poissons Ratio (y) = 0.14032 0.19072
# Poissons Ratio (z) = 0.16762 0.31829
#
# Static dielectric constant tensor:
#      x y z
#    x 4.084430 -0.086290 -0.079600 
#    y -0.086290 4.114190 0.004970 
#    z -0.079600 0.004970 4.050360 
# 
# 
# High freq. dielectric constant tensor:
#      x y z
#    x 1.887370 -0.001290 -0.007180 
#    y -0.001290 1.892000 0.004970 
#    z -0.007180 0.004970 1.887230 
# 
# From -- ./inp_files/1075.got.cif
#   From: 2010.03.12/outbox.cif.g09.slc.cpg/sg1_1_cif.got.tgz:1075.got - 2010.03.29 11:57:58.
