data_PCOD8000213
_publ_section_title
;
Structure prediction by ZEFSAII (Michael W. Deem and Ramdas Pophale) SiO2 
 PCOD8000213
Probable space group: P 1
;
_chemical_formula_sum "Si O2"
_cell_formula_units_Z 8
_cell_length_a 14.827362
_cell_length_b 5.098555
_cell_length_c 7.681144
_cell_angle_alpha 90.259369
_cell_angle_beta 145.235395
_cell_angle_gamma 80.677075
_cell_volume 318.091802
_symmetry_space_group_name_H-M "P 1"
_symmetry_group_IT_number 1
_symmetry_cell_setting 'triclinic'
loop_
_space_group_symop_operation_xyz
x,y,z
loop_
_atom_site_type_symbol
_atom_site_label
_atom_site_fract_x
_atom_site_fract_y
_atom_site_fract_z
Si Si1 0.151380 0.352400 0.213550
Si Si2 0.373272 0.405263 0.251399
Si Si3 0.578616 0.987541 0.352577
Si Si4 0.602299 0.384661 0.892099
Si Si5 0.796953 0.376719 0.713097
Si Si6 0.443974 0.946517 0.786586
Si Si7 0.149834 0.568227 0.593446
Si Si8 0.945845 0.173910 0.315166
O O1 0.225616 0.447081 0.156975
O O2 0.176409 0.532740 0.425368
O O3 0.253046 0.037803 0.420658
O O4 0.964283 0.363358 0.870352
O O5 0.469707 0.091839 0.352369
O O6 0.521371 0.507373 0.575990
O O7 0.310221 0.562711 0.968315
O O8 0.692664 0.182545 0.471710
O O9 0.692143 0.687119 0.559971
O O10 0.443118 0.015631 0.987948
O O11 0.535962 0.627006 0.923635
O O12 0.535160 0.125903 0.820315
O O13 0.799249 0.279130 0.222438
O O14 0.857227 0.268091 0.995782
O O15 0.087550 0.320793 0.573626
O O16 0.014647 0.849585 0.422204
#
# Coordination Sequence:
#
# PCOD8000213 Si02
#       8
#     1   1   1   1   1   1   1   1
#     4  10  25  46  72 107 149 187 236 298 365 418
#     4  11  26  47  75 111 140 193 243 296 355 432
#     4  12  25  47  74 106 144 190 245 292 357 434
#     4  11  25  44  72 103 145 189 238 296 359 423
#     4  11  25  44  72 104 145 193 236 293 363 424
#     4  11  25  45  69 106 146 186 239 298 357 423
#     4  11  25  46  72 105 144 191 237 295 357 432
#     4  11  24  45  70 102 147 191 236 292 367 418
#
# _framework density 25.14997
#
# number of rings (size 3 to 8) (size 9 to 14) (size 15 to 20)
#    0.000    1.000    2.500    3.000    3.500   12.000 
#    0.000    1.250    0.000    0.000    0.000    0.000 
#    0.000    0.000    0.000    0.000    0.000    0.000 
#
# Total GULP energy -99128.218937 kJ/mol
# GULP energy per Si atom -12391.027367 kJ/mol
# Density = 2.509273 g / cm^3
# Si number density = 25.149970 Si / 1000 Ang^3
#
#
#
# Elastic Constant Matrix: (Units=GPa)
#
#
# Indices 1 2 3 4 5 6 
#
# 1 82.8840 24.7979 34.2168 -3.1225 1.3242 -12.9046
# 2 24.7979 116.7090 22.0573 -18.3960 -0.7404 -3.7220
# 3 34.2168 22.0573 90.1967 -9.0524 -2.6976 -8.6721
# 4 -3.1225 -18.3960 -9.0524 40.1000 -13.7156 1.7219
# 5 1.3242 -0.7404 -2.6976 -13.7156 28.6403 4.4402
# 6 -12.9046 -3.7220 -8.6721 1.7219 4.4402 31.5363
#
#
#
# Elastic Compliance Matrix: (Units=1/GPa)
#
#
# Indices 1 2 3 4 5 6 
#
# 1 0.015775 -0.002618 -0.005183 -0.002503 -0.003309 0.005324
# 2 -0.002618 0.010127 -0.000947 0.005273 0.002949 -0.000840
# 3 -0.005183 -0.000947 0.013789 0.003228 0.002909 0.000974
# 4 -0.002503 0.005273 0.003228 0.034020 0.017442 -0.003828
# 5 -0.003309 0.002949 0.002909 0.017442 0.044932 -0.007485
# 6 0.005324 -0.000840 0.000974 -0.003828 -0.007485 0.035319
#
#
# Mechanical properties :
#
#
# Convention : Reuss Voigt Hill
#
# Bulk Modulus (GPa) = 45.05251 50.21486 47.63369
# Shear Modulus (GPa) = 27.95543 33.96982 30.96262
#
# Velocity S-wave (km/s) = 3.33761 3.67916 3.51254
# Velocity P-wave (km/s) = 5.72759 6.16910 5.95244
#
# Compressibility (1/GPa) = 0.02219632
#
# Stress axis : x y z
#
# Youngs Moduli (GPa) = 63.39008 98.75045 72.52155
#
# Poissons Ratio (x) = 0.25855 0.37585
# Poissons Ratio (y) = 0.16597 0.06864
# Poissons Ratio (z) = 0.32852 0.09347
#
# Static dielectric constant tensor:
#      x y z
#    x 4.757030 -0.049300 0.495290 
#    y -0.049300 4.557950 0.100530 
#    z 0.495290 0.100530 5.493180 
# 
# 
# High freq. dielectric constant tensor:
#      x y z
#    x 1.999320 -0.015340 0.005430 
#    y -0.015340 1.997510 -0.009800 
#    z 0.005430 -0.009800 2.018470 
# 
# From -- ./inp_files/5814.got.cif
#   From: 2010.03.12/outbox.cif.g09.slc.cpg/sg1_3_cif.got.tgz:5814.got - 2010.03.29 11:57:58.
