data_PCOD8000225
_publ_section_title
;
Structure prediction by ZEFSAII (Michael W. Deem and Ramdas Pophale) SiO2 
 PCOD8000225
Probable space group: P 1
;
_chemical_formula_sum "Si O2"
_cell_formula_units_Z 8
_cell_length_a 9.050904
_cell_length_b 7.561465
_cell_length_c 8.285116
_cell_angle_alpha 74.866133
_cell_angle_beta 48.610852
_cell_angle_gamma 98.191930
_cell_volume 369.736907
_symmetry_space_group_name_H-M "P 1"
_symmetry_group_IT_number 1
_symmetry_cell_setting 'triclinic'
loop_
_space_group_symop_operation_xyz
x,y,z
loop_
_atom_site_type_symbol
_atom_site_label
_atom_site_fract_x
_atom_site_fract_y
_atom_site_fract_z
Si Si1 0.442560 0.937440 0.403180
Si Si2 0.359422 0.424806 0.081786
Si Si3 0.759214 0.525434 0.349489
Si Si4 0.864916 0.191700 0.512745
Si Si5 0.963885 0.690107 0.849521
Si Si6 0.625067 0.789747 0.600171
Si Si7 0.730339 0.308296 0.900223
Si Si8 0.513501 0.614320 0.248558
O O1 0.541582 0.900091 0.503794
O O2 0.422434 0.772517 0.323571
O O3 0.188176 0.894018 0.614043
O O4 0.601248 0.161447 0.176525
O O5 0.354393 0.467155 0.265601
O O6 0.114146 0.266784 0.256476
O O7 0.416075 0.621014 0.882330
O O8 0.544292 0.347623 0.929288
O O9 0.751037 0.320511 0.478909
O O10 0.777269 0.691558 0.434435
O O11 0.536545 0.483181 0.416907
O O12 0.962501 0.616890 0.054521
O O13 0.839754 0.211437 0.719109
O O14 0.758095 0.957098 0.596939
O O15 0.923666 0.507533 0.793954
O O16 0.756987 0.742502 0.964333
#
# Coordination Sequence:
#
# PCOD8000225 Si02
#       8
#     1   1   1   1   1   1   1   1
#     4  11  21  40  66  95 122 176 213 253 334 377
#     4  11  23  44  65  96 130 171 214 265 326 373
#     4   9  20  43  67  91 135 166 208 276 312 370
#     4  12  24  43  68  95 135 171 208 270 327 376
#     4   9  20  41  64  87 128 169 207 266 316 367
#     4  11  24  42  67  98 133 165 220 264 316 394
#     4  11  24  40  65  98 129 165 221 265 312 391
#     4   8  20  39  64  92 124 165 213 269 303 382
#
# _framework density 21.637006
#
# number of rings (size 3 to 8) (size 9 to 14) (size 15 to 20)
#    0.750    1.000    1.250    3.000    0.000    3.000 
#    6.750    0.000    0.000    0.000    0.000    0.000 
#    0.000    0.000    0.000    0.000    0.000    0.000 
#
# Total GULP energy -99121.285857 kJ/mol
# GULP energy per Si atom -12390.160732 kJ/mol
# Density = 2.158776 g / cm^3
# Si number density = 21.637006 Si / 1000 Ang^3
#
#
#
# Elastic Constant Matrix: (Units=GPa)
#
#
# Indices 1 2 3 4 5 6 
#
# 1 48.4364 16.7918 25.2976 -5.8461 4.8826 -2.4480
# 2 16.7918 74.2573 26.8978 14.9484 3.1718 16.5749
# 3 25.2976 26.8978 108.2458 -11.1143 0.0484 13.5982
# 4 -5.8461 14.9484 -11.1143 36.9652 1.6687 7.6232
# 5 4.8826 3.1718 0.0484 1.6687 33.3279 -1.7093
# 6 -2.4480 16.5749 13.5982 7.6232 -1.7093 28.5739
#
#
#
# Elastic Compliance Matrix: (Units=1/GPa)
#
#
# Indices 1 2 3 4 5 6 
#
# 1 0.026728 -0.006457 -0.005147 0.003937 -0.003119 0.007248
# 2 -0.006457 0.019602 -0.003154 -0.008141 -0.000933 -0.008307
# 3 -0.005147 -0.003154 0.012538 0.005449 0.000455 -0.006005
# 4 0.003937 -0.008141 0.005449 0.034079 -0.001862 -0.006737
# 5 -0.003119 -0.000933 0.000455 -0.001862 0.030766 0.002395
# 6 0.007248 -0.008307 -0.006005 -0.006737 0.002395 0.045235
#
#
# Mechanical properties :
#
#
# Convention : Reuss Voigt Hill
#
# Bulk Modulus (GPa) = 34.06748 40.99045 37.52897
# Shear Modulus (GPa) = 24.00984 30.57021 27.29002
#
# Velocity S-wave (km/s) = 3.33478 3.76289 3.55528
# Velocity P-wave (km/s) = 5.53235 6.15344 5.85114
#
# Compressibility (1/GPa) = 0.02935350
#
# Stress axis : x y z
#
# Youngs Moduli (GPa) = 37.41377 51.01510 79.75453
#
# Poissons Ratio (x) = 0.32939 0.41049
# Poissons Ratio (y) = 0.24157 0.25154
# Poissons Ratio (z) = 0.19257 0.16090
#
# Static dielectric constant tensor:
#      x y z
#    x 3.720570 0.006880 0.196050 
#    y 0.006880 3.800830 0.200880 
#    z 0.196050 0.200880 3.807250 
# 
# 
# High freq. dielectric constant tensor:
#      x y z
#    x 1.841760 0.002400 0.013390 
#    y 0.002400 1.841140 0.015440 
#    z 0.013390 0.015440 1.844330 
# 
# From -- ./inp_files/4174.got.cif
#   From: 2010.03.12/outbox.cif.g09.slc.cpg/sg1_3_cif.got.tgz:4174.got - 2010.03.29 11:57:58.
