data_PCOD8000306
_publ_section_title
;
Structure prediction by ZEFSAII (Michael W. Deem and Ramdas Pophale) SiO2 
 PCOD8000306
Probable space group: P -1
;
_chemical_formula_sum "Si O2"
_cell_formula_units_Z 14
_cell_length_a 8.951471
_cell_length_b 11.626211
_cell_length_c 8.234393
_cell_angle_alpha 93.472837
_cell_angle_beta 132.892606
_cell_angle_gamma 81.732764
_cell_volume 620.493658
_symmetry_space_group_name_H-M "P -1"
_symmetry_group_IT_number 2
_symmetry_cell_setting 'triclinic'
loop_
_space_group_symop_operation_xyz
x,y,z
-x,-y,-z
loop_
_atom_site_type_symbol
_atom_site_label
_atom_site_fract_x
_atom_site_fract_y
_atom_site_fract_z
Si Si1 0.578377 0.222451 0.480253
Si Si2 0.204910 0.632883 0.115062
Si Si3 0.701288 0.822273 0.441408
Si Si4 0.933881 0.631771 0.411208
Si Si5 0.845375 0.216240 0.207377
Si Si6 0.219414 0.374788 0.062703
Si Si7 0.761903 0.041146 0.354982
O O1 0.709270 0.320640 0.650851
O O2 0.469368 0.169135 0.546774
O O3 0.726548 0.117684 0.499168
O O4 0.410920 0.276950 0.229484
O O5 0.956910 0.636187 0.934384
O O6 0.267781 0.711478 0.018918
O O7 0.301949 0.499252 0.147100
O O8 0.731338 0.694785 0.364902
O O9 0.924885 0.842424 0.684384
O O10 0.642772 0.928627 0.276533
O O11 0.883603 0.642888 0.186787
O O12 0.000000 0.500000 0.500000
O O13 0.125167 0.700045 0.607361
O O14 0.700712 0.122305 0.156315
O O15 0.000000 0.000000 0.500000
#
# Coordination Sequence:
#
# PCOD8000306 Si02
#       7
#     2   2   2   2   2   2   2
#     4  12  24  42  67 102 131 173 229 273 330 396
#     4  11  23  40  67  97 143 174 215 271 338 396
#     4   9  21  42  66  96 134 169 223 277 323 390
#     4  10  19  38  71  95 132 178 210 270 331 388
#     4   9  19  42  67  94 131 176 221 260 335 385
#     4  11  22  42  64 102 138 178 215 271 332 397
#     4  10  22  44  70  92 133 178 223 278 332 394
#
# _framework density 22.562678999999999
#
# number of rings (size 3 to 8) (size 9 to 14) (size 15 to 20)
#    0.857    0.857    2.857    1.714    2.000    1.143 
#    2.571    8.571    0.000    0.000    0.000    0.000 
#    0.000    0.000    0.000    0.000    0.000    0.000 
#
# Total GULP energy -173466.114594 kJ/mol
# GULP energy per Si atom -12390.436757 kJ/mol
# Density = 2.251133 g / cm^3
# Si number density = 22.562679 Si / 1000 Ang^3
#
#
#
# Elastic Constant Matrix: (Units=GPa)
#
#
# Indices 1 2 3 4 5 6 
#
# 1 114.4545 64.3752 20.5657 -16.2170 -13.8168 -7.9074
# 2 64.3752 129.3845 51.2822 -31.1798 -12.3882 -4.0977
# 3 20.5657 51.2822 89.7595 -0.3106 -13.7435 4.3784
# 4 -16.2170 -31.1798 -0.3106 28.8387 6.1165 -14.9728
# 5 -13.8168 -12.3882 -13.7435 6.1165 27.7388 -2.8962
# 6 -7.9074 -4.0977 4.3784 -14.9728 -2.8962 40.0386
#
#
#
# Elastic Compliance Matrix: (Units=1/GPa)
#
#
# Indices 1 2 3 4 5 6 
#
# 1 0.012773 -0.006023 0.001040 0.001090 0.004209 0.002505
# 2 -0.006023 0.022670 -0.012736 0.028564 -0.004137 0.012906
# 3 0.001040 -0.012736 0.019828 -0.019932 0.007990 -0.010142
# 4 0.001090 0.028564 -0.019932 0.087887 -0.012059 0.037312
# 5 0.004209 -0.004137 0.007990 -0.012059 0.042721 -0.001885
# 6 0.002505 0.012906 -0.010142 0.037312 -0.001885 0.041717
#
#
# Mechanical properties :
#
#
# Convention : Reuss Voigt Hill
#
# Bulk Modulus (GPa) = 50.41712 67.33829 58.87770
# Shear Modulus (GPa) = 18.54298 32.48158 25.51228
#
# Velocity S-wave (km/s) = 2.86989 3.79834 3.36628
# Velocity P-wave (km/s) = 5.77716 7.01044 6.42347
#
# Compressibility (1/GPa) = 0.01983453
#
# Stress axis : x y z
#
# Youngs Moduli (GPa) = 78.28881 44.11192 50.43333
#
# Poissons Ratio (x) = 0.26567 -0.05247
# Poissons Ratio (y) = 0.47150 0.64232
# Poissons Ratio (z) = -0.08145 0.56181
#
# Static dielectric constant tensor:
#      x y z
#    x 3.961430 0.147180 -0.132830 
#    y 0.147180 4.345130 -0.213650 
#    z -0.132830 -0.213650 3.681050 
# 
# 
# High freq. dielectric constant tensor:
#      x y z
#    x 1.887170 0.007570 -0.009720 
#    y 0.007570 1.894430 -0.016070 
#    z -0.009720 -0.016070 1.864910 
# 
# From -- ./inp_files/178355.got.cif
#   From: 2010.06.25/outbox.cif.g09.slc.cpg/sg2_90_cif.got.tgz:178355.got - 2010.06.27 13:26:56.
