data_PCOD8000599
_publ_section_title
;
Structure prediction by ZEFSAII (Michael W. Deem and Ramdas Pophale) SiO2 
 PCOD8000599
Probable space group: P -1
;
_chemical_formula_sum "Si O2"
_cell_formula_units_Z 16
_cell_length_a 20.701102
_cell_length_b 9.159219
_cell_length_c 26.285192
_cell_angle_alpha 36.804364
_cell_angle_beta 161.286281
_cell_angle_gamma 151.201486
_cell_volume 756.319591
_symmetry_space_group_name_H-M "P -1"
_symmetry_group_IT_number 2
_symmetry_cell_setting 'triclinic'
loop_
_space_group_symop_operation_xyz
x,y,z
-x,-y,-z
loop_
_atom_site_type_symbol
_atom_site_label
_atom_site_fract_x
_atom_site_fract_y
_atom_site_fract_z
Si Si1 0.075343 0.399063 0.631774
Si Si2 0.954869 0.612309 0.279282
Si Si3 0.566991 0.808586 0.571765
Si Si4 0.942618 0.791472 0.682466
Si Si5 0.730499 0.280878 0.975873
Si Si6 0.069573 0.299820 0.079803
Si Si7 0.363014 0.202094 0.039331
Si Si8 0.690898 0.040794 0.172748
O O1 0.031957 0.511848 0.621235
O O2 0.370532 0.545591 0.805446
O O3 0.000000 0.500000 0.500000
O O4 0.900696 0.026320 0.609578
O O5 0.883880 0.384429 0.243813
O O6 0.723949 0.636544 0.105704
O O7 0.218559 0.949425 0.375107
O O8 0.322349 0.535101 0.435225
O O9 0.672122 0.651618 0.724954
O O10 0.500000 0.000000 0.500000
O O11 0.087443 0.724024 0.848436
O O12 0.109322 0.978483 0.703469
O O13 0.890572 0.616777 0.974136
O O14 0.627474 0.031978 0.923141
O O15 0.482232 0.202998 0.842998
O O16 0.000000 0.500000 0.000000
O O17 0.830970 0.951910 0.013677
O O18 0.500000 0.000000 0.000000
#
# Coordination Sequence:
#
# PCOD8000599 Si02
#       8
#     2   2   2   2   2   2   2   2
#     4  12  26  40  63 101 131 166 221 282 329 389
#     4  11  21  42  67  91 126 181 213 264 334 391
#     4  11  24  44  66  95 138 172 220 275 337 396
#     4  11  24  41  64  95 133 169 221 276 330 391
#     4  10  19  39  66  95 124 170 219 267 323 393
#     4   9  22  39  67  95 124 177 220 265 322 395
#     4  10  19  39  65  89 128 164 221 262 324 388
#     4  10  20  36  67  94 124 167 222 263 324 393
#
# _framework density 21.155080000000002
#
# number of rings (size 3 to 8) (size 9 to 14) (size 15 to 20)
#    0.000    1.500    3.750    1.875    3.500    1.500 
#    2.250    1.875    0.000    0.000    0.000    0.000 
#    0.000    0.000    0.000    0.000    0.000    0.000 
#
# Total GULP energy -198220.907803 kJ/mol
# GULP energy per Si atom -12388.806738 kJ/mol
# Density = 2.110693 g / cm^3
# Si number density = 21.155080 Si / 1000 Ang^3
#
#
#
# Elastic Constant Matrix: (Units=GPa)
#
#
# Indices 1 2 3 4 5 6 
#
# 1 116.1365 27.6037 45.8675 2.7474 -14.7895 20.4225
# 2 27.6037 65.8660 48.9309 12.7686 -21.7077 -1.8418
# 3 45.8675 48.9309 116.0669 9.7124 -10.9595 5.2691
# 4 2.7474 12.7686 9.7124 42.7790 -2.0059 -3.4952
# 5 -14.7895 -21.7077 -10.9595 -2.0059 29.2523 -5.0492
# 6 20.4225 -1.8418 5.2691 -3.4952 -5.0492 35.4822
#
#
#
# Elastic Compliance Matrix: (Units=1/GPa)
#
#
# Indices 1 2 3 4 5 6 
#
# 1 0.011727 -0.001867 -0.003377 0.000186 0.002255 -0.006006
# 2 -0.001867 0.031265 -0.010482 -0.005413 0.019070 0.006434
# 3 -0.003377 -0.010482 0.014020 -0.000157 -0.004474 -0.001334
# 4 0.000186 -0.005413 -0.000157 0.025073 -0.001946 0.001828
# 5 0.002255 0.019070 -0.004474 -0.001946 0.048897 0.007123
# 6 -0.006006 0.006434 -0.001334 0.001828 0.007123 0.033366
#
#
# Mechanical properties :
#
#
# Convention : Reuss Voigt Hill
#
# Bulk Modulus (GPa) = 39.12094 60.31928 49.72011
# Shear Modulus (GPa) = 24.47140 33.21387 28.84263
#
# Velocity S-wave (km/s) = 3.40481 3.96664 3.69642
# Velocity P-wave (km/s) = 5.83006 7.03945 6.46310
#
# Compressibility (1/GPa) = 0.02556176
#
# Stress axis : x y z
#
# Youngs Moduli (GPa) = 85.27384 31.98419 71.32463
#
# Poissons Ratio (x) = 0.05970 0.24089
# Poissons Ratio (y) = 0.15916 0.74760
# Poissons Ratio (z) = 0.28800 0.33525
#
# Static dielectric constant tensor:
#      x y z
#    x 4.264810 0.201570 0.100160 
#    y 0.201570 4.205810 0.483200 
#    z 0.100160 0.483200 4.275710 
# 
# 
# High freq. dielectric constant tensor:
#      x y z
#    x 1.840770 0.013840 0.006910 
#    y 0.013840 1.816160 0.018560 
#    z 0.006910 0.018560 1.819730 
# 
# From -- ./inp_files/353648.got.cif
#   From: 2010.06.25/outbox.cif.g09.slc.cpg/sg2_177_cif.got.tgz:353648.got - 2010.06.27 13:26:56.
