data_PCOD8000200
_publ_section_title
;
Structure prediction by ZEFSAII (Michael W. Deem and Ramdas Pophale) SiO2 
 PCOD8000200
Probable space group: P 1
;
_chemical_formula_sum "Si O2"
_cell_formula_units_Z 8
_cell_length_a 6.580179
_cell_length_b 9.272563
_cell_length_c 10.746847
_cell_angle_alpha 38.055408
_cell_angle_beta 97.023940
_cell_angle_gamma 109.660182
_cell_volume 368.968568
_symmetry_space_group_name_H-M "P 1"
_symmetry_group_IT_number 1
_symmetry_cell_setting 'triclinic'
loop_
_space_group_symop_operation_xyz
x,y,z
loop_
_atom_site_type_symbol
_atom_site_label
_atom_site_fract_x
_atom_site_fract_y
_atom_site_fract_z
Si Si1 0.017490 0.033600 0.143310
Si Si2 0.904536 0.429094 0.239063
Si Si3 0.755716 0.854577 0.005953
Si Si4 0.117646 0.209390 0.611708
Si Si5 0.354741 0.591015 0.768065
Si Si6 0.695332 0.956788 0.386798
Si Si7 0.319091 0.815642 0.873194
Si Si8 0.252815 0.699296 0.438053
O O1 0.918272 0.002364 0.296250
O O2 0.086264 0.795109 0.288612
O O3 0.242844 0.288370 0.985359
O O4 0.843562 0.009733 0.035997
O O5 0.035178 0.307793 0.418126
O O6 0.722091 0.204282 0.300508
O O7 0.081211 0.611728 0.032421
O O8 0.775140 0.579862 0.198783
O O9 0.503048 0.825745 0.983305
O O10 0.900591 0.012358 0.795920
O O11 0.249425 0.441670 0.553955
O O12 0.295057 0.085677 0.675981
O O13 0.383696 0.742095 0.794991
O O14 0.195802 0.655634 0.612318
O O15 0.603105 0.703654 0.643648
O O16 0.503336 0.914602 0.297777
#
# Coordination Sequence:
#
# PCOD8000200 Si02
#       8
#     1   1   1   1   1   1   1   1
#     4  12  23  48  72  99 141 180 230 287 346 402
#     4  11  24  44  67 100 145 179 232 281 339 418
#     4  11  25  43  69 102 137 186 226 285 346 405
#     4  11  24  46  66 102 142 178 232 284 341 414
#     4  10  24  48  64 103 138 175 232 286 333 414
#     4  10  25  43  68 103 131 186 224 280 347 404
#     4  11  26  42  71 101 140 185 223 286 348 404
#     4  10  25  46  69 100 138 181 229 289 336 413
#
# _framework density 21.682062999999999
#
# number of rings (size 3 to 8) (size 9 to 14) (size 15 to 20)
#    0.750    0.500    3.750    0.750    5.250    3.000 
#    2.250    0.000    0.000    0.000    0.000    0.000 
#    0.000    0.000    0.000    0.000    0.000    0.000 
#
# Total GULP energy -99126.675804 kJ/mol
# GULP energy per Si atom -12390.834476 kJ/mol
# Density = 2.163271 g / cm^3
# Si number density = 21.682063 Si / 1000 Ang^3
#
#
#
# Elastic Constant Matrix: (Units=GPa)
#
#
# Indices 1 2 3 4 5 6 
#
# 1 70.8241 23.5057 43.0636 -14.4497 8.0840 1.9525
# 2 23.5057 113.1333 39.6551 -20.3796 2.4957 7.0025
# 3 43.0636 39.6551 109.4548 -9.4494 -2.2965 -7.2651
# 4 -14.4497 -20.3796 -9.4494 36.0519 0.0504 -4.6397
# 5 8.0840 2.4957 -2.2965 0.0504 47.2186 2.2760
# 6 1.9525 7.0025 -7.2651 -4.6397 2.2760 33.2293
#
#
#
# Elastic Compliance Matrix: (Units=1/GPa)
#
#
# Indices 1 2 3 4 5 6 
#
# 1 0.020557 -0.000349 -0.007654 0.005818 -0.003796 -0.001736
# 2 -0.000349 0.011259 -0.003688 0.004946 -0.000603 -0.002427
# 3 -0.007654 -0.003688 0.013695 -0.001059 0.001983 0.003938
# 4 0.005818 0.004946 -0.001059 0.032988 -0.001493 0.003092
# 5 -0.003796 -0.000603 0.001983 -0.001493 0.022003 -0.000932
# 6 -0.001736 -0.002427 0.003938 0.003092 -0.000932 0.032064
#
#
# Mechanical properties :
#
#
# Convention : Reuss Voigt Hill
#
# Bulk Modulus (GPa) = 45.19057 56.20678 50.69867
# Shear Modulus (GPa) = 30.61353 35.77914 33.19633
#
# Velocity S-wave (km/s) = 3.76164 4.06664 3.91711
# Velocity P-wave (km/s) = 6.30509 6.93033 6.62509
#
# Compressibility (1/GPa) = 0.02212851
#
# Stress axis : x y z
#
# Youngs Moduli (GPa) = 48.64416 88.81722 73.01694
#
# Poissons Ratio (x) = 0.03101 0.55888
# Poissons Ratio (y) = 0.01698 0.26932
# Poissons Ratio (z) = 0.37233 0.32760
#
# Static dielectric constant tensor:
#      x y z
#    x 3.637980 0.058580 -0.063260 
#    y 0.058580 3.979050 -0.092650 
#    z -0.063260 -0.092650 3.984250 
# 
# 
# High freq. dielectric constant tensor:
#      x y z
#    x 1.827090 0.011060 -0.010230 
#    y 0.011060 1.865540 -0.002260 
#    z -0.010230 -0.002260 1.856090 
# 
# From -- ./inp_files/4200.got.cif
#   From: 2010.03.12/outbox.cif.g09.slc.cpg/sg1_3_cif.got.tgz:4200.got - 2010.03.29 11:57:58.
