data_PCOD8000257
_publ_section_title
;
Structure prediction by ZEFSAII (Michael W. Deem and Ramdas Pophale) SiO2 
 PCOD8000257
Probable space group: P 1
;
_chemical_formula_sum "Si O2"
_cell_formula_units_Z 8
_cell_length_a 10.389079
_cell_length_b 4.958360
_cell_length_c 8.812067
_cell_angle_alpha 70.081121
_cell_angle_beta 47.886277
_cell_angle_gamma 92.754842
_cell_volume 290.641669
_symmetry_space_group_name_H-M "P 1"
_symmetry_group_IT_number 1
_symmetry_cell_setting 'triclinic'
loop_
_space_group_symop_operation_xyz
x,y,z
loop_
_atom_site_type_symbol
_atom_site_label
_atom_site_fract_x
_atom_site_fract_y
_atom_site_fract_z
Si Si1 0.618000 0.726520 0.773210
Si Si2 0.361914 0.187866 0.603988
Si Si3 0.995543 0.677374 0.012186
Si Si4 0.851836 0.423457 0.475594
Si Si5 0.776558 0.512155 0.930932
Si Si6 0.481711 0.876124 0.302416
Si Si7 0.261302 0.341579 0.961629
Si Si8 0.131930 0.788070 0.393343
O O1 0.709434 0.491542 0.686280
O O2 0.750331 0.077183 0.556519
O O3 0.627760 0.664252 0.960494
O O4 0.410366 0.629619 0.887143
O O5 0.471125 0.527029 0.380014
O O6 0.439834 0.963829 0.491735
O O7 0.377748 0.216906 0.771283
O O8 0.133357 0.032411 0.789524
O O9 0.121593 0.467324 0.960279
O O10 0.903096 0.669557 0.250320
O O11 0.813518 0.547652 0.073859
O O12 0.046916 0.485207 0.404544
O O13 0.685580 0.136373 0.042062
O O14 0.982028 0.711936 0.661420
O O15 0.334923 0.873596 0.288699
O O16 0.140597 0.076705 0.226009
#
# Coordination Sequence:
#
# PCOD8000257 Si02
#       8
#     1   1   1   1   1   1   1   1
#     4  11  28  49  78 113 159 202 266 313 392 458
#     4  12  27  49  74 111 154 203 255 309 392 450
#     4  12  26  48  80 113 162 203 259 320 396 452
#     4  11  27  47  76 117 155 206 255 328 376 471
#     4  11  26  52  74 117 153 211 253 323 384 466
#     4  12  28  51  76 114 154 207 252 323 378 472
#     4  12  26  52  81 116 155 208 257 328 387 463
#     4  11  24  52  79 111 156 200 261 314 391 454
#
# _framework density 27.525300000000001
#
# number of rings (size 3 to 8) (size 9 to 14) (size 15 to 20)
#    0.000    0.500    5.000    1.500    7.000    3.000 
#    2.250    0.000    0.000    0.000    0.000    0.000 
#    0.000    0.000    0.000    0.000    0.000    0.000 
#
# Total GULP energy -99106.494706 kJ/mol
# GULP energy per Si atom -12388.311838 kJ/mol
# Density = 2.746265 g / cm^3
# Si number density = 27.525300 Si / 1000 Ang^3
#
#
#
# Elastic Constant Matrix: (Units=GPa)
#
#
# Indices 1 2 3 4 5 6 
#
# 1 118.2050 33.8184 19.4763 7.1329 -6.9513 38.3239
# 2 33.8184 94.8564 21.4452 -23.0980 -6.0582 23.6023
# 3 19.4763 21.4452 134.3512 -24.7783 -0.4381 9.6753
# 4 7.1329 -23.0980 -24.7783 41.6319 17.0232 -2.2201
# 5 -6.9513 -6.0582 -0.4381 17.0232 34.6994 -4.9031
# 6 38.3239 23.6023 9.6753 -2.2201 -4.9031 48.6583
#
#
#
# Elastic Compliance Matrix: (Units=1/GPa)
#
#
# Indices 1 2 3 4 5 6 
#
# 1 0.013341 -0.003942 -0.002223 -0.008207 0.004846 -0.008039
# 2 -0.003942 0.015308 0.000426 0.010845 -0.004042 -0.004318
# 3 -0.002223 0.000426 0.009128 0.007701 -0.004081 -0.000330
# 4 -0.008207 0.010845 0.007701 0.044892 -0.021744 -0.000471
# 5 0.004846 -0.004042 -0.004081 -0.021744 0.039981 0.001992
# 6 -0.008039 -0.004318 -0.000330 -0.000471 0.001992 0.029222
#
#
# Mechanical properties :
#
#
# Convention : Reuss Voigt Hill
#
# Bulk Modulus (GPa) = 38.02598 55.21026 46.61812
# Shear Modulus (GPa) = 29.04968 43.17610 36.11289
#
# Velocity S-wave (km/s) = 3.25219 3.96485 3.62607
# Velocity P-wave (km/s) = 5.28651 6.40793 5.87404
#
# Compressibility (1/GPa) = 0.02629781
#
# Stress axis : x y z
#
# Youngs Moduli (GPa) = 74.95864 65.32374 109.54907
#
# Poissons Ratio (x) = 0.25751 0.24358
# Poissons Ratio (y) = 0.29549 -0.04664
# Poissons Ratio (z) = 0.16667 -0.02781
#
# Static dielectric constant tensor:
#      x y z
#    x 4.976500 0.634330 0.112370 
#    y 0.634330 5.012670 -0.088720 
#    z 0.112370 -0.088720 5.274970 
# 
# 
# High freq. dielectric constant tensor:
#      x y z
#    x 2.093590 0.038390 0.002160 
#    y 0.038390 2.107190 -0.008310 
#    z 0.002160 -0.008310 2.139160 
# 
# From -- ./inp_files/1114.got.cif
#   From: 2010.03.12/outbox.cif.g09.slc.cpg/sg1_1_cif.got.tgz:1114.got - 2010.03.29 11:57:58.
