data_PCOD8000201
_publ_section_title
;
Structure prediction by ZEFSAII (Michael W. Deem and Ramdas Pophale) SiO2 
 PCOD8000201
Probable space group: P 1
;
_chemical_formula_sum "Si O2"
_cell_formula_units_Z 8
_cell_length_a 9.149349
_cell_length_b 5.374983
_cell_length_c 10.859576
_cell_angle_alpha 64.036907
_cell_angle_beta 61.713851
_cell_angle_gamma 103.253464
_cell_volume 352.672472
_symmetry_space_group_name_H-M "P 1"
_symmetry_group_IT_number 1
_symmetry_cell_setting 'triclinic'
loop_
_space_group_symop_operation_xyz
x,y,z
loop_
_atom_site_type_symbol
_atom_site_label
_atom_site_fract_x
_atom_site_fract_y
_atom_site_fract_z
Si Si1 0.228400 0.448450 0.722570
Si Si2 0.483680 0.555916 0.211449
Si Si3 0.575483 0.257905 0.007139
Si Si4 0.695845 0.050608 0.634851
Si Si5 0.290468 0.340351 0.980630
Si Si6 0.926645 0.472808 0.672764
Si Si7 0.078256 0.132810 0.359904
Si Si8 0.470679 0.218625 0.527410
O O1 0.169627 0.254327 0.919690
O O2 0.334598 0.307102 0.635167
O O3 0.036753 0.357077 0.741519
O O4 0.357777 0.840933 0.607769
O O5 0.547876 0.436108 0.094155
O O6 0.244954 0.394656 0.333562
O O7 0.552726 0.447474 0.325334
O O8 0.591868 0.949190 0.097867
O O9 0.387690 0.128627 0.016253
O O10 0.784683 0.538460 0.799633
O O11 0.781195 0.166670 0.710775
O O12 0.652942 0.299919 0.526120
O O13 0.857463 0.043245 0.488125
O O14 0.483829 0.713065 0.812692
O O15 0.139694 0.272683 0.166338
O O16 0.072604 0.795392 0.461173
#
# Coordination Sequence:
#
# PCOD8000201 Si02
#       8
#     1   1   1   1   1   1   1   1
#     4  11  25  44  72 101 142 183 233 289 352 409
#     4  11  24  44  68 106 138 189 228 288 348 422
#     4  11  24  42  70 100 147 180 233 286 353 407
#     4  11  25  45  73 101 143 185 237 287 350 416
#     4  10  24  48  68 105 140 188 227 291 351 415
#     4  12  24  44  70 106 138 186 238 287 347 418
#     4  11  24  42  73 102 138 185 239 279 353 414
#     4  11  24  45  70 101 142 188 229 287 354 413
#
# _framework density 22.683938000000001
#
# number of rings (size 3 to 8) (size 9 to 14) (size 15 to 20)
#    0.000    1.000    2.500    3.750    7.000    3.000 
#    2.250    0.000    0.000    0.000    0.000    0.000 
#    0.000    0.000    0.000    0.000    0.000    0.000 
#
# Total GULP energy -99154.546127 kJ/mol
# GULP energy per Si atom -12394.318266 kJ/mol
# Density = 2.263231 g / cm^3
# Si number density = 22.683938 Si / 1000 Ang^3
#
#
#
# Elastic Constant Matrix: (Units=GPa)
#
#
# Indices 1 2 3 4 5 6 
#
# 1 176.4973 57.2829 63.6328 29.6353 24.3359 1.1816
# 2 57.2829 149.5824 44.5760 13.1665 8.7510 -24.0522
# 3 63.6328 44.5760 142.3597 17.2671 13.5398 -9.7481
# 4 29.6353 13.1665 17.2671 28.6231 1.6966 -1.6140
# 5 24.3359 8.7510 13.5398 1.6966 42.9239 3.9904
# 6 1.1816 -24.0522 -9.7481 -1.6140 3.9904 37.9489
#
#
#
# Elastic Compliance Matrix: (Units=1/GPa)
#
#
# Indices 1 2 3 4 5 6 
#
# 1 0.008810 -0.002280 -0.002252 -0.006641 -0.003350 -0.002228
# 2 -0.002280 0.008897 -0.001262 -0.000629 -0.000602 0.005422
# 3 -0.002252 -0.001262 0.008945 -0.002313 -0.001346 0.001611
# 4 -0.006641 -0.000629 -0.002313 0.043372 0.002838 0.000760
# 5 -0.003350 -0.000602 -0.001346 0.002838 0.025931 -0.003229
# 6 -0.002228 0.005422 0.001611 0.000760 -0.003229 0.030643
#
#
# Mechanical properties :
#
#
# Convention : Reuss Voigt Hill
#
# Bulk Modulus (GPa) = 66.38674 88.82477 77.60575
# Shear Modulus (GPa) = 34.91416 42.09571 38.50493
#
# Velocity S-wave (km/s) = 3.92747 4.31251 4.12449
# Velocity P-wave (km/s) = 7.06372 8.00248 7.54771
#
# Compressibility (1/GPa) = 0.01506325
#
# Stress axis : x y z
#
# Youngs Moduli (GPa) = 113.51056 112.39692 111.79162
#
# Poissons Ratio (x) = 0.25630 0.25179
# Poissons Ratio (y) = 0.25884 0.14105
# Poissons Ratio (z) = 0.25566 0.14181
#
# Static dielectric constant tensor:
#      x y z
#    x 4.675070 -0.033760 0.276620 
#    y -0.033760 3.854950 0.123300 
#    z 0.276620 0.123300 4.173080 
# 
# 
# High freq. dielectric constant tensor:
#      x y z
#    x 1.906360 -0.010470 0.017230 
#    y -0.010470 1.884890 0.007950 
#    z 0.017230 0.007950 1.902220 
# 
# From -- ./inp_files/1076.got.cif
#   From: 2010.03.12/outbox.cif.g09.slc.cpg/sg1_1_cif.got.tgz:1076.got - 2010.03.29 11:57:58.
