data_PCOD8000932
_publ_section_title
;
Structure prediction by ZEFSAII (Michael W. Deem and Ramdas Pophale) SiO2 
 PCOD8000932
Probable space group: P -1
;
_chemical_formula_sum "Si O2"
_cell_formula_units_Z 16
_cell_length_a 18.979070
_cell_length_b 12.242787
_cell_length_c 9.157813
_cell_angle_alpha 40.475371
_cell_angle_beta 36.308028
_cell_angle_gamma 37.587076
_cell_volume 723.283971
_symmetry_space_group_name_H-M "P -1"
_symmetry_group_IT_number 2
_symmetry_cell_setting 'triclinic'
loop_
_space_group_symop_operation_xyz
x,y,z
-x,-y,-z
loop_
_atom_site_type_symbol
_atom_site_label
_atom_site_fract_x
_atom_site_fract_y
_atom_site_fract_z
Si Si1 0.921415 0.384380 0.775303
Si Si2 0.615778 0.606128 0.064124
Si Si3 0.507100 0.012418 0.299351
Si Si4 0.210361 0.559565 0.629062
Si Si5 0.495460 0.336737 0.491278
Si Si6 0.814473 0.798075 0.950719
Si Si7 0.938036 0.232545 0.591921
Si Si8 0.030713 0.157043 0.102479
O O1 0.000000 0.500000 0.500000
O O2 0.916951 0.272052 0.755824
O O3 0.770446 0.523427 0.938810
O O4 0.011228 0.226387 0.900525
O O5 0.598058 0.426488 0.214489
O O6 0.527957 0.690950 0.270823
O O7 0.581125 0.772807 0.831916
O O8 0.456108 0.867480 0.462224
O O9 0.658502 0.954019 0.052719
O O10 0.500000 0.000000 0.500000
O O11 0.364980 0.497369 0.462956
O O12 0.173613 0.402121 0.916064
O O13 0.115810 0.759536 0.660941
O O14 0.171952 0.581823 0.498729
O O15 0.905892 0.839345 0.641035
O O16 0.872882 0.779561 0.035514
O O17 0.899237 0.068764 0.783228
#
# Coordination Sequence:
#
# PCOD8000932 Si02
#       8
#     2   2   2   2   2   2   2   2
#     4  12  26  44  65  96 136 174 221 271 338 397
#     4  11  26  47  72  98 139 188 223 281 342 404
#     4  11  27  44  71 106 134 178 228 284 347 401
#     4  10  19  40  66  94 129 172 221 266 334 391
#     4  10  24  47  71 100 137 182 233 278 333 420
#     4  10  22  41  68  94 131 174 220 271 328 405
#     4  11  24  37  67 100 129 176 218 280 328 393
#     4  11  22  40  63  97 133 170 223 272 328 394
#
# _framework density 22.121327000000001
#
# number of rings (size 3 to 8) (size 9 to 14) (size 15 to 20)
#    0.000    1.250    1.250    5.250   10.500    1.500 
#    2.250    0.000    0.000    0.000    0.000    0.000 
#    0.000    0.000    0.000    0.000    0.000    0.000 
#
# Total GULP energy -198358.649530 kJ/mol
# GULP energy per Si atom -12397.415596 kJ/mol
# Density = 2.207098 g / cm^3
# Si number density = 22.121327 Si / 1000 Ang^3
#
#
#
# Elastic Constant Matrix: (Units=GPa)
#
#
# Indices 1 2 3 4 5 6 
#
# 1 84.7151 16.1019 29.0472 -5.8857 0.2897 13.6587
# 2 16.1019 65.2516 24.6425 -16.1404 -6.6650 7.7301
# 3 29.0472 24.6425 81.4666 -13.5941 -3.5376 1.6026
# 4 -5.8857 -16.1404 -13.5941 26.4512 0.3043 -1.8351
# 5 0.2897 -6.6650 -3.5376 0.3043 42.6326 7.0186
# 6 13.6587 7.7301 1.6026 -1.8351 7.0186 41.2329
#
#
#
# Elastic Compliance Matrix: (Units=1/GPa)
#
#
# Indices 1 2 3 4 5 6 
#
# 1 0.014338 -0.001338 -0.004676 -0.000330 0.000021 -0.004335
# 2 -0.001338 0.020262 -0.003798 0.009844 0.003341 -0.003338
# 3 -0.004676 -0.003798 0.015898 0.004931 0.000427 0.001790
# 4 -0.000330 0.009844 0.004931 0.046243 0.001645 -0.000150
# 5 0.000021 0.003341 0.000427 0.001645 0.024792 -0.004797
# 6 -0.004335 -0.003338 0.001790 -0.000150 -0.004797 0.027055
#
#
# Mechanical properties :
#
#
# Convention : Reuss Voigt Hill
#
# Bulk Modulus (GPa) = 32.39261 41.22407 36.80834
# Shear Modulus (GPa) = 28.01070 32.83946 30.42508
#
# Velocity S-wave (km/s) = 3.56227 3.85712 3.71263
# Velocity P-wave (km/s) = 5.62091 6.20584 5.92060
#
# Compressibility (1/GPa) = 0.03087124
#
# Stress axis : x y z
#
# Youngs Moduli (GPa) = 69.74462 49.35456 62.90285
#
# Poissons Ratio (x) = 0.06604 0.29416
# Poissons Ratio (y) = 0.09332 0.23893
# Poissons Ratio (z) = 0.32616 0.18747
#
# Static dielectric constant tensor:
#      x y z
#    x 4.090000 0.051830 -0.174890 
#    y 0.051830 4.022140 -0.069130 
#    z -0.174890 -0.069130 3.638800 
# 
# 
# High freq. dielectric constant tensor:
#      x y z
#    x 1.886640 0.004270 0.000060 
#    y 0.004270 1.862170 -0.010990 
#    z 0.000060 -0.010990 1.862570 
# 
# From -- ./inp_files/332684.got.cif
#   From: 2010.06.25/outbox.cif.g09.slc.cpg/sg2_167_cif.got.tgz:332684.got - 2010.06.27 13:26:56.
