data_PCOD8000483
_publ_section_title
;
Structure prediction by ZEFSAII (Michael W. Deem and Ramdas Pophale) SiO2 
 PCOD8000483
Probable space group: P -1
;
_chemical_formula_sum "Si O2"
_cell_formula_units_Z 16
_cell_length_a 8.476453
_cell_length_b 14.252352
_cell_length_c 14.262201
_cell_angle_alpha 119.948700
_cell_angle_beta 148.819284
_cell_angle_gamma 59.301519
_cell_volume 759.473442
_symmetry_space_group_name_H-M "P -1"
_symmetry_group_IT_number 2
_symmetry_cell_setting 'triclinic'
loop_
_space_group_symop_operation_xyz
x,y,z
-x,-y,-z
loop_
_atom_site_type_symbol
_atom_site_label
_atom_site_fract_x
_atom_site_fract_y
_atom_site_fract_z
Si Si1 0.261099 0.386862 0.715993
Si Si2 0.438526 0.818834 0.131711
Si Si3 0.175488 0.222890 0.260078
Si Si4 0.325274 0.922038 0.931727
Si Si5 0.358778 0.507594 0.177781
Si Si6 0.840702 0.290603 0.312123
Si Si7 0.328373 0.438927 0.454626
Si Si8 0.357193 0.002834 0.326811
O O1 0.369989 0.305212 0.817861
O O2 0.557877 0.427961 0.840663
O O3 0.097642 0.314922 0.526266
O O4 0.023636 0.495515 0.681037
O O5 0.515614 0.899120 0.293458
O O6 0.516567 0.864182 0.091081
O O7 0.073210 0.814208 0.954867
O O8 0.346917 0.317824 0.355535
O O9 0.416550 0.114566 0.361545
O O10 0.984749 0.287674 0.281329
O O11 0.253552 0.828392 0.776459
O O12 0.010285 0.993570 0.848574
O O13 0.500000 0.000000 0.000000
O O14 0.534437 0.382370 0.206775
O O15 0.480443 0.573512 0.357818
O O16 0.000000 0.500000 0.000000
O O17 0.500000 0.500000 0.500000
O O18 0.500000 0.000000 0.500000
#
# Coordination Sequence:
#
# PCOD8000483 Si02
#       8
#     2   2   2   2   2   2   2   2
#     4  11  21  42  65  86 130 168 207 260 311 385
#     4  10  22  38  66  95 118 168 212 247 325 372
#     4  10  19  39  63  84 124 165 201 260 307 371
#     4  10  22  41  62  89 127 160 211 267 307 369
#     4  11  23  38  63  94 122 165 214 258 313 380
#     4   9  18  41  61  83 121 172 203 250 322 362
#     4  11  24  41  60  92 128 165 211 256 316 370
#     4  10  21  41  65  90 118 164 214 251 316 377
#
# _framework density 21.067228
#
# number of rings (size 3 to 8) (size 9 to 14) (size 15 to 20)
#    0.000    2.000    2.500    3.750    1.750    3.500 
#    9.000    1.250    0.000    0.000    0.000    0.000 
#    0.000    0.000    0.000    0.000    0.000    0.000 
#
# Total GULP energy -198298.902361 kJ/mol
# GULP energy per Si atom -12393.681398 kJ/mol
# Density = 2.101928 g / cm^3
# Si number density = 21.067228 Si / 1000 Ang^3
#
#
#
# Elastic Constant Matrix: (Units=GPa)
#
#
# Indices 1 2 3 4 5 6 
#
# 1 71.7605 32.0434 22.1326 3.1906 11.7925 29.4867
# 2 32.0434 125.0247 49.1721 12.5622 8.6321 27.5525
# 3 22.1326 49.1721 79.1282 -4.0748 -2.1535 14.3657
# 4 3.1906 12.5622 -4.0748 44.3361 2.1055 0.2531
# 5 11.7925 8.6321 -2.1535 2.1055 32.4536 6.8041
# 6 29.4867 27.5525 14.3657 0.2531 6.8041 41.0193
#
#
#
# Elastic Compliance Matrix: (Units=1/GPa)
#
#
# Indices 1 2 3 4 5 6 
#
# 1 0.021535 -0.000895 -0.003334 -0.001290 -0.005026 -0.012870
# 2 -0.000895 0.012619 -0.006948 -0.004017 -0.002181 -0.005013
# 3 -0.003334 -0.006948 0.018187 0.003689 0.004026 0.000003
# 4 -0.001290 -0.004017 0.003689 0.024124 -0.000250 0.002227
# 5 -0.005026 -0.002181 0.004026 -0.000250 0.033913 -0.001956
# 6 -0.012870 -0.005013 0.000003 0.002227 -0.001956 0.037307
#
#
# Mechanical properties :
#
#
# Convention : Reuss Voigt Hill
#
# Bulk Modulus (GPa) = 33.34749 53.62328 43.48539
# Shear Modulus (GPa) = 27.77248 35.06613 31.41931
#
# Velocity S-wave (km/s) = 3.63475 4.08424 3.86603
# Velocity P-wave (km/s) = 5.78607 6.91014 6.37294
#
# Compressibility (1/GPa) = 0.02998726
#
# Stress axis : x y z
#
# Youngs Moduli (GPa) = 46.43647 79.24326 54.98573
#
# Poissons Ratio (x) = 0.07094 0.18331
# Poissons Ratio (y) = 0.04157 0.38202
# Poissons Ratio (z) = 0.15481 0.55055
#
# Static dielectric constant tensor:
#      x y z
#    x 3.445760 0.253440 0.010620 
#    y 0.253440 4.010350 0.152920 
#    z 0.010620 0.152920 3.897790 
# 
# 
# High freq. dielectric constant tensor:
#      x y z
#    x 1.797540 0.008010 -0.012100 
#    y 0.008010 1.842870 0.010410 
#    z -0.012100 0.010410 1.820960 
# 
# From -- ./inp_files/187359.got.cif
#   From: 2010.06.25/outbox.cif.g09.slc.cpg/sg2_94_cif.got.tgz:187359.got - 2010.06.27 13:26:56.
