data_PCOD8000111
_publ_section_title
;
Structure prediction by ZEFSAII (Michael W. Deem and Ramdas Pophale) SiO2 
 PCOD8000111
Probable space group: P 1
;
_chemical_formula_sum "Si O2"
_cell_formula_units_Z 8
_cell_length_a 13.174928
_cell_length_b 5.082529
_cell_length_c 6.723156
_cell_angle_alpha 107.090229
_cell_angle_beta 54.551080
_cell_angle_gamma 98.572622
_cell_volume 350.417770
_symmetry_space_group_name_H-M "P 1"
_symmetry_group_IT_number 1
_symmetry_cell_setting 'triclinic'
loop_
_space_group_symop_operation_xyz
x,y,z
loop_
_atom_site_type_symbol
_atom_site_label
_atom_site_fract_x
_atom_site_fract_y
_atom_site_fract_z
Si Si1 0.802210 0.344410 0.829690
Si Si2 0.194895 0.317889 0.972615
Si Si3 0.516756 0.476332 0.218834
Si Si4 0.995804 0.496680 0.962615
Si Si5 0.358335 0.810871 0.768712
Si Si6 0.402691 0.902044 0.170967
Si Si7 0.906584 0.779004 0.509498
Si Si8 0.136033 0.687016 0.468907
O O1 0.852709 0.518664 0.627693
O O2 0.805553 0.027879 0.686716
O O3 0.663327 0.435184 0.063257
O O4 0.883493 0.363120 0.941695
O O5 0.159049 0.393454 0.259922
O O6 0.072788 0.272551 0.962349
O O7 0.256862 0.588667 0.878615
O O8 0.259115 0.865325 0.387587
O O9 0.471448 0.694524 0.483677
O O10 0.481533 0.627611 0.085543
O O11 0.449782 0.188518 0.268760
O O12 0.936333 0.721340 0.232093
O O13 0.090600 0.632787 0.731162
O O14 0.287987 0.059398 0.789502
O O15 0.420740 0.926329 0.920886
O O16 0.033656 0.863992 0.497236
#
# Coordination Sequence:
#
# PCOD8000111 Si02
#       8
#     1   1   1   1   1   1   1   1
#     4  11  26  45  64  96 131 172 227 268 307 382
#     4  10  22  39  66 100 131 160 209 265 325 393
#     4  12  26  43  67  94 130 179 224 258 315 387
#     4  10  23  44  70  95 133 175 207 270 334 377
#     4  11  24  42  64  97 129 166 213 262 322 389
#     4  11  24  44  67  96 135 170 208 274 326 376
#     4  10  24  44  68  97 129 167 220 272 324 384
#     4   9  21  41  68 101 132 167 212 265 333 396
#
# _framework density 22.829895
#
# number of rings (size 3 to 8) (size 9 to 14) (size 15 to 20)
#    0.000    1.500    0.000    3.750    0.000   20.000 
#    0.000    2.500    0.000    0.000    0.000    0.000 
#    0.000    0.000    0.000    0.000    0.000    0.000 
#
# Total GULP energy -99208.245895 kJ/mol
# GULP energy per Si atom -12401.030737 kJ/mol
# Density = 2.277793 g / cm^3
# Si number density = 22.829895 Si / 1000 Ang^3
#
#
#
# Elastic Constant Matrix: (Units=GPa)
#
#
# Indices 1 2 3 4 5 6 
#
# 1 93.8444 33.8079 70.7789 -1.5528 -17.0190 -0.0270
# 2 33.8079 99.5686 37.4607 2.7829 -3.9932 -10.7589
# 3 70.7789 37.4607 169.9151 0.5819 -4.0768 -8.1431
# 4 -1.5528 2.7829 0.5819 20.4654 -10.3240 -9.1673
# 5 -17.0190 -3.9932 -4.0768 -10.3240 42.0595 3.4607
# 6 -0.0270 -10.7589 -8.1431 -9.1673 3.4607 34.7111
#
#
#
# Elastic Compliance Matrix: (Units=1/GPa)
#
#
# Indices 1 2 3 4 5 6 
#
# 1 0.018798 -0.003845 -0.006914 0.005200 0.008031 -0.002227
# 2 -0.003845 0.012042 -0.000912 -0.000893 -0.000998 0.003379
# 3 -0.006914 -0.000912 0.008997 -0.001083 -0.002425 0.001778
# 4 0.005200 -0.000893 -0.001083 0.064374 0.016495 0.014830
# 5 0.008031 -0.000998 -0.002425 0.016495 0.030710 0.000423
# 6 -0.002227 0.003379 0.001778 0.014830 0.000423 0.034146
#
#
# Mechanical properties :
#
#
# Convention : Reuss Voigt Hill
#
# Bulk Modulus (GPa) = 60.62816 71.93589 66.28202
# Shear Modulus (GPa) = 25.26412 34.19926 29.73169
#
# Velocity S-wave (km/s) = 3.33021 3.87460 3.61267
# Velocity P-wave (km/s) = 6.43437 7.18294 6.81894
#
# Compressibility (1/GPa) = 0.01649399
#
# Stress axis : x y z
#
# Youngs Moduli (GPa) = 53.19724 83.04160 111.14302
#
# Poissons Ratio (x) = 0.31931 0.76850
# Poissons Ratio (y) = 0.20455 0.10138
# Poissons Ratio (z) = 0.36783 0.07574
#
# Static dielectric constant tensor:
#      x y z
#    x 4.183180 -0.117800 0.152100 
#    y -0.117800 3.887260 0.035140 
#    z 0.152100 0.035140 4.423180 
# 
# 
# High freq. dielectric constant tensor:
#      x y z
#    x 1.897480 -0.012140 0.004990 
#    y -0.012140 1.893450 0.002470 
#    z 0.004990 0.002470 1.915880 
# 
# From -- ./inp_files/582.got.cif
#   From: 2010.03.12/outbox.cif.g09.slc.cpg/sg1_1_cif.got.tgz:582.got - 2010.03.29 11:57:58.
