data_PCOD8000050
_publ_section_title
;
Structure prediction by ZEFSAII (Michael W. Deem and Ramdas Pophale) SiO2 
 PCOD8000050
Probable space group: P 1
;
_chemical_formula_sum "Si O2"
_cell_formula_units_Z 8
_cell_length_a 15.300676
_cell_length_b 12.462292
_cell_length_c 15.197135
_cell_angle_alpha 27.749456
_cell_angle_beta 18.604190
_cell_angle_gamma 26.617191
_cell_volume 399.536004
_symmetry_space_group_name_H-M "P 1"
_symmetry_group_IT_number 1
_symmetry_cell_setting 'triclinic'
loop_
_space_group_symop_operation_xyz
x,y,z
loop_
_atom_site_type_symbol
_atom_site_label
_atom_site_fract_x
_atom_site_fract_y
_atom_site_fract_z
Si Si1 0.516010 0.003660 0.762640
Si Si2 0.727463 0.713936 0.593477
Si Si3 0.810067 0.930853 0.050128
Si Si4 0.356845 0.556392 0.522573
Si Si5 0.139268 0.724062 0.059232
Si Si6 0.929606 0.524428 0.092546
Si Si7 0.143487 0.247521 0.466611
Si Si8 0.088663 0.971433 0.332643
O O1 0.377160 0.291091 0.656087
O O2 0.630057 0.830702 0.695772
O O3 0.769817 0.971181 0.614744
O O4 0.277227 0.917895 0.101429
O O5 0.901868 0.856147 0.267870
O O6 0.959921 0.426768 0.592666
O O7 0.453803 0.724678 0.786085
O O8 0.811379 0.690630 0.170943
O O9 0.946168 0.087978 0.743023
O O10 0.035169 0.862811 0.966436
O O11 0.479284 0.078239 0.293497
O O12 0.674315 0.558808 0.240729
O O13 0.223191 0.763778 0.427177
O O14 0.168390 0.608903 0.754081
O O15 0.154183 0.438364 0.240684
O O16 0.068861 0.236619 0.198542
#
# Coordination Sequence:
#
# PCOD8000050 Si02
#       8
#     1   1   1   1   1   1   1   1
#     4  10  21  39  62  87 120 149 195 238 298 344
#     4  10  20  43  59  85 129 156 185 260 283 338
#     4  12  22  39  63  86 119 166 194 240 297 347
#     4  10  21  42  59  89 117 147 196 246 292 355
#     4  10  22  40  57  86 124 155 202 241 282 348
#     4  10  23  37  61  87 119 150 195 245 291 343
#     4  10  22  40  56  85 125 155 199 244 280 346
#     4  10  21  40  61  89 115 150 194 246 289 361
#
# _framework density 20.023226000000001
#
# number of rings (size 3 to 8) (size 9 to 14) (size 15 to 20)
#    0.750    1.000    1.250    3.000    0.000    2.000 
#    6.750    0.000    0.000    0.000    0.000    0.000 
#    0.000    0.000    0.000    0.000    0.000    0.000 
#
# Total GULP energy -99143.785962 kJ/mol
# GULP energy per Si atom -12392.973245 kJ/mol
# Density = 1.997765 g / cm^3
# Si number density = 20.023226 Si / 1000 Ang^3
#
#
#
# Elastic Constant Matrix: (Units=GPa)
#
#
# Indices 1 2 3 4 5 6 
#
# 1 62.6453 60.1630 9.0316 1.6442 2.1156 -4.5766
# 2 60.1630 135.4105 36.6318 11.0769 6.8150 -2.6410
# 3 9.0316 36.6318 82.0973 11.4941 -7.1070 -9.2163
# 4 1.6442 11.0769 11.4941 31.9453 -4.2576 4.0629
# 5 2.1156 6.8150 -7.1070 -4.2576 21.0168 -0.7296
# 6 -4.5766 -2.6410 -9.2163 4.0629 -0.7296 33.6945
#
#
#
# Elastic Compliance Matrix: (Units=1/GPa)
#
#
# Indices 1 2 3 4 5 6 
#
# 1 0.029182 -0.014197 0.003527 0.002145 0.003419 0.003631
# 2 -0.014197 0.015816 -0.005821 -0.003254 -0.006397 -0.002027
# 3 0.003527 -0.005821 0.016022 -0.003713 0.006371 0.004991
# 4 0.002145 -0.003254 -0.003713 0.035174 0.006533 -0.005079
# 5 0.003419 -0.006397 0.006371 0.006533 0.052861 0.002063
# 6 0.003631 -0.002027 0.004991 -0.005079 0.002063 0.032035
#
#
# Mechanical properties :
#
#
# Convention : Reuss Voigt Hill
#
# Bulk Modulus (GPa) = 35.66448 54.64510 45.15479
# Shear Modulus (GPa) = 22.37977 28.95310 25.66644
#
# Velocity S-wave (km/s) = 3.34681 3.80672 3.58415
# Velocity P-wave (km/s) = 5.72583 6.83166 6.30304
#
# Compressibility (1/GPa) = 0.02803910
#
# Stress axis : x y z
#
# Youngs Moduli (GPa) = 34.26783 63.22771 62.41534
#
# Poissons Ratio (x) = 0.89762 -0.22017
# Poissons Ratio (y) = 0.48649 0.36332
# Poissons Ratio (z) = -0.12088 0.36805
#
# Static dielectric constant tensor:
#      x y z
#    x 3.114110 -0.059110 -0.053840 
#    y -0.059110 3.772020 0.084670 
#    z -0.053840 0.084670 3.856150 
# 
# 
# High freq. dielectric constant tensor:
#      x y z
#    x 1.744490 -0.006550 -0.006310 
#    y -0.006550 1.786590 0.010350 
#    z -0.006310 0.010350 1.804060 
# 
# From -- ./inp_files/471.got.cif
#   From: 2010.03.12/outbox.cif.g09.slc.cpg/sg1_1_cif.got.tgz:471.got - 2010.03.29 11:57:58.
