data_PCOD8000414
_publ_section_title
;
Structure prediction by ZEFSAII (Michael W. Deem and Ramdas Pophale) SiO2 
 PCOD8000414
Probable space group: P -1
;
_chemical_formula_sum "Si O2"
_cell_formula_units_Z 16
_cell_length_a 8.013140
_cell_length_b 25.540217
_cell_length_c 9.045331
_cell_angle_alpha 148.363218
_cell_angle_beta 53.198077
_cell_angle_gamma 112.986100
_cell_volume 745.354732
_symmetry_space_group_name_H-M "P -1"
_symmetry_group_IT_number 2
_symmetry_cell_setting 'triclinic'
loop_
_space_group_symop_operation_xyz
x,y,z
-x,-y,-z
loop_
_atom_site_type_symbol
_atom_site_label
_atom_site_fract_x
_atom_site_fract_y
_atom_site_fract_z
Si Si1 0.591051 0.498478 0.784832
Si Si2 0.961254 0.764056 0.488022
Si Si3 0.298624 0.852729 0.885209
Si Si4 0.451233 0.039084 0.785677
Si Si5 0.805664 0.083835 0.227154
Si Si6 0.748292 0.695510 0.168835
Si Si7 0.912149 0.309193 0.245856
Si Si8 0.121289 0.581244 0.177029
O O1 0.737046 0.379318 0.388070
O O2 0.500000 0.500000 0.000000
O O3 0.734277 0.578520 0.880882
O O4 0.375691 0.534703 0.883304
O O5 0.918056 0.699946 0.217815
O O6 0.174459 0.805917 0.454679
O O7 0.009349 0.690739 0.426171
O O8 0.754656 0.860391 0.866518
O O9 0.172474 0.918010 0.968826
O O10 0.513744 0.774007 0.512625
O O11 0.155380 0.788876 0.890096
O O12 0.349667 0.930452 0.166976
O O13 0.500000 0.000000 0.500000
O O14 0.412602 0.943522 0.672823
O O15 0.000000 0.000000 0.000000
O O16 0.850110 0.730032 0.049172
O O17 0.914292 0.395259 0.574561
O O18 0.000000 0.500000 0.000000
#
# Coordination Sequence:
#
# PCOD8000414 Si02
#       8
#     2   2   2   2   2   2   2   2
#     4  10  19  39  61  90 134 173 216 265 323 391
#     4  10  21  40  63  93 132 168 216 280 336 387
#     4  11  22  44  67  92 137 176 216 282 349 387
#     4  10  24  40  68  96 128 170 227 282 336 403
#     4  10  21  43  63  90 128 169 218 277 342 394
#     4  11  22  39  67  95 128 181 223 272 327 399
#     4  11  23  39  66  98 129 177 230 263 328 408
#     4  11  22  39  67  96 137 175 213 275 332 394
#
# _framework density 21.466287999999999
#
# number of rings (size 3 to 8) (size 9 to 14) (size 15 to 20)
#    0.000    1.500    3.750    2.250    3.500    1.000 
#    0.000    6.250    0.000    0.000    0.000    0.000 
#    0.000    0.000    0.000    0.000    0.000    0.000 
#
# Total GULP energy -198288.447377 kJ/mol
# GULP energy per Si atom -12393.027961 kJ/mol
# Density = 2.141743 g / cm^3
# Si number density = 21.466288 Si / 1000 Ang^3
#
#
#
# Elastic Constant Matrix: (Units=GPa)
#
#
# Indices 1 2 3 4 5 6 
#
# 1 116.5659 62.9522 28.5918 15.1627 25.1479 4.3196
# 2 62.9522 176.4802 49.5289 7.4128 10.3530 21.3075
# 3 28.5918 49.5289 46.3968 3.6195 9.9259 4.3848
# 4 15.1627 7.4128 3.6195 34.3180 3.1160 2.5173
# 5 25.1479 10.3530 9.9259 3.1160 29.4062 13.7917
# 6 4.3196 21.3075 4.3848 2.5173 13.7917 41.5529
#
#
#
# Elastic Compliance Matrix: (Units=1/GPa)
#
#
# Indices 1 2 3 4 5 6 
#
# 1 0.014379 -0.004371 -0.001739 -0.004507 -0.012149 0.005236
# 2 -0.004371 0.009999 -0.008722 0.000586 0.005776 -0.005705
# 3 -0.001739 -0.008722 0.033419 -0.000388 -0.008552 0.003989
# 4 -0.004507 0.000586 -0.000388 0.031067 0.001506 -0.002173
# 5 -0.012149 0.005776 -0.008552 0.001506 0.053896 -0.018776
# 6 0.005236 -0.005705 0.003989 -0.002173 -0.018776 0.032389
#
#
# Mechanical properties :
#
#
# Convention : Reuss Voigt Hill
#
# Bulk Modulus (GPa) = 35.54663 69.06541 52.30602
# Shear Modulus (GPa) = 23.34349 34.28007 28.81178
#
# Velocity S-wave (km/s) = 3.30123 4.00049 3.66756
# Velocity P-wave (km/s) = 5.57907 7.31999 6.50801
#
# Compressibility (1/GPa) = 0.02813206
#
# Stress axis : x y z
#
# Youngs Moduli (GPa) = 69.54385 100.01082 29.92333
#
# Poissons Ratio (x) = 0.43719 0.05203
# Poissons Ratio (y) = 0.30400 0.26100
# Poissons Ratio (z) = 0.12093 0.87232
#
# Static dielectric constant tensor:
#      x y z
#    x 4.344650 0.093150 -0.098600 
#    y 0.093150 4.045920 0.159160 
#    z -0.098600 0.159160 3.595760 
# 
# 
# High freq. dielectric constant tensor:
#      x y z
#    x 1.853590 0.005400 0.001560 
#    y 0.005400 1.851380 0.022540 
#    z 0.001560 0.022540 1.817910 
# 
# From -- ./inp_files/226719.got.cif
#   From: 2010.06.25/outbox.cif.g09.slc.cpg/sg2_114_cif.got.tgz:226719.got - 2010.06.27 13:26:56.
