data_PCOD8000346
_publ_section_title
;
Structure prediction by ZEFSAII (Michael W. Deem and Ramdas Pophale) SiO2 
 PCOD8000346
Probable space group: P -1
;
_chemical_formula_sum "Si O2"
_cell_formula_units_Z 16
_cell_length_a 9.017929
_cell_length_b 11.548586
_cell_length_c 17.797887
_cell_angle_alpha 30.582379
_cell_angle_beta 99.580636
_cell_angle_gamma 115.981117
_cell_volume 752.416762
_symmetry_space_group_name_H-M "P -1"
_symmetry_group_IT_number 2
_symmetry_cell_setting 'triclinic'
loop_
_space_group_symop_operation_xyz
x,y,z
-x,-y,-z
loop_
_atom_site_type_symbol
_atom_site_label
_atom_site_fract_x
_atom_site_fract_y
_atom_site_fract_z
Si Si1 0.998829 0.223548 0.328293
Si Si2 0.114303 0.135161 0.239539
Si Si3 0.676445 0.094925 0.641258
Si Si4 0.603167 0.961529 0.464725
Si Si5 0.445109 0.744957 0.948245
Si Si6 0.783305 0.629882 0.420349
Si Si7 0.490711 0.261488 0.721777
Si Si8 0.401779 0.576410 0.199502
O O1 0.981449 0.125398 0.295979
O O2 0.200249 0.513771 0.199291
O O3 0.822190 0.228089 0.329514
O O4 0.000000 0.000000 0.500000
O O5 0.216925 0.990353 0.356294
O O6 0.271250 0.462982 0.051548
O O7 0.979061 0.938603 0.270062
O O8 0.496726 0.051190 0.613108
O O9 0.816231 0.418339 0.499257
O O10 0.613649 0.886119 0.824385
O O11 0.599446 0.688047 0.628561
O O12 0.500000 0.000000 0.500000
O O13 0.397192 0.967086 0.835007
O O14 0.509850 0.692811 0.063468
O O15 0.688580 0.502448 0.565341
O O16 0.647922 0.651702 0.343515
O O17 0.515551 0.217018 0.836972
#
# Coordination Sequence:
#
# PCOD8000346 Si02
#       8
#     2   2   2   2   2   2   2   2
#     4   9  19  33  56  87 118 150 197 248 291 348
#     4  11  22  38  60  90 125 155 204 250 301 358
#     4  11  22  40  61  91 121 163 201 249 304 359
#     4  11  21  36  62  89 123 157 200 247 302 361
#     4  10  23  37  62  89 124 163 199 248 308 357
#     4  10  21  36  61  93 120 156 203 256 298 352
#     4  10  20  37  62  89 123 158 203 249 302 360
#     4  10  19  39  59  87 120 161 203 244 299 362
#
# _framework density 21.264811999999999
#
# number of rings (size 3 to 8) (size 9 to 14) (size 15 to 20)
#    0.000    1.750    1.250    4.875    3.500    0.500 
#    2.250    0.000    0.000    0.750    0.000    0.000 
#    0.000    0.000    0.000    0.000    0.000    0.000 
#
# Total GULP energy -198229.118154 kJ/mol
# GULP energy per Si atom -12389.319885 kJ/mol
# Density = 2.121641 g / cm^3
# Si number density = 21.264812 Si / 1000 Ang^3
#
#
#
# Elastic Constant Matrix: (Units=GPa)
#
#
# Indices 1 2 3 4 5 6 
#
# 1 117.8912 38.7103 15.6429 -6.4234 5.1187 0.9649
# 2 38.7103 118.7809 36.0900 -14.1152 -9.0727 7.3842
# 3 15.6429 36.0900 67.9123 -4.9423 -1.5511 2.2980
# 4 -6.4234 -14.1152 -4.9423 47.6864 -1.0598 1.6980
# 5 5.1187 -9.0727 -1.5511 -1.0598 15.0292 0.4807
# 6 0.9649 7.3842 2.2980 1.6980 0.4807 27.7677
#
#
#
# Elastic Compliance Matrix: (Units=1/GPa)
#
#
# Indices 1 2 3 4 5 6 
#
# 1 0.009961 -0.003540 -0.000560 0.000085 -0.005605 0.000733
# 2 -0.003540 0.012344 -0.005236 0.002930 0.008421 -0.003051
# 3 -0.000560 -0.005236 0.017625 0.000177 -0.001137 -0.000038
# 4 0.000085 0.002930 0.000177 0.022021 0.003381 -0.002202
# 5 -0.005605 0.008421 -0.001137 0.003381 0.073760 -0.003434
# 6 0.000733 -0.003051 -0.000038 -0.002202 -0.003434 0.036996
#
#
# Mechanical properties :
#
#
# Convention : Reuss Voigt Hill
#
# Bulk Modulus (GPa) = 47.03917 53.94118 50.49018
# Shear Modulus (GPa) = 25.19334 32.37275 28.78304
#
# Velocity S-wave (km/s) = 3.44574 3.90598 3.68306
# Velocity P-wave (km/s) = 6.16438 6.76489 6.47160
#
# Compressibility (1/GPa) = 0.02125888
#
# Stress axis : x y z
#
# Youngs Moduli (GPa) = 100.39200 81.00822 56.73907
#
# Poissons Ratio (x) = 0.28674 0.03177
# Poissons Ratio (y) = 0.35535 0.29708
# Poissons Ratio (z) = 0.05622 0.42415
#
# Static dielectric constant tensor:
#      x y z
#    x 4.188100 0.118930 -0.207690 
#    y 0.118930 3.953700 -0.074040 
#    z -0.207690 -0.074040 3.888860 
# 
# 
# High freq. dielectric constant tensor:
#      x y z
#    x 1.820000 -0.007410 0.002550 
#    y -0.007410 1.837520 -0.004380 
#    z 0.002550 -0.004380 1.820490 
# 
# From -- ./inp_files/259908.got.cif
#   From: 2010.06.25/outbox.cif.g09.slc.cpg/sg2_130_cif.got.tgz:259908.got - 2010.06.27 13:26:56.
