data_PCOD8000988
_publ_section_title
;
Structure prediction by ZEFSAII (Michael W. Deem and Ramdas Pophale) SiO2 
 PCOD8000988
Probable space group: P -1
;
_chemical_formula_sum "Si O2"
_cell_formula_units_Z 14
_cell_length_a 11.998262
_cell_length_b 8.391790
_cell_length_c 14.576674
_cell_angle_alpha 126.811570
_cell_angle_beta 54.435932
_cell_angle_gamma 82.353435
_cell_volume 643.532732
_symmetry_space_group_name_H-M "P -1"
_symmetry_group_IT_number 2
_symmetry_cell_setting 'triclinic'
loop_
_space_group_symop_operation_xyz
x,y,z
-x,-y,-z
loop_
_atom_site_type_symbol
_atom_site_label
_atom_site_fract_x
_atom_site_fract_y
_atom_site_fract_z
Si Si1 0.486475 0.675788 0.483617
Si Si2 0.220620 0.660189 0.132594
Si Si3 0.872748 0.157407 0.363462
Si Si4 0.583140 0.788470 0.756338
Si Si5 0.262643 0.174043 0.891135
Si Si6 0.079027 0.767500 0.955934
Si Si7 0.512990 0.691256 0.953267
O O1 0.500000 0.500000 0.500000
O O2 0.323530 0.773188 0.521577
O O3 0.684096 0.516186 0.275201
O O4 0.409764 0.964678 0.663391
O O5 0.275756 0.565940 0.180414
O O6 0.228236 0.445390 0.999324
O O7 0.383272 0.631774 0.998923
O O8 0.993958 0.996321 0.346005
O O9 0.787111 0.477125 0.503485
O O10 0.037079 0.919945 0.125515
O O11 0.562046 0.685824 0.823790
O O12 0.377641 0.974880 0.859827
O O13 0.614278 0.989211 0.829674
O O14 0.043947 0.305797 0.025044
O O15 0.000000 0.000000 0.000000
#
# Coordination Sequence:
#
# PCOD8000988 Si02
#       7
#     2   2   2   2   2   2   2
#     4  11  20  37  60  97 126 156 206 253 290 376
#     4  10  23  42  58  93 129 160 195 267 314 361
#     4  11  23  36  66  92 126 157 207 247 314 363
#     4  10  19  40  68  93 113 168 213 252 295 369
#     4  10  21  40  63  91 130 161 202 245 311 367
#     4  11  20  36  62  96 124 159 204 255 291 371
#     4   9  22  41  67  86 124 161 212 257 307 358
#
# _framework density 21.754916000000001
#
# number of rings (size 3 to 8) (size 9 to 14) (size 15 to 20)
#    0.000    1.714    4.286    0.000    4.000    3.429 
#    2.571    1.429    6.286    0.000    0.000    0.000 
#    0.000    0.000    0.000    0.000    0.000    0.000 
#
# Total GULP energy -173502.343063 kJ/mol
# GULP energy per Si atom -12393.024505 kJ/mol
# Density = 2.170540 g / cm^3
# Si number density = 21.754916 Si / 1000 Ang^3
#
#
#
# Elastic Constant Matrix: (Units=GPa)
#
#
# Indices 1 2 3 4 5 6 
#
# 1 100.0940 31.9413 52.0745 2.4724 -4.8997 3.5251
# 2 31.9413 81.6638 29.1386 8.2185 -5.3672 -2.5125
# 3 52.0745 29.1386 123.8344 -5.8649 -18.3631 5.3261
# 4 2.4724 8.2185 -5.8649 33.1283 -1.4527 -6.2239
# 5 -4.8997 -5.3672 -18.3631 -1.4527 34.0832 11.6939
# 6 3.5251 -2.5125 5.3261 -6.2239 11.6939 37.0120
#
#
#
# Elastic Compliance Matrix: (Units=1/GPa)
#
#
# Indices 1 2 3 4 5 6 
#
# 1 0.013808 -0.003523 -0.005187 -0.001247 -0.001198 -0.000639
# 2 -0.003523 0.014810 -0.002196 -0.003605 0.000144 0.001005
# 3 -0.005187 -0.002196 0.011998 0.002783 0.006511 -0.002971
# 4 -0.001247 -0.003605 0.002783 0.032589 0.000496 0.004797
# 5 -0.001198 0.000144 0.006511 0.000496 0.036978 -0.012413
# 6 -0.000639 0.001005 -0.002971 0.004797 -0.012413 0.032303
#
#
# Mechanical properties :
#
#
# Convention : Reuss Voigt Hill
#
# Bulk Modulus (GPa) = 53.17802 59.10011 56.13907
# Shear Modulus (GPa) = 29.31416 33.67388 31.49402
#
# Velocity S-wave (km/s) = 3.67478 3.93857 3.80896
# Velocity P-wave (km/s) = 6.51940 6.92159 6.72350
#
# Compressibility (1/GPa) = 0.01880476
#
# Stress axis : x y z
#
# Youngs Moduli (GPa) = 72.42217 67.52209 83.34568
#
# Poissons Ratio (x) = 0.23787 0.43230
# Poissons Ratio (y) = 0.25513 0.18303
# Poissons Ratio (z) = 0.37564 0.14828
#
# Static dielectric constant tensor:
#      x y z
#    x 3.730270 -0.076360 0.359110 
#    y -0.076360 3.692080 0.382220 
#    z 0.359110 0.382220 3.750340 
# 
# 
# High freq. dielectric constant tensor:
#      x y z
#    x 1.870660 -0.014660 0.008700 
#    y -0.014660 1.842440 0.023690 
#    z 0.008700 0.023690 1.845280 
# 
# From -- ./inp_files/180898.got.cif
#   From: 2010.06.25/outbox.cif.g09.slc.cpg/sg2_91_cif.got.tgz:180898.got - 2010.06.27 13:26:56.
