data_PCOD8000690
_publ_section_title
;
Structure prediction by ZEFSAII (Michael W. Deem and Ramdas Pophale) SiO2 
 PCOD8000690
Probable space group: P -1
;
_chemical_formula_sum "Si O2"
_cell_formula_units_Z 16
_cell_length_a 8.207717
_cell_length_b 17.281072
_cell_length_c 14.494591
_cell_angle_alpha 140.012996
_cell_angle_beta 35.638275
_cell_angle_gamma 137.157500
_cell_volume 735.477246
_symmetry_space_group_name_H-M "P -1"
_symmetry_group_IT_number 2
_symmetry_cell_setting 'triclinic'
loop_
_space_group_symop_operation_xyz
x,y,z
-x,-y,-z
loop_
_atom_site_type_symbol
_atom_site_label
_atom_site_fract_x
_atom_site_fract_y
_atom_site_fract_z
Si Si1 0.330053 0.489790 0.848091
Si Si2 0.112366 0.268004 0.869401
Si Si3 0.864382 0.899138 0.044757
Si Si4 0.226041 0.144653 0.434705
Si Si5 0.194354 0.021341 0.661717
Si Si6 0.284425 0.889286 0.221796
Si Si7 0.129292 0.359473 0.150523
Si Si8 0.573195 0.431719 0.495861
O O1 0.301471 0.355612 0.783481
O O2 0.543735 0.587400 0.909669
O O3 0.481674 0.502043 0.689171
O O4 0.000000 0.500000 0.000000
O O5 0.260290 0.157478 0.709211
O O6 0.778552 0.198527 0.922449
O O7 0.125803 0.347288 0.029588
O O8 0.940982 0.975357 0.173186
O O9 0.515775 0.849433 0.142198
O O10 0.995679 0.781235 0.878003
O O11 0.000000 0.000000 0.000000
O O12 0.421268 0.281578 0.436683
O O13 0.026655 0.150974 0.619700
O O14 0.396094 0.040091 0.284646
O O15 0.027094 0.093202 0.391817
O O16 0.500000 0.000000 0.500000
O O17 0.921415 0.445991 0.351394
O O18 0.500000 0.500000 0.500000
#
# Coordination Sequence:
#
# PCOD8000690 Si02
#       8
#     2   2   2   2   2   2   2   2
#     4  12  25  45  72  93 126 178 223 274 333 395
#     4  10  22  40  65  95 126 169 219 271 323 394
#     4  11  23  38  63  95 135 169 214 273 342 391
#     4  10  21  38  66  92 130 170 220 271 326 390
#     4  10  21  36  61  96 129 166 220 270 322 390
#     4  10  19  39  67  97 125 170 219 270 328 393
#     4  11  26  44  63  98 136 169 224 276 331 400
#     4  12  27  45  65  98 136 178 222 274 336 395
#
# _framework density 21.754581999999999
#
# number of rings (size 3 to 8) (size 9 to 14) (size 15 to 20)
#    0.000    1.250    2.500    3.000    0.000    4.000 
#    0.000    3.750    0.000    0.000    0.000    0.000 
#    0.000    0.000    0.000    0.000    0.000    0.000 
#
# Total GULP energy -198249.436754 kJ/mol
# GULP energy per Si atom -12390.589797 kJ/mol
# Density = 2.170507 g / cm^3
# Si number density = 21.754582 Si / 1000 Ang^3
#
#
#
# Elastic Constant Matrix: (Units=GPa)
#
#
# Indices 1 2 3 4 5 6 
#
# 1 135.4847 32.6697 47.0595 4.7618 13.2078 2.9667
# 2 32.6697 101.9449 20.9343 0.7298 12.6103 -18.6289
# 3 47.0595 20.9343 76.4281 7.8075 1.6801 9.7857
# 4 4.7618 0.7298 7.8075 21.5840 3.3324 6.5418
# 5 13.2078 12.6103 1.6801 3.3324 36.9473 1.3713
# 6 2.9667 -18.6289 9.7857 6.5418 1.3713 44.0925
#
#
#
# Elastic Compliance Matrix: (Units=1/GPa)
#
#
# Indices 1 2 3 4 5 6 
#
# 1 0.010023 -0.001733 -0.005658 0.000356 -0.002762 -0.000118
# 2 -0.001733 0.012612 -0.003084 -0.000253 -0.003755 0.006284
# 3 -0.005658 -0.003084 0.018366 -0.004379 0.002799 -0.004436
# 4 0.000356 -0.000253 -0.004379 0.050461 -0.004151 -0.006517
# 5 -0.002762 -0.003755 0.002799 -0.004151 0.029668 -0.002329
# 6 -0.000118 0.006284 -0.004436 -0.006517 -0.002329 0.027366
#
#
# Mechanical properties :
#
#
# Convention : Reuss Voigt Hill
#
# Bulk Modulus (GPa) = 49.86680 57.24273 53.55476
# Shear Modulus (GPa) = 28.38816 34.73773 31.56295
#
# Velocity S-wave (km/s) = 3.61630 4.00033 3.81315
# Velocity P-wave (km/s) = 6.35681 6.90702 6.63762
#
# Compressibility (1/GPa) = 0.02005342
#
# Stress axis : x y z
#
# Youngs Moduli (GPa) = 99.76893 79.28671 54.44782
#
# Poissons Ratio (x) = 0.13738 0.30804
# Poissons Ratio (y) = 0.17287 0.16791
# Poissons Ratio (z) = 0.56445 0.24452
#
# Static dielectric constant tensor:
#      x y z
#    x 3.831800 -0.069850 -0.102130 
#    y -0.069850 4.209030 -0.388570 
#    z -0.102130 -0.388570 4.933750 
# 
# 
# High freq. dielectric constant tensor:
#      x y z
#    x 1.878140 -0.005760 0.004640 
#    y -0.005760 1.853820 0.014370 
#    z 0.004640 0.014370 1.842630 
# 
# From -- ./inp_files/187406.got.cif
#   From: 2010.06.25/outbox.cif.g09.slc.cpg/sg2_94_cif.got.tgz:187406.got - 2010.06.27 13:26:56.
