data_PCOD8000698
_publ_section_title
;
Structure prediction by ZEFSAII (Michael W. Deem and Ramdas Pophale) SiO2 
 PCOD8000698
Probable space group: P -1
;
_chemical_formula_sum "Si O2"
_cell_formula_units_Z 16
_cell_length_a 16.425699
_cell_length_b 5.624933
_cell_length_c 21.493221
_cell_angle_alpha 120.550859
_cell_angle_beta 23.332065
_cell_angle_gamma 119.457005
_cell_volume 675.496693
_symmetry_space_group_name_H-M "P -1"
_symmetry_group_IT_number 2
_symmetry_cell_setting 'triclinic'
loop_
_space_group_symop_operation_xyz
x,y,z
-x,-y,-z
loop_
_atom_site_type_symbol
_atom_site_label
_atom_site_fract_x
_atom_site_fract_y
_atom_site_fract_z
Si Si1 0.506625 0.594213 0.937516
Si Si2 0.973692 0.253279 0.174486
Si Si3 0.104421 0.217287 0.377519
Si Si4 0.832220 0.164932 0.862478
Si Si5 0.761046 0.781434 0.581024
Si Si6 0.625933 0.951424 0.099806
Si Si7 0.811354 0.181174 0.418137
Si Si8 0.543653 0.174615 0.429291
O O1 0.727480 0.760265 0.793106
O O2 0.489849 0.353629 0.865127
O O3 0.500000 0.500000 0.000000
O O4 0.307370 0.771150 0.090910
O O5 0.880324 0.241141 0.307520
O O6 0.790334 0.164065 0.242565
O O7 0.055357 0.567757 0.147091
O O8 0.162696 0.054354 0.009076
O O9 0.220195 0.138671 0.348980
O O10 0.000000 0.500000 0.500000
O O11 0.932814 0.969762 0.447513
O O12 0.008577 0.965490 0.692096
O O13 0.675437 0.029538 0.004604
O O14 0.782965 0.460615 0.511854
O O15 0.529863 0.850165 0.731492
O O16 0.597282 0.985351 0.545480
O O17 0.500000 0.500000 0.500000
O O18 0.500000 0.000000 0.500000
#
# Coordination Sequence:
#
# PCOD8000698 Si02
#       8
#     2   2   2   2   2   2   2   2
#     4  11  24  42  66  95 126 179 240 291 345 410
#     4   9  20  37  66  99 130 175 226 282 345 411
#     4  11  24  45  66  89 132 186 229 293 343 408
#     4  10  20  41  62  91 131 172 227 279 343 404
#     4  11  24  44  66  92 134 179 237 275 359 413
#     4  10  21  41  62  93 128 179 223 282 349 407
#     4  10  22  39  67 102 128 177 225 291 345 423
#     4  10  19  39  68 105 143 176 227 290 359 420
#
# _framework density 23.686275999999999
#
# number of rings (size 3 to 8) (size 9 to 14) (size 15 to 20)
#    0.000    1.750    3.750    0.000    0.000    5.500 
#    2.250    1.250    0.000    0.750    0.000    0.000 
#    0.000    0.000    0.000    0.000    0.000    0.000 
#
# Total GULP energy -198339.738995 kJ/mol
# GULP energy per Si atom -12396.233687 kJ/mol
# Density = 2.363236 g / cm^3
# Si number density = 23.686276 Si / 1000 Ang^3
#
#
#
# Elastic Constant Matrix: (Units=GPa)
#
#
# Indices 1 2 3 4 5 6 
#
# 1 68.9496 40.8384 66.8499 -4.9381 -27.5526 -4.4859
# 2 40.8384 149.2075 78.1826 6.4727 -25.4563 -0.4291
# 3 66.8499 78.1826 189.7685 4.1155 -48.5267 2.9674
# 4 -4.9381 6.4727 4.1155 43.3661 -3.9137 -7.5980
# 5 -27.5526 -25.4563 -48.5267 -3.9137 47.6004 -4.0190
# 6 -4.4859 -0.4291 2.9674 -7.5980 -4.0190 35.8611
#
#
#
# Elastic Compliance Matrix: (Units=1/GPa)
#
#
# Indices 1 2 3 4 5 6 
#
# 1 0.026309 -0.002750 -0.006202 0.005795 0.008413 0.005942
# 2 -0.002750 0.008934 -0.002567 -0.001412 0.000429 -0.000276
# 3 -0.006202 -0.002567 0.009787 -0.001044 0.004820 -0.001298
# 4 0.005795 -0.001412 -0.001044 0.025580 0.004202 0.006685
# 5 0.008413 0.000429 0.004820 0.004202 0.031798 0.005113
# 6 0.005942 -0.000276 -0.001298 0.006685 0.005113 0.030722
#
#
# Mechanical properties :
#
#
# Convention : Reuss Voigt Hill
#
# Bulk Modulus (GPa) = 45.47178 86.62970 66.05074
# Shear Modulus (GPa) = 30.58123 40.16917 35.37520
#
# Velocity S-wave (km/s) = 3.59708 4.12258 3.86876
# Velocity P-wave (km/s) = 6.04079 7.70156 6.92117
#
# Compressibility (1/GPa) = 0.02199166
#
# Stress axis : x y z
#
# Youngs Moduli (GPa) = 38.00984 111.93711 102.17208
#
# Poissons Ratio (x) = 0.30782 0.63369
# Poissons Ratio (y) = 0.10452 0.26228
# Poissons Ratio (z) = 0.23574 0.28735
#
# Static dielectric constant tensor:
#      x y z
#    x 4.141520 -0.136100 -0.656340 
#    y -0.136100 4.589540 -0.284030 
#    z -0.656340 -0.284030 4.524490 
# 
# 
# High freq. dielectric constant tensor:
#      x y z
#    x 1.911480 -0.019240 -0.034610 
#    y -0.019240 1.953350 -0.011830 
#    z -0.034610 -0.011830 1.943410 
# 
# From -- ./inp_files/480752.got.cif
#   From: 2010.06.25/outbox.cif.g09.slc.cpg/sg2_241_cif.got.tgz:480752.got - 2010.06.27 13:26:56.
