data_PCOD8000314
_publ_section_title
;
Structure prediction by ZEFSAII (Michael W. Deem and Ramdas Pophale) SiO2 
 PCOD8000314
Probable space group: P -1
;
_chemical_formula_sum "Si O2"
_cell_formula_units_Z 14
_cell_length_a 12.886489
_cell_length_b 8.665552
_cell_length_c 15.887014
_cell_angle_alpha 113.984761
_cell_angle_beta 25.243486
_cell_angle_gamma 103.084451
_cell_volume 644.210020
_symmetry_space_group_name_H-M "P -1"
_symmetry_group_IT_number 2
_symmetry_cell_setting 'triclinic'
loop_
_space_group_symop_operation_xyz
x,y,z
-x,-y,-z
loop_
_atom_site_type_symbol
_atom_site_label
_atom_site_fract_x
_atom_site_fract_y
_atom_site_fract_z
Si Si1 0.638270 0.796695 0.824229
Si Si2 0.135732 0.839967 0.478082
Si Si3 0.828534 0.788191 0.189931
Si Si4 0.604836 0.989899 0.557864
Si Si5 0.216360 0.749188 0.218180
Si Si6 0.283796 0.296310 0.443832
Si Si7 0.610257 0.481682 0.321549
O O1 0.618897 0.793640 0.737491
O O2 0.940473 0.732351 0.619618
O O3 0.486183 0.675735 0.950671
O O4 0.500000 0.000000 0.000000
O O5 0.298037 0.743096 0.254883
O O6 0.325034 0.843714 0.416559
O O7 0.962105 0.047437 0.630928
O O8 0.824641 0.887385 0.304085
O O9 0.665511 0.657280 0.292199
O O10 0.678469 0.931974 0.260362
O O11 0.122780 0.691389 0.921930
O O12 0.587210 0.852789 0.612118
O O13 0.034735 0.631549 0.304480
O O14 0.386852 0.459923 0.419830
O O15 0.500000 0.500000 0.500000
#
# Coordination Sequence:
#
# PCOD8000314 Si02
#       7
#     2   2   2   2   2   2   2
#     4   9  16  27  49  86 112 142 177 226 285 336
#     4   8  15  27  47  77 119 134 171 226 283 325
#     4  10  24  39  58  79 117 148 195 234 282 332
#     4  10  19  39  56  89 113 144 186 248 281 321
#     4   8  15  28  45  80 114 140 172 224 273 342
#     4  10  20  31  58  83 114 143 187 234 278 327
#     4  11  23  42  56  79 112 160 192 228 275 348
#
# _framework density 21.732043000000001
#
# number of rings (size 3 to 8) (size 9 to 14) (size 15 to 20)
#    0.000    2.571    1.429    2.571    6.000    0.571 
#    0.000    0.000    0.000    3.429    0.000    9.000 
#    0.000    0.000    0.000    0.000    0.000    0.000 
#
# Total GULP energy -173498.655745 kJ/mol
# GULP energy per Si atom -12392.761125 kJ/mol
# Density = 2.168258 g / cm^3
# Si number density = 21.732043 Si / 1000 Ang^3
#
#
#
# Elastic Constant Matrix: (Units=GPa)
#
#
# Indices 1 2 3 4 5 6 
#
# 1 137.0717 33.0090 46.8255 -18.2252 17.1000 25.7675
# 2 33.0090 44.7284 23.5394 -22.9621 -1.6861 17.1126
# 3 46.8255 23.5394 110.9690 -34.2246 15.9563 0.2535
# 4 -18.2252 -22.9621 -34.2246 34.4104 1.3311 -9.5515
# 5 17.1000 -1.6861 15.9563 1.3311 25.1091 -7.3895
# 6 25.7675 17.1126 0.2535 -9.5515 -7.3895 27.9158
#
#
#
# Elastic Compliance Matrix: (Units=1/GPa)
#
#
# Indices 1 2 3 4 5 6 
#
# 1 0.013115 -0.004685 -0.004112 -0.003515 -0.010311 -0.013129
# 2 -0.004685 0.042539 -0.000594 0.021344 0.001131 -0.014144
# 3 -0.004112 -0.000594 0.016975 0.016787 -0.006558 0.008013
# 4 -0.003515 0.021344 0.016787 0.060888 -0.007459 0.008867
# 5 -0.010311 0.001131 -0.006558 -0.007459 0.057858 0.021647
# 6 -0.013129 -0.014144 0.008013 0.008867 0.021647 0.065302
#
#
# Mechanical properties :
#
#
# Convention : Reuss Voigt Hill
#
# Bulk Modulus (GPa) = 18.57129 55.50187 37.03658
# Shear Modulus (GPa) = 17.04115 30.11342 23.57729
#
# Velocity S-wave (km/s) = 2.80330 3.72650 3.29737
# Velocity P-wave (km/s) = 4.36373 6.64156 5.61927
#
# Compressibility (1/GPa) = 0.05384655
#
# Stress axis : x y z
#
# Youngs Moduli (GPa) = 76.24660 23.50795 58.91160
#
# Poissons Ratio (x) = 0.11014 0.24224
# Poissons Ratio (y) = 0.35724 0.03498
# Poissons Ratio (z) = 0.31352 0.01396
#
# Static dielectric constant tensor:
#      x y z
#    x 4.129560 0.487500 0.001980 
#    y 0.487500 4.055800 -0.698160 
#    z 0.001980 -0.698160 4.269960 
# 
# 
# High freq. dielectric constant tensor:
#      x y z
#    x 1.859510 0.020990 0.012100 
#    y 0.020990 1.829320 -0.027870 
#    z 0.012100 -0.027870 1.845010 
# 
# From -- ./inp_files/307711.got.cif
#   From: 2010.06.25/outbox.cif.g09.slc.cpg/sg2_154_cif.got.tgz:307711.got - 2010.06.27 13:26:56.
