data_PCOD8000958
_publ_section_title
;
Structure prediction by ZEFSAII (Michael W. Deem and Ramdas Pophale) SiO2 
 PCOD8000958
Probable space group: P -1
;
_chemical_formula_sum "Si O2"
_cell_formula_units_Z 16
_cell_length_a 12.999633
_cell_length_b 12.050995
_cell_length_c 12.672350
_cell_angle_alpha 109.931608
_cell_angle_beta 38.388991
_cell_angle_gamma 79.326639
_cell_volume 732.512849
_symmetry_space_group_name_H-M "P -1"
_symmetry_group_IT_number 2
_symmetry_cell_setting 'triclinic'
loop_
_space_group_symop_operation_xyz
x,y,z
-x,-y,-z
loop_
_atom_site_type_symbol
_atom_site_label
_atom_site_fract_x
_atom_site_fract_y
_atom_site_fract_z
Si Si1 0.489853 0.845697 0.022134
Si Si2 0.561042 0.177499 0.289318
Si Si3 0.437067 0.802830 0.269073
Si Si4 0.827064 0.131411 0.866214
Si Si5 0.846946 0.468413 0.142588
Si Si6 0.696289 0.875293 0.206053
Si Si7 0.722315 0.440338 0.011205
Si Si8 0.779164 0.769321 0.578890
O O1 0.546139 0.727967 0.037093
O O2 0.249104 0.934059 0.170794
O O3 0.406453 0.014189 0.198254
O O4 0.749892 0.719281 0.699809
O O5 0.441910 0.337575 0.519858
O O6 0.317745 0.264197 0.445454
O O7 0.708690 0.988046 0.165360
O O8 0.767663 0.131412 0.034847
O O9 0.599157 0.817081 0.198674
O O10 0.471937 0.660586 0.258507
O O11 0.129758 0.001079 0.573785
O O12 0.656158 0.337853 0.028909
O O13 0.828652 0.400869 0.030649
O O14 0.000000 0.500000 0.000000
O O15 0.009200 0.307769 0.048569
O O16 0.500000 0.000000 0.500000
O O17 0.925766 0.360618 0.728656
#
# Coordination Sequence:
#
# PCOD8000958 Si02
#       8
#     2   2   2   2   2   2   2   2
#     4  10  22  40  65  93 123 166 210 255 307 364
#     4  11  22  41  65  94 125 165 205 258 311 365
#     4  12  23  40  65  94 124 167 211 247 312 379
#     4  11  26  43  60  90 138 167 199 252 315 373
#     4  12  22  40  67  96 120 158 212 261 309 361
#     4  12  21  38  69  93 118 159 214 262 304 361
#     4  12  24  42  66  92 128 166 206 257 314 371
#     4  10  19  40  67  91 123 160 211 266 303 351
#
# _framework density 21.842618000000002
#
# number of rings (size 3 to 8) (size 9 to 14) (size 15 to 20)
#    0.000    0.750    6.250    1.125    0.000    2.500 
#    0.000    4.375    0.000    0.000    0.000    0.000 
#    0.000    0.000    0.000    0.000    0.000    0.000 
#
# Total GULP energy -198410.706301 kJ/mol
# GULP energy per Si atom -12400.669144 kJ/mol
# Density = 2.179290 g / cm^3
# Si number density = 21.842618 Si / 1000 Ang^3
#
#
#
# Elastic Constant Matrix: (Units=GPa)
#
#
# Indices 1 2 3 4 5 6 
#
# 1 69.4018 22.4258 32.8085 -7.7006 13.5497 -10.4519
# 2 22.4258 155.7122 45.5069 -2.9650 4.7944 -19.1253
# 3 32.8085 45.5069 67.6913 -9.4548 18.6079 -8.0251
# 4 -7.7006 -2.9650 -9.4548 38.8521 -4.4271 4.6144
# 5 13.5497 4.7944 18.6079 -4.4271 25.4241 -2.4919
# 6 -10.4519 -19.1253 -8.0251 4.6144 -2.4919 31.9864
#
#
#
# Elastic Compliance Matrix: (Units=1/GPa)
#
#
# Indices 1 2 3 4 5 6 
#
# 1 0.019601 0.000098 -0.007792 0.001040 -0.004185 0.004032
# 2 0.000098 0.008656 -0.006421 -0.000988 0.003234 0.003991
# 3 -0.007792 -0.006421 0.027003 0.003080 -0.013975 -0.001144
# 4 0.001040 -0.000988 0.003080 0.027211 0.001796 -0.003264
# 5 -0.004185 0.003234 -0.013975 0.001796 0.051575 0.000819
# 6 0.004032 0.003991 -0.001144 -0.003264 0.000819 0.035215
#
#
# Mechanical properties :
#
#
# Convention : Reuss Voigt Hill
#
# Bulk Modulus (GPa) = 36.99602 54.92086 45.95844
# Shear Modulus (GPa) = 24.21308 32.05677 28.13493
#
# Velocity S-wave (km/s) = 3.33306 3.83512 3.59287
# Velocity P-wave (km/s) = 5.63797 6.69397 6.18854
#
# Compressibility (1/GPa) = 0.02702994
#
# Stress axis : x y z
#
# Youngs Moduli (GPa) = 51.01911 115.52317 37.03361
#
# Poissons Ratio (x) = -0.01136 0.28858
# Poissons Ratio (y) = -0.00502 0.23778
# Poissons Ratio (z) = 0.39755 0.74175
#
# Static dielectric constant tensor:
#      x y z
#    x 4.186510 -0.131060 0.372760 
#    y -0.131060 4.225380 -0.019220 
#    z 0.372760 -0.019220 4.032590 
# 
# 
# High freq. dielectric constant tensor:
#      x y z
#    x 1.854960 -0.004220 0.025850 
#    y -0.004220 1.869390 -0.008220 
#    z 0.025850 -0.008220 1.842070 
# 
# From -- ./inp_files/306239.got.cif
#   From: 2010.06.25/outbox.cif.g09.slc.cpg/sg2_154_cif.got.tgz:306239.got - 2010.06.27 13:26:56.
