data_PCOD8000616
_publ_section_title
;
Structure prediction by ZEFSAII (Michael W. Deem and Ramdas Pophale) SiO2 
 PCOD8000616
Probable space group: P -1
;
_chemical_formula_sum "Si O2"
_cell_formula_units_Z 16
_cell_length_a 12.409825
_cell_length_b 14.193669
_cell_length_c 14.169886
_cell_angle_alpha 30.692897
_cell_angle_beta 120.040395
_cell_angle_gamma 139.602452
_cell_volume 730.379885
_symmetry_space_group_name_H-M "P -1"
_symmetry_group_IT_number 2
_symmetry_cell_setting 'triclinic'
loop_
_space_group_symop_operation_xyz
x,y,z
-x,-y,-z
loop_
_atom_site_type_symbol
_atom_site_label
_atom_site_fract_x
_atom_site_fract_y
_atom_site_fract_z
Si Si1 0.202723 0.913114 0.270009
Si Si2 0.879110 0.069321 0.989543
Si Si3 0.380152 0.895677 0.129996
Si Si4 0.098601 0.064611 0.390468
Si Si5 0.597950 0.287786 0.067736
Si Si6 0.886191 0.736234 0.401103
Si Si7 0.663383 0.032393 0.444298
Si Si8 0.745144 0.366277 0.367060
O O1 0.155193 0.961468 0.110297
O O2 0.168825 0.648796 0.489561
O O3 0.084574 0.876655 0.331852
O O4 0.429721 0.182902 0.149789
O O5 0.780068 0.132924 0.941262
O O6 0.105334 0.330139 0.876088
O O7 0.807838 0.802170 0.236470
O O8 0.279584 0.596230 0.376467
O O9 0.514204 0.123836 0.073234
O O10 0.500000 0.000000 0.000000
O O11 0.203204 0.985695 0.510564
O O12 0.249595 0.387424 0.158335
O O13 0.000000 0.000000 0.500000
O O14 0.933691 0.879782 0.399078
O O15 0.701287 0.234793 0.210774
O O16 0.704938 0.150861 0.465024
O O17 0.441848 0.728094 0.606351
#
# Coordination Sequence:
#
# PCOD8000616 Si02
#       8
#     2   2   2   2   2   2   2   2
#     4  10  21  40  64  97 135 163 212 269 337 388
#     4  11  23  38  66  99 129 168 215 271 333 392
#     4  11  25  46  66  92 134 177 221 269 319 391
#     4  12  26  44  65  95 133 177 223 266 322 393
#     4  10  25  40  66  98 127 171 219 270 332 385
#     4  12  25  41  69  96 129 177 215 274 329 386
#     4  10  22  39  63  94 131 171 214 271 322 387
#     4  10  19  39  65  96 133 170 213 267 336 384
#
# _framework density 21.906407999999999
#
# number of rings (size 3 to 8) (size 9 to 14) (size 15 to 20)
#    0.000    1.250    2.500    2.250    5.250    4.500 
#    0.000    0.000    0.000    0.000    0.000    0.000 
#    0.000    0.000    0.000    0.000    0.000    0.000 
#
# Total GULP energy -198355.709460 kJ/mol
# GULP energy per Si atom -12397.231841 kJ/mol
# Density = 2.185655 g / cm^3
# Si number density = 21.906408 Si / 1000 Ang^3
#
#
#
# Elastic Constant Matrix: (Units=GPa)
#
#
# Indices 1 2 3 4 5 6 
#
# 1 89.2814 13.1164 36.5147 7.2972 -14.8741 0.7060
# 2 13.1164 62.5611 10.4057 12.6890 10.5723 0.9659
# 3 36.5147 10.4057 123.1856 6.9547 13.9452 14.3876
# 4 7.2972 12.6890 6.9547 34.4100 -2.0462 3.9165
# 5 -14.8741 10.5723 13.9452 -2.0462 33.0588 5.8762
# 6 0.7060 0.9659 14.3876 3.9165 5.8762 31.3564
#
#
#
# Elastic Compliance Matrix: (Units=1/GPa)
#
#
# Indices 1 2 3 4 5 6 
#
# 1 0.015929 -0.004223 -0.005625 -0.000078 0.010826 0.000333
# 2 -0.004223 0.019766 0.000847 -0.007321 -0.009345 0.001763
# 3 -0.005625 0.000847 0.010977 -0.001353 -0.006898 -0.003474
# 4 -0.000078 -0.007321 -0.001353 0.032881 0.005680 -0.004323
# 5 0.010826 -0.009345 -0.006898 0.005680 0.042336 -0.005434
# 6 0.000333 0.001763 -0.003474 -0.004323 -0.005434 0.034982
#
#
# Mechanical properties :
#
#
# Convention : Reuss Voigt Hill
#
# Bulk Modulus (GPa) = 34.87930 43.90021 39.38975
# Shear Modulus (GPa) = 27.11090 34.09778 30.60434
#
# Velocity S-wave (km/s) = 3.52174 3.94956 3.74177
# Velocity P-wave (km/s) = 5.70030 6.39391 6.05704
#
# Compressibility (1/GPa) = 0.02867030
#
# Stress axis : x y z
#
# Youngs Moduli (GPa) = 62.77949 50.59282 91.10206
#
# Poissons Ratio (x) = 0.21364 0.51245
# Poissons Ratio (y) = 0.26510 -0.07720
# Poissons Ratio (z) = 0.35313 -0.04287
#
# Static dielectric constant tensor:
#      x y z
#    x 5.950640 -0.584980 -3.871620 
#    y -0.584980 4.311470 1.463770 
#    z -3.871620 1.463770 11.156420 
# 
# 
# High freq. dielectric constant tensor:
#      x y z
#    x 1.849610 0.008510 -0.003330 
#    y 0.008510 1.866610 0.010220 
#    z -0.003330 0.010220 1.870990 
# 
# From -- ./inp_files/522171.got.cif
#   From: 2010.06.25/outbox.cif.g09.slc.cpg/sg2_262_cif.got.tgz:522171.got - 2010.06.27 13:26:56.
