data_PCOD8000102
_publ_section_title
;
Structure prediction by ZEFSAII (Michael W. Deem and Ramdas Pophale) SiO2 
 PCOD8000102
Probable space group: P 1
;
_chemical_formula_sum "Si O2"
_cell_formula_units_Z 8
_cell_length_a 11.900262
_cell_length_b 4.728846
_cell_length_c 5.849429
_cell_angle_alpha 91.873808
_cell_angle_beta 89.965740
_cell_angle_gamma 66.305432
_cell_volume 301.229489
_symmetry_space_group_name_H-M "P 1"
_symmetry_group_IT_number 1
_symmetry_cell_setting 'triclinic'
loop_
_space_group_symop_operation_xyz
x,y,z
loop_
_atom_site_type_symbol
_atom_site_label
_atom_site_fract_x
_atom_site_fract_y
_atom_site_fract_z
Si Si1 0.604630 0.341690 0.485350
Si Si2 0.420578 0.308132 0.115499
Si Si3 0.213537 0.630695 0.426899
Si Si4 0.765108 0.264554 0.086914
Si Si5 0.052238 0.954487 0.064085
Si Si6 0.391795 0.796700 0.762594
Si Si7 0.160523 0.334781 0.819940
Si Si8 0.646462 0.874627 0.862193
O O1 0.509002 0.284534 0.323793
O O2 0.707991 0.404622 0.339739
O O3 0.530492 0.664700 0.642654
O O4 0.660761 0.030952 0.630100
O O5 0.291548 0.356990 0.237314
O O6 0.397946 0.619584 0.990536
O O7 0.499959 0.001256 0.947647
O O8 0.120568 0.940534 0.304902
O O9 0.302478 0.738648 0.578653
O O10 0.134523 0.489939 0.574143
O O11 0.710775 0.502367 0.878427
O O12 0.909499 0.154632 0.093978
O O13 0.723188 0.983880 0.047192
O O14 0.085143 0.594054 0.009433
O O15 0.108652 0.071820 0.852796
O O16 0.313418 0.170573 0.836387
#
# Coordination Sequence:
#
# PCOD8000102 Si02
#       8
#     1   1   1   1   1   1   1   1
#     4   9  22  43  71 106 129 182 223 283 347 401
#     4   9  19  43  69 104 140 169 220 286 347 406
#     4  11  23  43  70 104 138 181 226 274 348 404
#     4  11  25  47  69  96 138 181 230 278 330 404
#     4  12  28  45  69 100 142 184 230 275 334 408
#     4  10  21  45  70 106 141 171 223 290 341 409
#     4  12  25  45  65 103 139 181 223 281 337 399
#     4  10  23  45  69 101 133 175 225 287 338 395
#
# _framework density 26.557825000000001
#
# number of rings (size 3 to 8) (size 9 to 14) (size 15 to 20)
#    0.000    1.500    2.500    0.750    3.500    4.000 
#   22.500    0.000    0.000    0.000    0.000    0.000 
#    0.000    0.000    0.000    0.000    0.000    0.000 
#
# Total GULP energy -99169.839244 kJ/mol
# GULP energy per Si atom -12396.229905 kJ/mol
# Density = 2.649738 g / cm^3
# Si number density = 26.557825 Si / 1000 Ang^3
#
#
#
# Elastic Constant Matrix: (Units=GPa)
#
#
# Indices 1 2 3 4 5 6 
#
# 1 130.4804 59.5925 50.2128 -13.4862 -23.2581 -42.5352
# 2 59.5925 151.4343 61.5071 -6.1403 -7.6545 -23.5003
# 3 50.2128 61.5071 144.9165 -20.8710 -23.6202 -25.9322
# 4 -13.4862 -6.1403 -20.8710 47.6772 1.1059 -1.2975
# 5 -23.2581 -7.6545 -23.6202 1.1059 39.7606 1.1299
# 6 -42.5352 -23.5003 -25.9322 -1.2975 1.1299 53.1564
#
#
#
# Elastic Compliance Matrix: (Units=1/GPa)
#
#
# Indices 1 2 3 4 5 6 
#
# 1 0.014072 -0.003551 0.000058 0.003644 0.007207 0.009655
# 2 -0.003551 0.009094 -0.003230 -0.001206 -0.002201 -0.000379
# 3 0.000058 -0.003230 0.010373 0.004117 0.005356 0.003666
# 4 0.003644 -0.001206 0.004117 0.023703 0.003547 0.004894
# 5 0.007207 -0.002201 0.005356 0.003547 0.031832 0.006817
# 6 0.009655 -0.000379 0.003666 0.004894 0.006817 0.028133
#
#
# Mechanical properties :
#
#
# Convention : Reuss Voigt Hill
#
# Bulk Modulus (GPa) = 49.76569 85.49512 67.63040
# Shear Modulus (GPa) = 36.40376 45.15345 40.77861
#
# Velocity S-wave (km/s) = 3.70636 4.12781 3.92275
# Velocity P-wave (km/s) = 6.09060 7.41488 6.78513
#
# Compressibility (1/GPa) = 0.02009417
#
# Stress axis : x y z
#
# Youngs Moduli (GPa) = 71.06407 109.96737 96.40503
#
# Poissons Ratio (x) = 0.39050 -0.00564
# Poissons Ratio (y) = 0.25235 0.31134
# Poissons Ratio (z) = -0.00416 0.35514
#
# Static dielectric constant tensor:
#      x y z
#    x 4.704880 -0.094030 0.115530 
#    y -0.094030 5.037950 0.404420 
#    z 0.115530 0.404420 5.537460 
# 
# 
# High freq. dielectric constant tensor:
#      x y z
#    x 2.060450 0.002340 0.016370 
#    y 0.002340 2.072290 0.006000 
#    z 0.016370 0.006000 2.093750 
# 
# From -- ./inp_files/365.got.cif
#   From: 2010.03.12/outbox.cif.g09.slc.cpg/sg1_1_cif.got.tgz:365.got - 2010.03.29 11:57:58.
