data_PCOD8000026
_publ_section_title
;
Structure prediction by ZEFSAII (Michael W. Deem and Ramdas Pophale) SiO2 
 PCOD8000026
Probable space group: P 1
;
_chemical_formula_sum "Si O2"
_cell_formula_units_Z 8
_cell_length_a 9.177967
_cell_length_b 11.935876
_cell_length_c 7.683487
_cell_angle_alpha 59.953353
_cell_angle_beta 92.984390
_cell_angle_gamma 42.365657
_cell_volume 338.934525
_symmetry_space_group_name_H-M "P 1"
_symmetry_group_IT_number 1
_symmetry_cell_setting 'triclinic'
loop_
_space_group_symop_operation_xyz
x,y,z
loop_
_atom_site_type_symbol
_atom_site_label
_atom_site_fract_x
_atom_site_fract_y
_atom_site_fract_z
Si Si1 0.633690 0.783900 0.843480
Si Si2 0.747988 0.923978 0.340556
Si Si3 0.202791 0.186959 0.199947
Si Si4 0.876363 0.272310 0.835857
Si Si5 0.506469 0.670401 0.207561
Si Si6 0.435220 0.408066 0.840948
Si Si7 0.344334 0.538958 0.137822
Si Si8 0.672780 0.042017 0.646141
O O1 0.603782 0.953270 0.788000
O O2 0.356428 0.987060 0.525640
O O3 0.584772 0.725780 0.042797
O O4 0.981508 0.481574 0.019414
O O5 0.717923 0.988055 0.487359
O O6 0.113114 0.607907 0.578526
O O7 0.492242 0.009403 0.233742
O O8 0.668491 0.104556 0.067141
O O9 0.982201 0.262604 0.023821
O O10 0.764799 0.465705 0.536648
O O11 0.571101 0.424540 0.735549
O O12 0.158439 0.961313 0.031805
O O13 0.544445 0.504900 0.237624
O O14 0.409818 0.463693 0.998246
O O15 0.414846 0.357221 0.404913
O O16 0.982435 0.855457 0.899357
#
# Coordination Sequence:
#
# PCOD8000026 Si02
#       8
#     1   1   1   1   1   1   1   1
#     4  11  22  41  69  98 125 166 217 268 320 382
#     4   9  18  35  63  94 118 150 209 271 313 364
#     4  11  22  41  69  98 125 166 217 268 320 382
#     4  12  26  42  60  94 137 174 211 262 319 382
#     4  12  26  42  60  94 137 174 211 262 319 382
#     4  10  20  38  64  90 120 162 211 261 314 374
#     4  10  20  38  64  90 120 162 211 261 314 374
#     4   9  18  35  63  94 118 150 209 271 313 364
#
# _framework density 23.603377999999999
#
# number of rings (size 3 to 8) (size 9 to 14) (size 15 to 20)
#    0.000    1.500    0.000    7.500    0.000    3.000 
#    0.000    5.000    0.000    0.000    0.000    0.000 
#    0.000    0.000    0.000    0.000    0.000    0.000 
#
# Total GULP energy -99157.208612 kJ/mol
# GULP energy per Si atom -12394.651077 kJ/mol
# Density = 2.354966 g / cm^3
# Si number density = 23.603378 Si / 1000 Ang^3
#
#
#
# Elastic Constant Matrix: (Units=GPa)
#
#
# Indices 1 2 3 4 5 6 
#
# 1 96.4189 11.7181 25.9161 3.2513 -14.5872 -10.8405
# 2 11.7181 38.7618 18.7086 -11.5515 -4.3301 -3.0160
# 3 25.9161 18.7086 147.3544 -3.5405 -11.7445 -4.5307
# 4 3.2513 -11.5515 -3.5405 29.5654 -4.4501 -2.8722
# 5 -14.5872 -4.3301 -11.7445 -4.4501 47.9580 -8.6301
# 6 -10.8405 -3.0160 -4.5307 -2.8722 -8.6301 13.9558
#
#
#
# Elastic Compliance Matrix: (Units=1/GPa)
#
#
# Indices 1 2 3 4 5 6 
#
# 1 0.013309 -0.001771 -0.001239 -0.000125 0.005950 0.013207
# 2 -0.001771 0.033583 -0.002836 0.014850 0.005198 0.011233
# 3 -0.001239 -0.002836 0.007561 0.000364 0.001603 0.001945
# 4 -0.000125 0.014850 0.000364 0.042628 0.008447 0.017227
# 5 0.005950 0.005198 0.001603 0.008447 0.028971 0.025919
# 6 0.013207 0.011233 0.001945 0.017227 0.025919 0.104546
#
#
# Mechanical properties :
#
#
# Convention : Reuss Voigt Hill
#
# Bulk Modulus (GPa) = 23.38527 43.91340 33.64934
# Shear Modulus (GPa) = 19.49005 33.37533 26.43269
#
# Velocity S-wave (km/s) = 2.87667 3.76441 3.35007
# Velocity P-wave (km/s) = 4.57851 6.12694 5.40843
#
# Compressibility (1/GPa) = 0.04276196
#
# Stress axis : x y z
#
# Youngs Moduli (GPa) = 75.13870 29.77715 132.26575
#
# Poissons Ratio (x) = 0.05272 0.16383
# Poissons Ratio (y) = 0.13304 0.37509
# Poissons Ratio (z) = 0.09307 0.08444
#
# Static dielectric constant tensor:
#      x y z
#    x 4.358740 0.045290 0.003620 
#    y 0.045290 3.990630 -0.237170 
#    z 0.003620 -0.237170 4.794140 
# 
# 
# High freq. dielectric constant tensor:
#      x y z
#    x 1.931250 0.000220 0.002260 
#    y 0.000220 1.902120 -0.006580 
#    z 0.002260 -0.006580 1.963010 
# 
# From -- ./inp_files/4917.got.cif
#   From: 2010.03.12/outbox.cif.g09.slc.cpg/sg1_3_cif.got.tgz:4917.got - 2010.03.29 11:57:58.
