data_PCOD8000734
_publ_section_title
;
Structure prediction by ZEFSAII (Michael W. Deem and Ramdas Pophale) SiO2 
 PCOD8000734
Probable space group: P -1
;
_chemical_formula_sum "Si O2"
_cell_formula_units_Z 16
_cell_length_a 8.872766
_cell_length_b 15.152459
_cell_length_c 13.361392
_cell_angle_alpha 33.303932
_cell_angle_beta 50.608749
_cell_angle_gamma 67.916148
_cell_volume 710.010364
_symmetry_space_group_name_H-M "P -1"
_symmetry_group_IT_number 2
_symmetry_cell_setting 'triclinic'
loop_
_space_group_symop_operation_xyz
x,y,z
-x,-y,-z
loop_
_atom_site_type_symbol
_atom_site_label
_atom_site_fract_x
_atom_site_fract_y
_atom_site_fract_z
Si Si1 0.041516 0.319899 0.536624
Si Si2 0.356723 0.821070 0.778648
Si Si3 0.433890 0.195378 0.941901
Si Si4 0.973883 0.345034 0.231909
Si Si5 0.739549 0.745137 0.662927
Si Si6 0.793645 0.294538 0.844735
Si Si7 0.023223 0.858228 0.759325
Si Si8 0.332332 0.804851 0.336609
O O1 0.236709 0.280985 0.442618
O O2 0.091147 0.524033 0.320331
O O3 0.967289 0.249540 0.747445
O O4 0.855848 0.214672 0.640843
O O5 0.492034 0.696156 0.835459
O O6 0.140799 0.750860 0.873782
O O7 0.500000 0.000000 0.500000
O O8 0.302832 0.845667 0.894098
O O9 0.612870 0.312199 0.831640
O O10 0.496923 0.247748 0.748594
O O11 0.218553 0.220120 0.032120
O O12 0.427384 0.002059 0.145596
O O13 0.171171 0.378185 0.192679
O O14 0.954090 0.175565 0.335480
O O15 0.759577 0.312053 0.416041
O O16 0.000000 0.500000 0.000000
O O17 0.874335 0.940725 0.451748
#
# Coordination Sequence:
#
# PCOD8000734 Si02
#       8
#     2   2   2   2   2   2   2   2
#     4   9  19  39  65  89 121 170 209 253 323 378
#     4  10  24  39  60  92 126 167 211 262 306 380
#     4  10  19  39  69  95 117 168 217 261 314 369
#     4  11  23  38  64  98 128 161 206 270 321 374
#     4  10  21  43  65  88 126 171 214 256 315 382
#     4  10  21  37  64  94 125 162 211 259 319 382
#     4  11  22  40  63  95 126 170 212 258 318 370
#     4   9  20  37  67  95 126 161 214 261 315 380
#
# _framework density 22.534880999999999
#
# number of rings (size 3 to 8) (size 9 to 14) (size 15 to 20)
#    0.000    2.000    2.500    1.125    7.000    0.500 
#    2.250    4.375    2.750    0.000    0.000    0.000 
#    0.000    0.000    0.000    0.000    0.000    0.000 
#
# Total GULP energy -198254.763606 kJ/mol
# GULP energy per Si atom -12390.922725 kJ/mol
# Density = 2.248359 g / cm^3
# Si number density = 22.534881 Si / 1000 Ang^3
#
#
#
# Elastic Constant Matrix: (Units=GPa)
#
#
# Indices 1 2 3 4 5 6 
#
# 1 96.1480 22.8805 25.4276 23.1392 -3.9033 -11.8864
# 2 22.8805 100.8036 41.0190 44.9902 6.5066 13.6109
# 3 25.4276 41.0190 118.9293 48.1350 12.3460 0.8936
# 4 23.1392 44.9902 48.1350 56.2793 5.5614 -2.9044
# 5 -3.9033 6.5066 12.3460 5.5614 27.0007 -0.9787
# 6 -11.8864 13.6109 0.8936 -2.9044 -0.9787 24.3808
#
#
#
# Elastic Compliance Matrix: (Units=1/GPa)
#
#
# Indices 1 2 3 4 5 6 
#
# 1 0.013065 -0.002916 -0.001586 -0.001661 0.003949 0.008017
# 2 -0.002916 0.019129 0.000456 -0.014941 -0.002670 -0.014004
# 3 -0.001586 0.000456 0.013517 -0.010997 -0.004363 -0.003008
# 4 -0.001661 -0.014941 -0.010997 0.040408 0.000529 0.012769
# 5 0.003949 -0.002670 -0.004363 0.000529 0.040327 0.005258
# 6 0.008017 -0.014004 -0.003008 0.012769 0.005258 0.054585
#
#
# Mechanical properties :
#
#
# Convention : Reuss Voigt Hill
#
# Bulk Modulus (GPa) = 26.58341 54.94836 40.76588
# Shear Modulus (GPa) = 24.79398 36.63575 30.71487
#
# Velocity S-wave (km/s) = 3.32060 4.03642 3.69588
# Velocity P-wave (km/s) = 5.15015 6.79413 6.02844
#
# Compressibility (1/GPa) = 0.03761745
#
# Stress axis : x y z
#
# Youngs Moduli (GPa) = 76.54016 52.27793 73.98273
#
# Poissons Ratio (x) = 0.15247 0.11730
# Poissons Ratio (y) = 0.22323 -0.03371
# Poissons Ratio (z) = 0.12136 -0.02382
#
# Static dielectric constant tensor:
#      x y z
#    x 4.235450 -0.135810 -0.315440 
#    y -0.135810 4.662710 0.625430 
#    z -0.315440 0.625430 4.087590 
# 
# 
# High freq. dielectric constant tensor:
#      x y z
#    x 1.856870 0.015910 -0.025260 
#    y 0.015910 1.901370 0.028300 
#    z -0.025260 0.028300 1.884970 
# 
# From -- ./inp_files/398379.got.cif
#   From: 2010.06.25/outbox.cif.g09.slc.cpg/sg2_200_cif.got.tgz:398379.got - 2010.06.27 13:26:56.
