data_PCOD8000638
_publ_section_title
;
Structure prediction by ZEFSAII (Michael W. Deem and Ramdas Pophale) SiO2 
 PCOD8000638
Probable space group: P -1
;
_chemical_formula_sum "Si O2"
_cell_formula_units_Z 16
_cell_length_a 9.840168
_cell_length_b 14.506563
_cell_length_c 9.693585
_cell_angle_alpha 106.983344
_cell_angle_beta 63.066315
_cell_angle_gamma 143.993798
_cell_volume 717.892619
_symmetry_space_group_name_H-M "P -1"
_symmetry_group_IT_number 2
_symmetry_cell_setting 'triclinic'
loop_
_space_group_symop_operation_xyz
x,y,z
-x,-y,-z
loop_
_atom_site_type_symbol
_atom_site_label
_atom_site_fract_x
_atom_site_fract_y
_atom_site_fract_z
Si Si1 0.950299 0.571429 0.832669
Si Si2 0.797756 0.496855 0.400378
Si Si3 0.691590 0.827738 0.395407
Si Si4 0.434087 0.934366 0.851008
Si Si5 0.432394 0.609649 0.826205
Si Si6 0.348857 0.001451 0.658134
Si Si7 0.158067 0.342105 0.317770
Si Si8 0.793584 0.951698 0.697544
O O1 0.819827 0.568554 0.773671
O O2 0.035882 0.516134 0.692271
O O3 0.187828 0.743894 0.866865
O O4 0.743756 0.449387 0.991061
O O5 0.542539 0.356769 0.545747
O O6 0.740783 0.501168 0.273866
O O7 0.923009 0.646411 0.495158
O O8 0.818962 0.928034 0.520094
O O9 0.588199 0.857706 0.351807
O O10 0.951372 0.904822 0.262454
O O11 0.413051 0.016369 0.795990
O O12 0.676459 0.994860 0.730819
O O13 0.500000 0.000000 0.000000
O O14 0.584010 0.587314 0.769797
O O15 0.608111 0.789688 0.798309
O O16 0.055145 0.842095 0.697168
O O17 0.500000 0.000000 0.500000
#
# Coordination Sequence:
#
# PCOD8000638 Si02
#       8
#     2   2   2   2   2   2   2   2
#     4  11  23  43  63  88 134 168 203 264 323 372
#     4  11  23  41  65  99 126 165 215 261 310 378
#     4  10  19  39  66  89 124 161 205 259 315 359
#     4  11  24  41  61  91 125 163 213 255 311 385
#     4  11  22  41  65  91 129 171 206 257 322 375
#     4  11  21  40  65  91 123 163 208 262 312 363
#     4  11  24  41  64  97 126 164 222 255 308 381
#     4  10  20  39  64  90 124 164 206 259 315 365
#
# _framework density 22.287455999999999
#
# number of rings (size 3 to 8) (size 9 to 14) (size 15 to 20)
#    0.000    1.250    5.000    2.250    0.000    2.000 
#    2.250    0.625    0.000    0.000    0.000    0.000 
#    0.000    0.000    0.000    0.000    0.000    0.000 
#
# Total GULP energy -198242.587742 kJ/mol
# GULP energy per Si atom -12390.161734 kJ/mol
# Density = 2.223673 g / cm^3
# Si number density = 22.287456 Si / 1000 Ang^3
#
#
#
# Elastic Constant Matrix: (Units=GPa)
#
#
# Indices 1 2 3 4 5 6 
#
# 1 -357.4956 154.0401 -273.8529 -275.5426 -68.2119 38.2155
# 2 154.0401 -15.8415 106.6807 71.4395 21.7031 -8.0612
# 3 -273.8529 106.6807 -89.1752 -166.1769 -30.9704 23.4620
# 4 -275.5426 71.4395 -166.1769 -110.3402 -39.5434 18.5197
# 5 -68.2119 21.7031 -30.9704 -39.5434 21.5163 3.7298
# 6 38.2155 -8.0612 23.4620 18.5197 3.7298 12.8445
#
#
#
# Elastic Compliance Matrix: (Units=1/GPa)
#
#
# Indices 1 2 3 4 5 6 
#
# 1 0.005307 0.004015 -0.004540 -0.003603 -0.000439 0.000343
# 2 0.004015 0.037397 -0.004105 0.017887 0.003310 -0.007727
# 3 -0.004540 -0.004105 0.011147 -0.006025 -0.005424 0.000832
# 4 -0.003603 0.017887 -0.006025 0.021019 0.000036 0.002635
# 5 -0.000439 0.003310 -0.005424 0.000036 0.033391 0.003543
# 6 0.000343 -0.007727 0.000832 0.002635 0.003543 0.065637
#
#
# Mechanical properties :
#
#
# Convention : Reuss Voigt Hill
#
# Bulk Modulus (GPa) = 22.42617 -54.30848 -15.94115
# Shear Modulus (GPa) = 25.24960 -45.15455 -9.95247
#
# Velocity S-wave (km/s) = 3.36952 -4.50600 -2.11547
# Velocity P-wave (km/s) = 5.02218 7.17581 3.62422
#
# Compressibility (1/GPa) = 0.04459076
#
# Stress axis : x y z
#
# Youngs Moduli (GPa) = 188.41384 26.73980 89.71377
#
# Poissons Ratio (x) = -0.10735 0.40727
# Poissons Ratio (y) = -0.75643 0.36832
# Poissons Ratio (z) = 0.85532 0.10978
#
# Static dielectric constant tensor:
#      x y z
#    x 4.256290 0.184140 0.211420 
#    y 0.184140 3.901150 -0.155510 
#    z 0.211420 -0.155510 3.829880 
# 
# 
# High freq. dielectric constant tensor:
#      x y z
#    x 1.903970 0.015710 0.004280 
#    y 0.015710 1.862980 -0.013000 
#    z 0.004280 -0.013000 1.864190 
# 
# From -- ./inp_files/207723.got.cif
#   From: 2010.06.25/outbox.cif.g09.slc.cpg/sg2_104_cif.got.tgz:207723.got - 2010.06.27 13:26:56.
