data_PCOD8000911
_publ_section_title
;
Structure prediction by ZEFSAII (Michael W. Deem and Ramdas Pophale) SiO2 
 PCOD8000911
Probable space group: P -1
;
_chemical_formula_sum "Si O2"
_cell_formula_units_Z 16
_cell_length_a 8.603088
_cell_length_b 7.981043
_cell_length_c 15.349336
_cell_angle_alpha 103.228854
_cell_angle_beta 122.311377
_cell_angle_gamma 114.059232
_cell_volume 663.194328
_symmetry_space_group_name_H-M "P -1"
_symmetry_group_IT_number 2
_symmetry_cell_setting 'triclinic'
loop_
_space_group_symop_operation_xyz
x,y,z
-x,-y,-z
loop_
_atom_site_type_symbol
_atom_site_label
_atom_site_fract_x
_atom_site_fract_y
_atom_site_fract_z
Si Si1 0.590889 0.507461 0.766962
Si Si2 0.320691 0.853434 0.083442
Si Si3 0.083748 0.625758 0.151333
Si Si4 0.799051 0.877583 0.997427
Si Si5 0.751610 0.066265 0.606912
Si Si6 0.914431 0.672095 0.414945
Si Si7 0.870299 0.833601 0.728982
Si Si8 0.146574 0.759131 0.679897
O O1 0.710338 0.394949 0.795699
O O2 0.620931 0.617738 0.884060
O O3 0.307001 0.328931 0.643930
O O4 0.700734 0.677842 0.738901
O O5 0.161485 0.803184 0.117216
O O6 0.323676 0.008546 0.032698
O O7 0.598269 0.987768 0.206401
O O8 0.187223 0.608418 0.970753
O O9 0.094226 0.718065 0.258833
O O10 0.000000 0.000000 0.000000
O O11 0.903599 0.922531 0.132486
O O12 0.899287 0.128297 0.571110
O O13 0.500000 0.000000 0.500000
O O14 0.718969 0.862339 0.620671
O O15 0.827429 0.431477 0.326608
O O16 0.042321 0.739913 0.553050
O O17 0.966214 0.721592 0.695251
#
# Coordination Sequence:
#
# PCOD8000911 Si02
#       8
#     2   2   2   2   2   2   2   2
#     4  11  23  44  72 103 140 180 233 282 343 418
#     4  11  22  41  70 103 142 182 225 288 337 411
#     4  11  24  41  74 103 140 185 232 277 355 402
#     4  10  19  40  66 100 139 179 224 281 342 403
#     4  12  29  48  68 103 142 181 232 289 343 411
#     4  11  27  45  73 101 138 182 237 282 347 411
#     4  11  26  44  70 100 141 184 229 284 350 409
#     4  11  26  46  70 101 140 184 234 285 345 407
#
# _framework density 24.125658000000001
#
# number of rings (size 3 to 8) (size 9 to 14) (size 15 to 20)
#    0.000    1.000    3.750    3.000    8.750    2.500 
#    0.000    1.250    0.000    0.000    0.000    0.000 
#    0.000    0.000    0.000    0.000    0.000    0.000 
#
# Total GULP energy -198367.956883 kJ/mol
# GULP energy per Si atom -12397.997305 kJ/mol
# Density = 2.407075 g / cm^3
# Si number density = 24.125658 Si / 1000 Ang^3
#
#
#
# Elastic Constant Matrix: (Units=GPa)
#
#
# Indices 1 2 3 4 5 6 
#
# 1 84.6034 14.6286 38.4214 3.2253 5.8033 4.9300
# 2 14.6286 55.1906 15.2304 -9.8815 8.6324 1.8335
# 3 38.4214 15.2304 112.4455 -1.6831 12.6317 5.8435
# 4 3.2253 -9.8815 -1.6831 34.8208 4.5783 2.9803
# 5 5.8033 8.6324 12.6317 4.5783 43.7886 -3.7328
# 6 4.9300 1.8335 5.8435 2.9803 -3.7328 34.6526
#
#
#
# Elastic Compliance Matrix: (Units=1/GPa)
#
#
# Indices 1 2 3 4 5 6 
#
# 1 0.014548 -0.003012 -0.004568 -0.002364 0.000152 -0.000920
# 2 -0.003012 0.021209 -0.001176 0.006939 -0.004301 -0.001556
# 3 -0.004568 -0.001176 0.010998 0.001090 -0.002578 -0.001514
# 4 -0.002364 0.006939 0.001090 0.031917 -0.005004 -0.003499
# 5 0.000152 -0.004301 -0.002578 -0.005004 0.025255 0.003792
# 6 -0.000920 -0.001556 -0.001514 -0.003499 0.003792 0.030036
#
#
# Mechanical properties :
#
#
# Convention : Reuss Voigt Hill
#
# Bulk Modulus (GPa) = 34.19505 43.20004 38.69754
# Shear Modulus (GPa) = 31.01328 34.91634 32.96481
#
# Velocity S-wave (km/s) = 3.58926 3.80843 3.70047
# Velocity P-wave (km/s) = 5.60193 6.10606 5.85942
#
# Compressibility (1/GPa) = 0.02924400
#
# Stress axis : x y z
#
# Youngs Moduli (GPa) = 68.73631 47.15046 90.92744
#
# Poissons Ratio (x) = 0.14203 0.41533
# Poissons Ratio (y) = 0.20705 0.10689
# Poissons Ratio (z) = 0.31396 0.05543
#
# Static dielectric constant tensor:
#      x y z
#    x 3.881510 0.133850 0.228050 
#    y 0.133850 3.882310 -0.474550 
#    z 0.228050 -0.474550 4.460230 
# 
# 
# High freq. dielectric constant tensor:
#      x y z
#    x 1.946430 -0.013780 -0.000680 
#    y -0.013780 1.942900 -0.012960 
#    z -0.000680 -0.012960 1.976790 
# 
# From -- ./inp_files/495287.got.cif
#   From: 2010.06.25/outbox.cif.g09.slc.cpg/sg2_248_cif.got.tgz:495287.got - 2010.06.27 13:26:56.
