data_PCOD8000287
_publ_section_title
;
Structure prediction by ZEFSAII (Michael W. Deem and Ramdas Pophale) SiO2 
 PCOD8000287
Probable space group: P 1
;
_chemical_formula_sum "Si O2"
_cell_formula_units_Z 8
_cell_length_a 9.461571
_cell_length_b 8.153870
_cell_length_c 12.383403
_cell_angle_alpha 131.067007
_cell_angle_beta 36.276592
_cell_angle_gamma 115.983404
_cell_volume 417.121036
_symmetry_space_group_name_H-M "P 1"
_symmetry_group_IT_number 1
_symmetry_cell_setting 'triclinic'
loop_
_space_group_symop_operation_xyz
x,y,z
loop_
_atom_site_type_symbol
_atom_site_label
_atom_site_fract_x
_atom_site_fract_y
_atom_site_fract_z
Si Si1 0.229020 0.785940 0.924980
Si Si2 0.529646 0.000780 0.470753
Si Si3 0.661214 0.393488 0.805409
Si Si4 0.100115 0.526879 0.196291
Si Si5 0.670901 0.904403 0.588363
Si Si6 0.814875 0.620456 0.013293
Si Si7 0.926799 0.244856 0.360340
Si Si8 0.094072 0.372506 0.912202
O O1 0.489681 0.779761 0.709314
O O2 0.251099 0.570779 0.895968
O O3 0.035407 0.755951 0.936238
O O4 0.129791 0.015352 0.150840
O O5 0.611473 0.908785 0.499755
O O6 0.568046 0.792518 0.275325
O O7 0.694406 0.179479 0.415543
O O8 0.250661 0.126891 0.687228
O O9 0.838954 0.361585 0.578790
O O10 0.639406 0.153133 0.760602
O O11 0.387357 0.528283 0.009106
O O12 0.787365 0.523971 0.871644
O O13 0.946361 0.777232 0.387957
O O14 0.042894 0.419322 0.297272
O O15 0.011198 0.379641 0.091341
O O16 0.874326 0.422842 0.982140
#
# Coordination Sequence:
#
# PCOD8000287 Si02
#       8
#     1   1   1   1   1   1   1   1
#     4   9  19  38  62  90 114 160 201 239 292 356
#     4  10  18  36  61  87 115 155 196 246 287 350
#     4  11  23  41  58  91 127 151 194 255 300 345
#     4  12  21  36  66  91 114 162 203 239 294 355
#     4  11  20  36  64  92 116 157 206 242 286 363
#     4   9  22  38  58  87 125 151 194 248 307 337
#     4  10  19  37  63  87 117 157 198 243 290 351
#     4  10  18  36  62  87 112 157 200 240 286 353
#
# _framework density 19.179085000000001
#
# number of rings (size 3 to 8) (size 9 to 14) (size 15 to 20)
#    0.750    1.000    5.000    1.500    0.000    1.000 
#    2.250    0.000    5.500    0.000    0.000    0.000 
#    0.000    0.000    0.000    0.000    0.000    0.000 
#
# Total GULP energy -99122.084168 kJ/mol
# GULP energy per Si atom -12390.260521 kJ/mol
# Density = 1.913543 g / cm^3
# Si number density = 19.179085 Si / 1000 Ang^3
#
#
#
# Elastic Constant Matrix: (Units=GPa)
#
#
# Indices 1 2 3 4 5 6 
#
# 1 91.3285 20.6317 60.2612 10.7320 13.7343 -2.9474
# 2 20.6317 56.3777 34.2557 1.3233 4.6234 -12.5513
# 3 60.2612 34.2557 135.9798 16.0644 -0.1917 -3.8220
# 4 10.7320 1.3233 16.0644 34.8394 -6.5629 -1.6939
# 5 13.7343 4.6234 -0.1917 -6.5629 37.1527 7.7399
# 6 -2.9474 -12.5513 -3.8220 -1.6939 7.7399 20.8048
#
#
#
# Elastic Compliance Matrix: (Units=1/GPa)
#
#
# Indices 1 2 3 4 5 6 
#
# 1 0.017427 -0.000603 -0.007089 -0.003363 -0.007705 0.003395
# 2 -0.000603 0.025801 -0.005956 0.001595 -0.006245 0.016839
# 3 -0.007089 -0.005956 0.012209 -0.002702 0.003777 -0.003980
# 4 -0.003363 0.001595 -0.002702 0.032191 0.006692 0.000121
# 5 -0.007705 -0.006245 0.003777 0.006692 0.035227 -0.016726
# 6 0.003395 0.016839 -0.003980 0.000121 -0.016726 0.064207
#
#
# Mechanical properties :
#
#
# Convention : Reuss Voigt Hill
#
# Bulk Modulus (GPa) = 35.53772 57.10924 46.32348
# Shear Modulus (GPa) = 22.34759 29.79522 26.07140
#
# Velocity S-wave (km/s) = 3.41721 3.94576 3.69096
# Velocity P-wave (km/s) = 5.84290 7.11338 6.50921
#
# Compressibility (1/GPa) = 0.02813911
#
# Stress axis : x y z
#
# Youngs Moduli (GPa) = 57.38284 38.75847 81.90856
#
# Poissons Ratio (x) = 0.02339 0.58066
# Poissons Ratio (y) = 0.03462 0.48786
# Poissons Ratio (z) = 0.40679 0.23085
#
# Static dielectric constant tensor:
#      x y z
#    x 3.097100 -0.197180 -0.062450 
#    y -0.197180 3.299120 0.066610 
#    z -0.062450 0.066610 3.703470 
# 
# 
# High freq. dielectric constant tensor:
#      x y z
#    x 1.707210 -0.024300 -0.005120 
#    y -0.024300 1.722470 0.009370 
#    z -0.005120 0.009370 1.767880 
# 
# From -- ./inp_files/4089.got.cif
#   From: 2010.03.12/outbox.cif.g09.slc.cpg/sg1_3_cif.got.tgz:4089.got - 2010.03.29 11:57:58.
