data_PCOD8000364
_publ_section_title
;
Structure prediction by ZEFSAII (Michael W. Deem and Ramdas Pophale) SiO2 
 PCOD8000364
Probable space group: P -1
;
_chemical_formula_sum "Si O2"
_cell_formula_units_Z 12
_cell_length_a 12.420834
_cell_length_b 20.423411
_cell_length_c 9.855222
_cell_angle_alpha 27.923772
_cell_angle_beta 36.010129
_cell_angle_gamma 31.262784
_cell_volume 592.596432
_symmetry_space_group_name_H-M "P -1"
_symmetry_group_IT_number 2
_symmetry_cell_setting 'triclinic'
loop_
_space_group_symop_operation_xyz
x,y,z
-x,-y,-z
loop_
_atom_site_type_symbol
_atom_site_label
_atom_site_fract_x
_atom_site_fract_y
_atom_site_fract_z
Si Si1 0.643647 0.273761 0.363495
Si Si2 0.858993 0.393259 0.114446
Si Si3 0.853599 0.529614 0.468120
Si Si4 0.154979 0.776866 0.033278
Si Si5 0.784573 0.126380 0.758153
Si Si6 0.491033 0.650871 0.159037
O O1 0.720494 0.396473 0.116460
O O2 0.391801 0.369302 0.427911
O O3 0.713105 0.129440 0.668341
O O4 0.749983 0.199540 0.247301
O O5 0.893746 0.239901 0.451608
O O6 0.726095 0.569622 0.002056
O O7 0.085210 0.372871 0.881429
O O8 0.000000 0.500000 0.500000
O O9 0.913047 0.357038 0.662032
O O10 0.319225 0.730124 0.071412
O O11 0.944771 0.946072 0.974035
O O12 0.573511 0.207737 0.921309
O O13 0.500000 0.500000 0.500000
#
# Coordination Sequence:
#
# PCOD8000364 Si02
#       6
#     2   2   2   2   2   2
#     4  10  21  39  60  83 121 152 190 239 291 339
#     4   9  20  38  60  81 117 150 196 228 290 337
#     4  12  20  34  60  92 112 152 200 235 283 347
#     4  12  20  36  63  88 116 152 194 243 288 341
#     4   9  21  40  59  83 121 156 188 236 299 337
#     4  10  19  39  60  84 117 159 190 235 288 352
#
# _framework density 20.249867999999999
#
# number of rings (size 3 to 8) (size 9 to 14) (size 15 to 20)
#    1.000    0.667    3.333    2.500    0.000    0.000 
#    0.000   13.333    0.000    0.000    0.000    0.000 
#    0.000    0.000    0.000    0.000    0.000    0.000 
#
# Total GULP energy -148658.120811 kJ/mol
# GULP energy per Si atom -12388.176734 kJ/mol
# Density = 2.020378 g / cm^3
# Si number density = 20.249868 Si / 1000 Ang^3
#
#
#
# Elastic Constant Matrix: (Units=GPa)
#
#
# Indices 1 2 3 4 5 6 
#
# 1 52.5843 -4.0295 3.3456 5.3769 19.9107 -2.7827
# 2 -4.0295 90.9950 1.3237 1.7384 0.0124 -0.2623
# 3 3.3456 1.3237 30.9791 7.5192 -6.9398 -5.7664
# 4 5.3769 1.7384 7.5192 30.8664 -6.3545 9.2266
# 5 19.9107 0.0124 -6.9398 -6.3545 31.1604 6.1580
# 6 -2.7827 -0.2623 -5.7664 9.2266 6.1580 23.9046
#
#
#
# Elastic Compliance Matrix: (Units=1/GPa)
#
#
# Indices 1 2 3 4 5 6 
#
# 1 0.032247 0.001818 -0.002976 -0.015513 -0.027626 0.016160
# 2 0.001818 0.011112 -0.000449 -0.001612 -0.001857 0.001326
# 3 -0.002976 -0.000449 0.038883 -0.011248 0.005927 0.011843
# 4 -0.015513 -0.001612 -0.011248 0.052131 0.024141 -0.030877
# 5 -0.027626 -0.001857 0.005927 0.024141 0.061307 -0.026918
# 6 0.016160 0.001326 0.011843 -0.030877 -0.026918 0.065438
#
#
# Mechanical properties :
#
#
# Convention : Reuss Voigt Hill
#
# Bulk Modulus (GPa) = 12.65369 19.53757 16.09563
# Shear Modulus (GPa) = 17.20143 28.78084 22.99114
#
# Velocity S-wave (km/s) = 2.91771 3.77408 3.37318
# Velocity P-wave (km/s) = 4.19679 5.35358 4.81009
#
# Compressibility (1/GPa) = 0.07902833
#
# Stress axis : x y z
#
# Youngs Moduli (GPa) = 31.01018 89.99675 25.71836
#
# Poissons Ratio (x) = -0.16361 0.07653
# Poissons Ratio (y) = -0.05638 0.01155
# Poissons Ratio (z) = 0.09227 0.04042
#
# Static dielectric constant tensor:
#      x y z
#    x 3.603170 0.209230 0.327100 
#    y 0.209230 3.818540 0.226990 
#    z 0.327100 0.226990 3.671960 
# 
# 
# High freq. dielectric constant tensor:
#      x y z
#    x 1.776820 0.005260 0.032420 
#    y 0.005260 1.795110 0.010750 
#    z 0.032420 0.010750 1.765960 
# 
# From -- ./inp_files/80084.got.cif
#   From: 2010.06.25/outbox.cif.g09.slc.cpg/sg2_41_cif.got.tgz:80084.got - 2010.06.27 13:26:56.
