data_PCOD8000987
_publ_section_title
;
Structure prediction by ZEFSAII (Michael W. Deem and Ramdas Pophale) SiO2 
 PCOD8000987
Probable space group: P -1
;
_chemical_formula_sum "Si O2"
_cell_formula_units_Z 14
_cell_length_a 12.208719
_cell_length_b 7.423909
_cell_length_c 11.310076
_cell_angle_alpha 86.590820
_cell_angle_beta 142.965084
_cell_angle_gamma 100.192159
_cell_volume 601.867753
_symmetry_space_group_name_H-M "P -1"
_symmetry_group_IT_number 2
_symmetry_cell_setting 'triclinic'
loop_
_space_group_symop_operation_xyz
x,y,z
-x,-y,-z
loop_
_atom_site_type_symbol
_atom_site_label
_atom_site_fract_x
_atom_site_fract_y
_atom_site_fract_z
Si Si1 0.670229 0.658873 0.113065
Si Si2 0.811535 0.572323 0.819892
Si Si3 0.995180 0.497611 0.635980
Si Si4 0.892852 0.855312 0.504308
Si Si5 0.302773 0.735871 0.441000
Si Si6 0.089419 0.033526 0.233066
Si Si7 0.315143 0.195147 0.119366
O O1 0.825643 0.581539 0.174865
O O2 0.720223 0.746469 0.282414
O O3 0.500000 0.500000 0.000000
O O4 0.624062 0.796834 0.967603
O O5 0.673014 0.417119 0.630127
O O6 0.840343 0.768623 0.771031
O O7 0.725878 0.610248 0.871733
O O8 0.000000 0.500000 0.000000
O O9 0.000000 0.500000 0.500000
O O10 0.008149 0.713470 0.669373
O O11 0.814426 0.370453 0.545104
O O12 0.848273 0.966975 0.574880
O O13 0.000000 0.000000 0.500000
O O14 0.803463 0.119436 0.719097
O O15 0.506924 0.844438 0.654769
O O16 0.868834 0.968186 0.018479
#
# Coordination Sequence:
#
# PCOD8000987 Si02
#       7
#     2   2   2   2   2   2   2
#     4  11  23  42  70 103 140 183 239 285 352 429
#     4  12  26  49  77 101 144 193 236 297 361 415
#     4  10  19  40  68  92 138 187 222 287 351 400
#     4  11  21  41  67  99 143 185 230 288 355 418
#     4  12  25  48  71 103 145 187 237 296 351 420
#     4  12  25  48  72 105 147 185 235 298 355 421
#     4  12  25  46  72 107 142 186 244 290 351 426
#
# _framework density 23.260922000000001
#
# number of rings (size 3 to 8) (size 9 to 14) (size 15 to 20)
#    0.000    0.571    5.714    3.429    0.000    0.571 
#    5.143    1.429    0.000    0.000    0.000    0.000 
#    0.000    0.000    0.000    0.000    0.000    0.000 
#
# Total GULP energy -173444.340190 kJ/mol
# GULP energy per Si atom -12388.881442 kJ/mol
# Density = 2.320798 g / cm^3
# Si number density = 23.260922 Si / 1000 Ang^3
#
#
#
# Elastic Constant Matrix: (Units=GPa)
#
#
# Indices 1 2 3 4 5 6 
#
# 1 81.1028 8.6562 30.1482 3.6903 -15.6870 -5.4545
# 2 8.6562 123.9875 36.3193 6.2766 -0.3532 -1.0545
# 3 30.1482 36.3193 150.1704 18.7259 -5.8065 2.4659
# 4 3.6903 6.2766 18.7259 34.4053 0.3924 -5.7714
# 5 -15.6870 -0.3532 -5.8065 0.3924 46.0950 1.8828
# 6 -5.4545 -1.0545 2.4659 -5.7714 1.8828 22.4360
#
#
#
# Elastic Compliance Matrix: (Units=1/GPa)
#
#
# Indices 1 2 3 4 5 6 
#
# 1 0.014467 -0.000169 -0.002823 0.000568 0.004415 0.003595
# 2 -0.000169 0.008698 -0.002043 -0.000366 -0.000266 0.000520
# 3 -0.002823 -0.002043 0.008314 -0.004327 0.000223 -0.002828
# 4 0.000568 -0.000366 -0.004327 0.032975 -0.001010 0.009164
# 5 0.004415 -0.000266 0.000223 -0.001010 0.023280 -0.001177
# 6 0.003595 0.000520 -0.002828 0.009164 -0.001177 0.048237
#
#
# Mechanical properties :
#
#
# Convention : Reuss Voigt Hill
#
# Bulk Modulus (GPa) = 46.70574 56.16757 51.43665
# Shear Modulus (GPa) = 32.64214 39.26306 35.95260
#
# Velocity S-wave (km/s) = 3.75013 4.11291 3.93571
# Velocity P-wave (km/s) = 6.23490 6.83768 6.54324
#
# Compressibility (1/GPa) = 0.02141064
#
# Stress axis : x y z
#
# Youngs Moduli (GPa) = 69.12174 114.97249 120.27197
#
# Poissons Ratio (x) = 0.01940 0.33950
# Poissons Ratio (y) = 0.01167 0.24570
# Poissons Ratio (z) = 0.19512 0.23487
#
# Static dielectric constant tensor:
#      x y z
#    x 3.840980 0.084070 -0.073850 
#    y 0.084070 4.407260 -0.496810 
#    z -0.073850 -0.496810 4.796920 
# 
# 
# High freq. dielectric constant tensor:
#      x y z
#    x 1.923510 0.005420 -0.023000 
#    y 0.005420 1.922670 -0.003100 
#    z -0.023000 -0.003100 1.919050 
# 
# From -- ./inp_files/386643.got.cif
#   From: 2010.06.25/outbox.cif.g09.slc.cpg/sg2_194_cif.got.tgz:386643.got - 2010.06.27 13:26:56.
