data_PCOD8000427
_publ_section_title
;
Structure prediction by ZEFSAII (Michael W. Deem and Ramdas Pophale) SiO2 
 PCOD8000427
Probable space group: P -1
;
_chemical_formula_sum "Si O2"
_cell_formula_units_Z 16
_cell_length_a 11.562648
_cell_length_b 9.850240
_cell_length_c 12.173512
_cell_angle_alpha 42.291808
_cell_angle_beta 66.082135
_cell_angle_gamma 54.015416
_cell_volume 753.861317
_symmetry_space_group_name_H-M "P -1"
_symmetry_group_IT_number 2
_symmetry_cell_setting 'triclinic'
loop_
_space_group_symop_operation_xyz
x,y,z
-x,-y,-z
loop_
_atom_site_type_symbol
_atom_site_label
_atom_site_fract_x
_atom_site_fract_y
_atom_site_fract_z
Si Si1 0.563790 0.677831 0.361663
Si Si2 0.721082 0.123988 0.885360
Si Si3 0.992845 0.911518 0.177084
Si Si4 0.311410 0.125591 0.165584
Si Si5 0.173427 0.283760 0.747127
Si Si6 0.039417 0.280739 0.314748
Si Si7 0.865110 0.124434 0.318448
Si Si8 0.405610 0.432445 0.823605
O O1 0.500000 0.500000 0.500000
O O2 0.713301 0.629934 0.393815
O O3 0.610072 0.678627 0.217455
O O4 0.441600 0.921868 0.302650
O O5 0.841949 0.207378 0.776189
O O6 0.573591 0.360054 0.815979
O O7 0.724957 0.989601 0.853939
O O8 0.741457 0.960818 0.078880
O O9 0.918737 0.745722 0.299566
O O10 0.902799 0.105484 0.185973
O O11 0.000000 0.000000 0.000000
O O12 0.181070 0.256005 0.218678
O O13 0.355821 0.317768 0.004764
O O14 0.057974 0.460159 0.769181
O O15 0.950047 0.229755 0.288785
O O16 0.086044 0.122999 0.499554
O O17 0.694261 0.293450 0.298304
#
# Coordination Sequence:
#
# PCOD8000427 Si02
#       8
#     2   2   2   2   2   2   2   2
#     4  11  21  36  61  95 131 161 207 262 327 369
#     4  10  19  39  61  97 126 165 212 262 317 372
#     4  10  24  41  67  91 133 170 212 256 322 383
#     4  11  20  35  63  94 124 163 212 272 311 365
#     4  11  22  42  61  97 126 169 213 257 319 386
#     4  11  24  37  66  93 133 160 213 271 315 369
#     4  11  23  42  59  99 126 168 211 266 319 376
#     4  11  21  37  66  91 127 162 219 275 305 369
#
# _framework density 21.224063999999998
#
# number of rings (size 3 to 8) (size 9 to 14) (size 15 to 20)
#    0.000    1.250    5.000    1.500    5.250    1.500 
#    0.000    3.750    0.000    2.250    0.000    0.000 
#    0.000    0.000    0.000    0.000    0.000    0.000 
#
# Total GULP energy -198251.198504 kJ/mol
# GULP energy per Si atom -12390.699907 kJ/mol
# Density = 2.117576 g / cm^3
# Si number density = 21.224064 Si / 1000 Ang^3
#
#
#
# Elastic Constant Matrix: (Units=GPa)
#
#
# Indices 1 2 3 4 5 6 
#
# 1 157.1566 66.9116 28.9779 -0.4493 -30.0660 -18.4246
# 2 66.9116 92.2273 38.9571 3.3473 -0.0751 -29.5231
# 3 28.9779 38.9571 44.0390 -1.3164 -4.0424 -2.9617
# 4 -0.4493 3.3473 -1.3164 24.8301 -1.8338 -0.2560
# 5 -30.0660 -0.0751 -4.0424 -1.8338 31.2956 3.4551
# 6 -18.4246 -29.5231 -2.9617 -0.2560 3.4551 39.2151
#
#
#
# Elastic Compliance Matrix: (Units=1/GPa)
#
#
# Indices 1 2 3 4 5 6 
#
# 1 0.013153 -0.012352 0.003344 0.003048 0.013665 -0.004050
# 2 -0.012352 0.038418 -0.026232 -0.007898 -0.018130 0.022684
# 3 0.003344 -0.026232 0.043850 0.006567 0.010942 -0.015787
# 4 0.003048 -0.007898 0.006567 0.042192 0.006708 -0.004334
# 5 0.013665 -0.018130 0.010942 0.006708 0.048013 -0.010589
# 6 -0.004050 0.022684 -0.015787 -0.004334 -0.010589 0.040388
#
#
# Mechanical properties :
#
#
# Convention : Reuss Voigt Hill
#
# Bulk Modulus (GPa) = 40.09098 62.56846 51.32972
# Shear Modulus (GPa) = 16.40383 29.63990 23.02186
#
# Velocity S-wave (km/s) = 2.78310 3.74106 3.29706
# Velocity P-wave (km/s) = 5.40906 6.94296 6.22345
#
# Compressibility (1/GPa) = 0.02494327
#
# Stress axis : x y z
#
# Youngs Moduli (GPa) = 76.02627 26.02968 22.80484
#
# Poissons Ratio (x) = 0.32151 -0.07627
# Poissons Ratio (y) = 0.93904 0.59821
# Poissons Ratio (z) = -0.25425 0.68280
#
# Static dielectric constant tensor:
#      x y z
#    x 4.339160 -0.267770 -0.019930 
#    y -0.267770 3.833390 0.022570 
#    z -0.019930 0.022570 3.696570 
# 
# 
# High freq. dielectric constant tensor:
#      x y z
#    x 1.833970 -0.027860 -0.006990 
#    y -0.027860 1.820490 0.003610 
#    z -0.006990 0.003610 1.816650 
# 
# From -- ./inp_files/186811.got.cif
#   From: 2010.06.25/outbox.cif.g09.slc.cpg/sg2_94_cif.got.tgz:186811.got - 2010.06.27 13:26:56.
