data_PCOD8000043
_publ_section_title
;
Structure prediction by ZEFSAII (Michael W. Deem and Ramdas Pophale) SiO2 
 PCOD8000043
Probable space group: P 1
;
_chemical_formula_sum "Si O2"
_cell_formula_units_Z 8
_cell_length_a 11.449617
_cell_length_b 16.077941
_cell_length_c 14.971285
_cell_angle_alpha 161.913080
_cell_angle_beta 26.765709
_cell_angle_gamma 152.269894
_cell_volume 372.029160
_symmetry_space_group_name_H-M "P 1"
_symmetry_group_IT_number 1
_symmetry_cell_setting 'triclinic'
loop_
_space_group_symop_operation_xyz
x,y,z
loop_
_atom_site_type_symbol
_atom_site_label
_atom_site_fract_x
_atom_site_fract_y
_atom_site_fract_z
Si Si1 0.432930 0.215250 0.171250
Si Si2 0.687889 0.744166 0.445208
Si Si3 0.583404 0.320721 0.808240
Si Si4 0.526915 0.359784 0.447897
Si Si5 0.272178 0.825685 0.168536
Si Si6 0.825071 0.901268 0.308233
Si Si7 0.354821 0.996041 0.477942
Si Si8 0.109368 0.411278 0.138632
O O1 0.468210 0.448984 0.308240
O O2 0.581714 0.375702 0.320949
O O3 0.122451 0.086699 0.275101
O O4 0.574545 0.984424 0.808229
O O5 0.764151 0.794636 0.341342
O O6 0.953186 0.721719 0.295499
O O7 0.627099 0.097324 0.622443
O O8 0.610234 0.191131 0.557863
O O9 0.783577 0.625410 0.994043
O O10 0.274705 0.356353 0.058608
O O11 0.800421 0.391634 0.349863
O O12 0.321139 0.066606 0.308225
O O13 0.385738 0.588136 0.808218
O O14 0.429535 0.937420 0.266539
O O15 0.251760 0.710305 0.308438
O O16 0.125089 0.168052 0.808304
#
# Coordination Sequence:
#
# PCOD8000043 Si02
#       8
#     1   1   1   1   1   1   1   1
#     4  12  26  45  71 105 142 184 227 292 354 407
#     4  12  26  45  71 105 142 184 227 292 354 407
#     4  10  22  42  74  90 136 196 220 286 342 404
#     4  12  24  40  67 106 142 175 228 289 347 420
#     4  12  24  40  67 106 142 175 228 289 347 420
#     4  12  24  46  74 100 142 180 248 270 344 422
#     4  10  20  41  66  95 127 185 224 268 352 398
#     4  10  20  41  66  95 127 185 224 268 352 398
#
# _framework density 21.503691
#
# number of rings (size 3 to 8) (size 9 to 14) (size 15 to 20)
#    0.750    0.000    2.500    6.000    1.750    0.000 
#    0.000    5.000    0.000    0.000    0.000    0.000 
#    0.000    0.000    0.000    0.000    0.000    0.000 
#
# Total GULP energy -99142.079794 kJ/mol
# GULP energy per Si atom -12392.759974 kJ/mol
# Density = 2.145475 g / cm^3
# Si number density = 21.503691 Si / 1000 Ang^3
#
#
#
# Elastic Constant Matrix: (Units=GPa)
#
#
# Indices 1 2 3 4 5 6 
#
# 1 107.2738 58.3830 52.6458 1.6039 2.6794 7.4148
# 2 58.3830 125.9873 65.8880 10.4519 -5.3755 -12.0798
# 3 52.6458 65.8880 195.4714 16.4126 -1.7784 -2.4900
# 4 1.6039 10.4519 16.4126 36.9173 -2.1929 -3.3219
# 5 2.6794 -5.3755 -1.7784 -2.1929 25.9100 -5.7058
# 6 7.4148 -12.0798 -2.4900 -3.3219 -5.7058 13.8089
#
#
#
# Elastic Compliance Matrix: (Units=1/GPa)
#
#
# Indices 1 2 3 4 5 6 
#
# 1 0.016903 -0.009284 -0.001792 0.000312 -0.008375 -0.020906
# 2 -0.009284 0.016115 -0.002524 -0.000504 0.008980 0.022216
# 3 -0.001792 -0.002524 0.006626 -0.002227 -0.000222 -0.000679
# 4 0.000312 -0.000504 -0.002227 0.029118 0.003844 0.007583
# 5 -0.008375 0.008980 -0.000222 0.003844 0.049009 0.033487
# 6 -0.020906 0.022216 -0.000679 0.007583 0.033487 0.118615
#
#
# Mechanical properties :
#
#
# Convention : Reuss Voigt Hill
#
# Bulk Modulus (GPa) = 80.36216 86.95179 83.65698
# Shear Modulus (GPa) = 18.67531 32.11497 25.39514
#
# Velocity S-wave (km/s) = 2.95018 3.86873 3.44025
# Velocity P-wave (km/s) = 7.00408 7.77686 7.40057
#
# Compressibility (1/GPa) = 0.01244367
#
# Stress axis : x y z
#
# Youngs Moduli (GPa) = 59.15939 62.05553 150.92652
#
# Poissons Ratio (x) = 0.57610 0.27046
# Poissons Ratio (y) = 0.54922 0.38100
# Poissons Ratio (z) = 0.10601 0.15665
#
# Static dielectric constant tensor:
#      x y z
#    x 3.961870 0.033770 -0.015700 
#    y 0.033770 3.835870 0.084570 
#    z -0.015700 0.084570 4.169110 
# 
# 
# High freq. dielectric constant tensor:
#      x y z
#    x 1.842500 0.005050 -0.005000 
#    y 0.005050 1.824580 0.023240 
#    z -0.005000 0.023240 1.865910 
# 
# From -- ./inp_files/7273.got.cif
#   From: 2010.03.12/outbox.cif.g09.slc.cpg/sg1_4_cif.got.tgz:7273.got - 2010.03.29 11:57:58.
