data_PCOD8000422
_publ_section_title
;
Structure prediction by ZEFSAII (Michael W. Deem and Ramdas Pophale) SiO2 
 PCOD8000422
Probable space group: P -1
;
_chemical_formula_sum "Si O2"
_cell_formula_units_Z 16
_cell_length_a 10.992981
_cell_length_b 12.854103
_cell_length_c 15.073224
_cell_angle_alpha 117.992415
_cell_angle_beta 44.679876
_cell_angle_gamma 147.981794
_cell_volume 741.353080
_symmetry_space_group_name_H-M "P -1"
_symmetry_group_IT_number 2
_symmetry_cell_setting 'triclinic'
loop_
_space_group_symop_operation_xyz
x,y,z
-x,-y,-z
loop_
_atom_site_type_symbol
_atom_site_label
_atom_site_fract_x
_atom_site_fract_y
_atom_site_fract_z
Si Si1 0.698617 0.173082 0.687340
Si Si2 0.718708 0.356489 0.429487
Si Si3 0.659114 0.985735 0.016689
Si Si4 0.172957 0.213231 0.962346
Si Si5 0.318723 0.111026 0.379700
Si Si6 0.857935 0.630973 0.800064
Si Si7 0.340957 0.743546 0.916010
Si Si8 0.630506 0.959701 0.371662
O O1 0.576848 0.159634 0.836863
O O2 0.712125 0.040144 0.631116
O O3 0.479135 0.105453 0.699417
O O4 0.043660 0.406247 0.577716
O O5 0.485832 0.215546 0.578845
O O6 0.897003 0.336070 0.307528
O O7 0.533965 0.295229 0.414316
O O8 0.685716 0.132857 0.029498
O O9 0.530484 0.827253 0.942610
O O10 0.007421 0.146297 0.927827
O O11 0.539147 0.398177 0.833910
O O12 0.160026 0.322217 0.074231
O O13 0.000000 0.000000 0.000000
O O14 0.472306 0.208588 0.242616
O O15 0.000000 0.000000 0.500000
O O16 0.995870 0.811821 0.735535
O O17 0.000000 0.500000 0.000000
O O18 0.500000 0.000000 0.500000
#
# Coordination Sequence:
#
# PCOD8000422 Si02
#       8
#     2   2   2   2   2   2   2   2
#     4  11  20  40  69  92 127 164 215 260 322 387
#     4  11  22  40  68  89 123 172 209 257 318 384
#     4  10  21  40  64  95 123 162 217 267 304 382
#     4  11  22  38  59  95 132 161 204 260 323 380
#     4  11  24  44  63  93 131 166 215 273 322 379
#     4  10  21  37  60  91 128 166 203 253 315 386
#     4  10  22  43  69  89 120 170 222 263 318 374
#     4  10  19  39  61  93 122 160 209 251 312 391
#
# _framework density 21.582159000000001
#
# number of rings (size 3 to 8) (size 9 to 14) (size 15 to 20)
#    0.000    1.500    3.750    2.625    0.000    2.500 
#    4.500    0.000    0.000    0.000    0.000    0.000 
#    0.000    0.000    0.000    0.000    0.000    0.000 
#
# Total GULP energy -198299.535064 kJ/mol
# GULP energy per Si atom -12393.720942 kJ/mol
# Density = 2.153304 g / cm^3
# Si number density = 21.582159 Si / 1000 Ang^3
#
#
#
# Elastic Constant Matrix: (Units=GPa)
#
#
# Indices 1 2 3 4 5 6 
#
# 1 89.6739 43.4644 48.3285 -7.0168 5.8666 38.6880
# 2 43.4644 123.6108 55.8492 -35.3370 13.2604 28.2904
# 3 48.3285 55.8492 112.0392 -26.5497 13.4261 15.6656
# 4 -7.0168 -35.3370 -26.5497 44.1711 3.7200 -3.0593
# 5 5.8666 13.2604 13.4261 3.7200 38.3405 -2.1790
# 6 38.6880 28.2904 15.6656 -3.0593 -2.1790 36.5028
#
#
#
# Elastic Compliance Matrix: (Units=1/GPa)
#
#
# Indices 1 2 3 4 5 6 
#
# 1 0.026033 -0.000561 -0.007935 -0.002572 -0.002130 -0.024094
# 2 -0.000561 0.015337 -0.002969 0.010219 -0.005711 -0.009502
# 3 -0.007935 -0.002969 0.015006 0.005981 -0.003334 0.004573
# 4 -0.002572 0.010219 0.005981 0.034374 -0.008878 -0.005410
# 5 -0.002130 -0.005711 -0.003334 -0.008878 0.030936 0.009217
# 6 -0.024094 -0.009502 0.004573 -0.005410 0.009217 0.058430
#
#
# Mechanical properties :
#
#
# Convention : Reuss Voigt Hill
#
# Bulk Modulus (GPa) = 29.89896 68.95645 49.42770
# Shear Modulus (GPa) = 23.34334 35.64833 29.49584
#
# Velocity S-wave (km/s) = 3.29234 4.06858 3.70087
# Velocity P-wave (km/s) = 5.32319 7.35467 6.41979
#
# Compressibility (1/GPa) = 0.03344598
#
# Stress axis : x y z
#
# Youngs Moduli (GPa) = 38.41312 65.20056 66.64202
#
# Poissons Ratio (x) = 0.03659 0.52881
# Poissons Ratio (y) = 0.02156 0.19784
# Poissons Ratio (z) = 0.30481 0.19356
#
# Static dielectric constant tensor:
#      x y z
#    x 4.023310 0.252610 0.334390 
#    y 0.252610 4.354050 -0.268610 
#    z 0.334390 -0.268610 4.348950 
# 
# 
# High freq. dielectric constant tensor:
#      x y z
#    x 1.828470 0.009580 0.011480 
#    y 0.009580 1.862040 -0.011370 
#    z 0.011480 -0.011370 1.847570 
# 
# From -- ./inp_files/521617.got.cif
#   From: 2010.06.25/outbox.cif.g09.slc.cpg/sg2_261_cif.got.tgz:521617.got - 2010.06.27 13:26:56.
