data_PCOD8000120
_publ_section_title
;
Structure prediction by ZEFSAII (Michael W. Deem and Ramdas Pophale) SiO2 
 PCOD8000120
Probable space group: P 1
;
_chemical_formula_sum "Si O2"
_cell_formula_units_Z 8
_cell_length_a 14.885508
_cell_length_b 14.110746
_cell_length_c 11.067663
_cell_angle_alpha 147.624002
_cell_angle_beta 151.576895
_cell_angle_gamma 20.089233
_cell_volume 377.600887
_symmetry_space_group_name_H-M "P 1"
_symmetry_group_IT_number 1
_symmetry_cell_setting 'triclinic'
loop_
_space_group_symop_operation_xyz
x,y,z
loop_
_atom_site_type_symbol
_atom_site_label
_atom_site_fract_x
_atom_site_fract_y
_atom_site_fract_z
Si Si1 0.018460 0.567770 0.600610
Si Si2 0.378859 0.525553 0.809374
Si Si3 0.488351 0.808559 0.593638
Si Si4 0.652363 0.749291 0.988588
Si Si5 0.485895 0.785716 0.080226
Si Si6 0.807090 0.261065 0.251269
Si Si7 0.321502 0.248176 0.279757
Si Si8 0.631341 0.017685 0.830055
O O1 0.087780 0.671101 0.694802
O O2 0.316469 0.244775 0.634344
O O3 0.791764 0.590882 0.303881
O O4 0.887515 0.753805 0.764452
O O5 0.460935 0.319712 0.584323
O O6 0.303904 0.762719 0.906844
O O7 0.655562 0.350054 0.037314
O O8 0.502810 0.782783 0.727053
O O9 0.699348 0.512846 0.463099
O O10 0.605199 0.918108 0.811745
O O11 0.156554 0.017531 0.380228
O O12 0.564640 0.678365 0.917967
O O13 0.001602 0.515716 0.133151
O O14 0.530395 0.033644 0.185203
O O15 0.303300 0.103371 0.203877
O O16 0.724137 0.150975 0.117425
#
# Coordination Sequence:
#
# PCOD8000120 Si02
#       8
#     1   1   1   1   1   1   1   1
#     4  11  22  40  65  99 135 153 216 265 314 399
#     4  11  21  43  68 100 128 164 204 273 331 369
#     4  12  24  47  64  91 134 172 213 259 312 376
#     4  10  24  45  63  90 133 170 215 259 299 385
#     4  10  22  41  64  96 126 173 200 262 326 364
#     4  11  25  40  67  99 125 165 216 264 314 386
#     4  10  22  44  60  97 130 160 216 262 304 385
#     4  11  24  42  65  96 127 173 204 266 326 362
#
# _framework density 21.186391
#
# number of rings (size 3 to 8) (size 9 to 14) (size 15 to 20)
#    0.750    0.500    1.250    6.000    0.000    1.000 
#   15.750    0.000    0.000    0.000    0.000    0.000 
#    0.000    0.000    0.000    0.000    0.000    0.000 
#
# Total GULP energy -99178.153192 kJ/mol
# GULP energy per Si atom -12397.269149 kJ/mol
# Density = 2.113817 g / cm^3
# Si number density = 21.186391 Si / 1000 Ang^3
#
#
#
# Elastic Constant Matrix: (Units=GPa)
#
#
# Indices 1 2 3 4 5 6 
#
# 1 77.8878 12.5393 42.5561 3.8078 20.6052 6.8168
# 2 12.5393 79.2839 18.1384 3.9344 0.1889 -10.7224
# 3 42.5561 18.1384 93.5086 6.7506 7.0177 15.1987
# 4 3.8078 3.9344 6.7506 21.2360 4.4025 5.5607
# 5 20.6052 0.1889 7.0177 4.4025 43.4956 5.0232
# 6 6.8168 -10.7224 15.1987 5.5607 5.0232 21.1588
#
#
#
# Elastic Compliance Matrix: (Units=1/GPa)
#
#
# Indices 1 2 3 4 5 6 
#
# 1 0.019573 -0.001120 -0.008267 0.000802 -0.008105 0.000778
# 2 -0.001120 0.015692 -0.004250 -0.004678 0.000172 0.012554
# 3 -0.008267 -0.004250 0.017115 -0.000503 0.002642 -0.012279
# 4 0.000802 -0.004678 -0.000503 0.052758 -0.003861 -0.015216
# 5 -0.008105 0.000172 0.002642 -0.003861 0.027334 -0.004674
# 6 0.000778 0.012554 -0.012279 -0.015216 -0.004674 0.067302
#
#
# Mechanical properties :
#
#
# Convention : Reuss Voigt Hill
#
# Bulk Modulus (GPa) = 39.82982 44.12757 41.97869
# Shear Modulus (GPa) = 21.23919 29.00785 25.12352
#
# Velocity S-wave (km/s) = 3.16965 3.70425 3.44733
# Velocity P-wave (km/s) = 5.67769 6.25849 5.97515
#
# Compressibility (1/GPa) = 0.02510682
#
# Stress axis : x y z
#
# Youngs Moduli (GPa) = 51.09169 63.72718 58.42952
#
# Poissons Ratio (x) = 0.07135 0.48301
# Poissons Ratio (y) = 0.05720 0.24833
# Poissons Ratio (z) = 0.42235 0.27084
#
# Static dielectric constant tensor:
#      x y z
#    x 3.759170 0.023350 0.113190 
#    y 0.023350 3.788340 0.070760 
#    z 0.113190 0.070760 3.723830 
# 
# 
# High freq. dielectric constant tensor:
#      x y z
#    x 1.816860 -0.003650 0.001990 
#    y -0.003650 1.836870 0.004010 
#    z 0.001990 0.004010 1.820310 
# 
# From -- ./inp_files/6855.got.cif
#   From: 2010.03.12/outbox.cif.g09.slc.cpg/sg1_4_cif.got.tgz:6855.got - 2010.03.29 11:57:58.
