data_PCOD8000570
_publ_section_title
;
Structure prediction by ZEFSAII (Michael W. Deem and Ramdas Pophale) SiO2 
 PCOD8000570
Probable space group: P -1
;
_chemical_formula_sum "Si O2"
_cell_formula_units_Z 16
_cell_length_a 10.891696
_cell_length_b 17.553141
_cell_length_c 8.215838
_cell_angle_alpha 48.356966
_cell_angle_beta 73.192302
_cell_angle_gamma 40.463294
_cell_volume 681.716812
_symmetry_space_group_name_H-M "P -1"
_symmetry_group_IT_number 2
_symmetry_cell_setting 'triclinic'
loop_
_space_group_symop_operation_xyz
x,y,z
-x,-y,-z
loop_
_atom_site_type_symbol
_atom_site_label
_atom_site_fract_x
_atom_site_fract_y
_atom_site_fract_z
Si Si1 0.880965 0.983332 0.148155
Si Si2 0.064824 0.328288 0.146572
Si Si3 0.670272 0.810560 0.257350
Si Si4 0.974828 0.873622 0.632414
Si Si5 0.326416 0.302675 0.264599
Si Si6 0.457794 0.302769 0.690897
Si Si7 0.939435 0.343436 0.531848
Si Si8 0.662842 0.216494 0.394896
O O1 0.896102 0.968759 0.356681
O O2 0.635318 0.150864 0.962079
O O3 0.000535 0.812199 0.267132
O O4 0.000000 0.000000 0.000000
O O5 0.976130 0.365766 0.307873
O O6 0.082540 0.210182 0.211833
O O7 0.284495 0.256143 0.186425
O O8 0.895491 0.505754 0.867855
O O9 0.590790 0.823243 0.446383
O O10 0.680962 0.709805 0.272522
O O11 0.907065 0.703844 0.325458
O O12 0.500000 0.000000 0.000000
O O13 0.225855 0.743424 0.741559
O O14 0.847276 0.013780 0.622637
O O15 0.500647 0.284146 0.214977
O O16 0.305264 0.483825 0.572749
O O17 0.551990 0.292489 0.504720
#
# Coordination Sequence:
#
# PCOD8000570 Si02
#       8
#     2   2   2   2   2   2   2   2
#     4  11  22  41  64  91 126 167 216 261 311 378
#     4   9  20  41  60  90 123 163 209 262 314 375
#     4  10  19  39  64  93 128 164 205 259 321 381
#     4  10  22  41  63  86 126 169 211 260 316 377
#     4   9  20  38  61  89 125 156 212 259 310 379
#     4  11  22  40  64  95 126 165 211 262 318 378
#     4  10  22  39  66  94 127 164 211 263 316 377
#     4  10  22  41  59  90 124 165 211 257 316 376
#
# _framework density 23.470154000000001
#
# number of rings (size 3 to 8) (size 9 to 14) (size 15 to 20)
#    0.000    2.000    2.500    0.375    1.750    1.500 
#    4.500    6.250    0.000    0.000    0.000    0.000 
#    0.000    0.000    0.000    0.000    0.000    0.000 
#
# Total GULP energy -198249.994345 kJ/mol
# GULP energy per Si atom -12390.624647 kJ/mol
# Density = 2.341673 g / cm^3
# Si number density = 23.470154 Si / 1000 Ang^3
#
#
#
# Elastic Constant Matrix: (Units=GPa)
#
#
# Indices 1 2 3 4 5 6 
#
# 1 149.0453 11.0681 29.8006 -15.3860 20.3483 12.5627
# 2 11.0681 76.5992 11.8856 -29.6452 7.9883 -0.3939
# 3 29.8006 11.8856 100.1792 -25.9920 6.7862 -0.6137
# 4 -15.3860 -29.6452 -25.9920 29.8323 -0.2707 -0.8205
# 5 20.3483 7.9883 6.7862 -0.2707 30.9027 -3.9027
# 6 12.5627 -0.3939 -0.6137 -0.8205 -3.9027 15.9597
#
#
#
# Elastic Compliance Matrix: (Units=1/GPa)
#
#
# Indices 1 2 3 4 5 6 
#
# 1 0.009023 0.001390 -0.001207 0.004682 -0.007081 -0.008605
# 2 0.001390 0.024014 0.004687 0.028569 -0.008004 -0.000810
# 3 -0.001207 0.004687 0.014295 0.016507 -0.003199 0.001682
# 4 0.004682 0.028569 0.016507 0.078539 -0.013611 -0.001636
# 5 -0.007081 -0.008004 -0.003199 -0.013611 0.041532 0.014710
# 6 -0.008605 -0.000810 0.001682 -0.001636 0.014710 0.072989
#
#
# Mechanical properties :
#
#
# Convention : Reuss Voigt Hill
#
# Bulk Modulus (GPa) = 17.52194 47.92580 32.72387
# Shear Modulus (GPa) = 20.02588 33.54358 26.78473
#
# Velocity S-wave (km/s) = 2.92421 3.78458 3.38187
# Velocity P-wave (km/s) = 4.34548 6.28980 5.40577
#
# Compressibility (1/GPa) = 0.05707130
#
# Stress axis : x y z
#
# Youngs Moduli (GPa) = 110.82861 41.64206 69.95452
#
# Poissons Ratio (x) = -0.05787 0.08445
# Poissons Ratio (y) = -0.15402 -0.32789
# Poissons Ratio (z) = 0.13380 -0.19518
#
# Static dielectric constant tensor:
#      x y z
#    x 5.216160 0.174210 0.891500 
#    y 0.174210 3.926110 0.079600 
#    z 0.891500 0.079600 5.457940 
# 
# 
# High freq. dielectric constant tensor:
#      x y z
#    x 1.950250 0.006070 0.010100 
#    y 0.006070 1.899790 -0.007460 
#    z 0.010100 -0.007460 1.920590 
# 
# From -- ./inp_files/279021.got.cif
#   From: 2010.06.25/outbox.cif.g09.slc.cpg/sg2_140_cif.got.tgz:279021.got - 2010.06.27 13:26:56.
