data_PCOD8000856
_publ_section_title
;
Structure prediction by ZEFSAII (Michael W. Deem and Ramdas Pophale) SiO2 
 PCOD8000856
Probable space group: P -1
;
_chemical_formula_sum "Si O2"
_cell_formula_units_Z 16
_cell_length_a 13.826648
_cell_length_b 11.833679
_cell_length_c 20.493302
_cell_angle_alpha 149.468802
_cell_angle_beta 31.215944
_cell_angle_gamma 148.235460
_cell_volume 796.454741
_symmetry_space_group_name_H-M "P -1"
_symmetry_group_IT_number 2
_symmetry_cell_setting 'triclinic'
loop_
_space_group_symop_operation_xyz
x,y,z
-x,-y,-z
loop_
_atom_site_type_symbol
_atom_site_label
_atom_site_fract_x
_atom_site_fract_y
_atom_site_fract_z
Si Si1 0.272618 0.885985 0.869477
Si Si2 0.259901 0.212108 0.347413
Si Si3 0.115135 0.564688 0.676411
Si Si4 0.280580 0.452150 0.903803
Si Si5 0.991283 0.093642 0.181777
Si Si6 0.263522 0.216443 0.206778
Si Si7 0.289093 0.725708 0.913778
Si Si8 0.256658 0.770067 0.194899
O O1 0.247854 0.725823 0.740312
O O2 0.173487 0.701240 0.898103
O O3 0.510877 0.071060 0.835047
O O4 0.143093 0.048420 0.019784
O O5 0.239979 0.417696 0.505729
O O6 0.150710 0.192898 0.330281
O O7 0.498416 0.285996 0.232132
O O8 0.161697 0.950278 0.311010
O O9 0.105715 0.740359 0.712232
O O10 0.882902 0.377950 0.737494
O O11 0.523987 0.537527 0.796002
O O12 0.178049 0.519953 0.931875
O O13 0.191896 0.161455 0.817326
O O14 0.241995 0.572575 0.051064
O O15 0.115136 0.229593 0.242519
O O16 0.330489 0.992873 0.050512
#
# Coordination Sequence:
#
# PCOD8000856 Si02
#       8
#     2   2   2   2   2   2   2   2
#     4  10  22  38  59  88 115 151 195 240 283 335
#     4  10  20  40  63  85 118 149 188 244 294 340
#     4  12  26  39  53  85 130 158 185 226 284 362
#     4  11  18  36  65  91 111 139 196 253 286 327
#     4  11  24  37  57  90 116 156 195 231 282 342
#     4  10  19  40  64  88 112 145 197 249 284 326
#     4   9  18  36  65  90 106 142 195 249 292 318
#     4  11  21  38  64  87 110 152 196 240 292 332
#
# _framework density 20.089026
#
# number of rings (size 3 to 8) (size 9 to 14) (size 15 to 20)
#    0.000    1.500    6.250    1.500    0.000    7.000 
#    0.000    5.000    0.000    0.000    0.000    0.000 
#    0.000    0.000    0.000    0.000    0.000    0.000 
#
# Total GULP energy -198364.027636 kJ/mol
# GULP energy per Si atom -12397.751727 kJ/mol
# Density = 2.004330 g / cm^3
# Si number density = 20.089026 Si / 1000 Ang^3
#
#
#
# Elastic Constant Matrix: (Units=GPa)
#
#
# Indices 1 2 3 4 5 6 
#
# 1 92.8950 26.2687 11.2663 10.7380 5.7331 -6.0443
# 2 26.2687 75.1766 9.5165 6.0487 -9.8147 -17.8615
# 3 11.2663 9.5165 27.8023 0.3014 1.7515 -0.0752
# 4 10.7380 6.0487 0.3014 15.0695 -2.0815 2.9937
# 5 5.7331 -9.8147 1.7515 -2.0815 20.1178 5.2292
# 6 -6.0443 -17.8615 -0.0752 2.9937 5.2292 28.7855
#
#
#
# Elastic Compliance Matrix: (Units=1/GPa)
#
#
# Indices 1 2 3 4 5 6 
#
# 1 0.014143 -0.003930 -0.003803 -0.010026 -0.007410 0.002910
# 2 -0.003930 0.019290 -0.005405 -0.005822 0.007713 0.010335
# 3 -0.003803 -0.005405 0.039524 0.004367 -0.003539 -0.003860
# 4 -0.010026 -0.005822 0.004367 0.080684 0.012226 -0.016319
# 5 -0.007410 0.007713 -0.003539 0.012226 0.059456 -0.008852
# 6 0.002910 0.010335 -0.003860 -0.016319 -0.008852 0.045059
#
#
# Mechanical properties :
#
#
# Convention : Reuss Voigt Hill
#
# Bulk Modulus (GPa) = 21.42137 32.21968 26.82053
# Shear Modulus (GPa) = 16.66710 22.71604 19.69157
#
# Velocity S-wave (km/s) = 2.88351 3.36634 3.13424
# Velocity P-wave (km/s) = 4.66611 5.58417 5.14565
#
# Compressibility (1/GPa) = 0.04668235
#
# Stress axis : x y z
#
# Youngs Moduli (GPa) = 70.70670 51.83937 25.30078
#
# Poissons Ratio (x) = 0.20372 0.09621
# Poissons Ratio (y) = 0.27787 0.13676
# Poissons Ratio (z) = 0.26887 0.28021
#
# Static dielectric constant tensor:
#      x y z
#    x 3.894760 -0.187640 0.190450 
#    y -0.187640 3.647250 -0.049300 
#    z 0.190450 -0.049300 3.388460 
# 
# 
# High freq. dielectric constant tensor:
#      x y z
#    x 1.792200 -0.005740 0.011770 
#    y -0.005740 1.782210 -0.004990 
#    z 0.011770 -0.004990 1.759870 
# 
# From -- ./inp_files/268992.got.cif
#   From: 2010.06.25/outbox.cif.g09.slc.cpg/sg2_135_cif.got.tgz:268992.got - 2010.06.27 13:26:56.
