data_PCOD8000642
_publ_section_title
;
Structure prediction by ZEFSAII (Michael W. Deem and Ramdas Pophale) SiO2 
 PCOD8000642
Probable space group: P -1
;
_chemical_formula_sum "Si O2"
_cell_formula_units_Z 16
_cell_length_a 14.740345
_cell_length_b 9.260301
_cell_length_c 12.321472
_cell_angle_alpha 140.690971
_cell_angle_beta 135.311196
_cell_angle_gamma 48.954673
_cell_volume 727.547138
_symmetry_space_group_name_H-M "P -1"
_symmetry_group_IT_number 2
_symmetry_cell_setting 'triclinic'
loop_
_space_group_symop_operation_xyz
x,y,z
-x,-y,-z
loop_
_atom_site_type_symbol
_atom_site_label
_atom_site_fract_x
_atom_site_fract_y
_atom_site_fract_z
Si Si1 0.305963 0.168091 0.512325
Si Si2 0.917681 0.806424 0.829991
Si Si3 0.520440 0.795482 0.816200
Si Si4 0.498292 0.307762 0.606334
Si Si5 0.117007 0.712999 0.271403
Si Si6 0.711901 0.735788 0.763954
Si Si7 0.732265 0.922184 0.338101
Si Si8 0.888574 0.573332 0.104063
O O1 0.162766 0.231862 0.368609
O O2 0.403696 0.326202 0.642708
O O3 0.293138 0.222328 0.661381
O O4 0.366286 0.890673 0.377938
O O5 0.813269 0.881687 0.886310
O O6 0.019204 0.559104 0.797722
O O7 0.000000 0.000000 0.000000
O O8 0.531430 0.552384 0.746799
O O9 0.661046 0.797925 0.879361
O O10 0.394442 0.859468 0.664623
O O11 0.500000 0.000000 0.000000
O O12 0.420612 0.217760 0.391382
O O13 0.210987 0.536914 0.332580
O O14 0.963701 0.726596 0.180290
O O15 0.143843 0.968417 0.460231
O O16 0.149340 0.621555 0.121346
O O17 0.764022 0.748417 0.159811
#
# Coordination Sequence:
#
# PCOD8000642 Si02
#       8
#     2   2   2   2   2   2   2   2
#     4  10  22  38  68  91 125 177 215 257 325 391
#     4  10  22  41  63  91 128 172 217 264 318 386
#     4  12  24  38  62 101 131 160 213 278 329 385
#     4  10  20  42  65  92 128 168 215 259 324 396
#     4  10  20  39  65  91 129 172 211 273 319 378
#     4  10  19  39  66  90 121 168 215 257 322 390
#     4  12  22  39  65  97 130 167 216 267 332 381
#     4  10  23  39  61  97 130 169 225 262 319 385
#
# _framework density 21.991703000000001
#
# number of rings (size 3 to 8) (size 9 to 14) (size 15 to 20)
#    0.000    1.500    2.500    3.000    0.000    1.500 
#    2.250    1.875    0.000    0.000    0.000    0.000 
#    0.000    0.000    0.000    0.000    0.000    0.000 
#
# Total GULP energy -198321.656714 kJ/mol
# GULP energy per Si atom -12395.103545 kJ/mol
# Density = 2.194165 g / cm^3
# Si number density = 21.991703 Si / 1000 Ang^3
#
#
#
# Elastic Constant Matrix: (Units=GPa)
#
#
# Indices 1 2 3 4 5 6 
#
# 1 158.3805 24.2727 40.3793 23.0889 -4.5854 21.3330
# 2 24.2727 87.9037 2.3670 -2.9973 0.3230 9.1655
# 3 40.3793 2.3670 57.8114 11.4652 -0.8837 13.7399
# 4 23.0889 -2.9973 11.4652 26.6502 0.3422 -0.9444
# 5 -4.5854 0.3230 -0.8837 0.3422 33.1501 -3.3604
# 6 21.3330 9.1655 13.7399 -0.9444 -3.3604 36.2999
#
#
#
# Elastic Compliance Matrix: (Units=1/GPa)
#
#
# Indices 1 2 3 4 5 6 
#
# 1 0.009160 -0.002298 -0.004217 -0.006508 0.000910 -0.003292
# 2 -0.002298 0.012305 0.001030 0.002864 -0.000656 -0.002133
# 3 -0.004217 0.001030 0.023057 -0.006381 -0.000595 -0.006730
# 4 -0.006508 0.002864 -0.006381 0.046476 -0.000905 0.006642
# 5 0.000910 -0.000656 -0.000595 -0.000905 0.030561 0.002661
# 6 -0.003292 -0.002133 -0.006730 0.006642 0.002661 0.032988
#
#
# Mechanical properties :
#
#
# Convention : Reuss Voigt Hill
#
# Bulk Modulus (GPa) = 29.80403 48.68151 39.24277
# Shear Modulus (GPa) = 28.29651 35.02515 31.66083
#
# Velocity S-wave (km/s) = 3.59094 3.99514 3.79842
# Velocity P-wave (km/s) = 5.54752 6.59286 6.09265
#
# Compressibility (1/GPa) = 0.03355251
#
# Stress axis : x y z
#
# Youngs Moduli (GPa) = 109.17479 81.26596 43.37156
#
# Poissons Ratio (x) = 0.18673 0.18288
# Poissons Ratio (y) = 0.25085 -0.04467
# Poissons Ratio (z) = 0.46034 -0.08369
#
# Static dielectric constant tensor:
#      x y z
#    x 4.424770 -0.026880 0.160170 
#    y -0.026880 4.068800 -0.493290 
#    z 0.160170 -0.493290 3.546090 
# 
# 
# High freq. dielectric constant tensor:
#      x y z
#    x 1.880980 0.005650 0.009310 
#    y 0.005650 1.869320 -0.028000 
#    z 0.009310 -0.028000 1.826700 
# 
# From -- ./inp_files/271990.got.cif
#   From: 2010.06.25/outbox.cif.g09.slc.cpg/sg2_136_cif.got.tgz:271990.got - 2010.06.27 13:26:56.
