data_PCOD8000165
_publ_section_title
;
Structure prediction by ZEFSAII (Michael W. Deem and Ramdas Pophale) SiO2 
 PCOD8000165
Probable space group: P 1
;
_chemical_formula_sum "Si O2"
_cell_formula_units_Z 8
_cell_length_a 12.460518
_cell_length_b 15.354152
_cell_length_c 8.986117
_cell_angle_alpha 152.668952
_cell_angle_beta 144.995992
_cell_angle_gamma 29.202799
_cell_volume 377.742156
_symmetry_space_group_name_H-M "P 1"
_symmetry_group_IT_number 1
_symmetry_cell_setting 'triclinic'
loop_
_space_group_symop_operation_xyz
x,y,z
loop_
_atom_site_type_symbol
_atom_site_label
_atom_site_fract_x
_atom_site_fract_y
_atom_site_fract_z
Si Si1 0.731550 0.517650 0.417690
Si Si2 0.919339 0.359670 0.715743
Si Si3 0.338475 0.145688 0.310237
Si Si4 0.409002 0.017030 0.850700
Si Si5 0.828111 0.803015 0.444961
Si Si6 0.809121 0.068190 0.320608
Si Si7 0.938244 0.094615 0.840178
Si Si8 0.015922 0.645069 0.743148
O O1 0.852991 0.407303 0.542554
O O2 0.873641 0.581479 0.580494
O O3 0.491305 0.751853 0.526424
O O4 0.727693 0.324038 0.025476
O O5 0.769429 0.284091 0.512711
O O6 0.180996 0.162660 0.721930
O O7 0.873649 0.581435 0.080309
O O8 0.256210 0.410840 0.634599
O O9 0.566420 0.000011 0.438932
O O10 0.373829 0.081373 0.080590
O O11 0.162216 0.095212 0.102519
O O12 0.585152 0.067585 0.058302
O O13 0.894730 0.755081 0.617941
O O14 0.977901 0.878719 0.648025
O O15 0.873727 0.081410 0.580442
O O16 0.019674 0.838804 0.135339
#
# Coordination Sequence:
#
# PCOD8000165 Si02
#       8
#     1   1   1   1   1   1   1   1
#     4  10  23  43  65  95 131 165 214 265 311 380
#     4  12  23  42  68  94 131 168 211 264 317 377
#     4  11  22  44  67  94 129 168 210 264 321 373
#     4  11  22  44  67  94 129 168 210 264 321 373
#     4  12  23  42  68  94 131 168 211 264 317 377
#     4  11  23  42  66  95 130 169 212 262 316 377
#     4  11  23  42  66  95 130 169 212 262 316 377
#     4  10  23  43  65  95 131 165 214 265 311 380
#
# _framework density 21.178469
#
# number of rings (size 3 to 8) (size 9 to 14) (size 15 to 20)
#    0.000    1.000    5.000    2.250    0.000    6.000 
#    0.000    0.000    0.000    0.000    0.000    0.000 
#    0.000    0.000    0.000    0.000    0.000    0.000 
#
# Total GULP energy -99186.164157 kJ/mol
# GULP energy per Si atom -12398.270520 kJ/mol
# Density = 2.113027 g / cm^3
# Si number density = 21.178469 Si / 1000 Ang^3
#
#
#
# Elastic Constant Matrix: (Units=GPa)
#
#
# Indices 1 2 3 4 5 6 
#
# 1 136.6499 57.3530 57.1803 8.8210 -0.7483 25.5810
# 2 57.3530 167.8183 55.1855 12.7394 -14.0986 8.1894
# 3 57.1803 55.1855 143.0340 34.2182 -25.0044 7.4130
# 4 8.8210 12.7394 34.2182 41.9244 -3.7781 -3.5885
# 5 -0.7483 -14.0986 -25.0044 -3.7781 54.8840 -2.2052
# 6 25.5810 8.1894 7.4130 -3.5885 -2.2052 45.6308
#
#
#
# Elastic Compliance Matrix: (Units=1/GPa)
#
#
# Indices 1 2 3 4 5 6 
#
# 1 0.010786 -0.002482 -0.003707 0.000869 -0.002322 -0.005043
# 2 -0.002482 0.007443 -0.001635 -0.000273 0.001129 0.000355
# 3 -0.003707 -0.001635 0.011756 -0.007923 0.004342 0.000048
# 4 0.000869 -0.000273 -0.007923 0.030359 -0.001451 0.003166
# 5 -0.002322 0.001129 0.004342 -0.001451 0.020408 0.001266
# 6 -0.005043 0.000355 0.000048 0.003166 0.001266 0.024981
#
#
# Mechanical properties :
#
#
# Convention : Reuss Voigt Hill
#
# Bulk Modulus (GPa) = 69.75102 87.43773 78.59437
# Shear Modulus (GPa) = 39.63214 47.00673 43.31943
#
# Velocity S-wave (km/s) = 4.33059 4.71632 4.52757
# Velocity P-wave (km/s) = 7.61654 8.42817 8.03262
#
# Compressibility (1/GPa) = 0.01433671
#
# Stress axis : x y z
#
# Youngs Moduli (GPa) = 92.71205 134.35264 85.06296
#
# Poissons Ratio (x) = 0.33350 0.31531
# Poissons Ratio (y) = 0.23014 0.13909
# Poissons Ratio (z) = 0.34366 0.21969
#
# Static dielectric constant tensor:
#      x y z
#    x 5.034350 0.202570 0.333550 
#    y 0.202570 4.160570 0.668650 
#    z 0.333550 0.668650 4.677270 
# 
# 
# High freq. dielectric constant tensor:
#      x y z
#    x 1.846130 0.005960 -0.005940 
#    y 0.005960 1.821590 0.020000 
#    z -0.005940 0.020000 1.847940 
# 
# From -- ./inp_files/4092.got.cif
#   From: 2010.03.12/outbox.cif.g09.slc.cpg/sg1_3_cif.got.tgz:4092.got - 2010.03.29 11:57:58.
