data_PCOD8000510
_publ_section_title
;
Structure prediction by ZEFSAII (Michael W. Deem and Ramdas Pophale) SiO2 
 PCOD8000510
Probable space group: P -1
;
_chemical_formula_sum "Si O2"
_cell_formula_units_Z 16
_cell_length_a 17.281622
_cell_length_b 10.586780
_cell_length_c 10.158705
_cell_angle_alpha 121.414085
_cell_angle_beta 60.610857
_cell_angle_gamma 148.898753
_cell_volume 815.167381
_symmetry_space_group_name_H-M "P -1"
_symmetry_group_IT_number 2
_symmetry_cell_setting 'triclinic'
loop_
_space_group_symop_operation_xyz
x,y,z
-x,-y,-z
loop_
_atom_site_type_symbol
_atom_site_label
_atom_site_fract_x
_atom_site_fract_y
_atom_site_fract_z
Si Si1 0.164708 0.657551 0.932102
Si Si2 0.819744 0.754540 0.658239
Si Si3 0.408771 0.635523 0.850173
Si Si4 0.329544 0.822374 0.151691
Si Si5 0.303760 0.707042 0.384629
Si Si6 0.853240 0.700928 0.307363
Si Si7 0.376092 0.002387 0.714824
Si Si8 0.520937 0.498988 0.830473
O O1 0.158370 0.490430 0.777791
O O2 0.275422 0.899236 0.873993
O O3 0.227465 0.739268 0.071774
O O4 0.000000 0.500000 0.000000
O O5 0.792501 0.568445 0.659962
O O6 0.811202 0.716188 0.489147
O O7 0.696823 0.713659 0.770266
O O8 0.978434 0.028265 0.725881
O O9 0.260792 0.393872 0.759737
O O10 0.463085 0.557421 0.826000
O O11 0.532687 0.876940 0.782481
O O12 0.380620 0.720857 0.032031
O O13 0.243328 0.704273 0.299636
O O14 0.479535 0.904226 0.320009
O O15 0.278858 0.785853 0.568662
O O16 0.427503 0.225116 0.725879
O O17 0.500000 0.500000 0.000000
#
# Coordination Sequence:
#
# PCOD8000510 Si02
#       8
#     2   2   2   2   2   2   2   2
#     4  11  23  41  63  89 121 166 204 252 300 372
#     4  10  22  40  63  87 127 165 199 250 308 367
#     4  10  21  39  62  90 123 157 208 253 297 370
#     4  10  21  38  64  88 120 160 205 252 306 355
#     4  10  19  39  63  90 117 157 205 251 298 370
#     4  10  22  41  62  88 122 170 202 240 314 371
#     4  10  21  37  64  87 120 160 202 247 308 358
#     4  11  23  38  62  93 121 156 205 262 300 352
#
# _framework density 19.627869
#
# number of rings (size 3 to 8) (size 9 to 14) (size 15 to 20)
#    0.000    1.750    1.250    4.500    7.000    0.500 
#    2.250    2.500    0.000    0.000    0.000    0.000 
#    0.000    0.000    0.000    0.000    0.000    0.000 
#
# Total GULP energy -198404.144192 kJ/mol
# GULP energy per Si atom -12400.259012 kJ/mol
# Density = 1.958320 g / cm^3
# Si number density = 19.627869 Si / 1000 Ang^3
#
#
#
# Elastic Constant Matrix: (Units=GPa)
#
#
# Indices 1 2 3 4 5 6 
#
# 1 122.0439 64.4348 57.8428 -2.4678 7.5454 -0.5839
# 2 64.4348 115.5907 37.1475 -4.8052 13.7694 8.5910
# 3 57.8428 37.1475 80.7826 -10.0912 14.9893 5.8732
# 4 -2.4678 -4.8052 -10.0912 34.9806 0.5192 -0.5998
# 5 7.5454 13.7694 14.9893 0.5192 28.6701 -5.9297
# 6 -0.5839 8.5910 5.8732 -0.5998 -5.9297 30.7791
#
#
#
# Elastic Compliance Matrix: (Units=1/GPa)
#
#
# Indices 1 2 3 4 5 6 
#
# 1 0.016380 -0.006996 -0.010266 -0.002760 0.005550 0.005238
# 2 -0.006996 0.013566 0.000444 0.001499 -0.005994 -0.005130
# 3 -0.010266 0.000444 0.022776 0.005955 -0.010902 -0.006649
# 4 -0.002760 0.001499 0.005955 0.030345 -0.004027 -0.001792
# 5 0.005550 -0.005994 -0.010902 -0.004027 0.044630 0.012378
# 6 0.005238 -0.005130 -0.006649 -0.001792 0.012378 0.037639
#
#
# Mechanical properties :
#
#
# Convention : Reuss Voigt Hill
#
# Bulk Modulus (GPa) = 52.40094 70.80748 61.60421
# Shear Modulus (GPa) = 24.35028 29.48545 26.91786
#
# Velocity S-wave (km/s) = 3.52603 3.88006 3.70727
# Velocity P-wave (km/s) = 6.58273 7.49843 7.05545
#
# Compressibility (1/GPa) = 0.01908363
#
# Stress axis : x y z
#
# Youngs Moduli (GPa) = 61.05189 73.71186 43.90580
#
# Poissons Ratio (x) = 0.51572 0.45075
# Poissons Ratio (y) = 0.42715 -0.01948
# Poissons Ratio (z) = 0.62678 -0.03270
#
# Static dielectric constant tensor:
#      x y z
#    x 3.402930 -0.084120 -0.042670 
#    y -0.084120 3.792230 0.056080 
#    z -0.042670 0.056080 3.574060 
# 
# 
# High freq. dielectric constant tensor:
#      x y z
#    x 1.745940 -0.009730 0.006430 
#    y -0.009730 1.772950 0.003660 
#    z 0.006430 0.003660 1.769600 
# 
# From -- ./inp_files/299145.got.cif
#   From: 2010.06.25/outbox.cif.g09.slc.cpg/sg2_150_cif.got.tgz:299145.got - 2010.06.27 13:26:56.
