data_PCOD8000325
_publ_section_title
;
Structure prediction by ZEFSAII (Michael W. Deem and Ramdas Pophale) SiO2 
 PCOD8000325
Probable space group: P -1
;
_chemical_formula_sum "Si O2"
_cell_formula_units_Z 16
_cell_length_a 9.577190
_cell_length_b 7.703728
_cell_length_c 16.601576
_cell_angle_alpha 81.453512
_cell_angle_beta 52.951618
_cell_angle_gamma 58.225698
_cell_volume 805.004384
_symmetry_space_group_name_H-M "P -1"
_symmetry_group_IT_number 2
_symmetry_cell_setting 'triclinic'
loop_
_space_group_symop_operation_xyz
x,y,z
-x,-y,-z
loop_
_atom_site_type_symbol
_atom_site_label
_atom_site_fract_x
_atom_site_fract_y
_atom_site_fract_z
Si Si1 0.902170 0.725342 0.158203
Si Si2 0.687929 0.540629 0.170308
Si Si3 0.605934 0.209321 0.201062
Si Si4 0.397631 0.652579 0.400876
Si Si5 0.643658 0.413125 0.033845
Si Si6 0.439655 0.770189 0.543069
Si Si7 0.169333 0.235925 0.640793
Si Si8 0.149580 0.544801 0.397475
O O1 0.879879 0.568883 0.116986
O O2 0.898619 0.656324 0.255577
O O3 0.711498 0.964929 0.194586
O O4 0.114821 0.710265 0.067734
O O5 0.737863 0.304189 0.185448
O O6 0.511962 0.695946 0.286248
O O7 0.603985 0.591991 0.102387
O O8 0.594508 0.253635 0.105353
O O9 0.374573 0.332229 0.313230
O O10 0.344287 0.810069 0.482766
O O11 0.554248 0.416138 0.399182
O O12 0.186113 0.689397 0.434241
O O13 0.500000 0.500000 0.000000
O O14 0.676997 0.712249 0.460178
O O15 0.286929 0.984699 0.629764
O O16 0.959094 0.329508 0.655268
O O17 0.000000 0.500000 0.500000
#
# Coordination Sequence:
#
# PCOD8000325 Si02
#       8
#     2   2   2   2   2   2   2   2
#     4  12  21  40  67  88 117 164 207 245 297 368
#     4   9  21  37  65  89 118 158 203 244 298 361
#     4   9  23  40  62  88 120 158 202 246 300 362
#     4  10  19  39  58  82 128 154 198 249 295 358
#     4  10  22  42  66  90 126 154 195 260 310 347
#     4  10  21  36  57  86 117 160 197 246 289 363
#     4  11  22  33  58  88 113 156 207 239 299 358
#     4  11  21  36  58  83 124 161 192 249 307 347
#
# _framework density 19.875665999999999
#
# number of rings (size 3 to 8) (size 9 to 14) (size 15 to 20)
#    0.750    1.000    2.500    3.000    1.750    0.500 
#    0.000    1.875    2.750    0.000    0.000    0.000 
#    0.000    0.000    0.000    0.000    0.000    0.000 
#
# Total GULP energy -198231.176864 kJ/mol
# GULP energy per Si atom -12389.448554 kJ/mol
# Density = 1.983043 g / cm^3
# Si number density = 19.875666 Si / 1000 Ang^3
#
#
#
# Elastic Constant Matrix: (Units=GPa)
#
#
# Indices 1 2 3 4 5 6 
#
# 1 133.4101 28.1609 31.4920 1.4915 17.5685 -16.8641
# 2 28.1609 50.5259 18.6754 -0.3765 -3.3945 -4.1123
# 3 31.4920 18.6754 104.2098 0.0935 5.3253 -10.7730
# 4 1.4915 -0.3765 0.0935 18.7155 -6.0355 2.8252
# 5 17.5685 -3.3945 5.3253 -6.0355 42.4010 -4.7834
# 6 -16.8641 -4.1123 -10.7730 2.8252 -4.7834 27.4661
#
#
#
# Elastic Compliance Matrix: (Units=1/GPa)
#
#
# Indices 1 2 3 4 5 6 
#
# 1 0.010057 -0.005018 -0.001462 -0.002949 -0.004308 0.004403
# 2 -0.005018 0.024041 -0.003046 0.002437 0.004722 -0.000105
# 3 -0.001462 -0.003046 0.010920 -0.000684 -0.000784 0.002863
# 4 -0.002949 0.002437 -0.000684 0.057540 0.009009 -0.006064
# 5 -0.004308 0.004722 -0.000784 0.009009 0.027307 0.001583
# 6 0.004403 -0.000105 0.002863 -0.006064 0.001583 0.041119
#
#
# Mechanical properties :
#
#
# Convention : Reuss Voigt Hill
#
# Bulk Modulus (GPa) = 38.51130 49.42248 43.96689
# Shear Modulus (GPa) = 25.16452 31.70435 28.43443
#
# Velocity S-wave (km/s) = 3.56209 3.99825 3.78645
# Velocity P-wave (km/s) = 6.02794 6.79959 6.42536
#
# Compressibility (1/GPa) = 0.02596640
#
# Stress axis : x y z
#
# Youngs Moduli (GPa) = 99.43430 41.59486 91.57129
#
# Poissons Ratio (x) = 0.20872 0.13387
# Poissons Ratio (y) = 0.49896 0.27896
# Poissons Ratio (z) = 0.14536 0.12671
#
# Static dielectric constant tensor:
#      x y z
#    x 3.889100 -0.012550 0.178180 
#    y -0.012550 3.148740 -0.133620 
#    z 0.178180 -0.133620 3.779630 
# 
# 
# High freq. dielectric constant tensor:
#      x y z
#    x 1.779780 0.001800 0.011810 
#    y 0.001800 1.729670 -0.017940 
#    z 0.011810 -0.017940 1.789670 
# 
# From -- ./inp_files/556176.got.cif
#   From: 2010.06.25/outbox.cif.g09.slc.cpg/sg2_279_cif.got.tgz:556176.got - 2010.06.27 13:26:56.
