data_PCOD8000639
_publ_section_title
;
Structure prediction by ZEFSAII (Michael W. Deem and Ramdas Pophale) SiO2 
 PCOD8000639
Probable space group: P -1
;
_chemical_formula_sum "Si O2"
_cell_formula_units_Z 14
_cell_length_a 11.737924
_cell_length_b 9.396379
_cell_length_c 8.215638
_cell_angle_alpha 134.002410
_cell_angle_beta 91.427553
_cell_angle_gamma 78.592208
_cell_volume 630.732837
_symmetry_space_group_name_H-M "P -1"
_symmetry_group_IT_number 2
_symmetry_cell_setting 'triclinic'
loop_
_space_group_symop_operation_xyz
x,y,z
-x,-y,-z
loop_
_atom_site_type_symbol
_atom_site_label
_atom_site_fract_x
_atom_site_fract_y
_atom_site_fract_z
Si Si1 0.847761 0.988364 0.388676
Si Si2 0.637300 0.261407 0.403753
Si Si3 0.087964 0.862820 0.159298
Si Si4 0.724186 0.001471 0.908800
Si Si5 0.318189 0.343848 0.140244
Si Si6 0.861489 0.550196 0.058226
Si Si7 0.509512 0.005982 0.697392
O O1 0.819987 0.783836 0.303461
O O2 0.945241 0.930536 0.198345
O O3 0.728944 0.115919 0.409721
O O4 0.888852 0.114962 0.630880
O O5 0.627402 0.498289 0.628274
O O6 0.515181 0.199522 0.387385
O O7 0.673378 0.206794 0.175249
O O8 0.145143 0.998474 0.149508
O O9 0.150866 0.619641 0.941594
O O10 0.641186 0.009721 0.755527
O O11 0.733364 0.798690 0.853355
O O12 0.210704 0.468970 0.124998
O O13 0.420696 0.209164 0.925763
O O14 0.000000 0.500000 0.000000
O O15 0.500000 0.000000 0.500000
#
# Coordination Sequence:
#
# PCOD8000639 Si02
#       7
#     2   2   2   2   2   2   2
#     4  10  19  39  66  89 128 169 208 263 304 377
#     4  11  22  42  63  92 130 169 206 256 328 370
#     4  10  22  38  64  94 126 166 217 255 313 366
#     4  11  25  42  62  96 130 163 212 265 317 372
#     4  11  23  43  67  93 130 168 209 260 320 375
#     4  10  20  38  66  93 122 169 212 254 307 374
#     4  11  25  44  67  93 124 164 216 266 311 377
#
# _framework density 22.196404000000001
#
# number of rings (size 3 to 8) (size 9 to 14) (size 15 to 20)
#    0.000    1.429    4.286    2.571    0.000    4.571 
#    0.000    0.714    0.000    0.000    0.000    0.000 
#    0.000    0.000    0.000    0.000    0.000    0.000 
#
# Total GULP energy -173513.855603 kJ/mol
# GULP energy per Si atom -12393.846829 kJ/mol
# Density = 2.214588 g / cm^3
# Si number density = 22.196404 Si / 1000 Ang^3
#
#
#
# Elastic Constant Matrix: (Units=GPa)
#
#
# Indices 1 2 3 4 5 6 
#
# 1 40.9614 0.7650 15.1539 13.8753 -0.9591 21.0195
# 2 0.7650 64.7326 22.7102 20.2292 -16.4486 16.0044
# 3 15.1539 22.7102 101.0257 17.4066 8.4590 18.7751
# 4 13.8753 20.2292 17.4066 34.6377 3.7717 5.6558
# 5 -0.9591 -16.4486 8.4590 3.7717 29.7385 -3.5225
# 6 21.0195 16.0044 18.7751 5.6558 -3.5225 38.8473
#
#
#
# Elastic Compliance Matrix: (Units=1/GPa)
#
#
# Indices 1 2 3 4 5 6 
#
# 1 0.048055 0.018316 -0.002925 -0.025379 0.012497 -0.027306
# 2 0.018316 0.034333 -0.005116 -0.024633 0.022268 -0.015977
# 3 -0.002925 -0.005116 0.012783 -0.001045 -0.006777 -0.002950
# 4 -0.025379 -0.024633 -0.001045 0.053614 -0.019188 0.014840
# 5 0.012497 0.022268 -0.006777 -0.019188 0.050076 -0.005326
# 6 -0.027306 -0.015977 -0.002950 0.014840 -0.005326 0.045881
#
#
# Mechanical properties :
#
#
# Convention : Reuss Voigt Hill
#
# Bulk Modulus (GPa) = 8.64155 31.55310 20.09732
# Shear Modulus (GPa) = 19.02836 31.85074 25.43955
#
# Velocity S-wave (km/s) = 2.93110 3.79218 3.38910
# Velocity P-wave (km/s) = 3.91877 5.78104 4.93848
#
# Compressibility (1/GPa) = 0.11571995
#
# Stress axis : x y z
#
# Youngs Moduli (GPa) = 20.80963 29.12668 78.22853
#
# Poissons Ratio (x) = -0.53347 0.22878
# Poissons Ratio (y) = -0.38114 0.40025
# Poissons Ratio (z) = 0.06086 0.14902
#
# Static dielectric constant tensor:
#      x y z
#    x 4.235210 0.052070 0.412130 
#    y 0.052070 4.022590 0.380780 
#    z 0.412130 0.380780 4.272810 
# 
# 
# High freq. dielectric constant tensor:
#      x y z
#    x 1.883070 -0.005840 0.021900 
#    y -0.005840 1.863150 0.015100 
#    z 0.021900 0.015100 1.867810 
# 
# From -- ./inp_files/241399.got.cif
#   From: 2010.06.25/outbox.cif.g09.slc.cpg/sg2_121_cif.got.tgz:241399.got - 2010.06.27 13:26:56.
