data_PCOD8000822
_publ_section_title
;
Structure prediction by ZEFSAII (Michael W. Deem and Ramdas Pophale) SiO2 
 PCOD8000822
Probable space group: P -1
;
_chemical_formula_sum "Si O2"
_cell_formula_units_Z 16
_cell_length_a 15.501278
_cell_length_b 31.100476
_cell_length_c 9.656937
_cell_angle_alpha 35.115805
_cell_angle_beta 43.225168
_cell_angle_gamma 18.405620
_cell_volume 816.165486
_symmetry_space_group_name_H-M "P -1"
_symmetry_group_IT_number 2
_symmetry_cell_setting 'triclinic'
loop_
_space_group_symop_operation_xyz
x,y,z
-x,-y,-z
loop_
_atom_site_type_symbol
_atom_site_label
_atom_site_fract_x
_atom_site_fract_y
_atom_site_fract_z
Si Si1 0.064376 0.004150 0.059552
Si Si2 0.199014 0.191383 0.174033
Si Si3 0.101895 0.501554 0.195625
Si Si4 0.497211 0.633851 0.116447
Si Si5 0.275015 0.610311 0.320916
Si Si6 0.215328 0.086512 0.702898
Si Si7 0.777293 0.396251 0.903914
Si Si8 0.634634 0.643421 0.449782
O O1 0.210151 0.006173 0.860697
O O2 0.780960 0.167564 0.052534
O O3 0.299698 0.829975 0.322425
O O4 0.000000 0.000000 0.000000
O O5 0.221391 0.131305 0.441768
O O6 0.522721 0.042419 0.157381
O O7 0.014811 0.360778 0.970058
O O8 0.046659 0.230272 0.121685
O O9 0.313264 0.359031 0.444561
O O10 0.840780 0.582572 0.266655
O O11 0.266867 0.432387 0.040850
O O12 0.469340 0.582481 0.167542
O O13 0.573473 0.548621 0.394319
O O14 0.137181 0.674198 0.164618
O O15 0.054659 0.745888 0.339413
O O16 0.714500 0.516521 0.660547
O O17 0.500000 0.500000 0.000000
#
# Coordination Sequence:
#
# PCOD8000822 Si02
#       8
#     2   2   2   2   2   2   2   2
#     4  11  23  38  59  91 125 158 199 257 303 359
#     4  10  20  38  62  91 120 164 204 248 303 362
#     4  10  19  40  62  88 117 165 205 243 295 375
#     4  10  21  37  64  89 124 161 205 246 304 362
#     4  10  20  37  61  93 122 160 207 252 296 359
#     4  10  21  38  65  86 122 166 205 245 302 368
#     4  11  24  38  64  92 121 157 206 259 304 359
#     4  10  22  38  63  85 125 161 199 245 311 360
#
# _framework density 19.603867999999999
#
# number of rings (size 3 to 8) (size 9 to 14) (size 15 to 20)
#    0.000    1.750    2.500    2.250    5.250    1.000 
#    0.000    5.000    0.000    0.000    0.000    0.000 
#    0.000    0.000    0.000    0.000    0.000    0.000 
#
# Total GULP energy -198254.332549 kJ/mol
# GULP energy per Si atom -12390.895784 kJ/mol
# Density = 1.955925 g / cm^3
# Si number density = 19.603868 Si / 1000 Ang^3
#
#
#
# Elastic Constant Matrix: (Units=GPa)
#
#
# Indices 1 2 3 4 5 6 
#
# 1 110.6776 27.0855 45.7124 2.4151 15.4434 -13.2072
# 2 27.0855 69.3429 35.0587 4.1059 2.1231 -14.7180
# 3 45.7124 35.0587 89.2596 -2.9112 10.4639 -10.5200
# 4 2.4151 4.1059 -2.9112 33.7567 -12.5541 -1.6609
# 5 15.4434 2.1231 10.4639 -12.5541 35.4140 -1.7374
# 6 -13.2072 -14.7180 -10.5200 -1.6609 -1.7374 30.0312
#
#
#
# Elastic Compliance Matrix: (Units=1/GPa)
#
#
# Indices 1 2 3 4 5 6 
#
# 1 0.012516 -0.001471 -0.005064 -0.002787 -0.004735 0.002582
# 2 -0.001471 0.019756 -0.006390 -0.002183 0.000902 0.006728
# 3 -0.005064 -0.006390 0.016614 0.002008 -0.001582 0.000481
# 4 -0.002787 -0.002183 0.002008 0.035268 0.013311 0.001128
# 5 -0.004735 0.000902 -0.001582 0.013311 0.035464 0.000593
# 6 0.002582 0.006728 0.000481 0.001128 0.000593 0.037997
#
#
# Mechanical properties :
#
#
# Convention : Reuss Voigt Hill
#
# Bulk Modulus (GPa) = 43.40872 53.88814 48.64843
# Shear Modulus (GPa) = 26.15843 30.60193 28.38018
#
# Velocity S-wave (km/s) = 3.65684 3.95525 3.80897
# Velocity P-wave (km/s) = 6.32621 6.95751 6.64936
#
# Compressibility (1/GPa) = 0.02303684
#
# Stress axis : x y z
#
# Youngs Moduli (GPa) = 79.89619 50.61720 60.18961
#
# Poissons Ratio (x) = 0.07444 0.30479
# Poissons Ratio (y) = 0.11751 0.38463
# Poissons Ratio (z) = 0.40458 0.32346
#
# Static dielectric constant tensor:
#      x y z
#    x 3.949970 -0.509300 0.154880 
#    y -0.509300 3.721590 -0.063460 
#    z 0.154880 -0.063460 3.851270 
# 
# 
# High freq. dielectric constant tensor:
#      x y z
#    x 1.754290 -0.019090 -0.001630 
#    y -0.019090 1.759530 -0.004400 
#    z -0.001630 -0.004400 1.770140 
# 
# From -- ./inp_files/321036.got.cif
#   From: 2010.06.25/outbox.cif.g09.slc.cpg/sg2_161_cif.got.tgz:321036.got - 2010.06.27 13:26:56.
