data_PCOD8000409
_publ_section_title
;
Structure prediction by ZEFSAII (Michael W. Deem and Ramdas Pophale) SiO2 
 PCOD8000409
Probable space group: P -1
;
_chemical_formula_sum "Si O2"
_cell_formula_units_Z 14
_cell_length_a 14.302463
_cell_length_b 18.392111
_cell_length_c 25.547723
_cell_angle_alpha 16.110889
_cell_angle_beta 157.109884
_cell_angle_gamma 158.107076
_cell_volume 665.881444
_symmetry_space_group_name_H-M "P -1"
_symmetry_group_IT_number 2
_symmetry_cell_setting 'triclinic'
loop_
_space_group_symop_operation_xyz
x,y,z
-x,-y,-z
loop_
_atom_site_type_symbol
_atom_site_label
_atom_site_fract_x
_atom_site_fract_y
_atom_site_fract_z
Si Si1 0.646091 0.416920 0.179269
Si Si2 0.869484 0.062922 0.208592
Si Si3 0.552475 0.658644 0.073159
Si Si4 0.220326 0.700764 0.239289
Si Si5 0.396079 0.503702 0.365198
Si Si6 0.416973 0.103449 0.437589
Si Si7 0.995780 0.358131 0.174078
O O1 0.629947 0.573056 0.116476
O O2 0.948938 0.506378 0.260289
O O3 0.517934 0.069079 0.361711
O O4 0.500000 0.500000 0.000000
O O5 0.914702 0.098994 0.269948
O O6 0.105767 0.012231 0.338225
O O7 0.604645 0.792721 0.247505
O O8 0.842697 0.343450 0.978311
O O9 0.562586 0.449787 0.271129
O O10 0.258681 0.640431 0.929144
O O11 0.753944 0.973660 0.974773
O O12 0.228316 0.586207 0.264798
O O13 0.461036 0.690030 0.404537
O O14 0.192685 0.314884 0.347353
O O15 0.500000 0.000000 0.500000
#
# Coordination Sequence:
#
# PCOD8000409 Si02
#       7
#     2   2   2   2   2   2   2
#     4  11  22  39  63  87 119 162 208 252 310 363
#     4  10  19  39  61  89 123 155 206 255 298 370
#     4  10  21  40  61  85 123 162 202 253 302 363
#     4  11  23  39  58  90 126 160 202 260 301 361
#     4  11  22  38  60  90 128 159 203 250 308 365
#     4   9  20  39  64  82 117 165 197 247 308 358
#     4  10  21  36  64  91 118 164 202 249 311 359
#
# _framework density 21.024764000000001
#
# number of rings (size 3 to 8) (size 9 to 14) (size 15 to 20)
#    0.000    1.714    2.857    1.714    0.000    1.714 
#    0.000    0.714    0.000    0.000    0.000    0.000 
#    0.000    0.000    0.000    0.000    0.000    0.000 
#
# Total GULP energy -173554.661326 kJ/mol
# GULP energy per Si atom -12396.761523 kJ/mol
# Density = 2.097691 g / cm^3
# Si number density = 21.024764 Si / 1000 Ang^3
#
#
#
# Elastic Constant Matrix: (Units=GPa)
#
#
# Indices 1 2 3 4 5 6 
#
# 1 123.8143 30.2799 35.2508 6.9296 12.5883 15.9517
# 2 30.2799 54.7406 26.5074 0.3985 -5.4740 -5.6069
# 3 35.2508 26.5074 110.3305 -9.6897 -16.1677 0.2138
# 4 6.9296 0.3985 -9.6897 36.7362 6.0375 -10.5131
# 5 12.5883 -5.4740 -16.1677 6.0375 40.9622 2.1137
# 6 15.9517 -5.6069 0.2138 -10.5131 2.1137 26.9508
#
#
#
# Elastic Compliance Matrix: (Units=1/GPa)
#
#
# Indices 1 2 3 4 5 6 
#
# 1 0.013106 -0.007042 -0.003711 -0.005704 -0.005024 -0.011024
# 2 -0.007042 0.025000 -0.003050 0.002597 0.003395 0.010140
# 3 -0.003711 -0.003050 0.012016 0.003862 0.004772 0.002599
# 4 -0.005704 0.002597 0.003862 0.034725 -0.002403 0.017620
# 5 -0.005024 0.003395 0.004772 -0.002403 0.028624 0.000460
# 6 -0.011024 0.010140 0.002599 0.017620 0.000460 0.052556
#
#
# Mechanical properties :
#
#
# Convention : Reuss Voigt Hill
#
# Bulk Modulus (GPa) = 44.41775 52.55128 48.48452
# Shear Modulus (GPa) = 24.85853 34.05298 29.45575
#
# Velocity S-wave (km/s) = 3.44226 4.02887 3.74706
# Velocity P-wave (km/s) = 6.08039 6.83312 6.46771
#
# Compressibility (1/GPa) = 0.02251352
#
# Stress axis : x y z
#
# Youngs Moduli (GPa) = 76.30258 40.00030 83.22475
#
# Poissons Ratio (x) = 0.28170 0.30885
# Poissons Ratio (y) = 0.53735 0.25387
# Poissons Ratio (z) = 0.28317 0.12202
#
# Static dielectric constant tensor:
#      x y z
#    x 4.035030 0.237260 -0.148930 
#    y 0.237260 3.538710 -0.236850 
#    z -0.148930 -0.236850 4.255370 
# 
# 
# High freq. dielectric constant tensor:
#      x y z
#    x 1.839950 0.024060 -0.001150 
#    y 0.024060 1.789890 -0.016520 
#    z -0.001150 -0.016520 1.835890 
# 
# From -- ./inp_files/225150.got.cif
#   From: 2010.06.25/outbox.cif.g09.slc.cpg/sg2_113_cif.got.tgz:225150.got - 2010.06.27 13:26:56.
