data_PCOD8000585
_publ_section_title
;
Structure prediction by ZEFSAII (Michael W. Deem and Ramdas Pophale) SiO2 
 PCOD8000585
Probable space group: P -1
;
_chemical_formula_sum "Si O2"
_cell_formula_units_Z 14
_cell_length_a 11.518456
_cell_length_b 18.584455
_cell_length_c 14.962706
_cell_angle_alpha 29.333456
_cell_angle_beta 29.705199
_cell_angle_gamma 49.432767
_cell_volume 698.139714
_symmetry_space_group_name_H-M "P -1"
_symmetry_group_IT_number 2
_symmetry_cell_setting 'triclinic'
loop_
_space_group_symop_operation_xyz
x,y,z
-x,-y,-z
loop_
_atom_site_type_symbol
_atom_site_label
_atom_site_fract_x
_atom_site_fract_y
_atom_site_fract_z
Si Si1 0.740235 0.496058 0.296855
Si Si2 0.460753 0.160864 0.368614
Si Si3 0.287243 0.372287 0.017329
Si Si4 0.243847 0.660963 0.193961
Si Si5 0.004549 0.763231 0.389244
Si Si6 0.252583 0.833178 0.327033
Si Si7 0.774868 0.430812 0.999203
O O1 0.500000 0.500000 0.500000
O O2 0.686777 0.309657 0.519011
O O3 0.795047 0.586598 0.067574
O O4 0.973729 0.584675 0.114789
O O5 0.161228 0.131477 0.609811
O O6 0.596033 0.254622 0.267652
O O7 0.500000 0.000000 0.500000
O O8 0.582931 0.268224 0.084659
O O9 0.036925 0.203959 0.399981
O O10 0.559947 0.359509 0.842644
O O11 0.350057 0.521219 0.883905
O O12 0.000000 0.500000 0.500000
O O13 0.133805 0.778180 0.188491
O O14 0.234570 0.833081 0.232177
O O15 0.832169 0.569539 0.734682
O O16 0.500000 0.000000 0.000000
#
# Coordination Sequence:
#
# PCOD8000585 Si02
#       7
#     2   2   2   2   2   2   2
#     4  10  21  38  61  95 123 162 219 255 303 384
#     4  12  25  42  61  95 131 159 211 273 314 364
#     4  10  20  41  67  94 123 167 220 258 307 384
#     4  12  22  40  70  92 121 174 213 252 316 382
#     4  10  21  42  64  90 125 166 216 247 313 388
#     4  10  21  40  63  90 129 166 202 267 320 368
#     4  10  19  39  65  85 122 171 205 255 307 377
#
# _framework density 20.053291999999999
#
# number of rings (size 3 to 8) (size 9 to 14) (size 15 to 20)
#    0.000    1.714    4.286    4.714    0.000    1.714 
#    5.143    1.429    0.000    0.000    0.000    0.000 
#    0.000    0.000    0.000    0.000    0.000    0.000 
#
# Total GULP energy -173462.091000 kJ/mol
# GULP energy per Si atom -12390.149357 kJ/mol
# Density = 2.000765 g / cm^3
# Si number density = 20.053292 Si / 1000 Ang^3
#
#
#
# Elastic Constant Matrix: (Units=GPa)
#
#
# Indices 1 2 3 4 5 6 
#
# 1 91.7479 38.9290 37.3128 -0.9318 -9.4469 -2.4187
# 2 38.9290 120.8378 35.6160 19.2307 -14.6963 -4.5882
# 3 37.3128 35.6160 76.8234 -2.5904 -26.9256 3.1160
# 4 -0.9318 19.2307 -2.5904 36.8772 7.1903 -3.0976
# 5 -9.4469 -14.6963 -26.9256 7.1903 25.9464 4.4212
# 6 -2.4187 -4.5882 3.1160 -3.0976 4.4212 41.1399
#
#
#
# Elastic Compliance Matrix: (Units=1/GPa)
#
#
# Indices 1 2 3 4 5 6 
#
# 1 0.015038 -0.003724 -0.007509 0.003041 -0.005587 0.001867
# 2 -0.003724 0.011941 -0.002158 -0.007477 0.005214 0.000153
# 3 -0.007509 -0.002158 0.026734 -0.002628 0.025476 -0.005643
# 4 0.003041 -0.007477 -0.002628 0.034358 -0.016033 0.003854
# 5 -0.005587 0.005214 0.025476 -0.016033 0.072153 -0.010638
# 6 0.001867 0.000153 -0.005643 0.003854 -0.010638 0.026295
#
#
# Mechanical properties :
#
#
# Convention : Reuss Voigt Hill
#
# Bulk Modulus (GPa) = 37.13210 57.01384 47.07297
# Shear Modulus (GPa) = 22.49439 32.62945 27.56192
#
# Velocity S-wave (km/s) = 3.35286 4.03815 3.71136
# Velocity P-wave (km/s) = 5.79187 7.08768 6.47228
#
# Compressibility (1/GPa) = 0.02693088
#
# Stress axis : x y z
#
# Youngs Moduli (GPa) = 66.49768 83.74389 37.40602
#
# Poissons Ratio (x) = 0.31186 0.28088
# Poissons Ratio (y) = 0.24764 0.08073
# Poissons Ratio (z) = 0.49932 0.18074
#
# Static dielectric constant tensor:
#      x y z
#    x 3.658140 -0.071050 0.442960 
#    y -0.071050 3.746880 0.381280 
#    z 0.442960 0.381280 3.389680 
# 
# 
# High freq. dielectric constant tensor:
#      x y z
#    x 1.799010 0.001190 -0.006970 
#    y 0.001190 1.783510 0.026300 
#    z -0.006970 0.026300 1.752300 
# 
# From -- ./inp_files/178559.got.cif
#   From: 2010.06.25/outbox.cif.g09.slc.cpg/sg2_90_cif.got.tgz:178559.got - 2010.06.27 13:26:56.
