data_PCOD8000166
_publ_section_title
;
Structure prediction by ZEFSAII (Michael W. Deem and Ramdas Pophale) SiO2 
 PCOD8000166
Probable space group: P 1
;
_chemical_formula_sum "Si O2"
_cell_formula_units_Z 8
_cell_length_a 4.990590
_cell_length_b 10.139077
_cell_length_c 7.336200
_cell_angle_alpha 67.355907
_cell_angle_beta 107.488486
_cell_angle_gamma 82.627050
_cell_volume 313.953487
_symmetry_space_group_name_H-M "P 1"
_symmetry_group_IT_number 1
_symmetry_cell_setting 'triclinic'
loop_
_space_group_symop_operation_xyz
x,y,z
loop_
_atom_site_type_symbol
_atom_site_label
_atom_site_fract_x
_atom_site_fract_y
_atom_site_fract_z
Si Si1 0.320490 0.593490 0.606670
Si Si2 0.498920 0.867908 0.500299
Si Si3 0.911742 0.587914 0.838198
Si Si4 0.661395 0.302846 0.425217
Si Si5 0.602188 0.911488 0.091102
Si Si6 0.145980 0.182154 0.304111
Si Si7 0.862621 0.573766 0.242182
Si Si8 0.990212 0.107760 0.918695
O O1 0.672063 0.519708 0.721553
O O2 0.161427 0.535611 0.440821
O O3 0.206115 0.551053 0.800933
O O4 0.262100 0.772272 0.473549
O O5 0.769923 0.768000 0.727168
O O6 0.629852 0.903609 0.318318
O O7 0.344027 0.018885 0.492121
O O8 0.835988 0.986429 0.018860
O O9 0.968194 0.522832 0.086175
O O10 0.851469 0.216394 0.341814
O O11 0.661867 0.475087 0.331806
O O12 0.329683 0.297302 0.332568
O O13 0.787807 0.229757 0.681779
O O14 0.663460 0.743147 0.118828
O O15 0.278912 0.014541 0.918573
O O16 0.073927 0.191327 0.068718
#
# Coordination Sequence:
#
# PCOD8000166 Si02
#       8
#     1   1   1   1   1   1   1   1
#     4  10  23  43  66 102 138 168 229 286 338 389
#     4   9  22  43  71 101 132 173 228 290 334 383
#     4  10  25  38  69 105 128 180 215 286 349 381
#     4  12  30  44  70 102 143 189 221 274 354 418
#     4  11  23  44  77 103 132 177 237 290 334 400
#     4  11  25  46  69  98 143 179 233 277 333 424
#     4  12  26  47  69 106 141 179 231 283 341 416
#     4  11  26  47  73 101 135 185 228 288 345 389
#
# _framework density 25.481482
#
# number of rings (size 3 to 8) (size 9 to 14) (size 15 to 20)
#    0.750    0.500    1.250    3.750    5.250    9.000 
#    0.000    0.000    0.000    0.000    0.000    0.000 
#    0.000    0.000    0.000    0.000    0.000    0.000 
#
# Total GULP energy -99186.773007 kJ/mol
# GULP energy per Si atom -12398.346626 kJ/mol
# Density = 2.542348 g / cm^3
# Si number density = 25.481482 Si / 1000 Ang^3
#
#
#
# Elastic Constant Matrix: (Units=GPa)
#
#
# Indices 1 2 3 4 5 6 
#
# 1 80.1729 15.4679 11.0087 7.4995 -6.0804 15.2490
# 2 15.4679 83.0894 43.4897 11.8929 3.4026 34.1230
# 3 11.0087 43.4897 123.3813 4.4559 -15.2564 8.9229
# 4 7.4995 11.8929 4.4559 30.2566 0.1583 -8.0489
# 5 -6.0804 3.4026 -15.2564 0.1583 29.6702 -5.4258
# 6 15.2490 34.1230 8.9229 -8.0489 -5.4258 37.4988
#
#
#
# Elastic Compliance Matrix: (Units=1/GPa)
#
#
# Indices 1 2 3 4 5 6 
#
# 1 0.014676 0.003261 -0.001447 -0.007413 0.000069 -0.010172
# 2 0.003261 0.040360 -0.012697 -0.026227 -0.018268 -0.043304
# 3 -0.001447 -0.012697 0.012834 0.006583 0.009906 0.011935
# 4 -0.007413 -0.026227 0.006583 0.054459 0.011658 0.038690
# 5 0.000069 -0.018268 0.009906 0.011658 0.045099 0.023266
# 6 -0.010172 -0.043304 0.011935 0.038690 0.023266 0.079041
#
#
# Mechanical properties :
#
#
# Convention : Reuss Voigt Hill
#
# Bulk Modulus (GPa) = 21.69031 47.39735 34.54383
# Shear Modulus (GPa) = 17.63028 33.93028 25.78028
#
# Velocity S-wave (km/s) = 2.63323 3.65302 3.18422
# Velocity P-wave (km/s) = 4.21614 6.03605 5.20623
#
# Compressibility (1/GPa) = 0.04610353
#
# Stress axis : x y z
#
# Youngs Moduli (GPa) = 68.13844 24.77694 77.92035
#
# Poissons Ratio (x) = -0.08080 0.11275
# Poissons Ratio (y) = -0.22221 0.98937
# Poissons Ratio (z) = 0.09860 0.31460
#
# Static dielectric constant tensor:
#      x y z
#    x 4.559810 0.009870 -0.071350 
#    y 0.009870 4.473450 -0.132920 
#    z -0.071350 -0.132920 4.526560 
# 
# 
# High freq. dielectric constant tensor:
#      x y z
#    x 2.025160 -0.000270 -0.005400 
#    y -0.000270 2.009020 -0.008870 
#    z -0.005400 -0.008870 2.022440 
# 
# From -- ./inp_files/3091.got.cif
#   From: 2010.03.12/outbox.cif.g09.slc.cpg/sg1_2_cif.got.tgz:3091.got - 2010.03.29 11:57:58.
