data_PCOD8000612
_publ_section_title
;
Structure prediction by ZEFSAII (Michael W. Deem and Ramdas Pophale) SiO2 
 PCOD8000612
Probable space group: P -1
;
_chemical_formula_sum "Si O2"
_cell_formula_units_Z 14
_cell_length_a 5.354998
_cell_length_b 16.692336
_cell_length_c 9.162161
_cell_angle_alpha 48.735462
_cell_angle_beta 108.088141
_cell_angle_gamma 108.035925
_cell_volume 578.849497
_symmetry_space_group_name_H-M "P -1"
_symmetry_group_IT_number 2
_symmetry_cell_setting 'triclinic'
loop_
_space_group_symop_operation_xyz
x,y,z
-x,-y,-z
loop_
_atom_site_type_symbol
_atom_site_label
_atom_site_fract_x
_atom_site_fract_y
_atom_site_fract_z
Si Si1 0.561342 0.499962 0.183262
Si Si2 0.408909 0.262265 0.979157
Si Si3 0.913347 0.144717 0.210206
Si Si4 0.990562 0.581601 0.766448
Si Si5 0.278032 0.139715 0.835200
Si Si6 0.880295 0.173122 0.480146
Si Si7 0.514955 0.035132 0.755276
O O1 0.845684 0.455942 0.298105
O O2 0.325068 0.421629 0.319317
O O3 0.500000 0.500000 0.000000
O O4 0.578295 0.615221 0.121021
O O5 0.690285 0.222571 0.109391
O O6 0.163916 0.195266 0.102102
O O7 0.354944 0.249457 0.810596
O O8 0.010914 0.125753 0.417346
O O9 0.772587 0.037293 0.234024
O O10 0.126721 0.700370 0.692946
O O11 0.000000 0.500000 0.000000
O O12 0.015091 0.149648 0.686168
O O13 0.503242 0.120288 0.782287
O O14 0.264684 0.041728 0.068668
O O15 0.590691 0.103038 0.538661
#
# Coordination Sequence:
#
# PCOD8000612 Si02
#       7
#     2   2   2   2   2   2   2
#     4  10  19  39  65  93 128 171 223 277 334 394
#     4  11  24  45  70 102 138 185 227 281 350 410
#     4  11  25  41  71 105 138 176 233 286 338 409
#     4  10  22  39  66  97 132 171 219 283 345 391
#     4  10  26  44  70  96 143 187 228 271 351 418
#     4  12  25  42  72 104 137 179 235 287 339 406
#     4  10  25  45  69  98 143 188 225 278 344 415
#
# _framework density 24.185905999999999
#
# number of rings (size 3 to 8) (size 9 to 14) (size 15 to 20)
#    0.000    1.429    0.000    5.143   14.000    0.571 
#    0.000    1.429    0.000    0.000    0.000    0.000 
#    0.000    0.000    0.000    0.000    0.000    0.000 
#
# Total GULP energy -173440.496117 kJ/mol
# GULP energy per Si atom -12388.606866 kJ/mol
# Density = 2.413086 g / cm^3
# Si number density = 24.185906 Si / 1000 Ang^3
#
#
#
# Elastic Constant Matrix: (Units=GPa)
#
#
# Indices 1 2 3 4 5 6 
#
# 1 138.4878 20.8901 2.5312 -4.6584 -13.9038 -15.6931
# 2 20.8901 152.6513 27.2140 18.2238 -10.1930 -23.9540
# 3 2.5312 27.2140 54.0322 -5.3214 -4.7224 -1.4057
# 4 -4.6584 18.2238 -5.3214 29.1019 0.3957 -9.6531
# 5 -13.9038 -10.1930 -4.7224 0.3957 24.3276 0.0441
# 6 -15.6931 -23.9540 -1.4057 -9.6531 0.0441 35.5905
#
#
#
# Elastic Compliance Matrix: (Units=1/GPa)
#
#
# Indices 1 2 3 4 5 6 
#
# 1 0.008346 -0.000722 0.000796 0.003231 0.004562 0.004096
# 2 -0.000722 0.008907 -0.004643 -0.005225 0.002495 0.004072
# 3 0.000796 -0.004643 0.021722 0.006961 0.002613 -0.000031
# 4 0.003231 -0.005225 0.006961 0.042655 0.000297 0.009751
# 5 0.004562 0.002495 0.002613 0.000297 0.045254 0.003819
# 6 0.004096 0.004072 -0.000031 0.009751 0.003819 0.035283
#
#
# Mechanical properties :
#
#
# Convention : Reuss Voigt Hill
#
# Bulk Modulus (GPa) = 33.51559 49.60463 41.56011
# Shear Modulus (GPa) = 27.58622 37.43972 32.51297
#
# Velocity S-wave (km/s) = 3.38093 3.93873 3.67044
# Velocity P-wave (km/s) = 5.39708 6.42176 5.93159
#
# Compressibility (1/GPa) = 0.02983687
#
# Stress axis : x y z
#
# Youngs Moduli (GPa) = 119.81673 112.27222 46.03686
#
# Poissons Ratio (x) = 0.08111 -0.03666
# Poissons Ratio (y) = 0.08656 0.21374
# Poissons Ratio (z) = -0.09541 0.52126
#
# Static dielectric constant tensor:
#      x y z
#    x -10.623080 -1.752510 0.998950 
#    y -1.752510 4.324770 0.183620 
#    z 0.998950 0.183620 4.021110 
# 
# 
# High freq. dielectric constant tensor:
#      x y z
#    x 1.975640 -0.009680 -0.007960 
#    y -0.009680 1.967930 0.000130 
#    z -0.007960 0.000130 1.929570 
# 
# From -- ./inp_files/137246.got.cif
#   From: 2010.06.25/outbox.cif.g09.slc.cpg/sg2_69_cif.got.tgz:137246.got - 2010.06.27 13:26:56.
