data_PCOD8000131
_publ_section_title
;
Structure prediction by ZEFSAII (Michael W. Deem and Ramdas Pophale) SiO2 
 PCOD8000131
Probable space group: P 1
;
_chemical_formula_sum "Si O2"
_cell_formula_units_Z 8
_cell_length_a 6.641881
_cell_length_b 13.185048
_cell_length_c 7.316931
_cell_angle_alpha 135.627602
_cell_angle_beta 66.834960
_cell_angle_gamma 127.952249
_cell_volume 352.095262
_symmetry_space_group_name_H-M "P 1"
_symmetry_group_IT_number 1
_symmetry_cell_setting 'triclinic'
loop_
_space_group_symop_operation_xyz
x,y,z
loop_
_atom_site_type_symbol
_atom_site_label
_atom_site_fract_x
_atom_site_fract_y
_atom_site_fract_z
Si Si1 0.642570 0.581780 0.331850
Si Si2 0.577052 0.667792 0.077232
Si Si3 0.114853 0.815848 0.024444
Si Si4 0.710852 0.331152 0.761080
Si Si5 0.246551 0.550869 0.708546
Si Si6 0.170199 0.093534 0.633464
Si Si7 0.147061 0.904449 0.728002
Si Si8 0.671821 0.010618 0.541630
O O1 0.526517 0.630674 0.263504
O O2 0.406263 0.499126 0.452980
O O3 0.888053 0.739224 0.539463
O O4 0.740842 0.454534 0.077303
O O5 0.823268 0.650122 0.922693
O O6 0.688337 0.865817 0.238081
O O7 0.334508 0.550883 0.886426
O O8 0.163038 0.932212 0.333717
O O9 0.295447 0.735377 0.868031
O O10 0.147097 0.924586 0.971920
O O11 0.425636 0.268719 0.699507
O O12 0.678400 0.153563 0.600220
O O13 0.942389 0.413386 0.639086
O O14 0.921318 0.105945 0.705396
O O15 0.179262 0.067086 0.815989
O O16 0.403024 0.898045 0.597470
#
# Coordination Sequence:
#
# PCOD8000131 Si02
#       8
#     1   1   1   1   1   1   1   1
#     4  12  24  45  70 101 139 174 228 281 332 403
#     4  11  22  44  70  97 135 177 232 283 321 393
#     4  11  22  41  72 100 129 176 230 284 322 398
#     4  11  25  45  64 101 145 176 220 274 338 414
#     4  12  25  43  70 101 136 185 220 273 347 393
#     4  10  23  47  64  96 140 176 222 282 330 398
#     4  11  21  43  68 103 125 169 238 276 326 396
#     4  10  22  42  72  91 133 185 214 281 338 381
#
# _framework density 22.721122999999999
#
# number of rings (size 3 to 8) (size 9 to 14) (size 15 to 20)
#    0.000    1.000    5.000    3.000    1.750    0.000 
#   11.250    0.000    0.000    0.000    0.000    0.000 
#    0.000    0.000    0.000    0.000    0.000    0.000 
#
# Total GULP energy -99110.746512 kJ/mol
# GULP energy per Si atom -12388.843314 kJ/mol
# Density = 2.266941 g / cm^3
# Si number density = 22.721123 Si / 1000 Ang^3
#
#
#
# Elastic Constant Matrix: (Units=GPa)
#
#
# Indices 1 2 3 4 5 6 
#
# 1 114.8535 45.0359 14.1497 -11.7254 12.2430 19.6641
# 2 45.0359 113.0285 28.4235 -20.4267 8.7009 25.4747
# 3 14.1497 28.4235 46.4306 -8.3869 -9.1018 -3.4615
# 4 -11.7254 -20.4267 -8.3869 32.5010 -0.4945 -0.1266
# 5 12.2430 8.7009 -9.1018 -0.4945 33.1063 -4.4049
# 6 19.6641 25.4747 -3.4615 -0.1266 -4.4049 52.3310
#
#
#
# Elastic Compliance Matrix: (Units=1/GPa)
#
#
# Indices 1 2 3 4 5 6 
#
# 1 0.011293 -0.002173 -0.003026 0.001838 -0.004914 -0.003795
# 2 -0.002173 0.015662 -0.009730 0.006412 -0.006959 -0.008022
# 3 -0.003026 -0.009730 0.032022 0.001301 0.013716 0.009149
# 4 0.001838 0.006412 0.001301 0.035752 -0.001980 -0.003806
# 5 -0.004914 -0.006959 0.013716 -0.001980 0.038845 0.009407
# 6 -0.003795 -0.008022 0.009149 -0.003806 0.009407 0.025828
#
#
# Mechanical properties :
#
#
# Convention : Reuss Voigt Hill
#
# Bulk Modulus (GPa) = 34.34038 49.94787 42.14413
# Shear Modulus (GPa) = 25.12996 36.03456 30.58226
#
# Velocity S-wave (km/s) = 3.32929 3.98672 3.67275
# Velocity P-wave (km/s) = 5.47043 6.57439 6.04765
#
# Compressibility (1/GPa) = 0.02912024
#
# Stress axis : x y z
#
# Youngs Moduli (GPa) = 88.55234 63.84710 31.22865
#
# Poissons Ratio (x) = 0.13874 0.09448
# Poissons Ratio (y) = 0.19242 0.30385
# Poissons Ratio (z) = 0.26792 0.62123
#
# Static dielectric constant tensor:
#      x y z
#    x 4.508040 0.281890 -0.026800 
#    y 0.281890 4.117020 0.011730 
#    z -0.026800 0.011730 3.725800 
# 
# 
# High freq. dielectric constant tensor:
#      x y z
#    x 1.921130 0.013360 -0.006400 
#    y 0.013360 1.891250 0.002470 
#    z -0.006400 0.002470 1.860540 
# 
# From -- ./inp_files/3294.got.cif
#   From: 2010.03.12/outbox.cif.g09.slc.cpg/sg1_2_cif.got.tgz:3294.got - 2010.03.29 11:57:58.
