data_PCOD8000493
_publ_section_title
;
Structure prediction by ZEFSAII (Michael W. Deem and Ramdas Pophale) SiO2 
 PCOD8000493
Probable space group: P -1
;
_chemical_formula_sum "Si O2"
_cell_formula_units_Z 10
_cell_length_a 9.907724
_cell_length_b 12.181532
_cell_length_c 8.936234
_cell_angle_alpha 38.823015
_cell_angle_beta 108.689817
_cell_angle_gamma 132.693770
_cell_volume 443.532845
_symmetry_space_group_name_H-M "P -1"
_symmetry_group_IT_number 2
_symmetry_cell_setting 'triclinic'
loop_
_space_group_symop_operation_xyz
x,y,z
-x,-y,-z
loop_
_atom_site_type_symbol
_atom_site_label
_atom_site_fract_x
_atom_site_fract_y
_atom_site_fract_z
Si Si1 0.145627 0.874575 0.872192
Si Si2 0.266897 0.991283 0.451674
Si Si3 0.060466 0.128008 0.725901
Si Si4 0.703946 0.351402 0.321204
Si Si5 0.205800 0.618443 0.364644
O O1 0.177193 0.889531 0.692627
O O2 0.209128 0.120320 0.702076
O O3 0.272295 0.832374 0.047423
O O4 0.900075 0.649178 0.056212
O O5 0.230258 0.778695 0.578196
O O6 0.147264 0.034222 0.273400
O O7 0.508894 0.254799 0.264299
O O8 0.179462 0.417329 0.474189
O O9 0.000000 0.000000 0.000000
O O10 0.635686 0.274064 0.555566
O O11 0.000000 0.500000 0.500000
#
# Coordination Sequence:
#
# PCOD8000493 Si02
#       5
#     2   2   2   2   2
#     4  11  22  40  66  86 124 157 196 253 292 351
#     4  11  23  38  63  95 116 156 208 240 298 356
#     4  12  21  39  65  88 119 164 200 239 303 361
#     4  10  21  40  63  89 121 159 196 246 300 351
#     4  10  19  39  63  87 118 163 198 235 307 353
#
# _framework density 22.546244999999999
#
# number of rings (size 3 to 8) (size 9 to 14) (size 15 to 20)
#    0.000    1.200    8.000    1.200    0.000    1.600 
#    0.000    1.000    0.000    0.000    0.000    0.000 
#    0.000    0.000    0.000    0.000    0.000    0.000 
#
# Total GULP energy -123985.994703 kJ/mol
# GULP energy per Si atom -12398.599470 kJ/mol
# Density = 2.249493 g / cm^3
# Si number density = 22.546245 Si / 1000 Ang^3
#
#
#
# Elastic Constant Matrix: (Units=GPa)
#
#
# Indices 1 2 3 4 5 6 
#
# 1 59.2675 39.1108 38.3914 -4.1990 27.1541 -22.5699
# 2 39.1108 107.4414 32.6580 24.8249 16.7822 -21.3850
# 3 38.3914 32.6580 77.2409 26.8569 12.0918 -10.8557
# 4 -4.1990 24.8249 26.8569 39.0860 -7.9657 12.2210
# 5 27.1541 16.7822 12.0918 -7.9657 38.2535 -0.1670
# 6 -22.5699 -21.3850 -10.8557 12.2210 -0.1670 36.8473
#
#
#
# Elastic Compliance Matrix: (Units=1/GPa)
#
#
# Indices 1 2 3 4 5 6 
#
# 1 0.061888 -0.013798 -0.028755 0.026523 -0.023211 0.012527
# 2 -0.013798 0.025170 0.014481 -0.037272 -0.013488 0.022724
# 3 -0.028755 0.014481 0.042800 -0.049913 -0.009777 0.019911
# 4 0.026523 -0.037272 -0.049913 0.111604 0.036293 -0.056942
# 5 -0.023211 -0.013488 -0.009777 0.036293 0.059022 -0.036695
# 6 0.012527 0.022724 0.019911 -0.056942 -0.036695 0.072585
#
#
# Mechanical properties :
#
#
# Convention : Reuss Voigt Hill
#
# Bulk Modulus (GPa) = 13.56584 51.58559 32.57571
# Shear Modulus (GPa) = 11.01845 31.75666 21.38755
#
# Velocity S-wave (km/s) = 2.21306 3.75709 3.08329
# Velocity P-wave (km/s) = 3.54403 6.46146 5.21108
#
# Compressibility (1/GPa) = 0.07371457
#
# Stress axis : x y z
#
# Youngs Moduli (GPa) = 16.15830 39.72973 23.36447
#
# Poissons Ratio (x) = 0.54817 0.67184
# Poissons Ratio (y) = 0.22295 -0.33833
# Poissons Ratio (z) = 0.46463 -0.57531
#
# Static dielectric constant tensor:
#      x y z
#    x 4.078310 -0.098580 0.348430 
#    y -0.098580 4.600780 0.361610 
#    z 0.348430 0.361610 3.906300 
# 
# 
# High freq. dielectric constant tensor:
#      x y z
#    x 1.884770 -0.014660 0.018440 
#    y -0.014660 1.906810 0.020580 
#    z 0.018440 0.020580 1.867590 
# 
# From -- ./inp_files/144105.got.cif
#   From: 2010.06.25/outbox.cif.g09.slc.cpg/sg2_73_cif.got.tgz:144105.got - 2010.06.27 13:26:56.
