data_PCOD8000716
_publ_section_title
;
Structure prediction by ZEFSAII (Michael W. Deem and Ramdas Pophale) SiO2 
 PCOD8000716
Probable space group: P -1
;
_chemical_formula_sum "Si O2"
_cell_formula_units_Z 16
_cell_length_a 13.512606
_cell_length_b 11.017422
_cell_length_c 18.841149
_cell_angle_alpha 146.337714
_cell_angle_beta 144.651133
_cell_angle_gamma 33.098878
_cell_volume 781.411422
_symmetry_space_group_name_H-M "P -1"
_symmetry_group_IT_number 2
_symmetry_cell_setting 'triclinic'
loop_
_space_group_symop_operation_xyz
x,y,z
-x,-y,-z
loop_
_atom_site_type_symbol
_atom_site_label
_atom_site_fract_x
_atom_site_fract_y
_atom_site_fract_z
Si Si1 0.748267 0.921765 0.429016
Si Si2 0.766172 0.310559 0.857099
Si Si3 0.416968 0.020440 0.383523
Si Si4 0.562941 0.194473 0.160524
Si Si5 0.697992 0.109557 0.343147
Si Si6 0.129263 0.528627 0.395245
Si Si7 0.019529 0.864520 0.246040
Si Si8 0.032692 0.447135 0.826990
O O1 0.918429 0.647954 0.369597
O O2 0.593849 0.877427 0.361715
O O3 0.631756 0.110409 0.386147
O O4 0.835013 0.053632 0.594312
O O5 0.561645 0.538392 0.819715
O O6 0.929441 0.192794 0.834230
O O7 0.723935 0.100013 0.762467
O O8 0.853881 0.401625 0.015716
O O9 0.294683 0.315406 0.436807
O O10 0.500000 0.000000 0.500000
O O11 0.523880 0.235639 0.243493
O O12 0.793941 0.089218 0.229724
O O13 0.500000 0.000000 0.000000
O O14 0.831150 0.240876 0.482042
O O15 0.823938 0.821800 0.253962
O O16 0.126271 0.406936 0.257399
O O17 0.053816 0.605994 0.177583
#
# Coordination Sequence:
#
# PCOD8000716 Si02
#       8
#     2   2   2   2   2   2   2   2
#     4  11  22  42  68  95 122 165 219 260 312 366
#     4  12  25  43  59  93 141 160 212 257 307 391
#     4  12  28  42  60  94 130 177 209 252 308 387
#     4  11  22  38  65  99 127 159 201 261 326 364
#     4  10  19  39  68  97 122 157 210 271 311 363
#     4  11  22  43  67  91 126 163 213 264 315 367
#     4  11  21  39  68  97 122 164 205 265 326 358
#     4  10  20  40  69  93 122 161 205 271 322 360
#
# _framework density 20.475769
#
# number of rings (size 3 to 8) (size 9 to 14) (size 15 to 20)
#    0.000    1.000    7.500    1.875    0.000    3.500 
#    0.000    2.500    0.000    0.000    0.000    0.000 
#    0.000    0.000    0.000    0.000    0.000    0.000 
#
# Total GULP energy -198377.192158 kJ/mol
# GULP energy per Si atom -12398.574510 kJ/mol
# Density = 2.042916 g / cm^3
# Si number density = 20.475769 Si / 1000 Ang^3
#
#
#
# Elastic Constant Matrix: (Units=GPa)
#
#
# Indices 1 2 3 4 5 6 
#
# 1 123.9638 24.5162 41.7496 -6.3466 -0.8105 4.2444
# 2 24.5162 62.8336 11.9207 -7.1641 -12.4831 7.1530
# 3 41.7496 11.9207 136.0959 -5.7063 -11.8849 9.9698
# 4 -6.3466 -7.1641 -5.7063 25.2036 11.2515 -0.5934
# 5 -0.8105 -12.4831 -11.8849 11.2515 30.2568 -5.6572
# 6 4.2444 7.1530 9.9698 -0.5934 -5.6572 22.3329
#
#
#
# Elastic Compliance Matrix: (Units=1/GPa)
#
#
# Indices 1 2 3 4 5 6 
#
# 1 0.009862 -0.003672 -0.002881 0.002232 -0.003245 -0.000175
# 2 -0.003672 0.019223 0.000376 0.001553 0.006674 -0.003895
# 3 -0.002881 0.000376 0.008654 -0.000061 0.002999 -0.002678
# 4 0.002232 0.001553 -0.000061 0.048702 -0.018222 -0.004216
# 5 -0.003245 0.006674 0.002999 -0.018222 0.045186 0.008102
# 6 -0.000175 -0.003895 -0.002678 -0.004216 0.008102 0.049194
#
#
# Mechanical properties :
#
#
# Convention : Reuss Voigt Hill
#
# Bulk Modulus (GPa) = 39.39177 53.25180 46.32179
# Shear Modulus (GPa) = 24.79706 31.87245 28.33476
#
# Velocity S-wave (km/s) = 3.48378 3.94965 3.72401
# Velocity P-wave (km/s) = 5.95502 6.84568 6.41583
#
# Compressibility (1/GPa) = 0.02538601
#
# Stress axis : x y z
#
# Youngs Moduli (GPa) = 101.39634 52.02148 115.55216
#
# Poissons Ratio (x) = 0.19101 0.33288
# Poissons Ratio (y) = 0.37230 -0.04344
# Poissons Ratio (z) = 0.29210 -0.01956
#
# Static dielectric constant tensor:
#      x y z
#    x 3.948950 0.250520 -0.322510 
#    y 0.250520 3.813310 -0.306230 
#    z -0.322510 -0.306230 3.959530 
# 
# 
# High freq. dielectric constant tensor:
#      x y z
#    x 1.795540 0.005840 -0.015990 
#    y 0.005840 1.787590 -0.011500 
#    z -0.015990 -0.011500 1.807160 
# 
# From -- ./inp_files/302673.got.cif
#   From: 2010.06.25/outbox.cif.g09.slc.cpg/sg2_152_cif.got.tgz:302673.got - 2010.06.27 13:26:56.
