data_PCOD8000040
_publ_section_title
;
Structure prediction by ZEFSAII (Michael W. Deem and Ramdas Pophale) SiO2 
 PCOD8000040
Probable space group: P 1
;
_chemical_formula_sum "Si O2"
_cell_formula_units_Z 8
_cell_length_a 13.383582
_cell_length_b 15.005674
_cell_length_c 9.714199
_cell_angle_alpha 155.008454
_cell_angle_beta 35.023592
_cell_angle_gamma 152.216595
_cell_volume 382.756066
_symmetry_space_group_name_H-M "P 1"
_symmetry_group_IT_number 1
_symmetry_cell_setting 'triclinic'
loop_
_space_group_symop_operation_xyz
x,y,z
loop_
_atom_site_type_symbol
_atom_site_label
_atom_site_fract_x
_atom_site_fract_y
_atom_site_fract_z
Si Si1 0.083780 0.486080 0.399030
Si Si2 0.128203 0.063587 0.359518
Si Si3 0.409798 0.874864 0.274825
Si Si4 0.989124 0.422972 0.980196
Si Si5 0.380623 0.421496 0.815385
Si Si6 0.391288 0.061255 0.834201
Si Si7 0.884753 0.465860 0.859918
Si Si8 0.721223 0.351717 0.421062
O O1 0.299695 0.773415 0.592680
O O2 0.947670 0.352490 0.504745
O O3 0.941516 0.522669 0.501352
O O4 0.169132 0.327430 0.015566
O O5 0.303477 0.200017 0.476195
O O6 0.246357 0.133928 0.175763
O O7 0.993814 0.181404 0.674809
O O8 0.961524 0.755309 0.140536
O O9 0.381542 0.045855 0.656999
O O10 0.596167 0.062072 0.218963
O O11 0.474138 0.702180 0.035566
O O12 0.190756 0.695816 0.189900
O O13 0.995556 0.461563 0.865332
O O14 0.777435 0.358858 0.206804
O O15 0.567964 0.449464 0.736700
O O16 0.633286 0.277808 0.909306
#
# Coordination Sequence:
#
# PCOD8000040 Si02
#       8
#     1   1   1   1   1   1   1   1
#     4  10  22  45  64  95 136 159 222 269 302 393
#     4  10  22  41  62  95 137 160 212 272 312 379
#     4  10  22  43  65  96 129 167 218 266 308 389
#     4  11  24  42  65  96 129 166 220 261 312 388
#     4  10  22  43  66  98 128 168 216 267 313 382
#     4  10  20  41  63  91 133 162 207 268 312 372
#     4  11  23  42  66  93 130 174 201 268 332 363
#     4  12  21  41  71  92 124 176 210 259 325 372
#
# _framework density 20.901038
#
# number of rings (size 3 to 8) (size 9 to 14) (size 15 to 20)
#    0.000    1.500    5.000    1.500    0.000    5.000 
#   11.250    0.000    0.000    0.000    0.000    0.000 
#    0.000    0.000    0.000    0.000    0.000    0.000 
#
# Total GULP energy -99158.236684 kJ/mol
# GULP energy per Si atom -12394.779586 kJ/mol
# Density = 2.085347 g / cm^3
# Si number density = 20.901038 Si / 1000 Ang^3
#
#
#
# Elastic Constant Matrix: (Units=GPa)
#
#
# Indices 1 2 3 4 5 6 
#
# 1 117.1523 34.1764 38.9415 -12.2553 4.4087 9.0535
# 2 34.1764 115.3848 34.6247 -4.3500 -2.2261 0.7326
# 3 38.9415 34.6247 91.6891 -11.0888 13.0999 11.5758
# 4 -12.2553 -4.3500 -11.0888 33.7736 -1.0752 2.8186
# 5 4.4087 -2.2261 13.0999 -1.0752 29.8119 -8.0810
# 6 9.0535 0.7326 11.5758 2.8186 -8.0810 33.6067
#
#
#
# Elastic Compliance Matrix: (Units=1/GPa)
#
#
# Indices 1 2 3 4 5 6 
#
# 1 0.010650 -0.002170 -0.002944 0.002777 -0.000959 -0.002271
# 2 -0.002170 0.010530 -0.004002 -0.000854 0.003556 0.002660
# 3 -0.002944 -0.004002 0.016341 0.004102 -0.008853 -0.007221
# 4 0.002777 -0.000854 0.004102 0.032227 -0.002598 -0.005470
# 5 -0.000959 0.003556 -0.008853 -0.002598 0.041379 0.013398
# 6 -0.002271 0.002660 -0.007221 -0.005470 0.013398 0.036478
#
#
# Mechanical properties :
#
#
# Convention : Reuss Voigt Hill
#
# Bulk Modulus (GPa) = 51.84542 59.96794 55.90668
# Shear Modulus (GPa) = 29.02487 33.87068 31.44777
#
# Velocity S-wave (km/s) = 3.73054 4.02994 3.88313
# Velocity P-wave (km/s) = 6.58900 7.09983 6.84918
#
# Compressibility (1/GPa) = 0.01928811
#
# Stress axis : x y z
#
# Youngs Moduli (GPa) = 93.89907 94.96758 61.19720
#
# Poissons Ratio (x) = 0.20612 0.18015
# Poissons Ratio (y) = 0.20380 0.24490
# Poissons Ratio (z) = 0.27642 0.38005
#
# Static dielectric constant tensor:
#      x y z
#    x 3.601390 -0.067540 0.305010 
#    y -0.067540 3.877600 -0.157210 
#    z 0.305010 -0.157210 3.904070 
# 
# 
# High freq. dielectric constant tensor:
#      x y z
#    x 1.799490 -0.002390 0.022950 
#    y -0.002390 1.829980 -0.010720 
#    z 0.022950 -0.010720 1.815630 
# 
# From -- ./inp_files/4080.got.cif
#   From: 2010.03.12/outbox.cif.g09.slc.cpg/sg1_3_cif.got.tgz:4080.got - 2010.03.29 11:57:58.
