data_PCOD8000005
_publ_section_title
;
Structure prediction by ZEFSAII (Michael W. Deem and Ramdas Pophale) SiO2 
 PCOD8000005
Probable space group: P 1
;
_chemical_formula_sum "Si O2"
_cell_formula_units_Z 8
_cell_length_a 9.933696
_cell_length_b 9.491482
_cell_length_c 9.625644
_cell_angle_alpha 89.999931
_cell_angle_beta 118.979299
_cell_angle_gamma 41.522446
_cell_volume 410.633195
_symmetry_space_group_name_H-M "P 1"
_symmetry_group_IT_number 1
_symmetry_cell_setting 'triclinic'
loop_
_space_group_symop_operation_xyz
x,y,z
loop_
_atom_site_type_symbol
_atom_site_label
_atom_site_fract_x
_atom_site_fract_y
_atom_site_fract_z
Si Si1 0.315490 0.232060 0.890850
Si Si2 0.283500 0.576599 0.574101
Si Si3 0.780328 0.731116 0.322515
Si Si4 0.881354 0.130293 0.394936
Si Si5 0.182473 0.177421 0.545496
Si Si6 0.400769 0.487454 0.937680
Si Si7 0.663059 0.820260 0.568825
Si Si8 0.748338 0.075654 0.607274
O O1 0.326042 0.154560 0.743192
O O2 0.453782 0.278418 0.962089
O O3 0.981021 0.512411 0.781515
O O4 0.517198 0.977797 0.088840
O O5 0.435368 0.505325 0.794914
O O6 0.031914 0.653857 0.475294
O O7 0.546630 0.329918 0.603555
O O8 0.119370 0.844365 0.434175
O O9 0.628461 0.802389 0.391461
O O10 0.944459 0.463349 0.346719
O O11 0.031913 0.153858 0.529603
O O12 0.737785 0.153154 0.449063
O O13 0.639212 0.368318 0.160351
O O14 0.424616 0.939396 0.553054
O O15 0.082807 0.795303 0.832407
O O16 0.610045 0.029296 0.540221
#
# Coordination Sequence:
#
# PCOD8000005 Si02
#       8
#     1   1   1   1   1   1   1   1
#     4  10  20  38  63  87 117 154 200 240 286 350
#     4  11  20  38  61  88 116 154 197 241 284 351
#     4  11  20  38  61  88 116 154 197 241 284 351
#     4  11  24  40  59  89 124 152 191 248 297 339
#     4  11  24  40  59  89 124 152 191 248 297 339
#     4  10  19  39  61  89 118 152 197 245 285 347
#     4  10  19  39  61  89 118 152 197 245 285 347
#     4  10  20  38  63  87 117 154 200 240 286 350
#
# _framework density 19.482108
#
# number of rings (size 3 to 8) (size 9 to 14) (size 15 to 20)
#    0.000    1.500    7.500    0.000    0.000    6.000 
#    4.500    1.250    0.000    0.000    0.000    0.000 
#    0.000    0.000    0.000    0.000    0.000    0.000 
#
# Total GULP energy -99148.091106 kJ/mol
# GULP energy per Si atom -12393.511388 kJ/mol
# Density = 1.943777 g / cm^3
# Si number density = 19.482108 Si / 1000 Ang^3
#
#
#
# Elastic Constant Matrix: (Units=GPa)
#
#
# Indices 1 2 3 4 5 6 
#
# 1 57.6203 24.8632 31.3208 -1.1429 -0.0907 1.7624
# 2 24.8632 121.1048 38.6545 -10.2303 -1.2656 -12.9147
# 3 31.3208 38.6545 109.1379 -11.0870 -18.3892 -7.9153
# 4 -1.1429 -10.2303 -11.0870 21.9683 8.1879 -6.2131
# 5 -0.0907 -1.2656 -18.3892 8.1879 18.9664 0.3260
# 6 1.7624 -12.9147 -7.9153 -6.2131 0.3260 26.7479
#
#
#
# Elastic Compliance Matrix: (Units=1/GPa)
#
#
# Indices 1 2 3 4 5 6 
#
# 1 0.022751 -0.003450 -0.006999 -0.003727 -0.005195 -0.006038
# 2 -0.003450 0.011058 -0.002547 0.007444 -0.005075 0.006604
# 3 -0.006999 -0.002547 0.014791 0.002128 0.013151 0.003943
# 4 -0.003727 0.007444 0.002128 0.065167 -0.025933 0.019923
# 5 -0.005195 -0.005075 0.013151 -0.025933 0.076397 -0.005171
# 6 -0.006038 0.006604 0.003943 0.019923 -0.005171 0.046830
#
#
# Mechanical properties :
#
#
# Convention : Reuss Voigt Hill
#
# Bulk Modulus (GPa) = 44.22878 53.06000 48.64439
# Shear Modulus (GPa) = 18.48276 26.40479 22.44378
#
# Velocity S-wave (km/s) = 3.08345 3.68548 3.39782
# Velocity P-wave (km/s) = 5.95218 6.73830 6.35740
#
# Compressibility (1/GPa) = 0.02260971
#
# Stress axis : x y z
#
# Youngs Moduli (GPa) = 43.95466 90.42831 67.60705
#
# Poissons Ratio (x) = 0.31196 0.47319
# Poissons Ratio (y) = 0.15164 0.17216
# Poissons Ratio (z) = 0.30764 0.23028
#
# Static dielectric constant tensor:
#      x y z
#    x 3.324490 0.130100 -0.139340 
#    y 0.130100 3.696320 -0.198300 
#    z -0.139340 -0.198300 3.453450 
# 
# 
# High freq. dielectric constant tensor:
#      x y z
#    x 1.736110 0.010160 -0.015500 
#    y 0.010160 1.769180 -0.012540 
#    z -0.015500 -0.012540 1.748290 
# 
# From -- ./inp_files/5541.got.cif
#   From: 2010.03.12/outbox.cif.g09.slc.cpg/sg1_3_cif.got.tgz:5541.got - 2010.03.29 11:57:58.
