data_PCOD8000803
_publ_section_title
;
Structure prediction by ZEFSAII (Michael W. Deem and Ramdas Pophale) SiO2 
 PCOD8000803
Probable space group: P -1
;
_chemical_formula_sum "Si O2"
_cell_formula_units_Z 16
_cell_length_a 15.783438
_cell_length_b 9.744320
_cell_length_c 8.672898
_cell_angle_alpha 103.358558
_cell_angle_beta 70.496756
_cell_angle_gamma 47.671705
_cell_volume 703.089173
_symmetry_space_group_name_H-M "P -1"
_symmetry_group_IT_number 2
_symmetry_cell_setting 'triclinic'
loop_
_space_group_symop_operation_xyz
x,y,z
-x,-y,-z
loop_
_atom_site_type_symbol
_atom_site_label
_atom_site_fract_x
_atom_site_fract_y
_atom_site_fract_z
Si Si1 0.887764 0.817179 0.004698
Si Si2 0.877674 0.416892 0.459814
Si Si3 0.291567 0.136763 0.482930
Si Si4 0.316800 0.579272 0.311565
Si Si5 0.834142 0.969352 0.617531
Si Si6 0.360489 0.712961 0.885578
Si Si7 0.628947 0.609522 0.094007
Si Si8 0.852660 0.560936 0.037889
O O1 0.004931 0.741344 0.795464
O O2 0.969443 0.714941 0.097419
O O3 0.857047 0.689784 0.952237
O O4 0.726421 0.113876 0.169963
O O5 0.763945 0.697415 0.586094
O O6 0.767818 0.420385 0.522729
O O7 0.983312 0.288533 0.517232
O O8 0.216772 0.080076 0.489134
O O9 0.236846 0.277006 0.710953
O O10 0.477784 0.888410 0.314005
O O11 0.457621 0.478831 0.286215
O O12 0.183328 0.857500 0.408075
O O13 0.392041 0.402881 0.074421
O O14 0.719540 0.110181 0.871778
O O15 0.344430 0.564466 0.864024
O O16 0.775068 0.526349 0.997264
#
# Coordination Sequence:
#
# PCOD8000803 Si02
#       8
#     2   2   2   2   2   2   2   2
#     4   9  22  45  61  86 119 158 204 249 285 356
#     4  10  23  35  62  94 122 154 196 247 300 352
#     4  11  21  39  59  88 124 156 197 245 291 355
#     4  11  21  38  63  94 120 155 191 248 307 347
#     4  10  19  40  61  88 124 154 195 246 300 351
#     4  10  20  40  66  87 120 153 198 251 299 344
#     4  11  22  39  62  91 123 156 195 246 294 360
#     4  10  23  41  63  83 119 164 201 237 300 344
#
# _framework density 22.756713999999999
#
# number of rings (size 3 to 8) (size 9 to 14) (size 15 to 20)
#    0.000    1.750    2.500    1.875    1.750    6.000 
#    0.000    3.125    0.000    0.000    0.000    0.000 
#    0.000    0.000    0.000    0.000    0.000    0.000 
#
# Total GULP energy -198381.861477 kJ/mol
# GULP energy per Si atom -12398.866342 kJ/mol
# Density = 2.270492 g / cm^3
# Si number density = 22.756714 Si / 1000 Ang^3
#
#
#
# Elastic Constant Matrix: (Units=GPa)
#
#
# Indices 1 2 3 4 5 6 
#
# 1 108.8739 32.1024 14.6697 5.3414 -33.5846 13.3922
# 2 32.1024 151.4946 37.9466 18.6663 -23.5701 -2.0711
# 3 14.6697 37.9466 44.9775 3.3315 -11.8862 8.9597
# 4 5.3414 18.6663 3.3315 23.6657 8.7551 -11.4326
# 5 -33.5846 -23.5701 -11.8862 8.7551 31.9098 -3.1186
# 6 13.3922 -2.0711 8.9597 -11.4326 -3.1186 31.0243
#
#
#
# Elastic Compliance Matrix: (Units=1/GPa)
#
#
# Indices 1 2 3 4 5 6 
#
# 1 0.020965 0.002317 0.004936 -0.027164 0.031390 -0.017176
# 2 0.002317 0.011086 -0.005189 -0.014503 0.012394 -0.002860
# 3 0.004936 -0.005189 0.033885 -0.015935 0.016748 -0.016452
# 4 -0.027164 -0.014503 -0.015935 0.112387 -0.071225 0.049615
# 5 0.031390 0.012394 0.016748 -0.071225 0.095973 -0.034159
# 6 -0.017176 -0.002860 -0.016452 0.049615 -0.034159 0.059057
#
#
# Mechanical properties :
#
#
# Convention : Reuss Voigt Hill
#
# Bulk Modulus (GPa) = 14.27270 52.75373 33.51321
# Shear Modulus (GPa) = 14.18118 32.02845 23.10481
#
# Velocity S-wave (km/s) = 2.49903 3.75564 3.18983
# Velocity P-wave (km/s) = 3.82261 6.48370 5.32216
#
# Compressibility (1/GPa) = 0.07006383
#
# Stress axis : x y z
#
# Youngs Moduli (GPa) = 47.69870 90.20414 29.51146
#
# Poissons Ratio (x) = -0.20900 -0.14568
# Poissons Ratio (y) = -0.11052 0.15315
# Poissons Ratio (z) = -0.23545 0.46810
#
# Static dielectric constant tensor:
#      x y z
#    x 3.978890 -0.081590 -0.249940 
#    y -0.081590 4.627940 0.148240 
#    z -0.249940 0.148240 3.799070 
# 
# 
# High freq. dielectric constant tensor:
#      x y z
#    x 1.891700 0.004040 -0.019600 
#    y 0.004040 1.912470 0.009070 
#    z -0.019600 0.009070 1.876110 
# 
# From -- ./inp_files/206440.got.cif
#   From: 2010.06.25/outbox.cif.g09.slc.cpg/sg2_104_cif.got.tgz:206440.got - 2010.06.27 13:26:56.
