data_PCOD8000582
_publ_section_title
;
Structure prediction by ZEFSAII (Michael W. Deem and Ramdas Pophale) SiO2 
 PCOD8000582
Probable space group: P -1
;
_chemical_formula_sum "Si O2"
_cell_formula_units_Z 16
_cell_length_a 21.246185
_cell_length_b 9.783603
_cell_length_c 11.728186
_cell_angle_alpha 129.309134
_cell_angle_beta 150.786266
_cell_angle_gamma 36.847888
_cell_volume 695.758488
_symmetry_space_group_name_H-M "P -1"
_symmetry_group_IT_number 2
_symmetry_cell_setting 'triclinic'
loop_
_space_group_symop_operation_xyz
x,y,z
-x,-y,-z
loop_
_atom_site_type_symbol
_atom_site_label
_atom_site_fract_x
_atom_site_fract_y
_atom_site_fract_z
Si Si1 0.708308 0.494688 0.616402
Si Si2 0.056867 0.083932 0.539492
Si Si3 0.916236 0.006202 0.077985
Si Si4 0.786754 0.416367 0.943638
Si Si5 0.643036 0.729698 0.100925
Si Si6 0.082507 0.418636 0.375934
Si Si7 0.816755 0.722580 0.786747
Si Si8 0.564102 0.362735 0.145941
O O1 0.661186 0.527907 0.693618
O O2 0.689240 0.712966 0.653241
O O3 0.577584 0.496861 0.337255
O O4 0.899243 0.245792 0.779851
O O5 0.029963 0.303719 0.659504
O O6 0.254361 0.893428 0.718822
O O7 0.000000 0.000000 0.500000
O O8 0.932195 0.150696 0.271407
O O9 0.790105 0.957561 0.890922
O O10 0.838572 0.169515 0.929396
O O11 0.685261 0.606580 0.981938
O O12 0.960269 0.360251 0.153831
O O13 0.806019 0.682997 0.386737
O O14 0.580491 0.642570 0.046975
O O15 0.500000 0.000000 0.000000
O O16 0.201195 0.301494 0.389434
O O17 0.000000 0.500000 0.000000
O O18 0.500000 0.500000 0.000000
#
# Coordination Sequence:
#
# PCOD8000582 Si02
#       8
#     2   2   2   2   2   2   2   2
#     4  10  22  40  70 101 134 177 227 285 346 396
#     4  11  22  39  73 103 126 178 239 284 331 397
#     4  10  21  37  64 107 131 165 220 298 335 388
#     4  12  24  41  71 101 135 174 239 286 336 410
#     4  12  28  45  64  98 144 188 222 277 356 415
#     4  12  23  42  72 100 133 179 240 286 331 403
#     4  10  19  39  65 102 133 158 220 298 340 375
#     4  11  25  46  68  97 146 181 223 281 348 415
#
# _framework density 22.996485
#
# number of rings (size 3 to 8) (size 9 to 14) (size 15 to 20)
#    0.000    1.000    3.750    5.250    3.500    0.500 
#    0.000    0.000    0.000    3.000    0.000    0.000 
#    0.000    0.000    0.000    0.000    0.000    0.000 
#
# Total GULP energy -198410.589276 kJ/mol
# GULP energy per Si atom -12400.661830 kJ/mol
# Density = 2.294414 g / cm^3
# Si number density = 22.996485 Si / 1000 Ang^3
#
#
#
# Elastic Constant Matrix: (Units=GPa)
#
#
# Indices 1 2 3 4 5 6 
#
# 1 117.1359 24.9853 29.8063 -0.8718 -26.1853 21.5720
# 2 24.9853 86.2582 31.2830 10.2287 -8.1471 30.2677
# 3 29.8063 31.2830 101.7547 10.9594 -24.6522 12.2597
# 4 -0.8718 10.2287 10.9594 27.3149 2.9102 6.0940
# 5 -26.1853 -8.1471 -24.6522 2.9102 38.3154 5.5918
# 6 21.5720 30.2677 12.2597 6.0940 5.5918 41.8202
#
#
#
# Elastic Compliance Matrix: (Units=1/GPa)
#
#
# Indices 1 2 3 4 5 6 
#
# 1 0.012038 0.000018 -0.000658 0.001357 0.008784 -0.007402
# 2 0.000018 0.017510 -0.002611 -0.003267 0.004052 -0.011982
# 3 -0.000658 -0.002611 0.013677 -0.004946 0.008491 -0.002195
# 4 0.001357 -0.003267 -0.004946 0.040939 -0.005755 -0.002081
# 5 0.008784 0.004052 0.008491 -0.005755 0.040995 -0.014596
# 6 -0.007402 -0.011982 -0.002195 -0.002081 -0.014596 0.039300
#
#
# Mechanical properties :
#
#
# Convention : Reuss Voigt Hill
#
# Bulk Modulus (GPa) = 27.23128 53.03311 40.13219
# Shear Modulus (GPa) = 27.29241 36.09506 31.69373
#
# Velocity S-wave (km/s) = 3.44875 3.96610 3.71644
# Velocity P-wave (km/s) = 5.26552 6.63964 5.99210
#
# Compressibility (1/GPa) = 0.03672248
#
# Stress axis : x y z
#
# Youngs Moduli (GPa) = 83.07316 57.11183 73.11385
#
# Poissons Ratio (x) = -0.00101 0.04809
# Poissons Ratio (y) = -0.00148 0.19090
# Poissons Ratio (z) = 0.05464 0.14912
#
# Static dielectric constant tensor:
#      x y z
#    x 4.507380 0.293660 -0.210900 
#    y 0.293660 4.137880 0.399970 
#    z -0.210900 0.399970 4.370900 
# 
# 
# High freq. dielectric constant tensor:
#      x y z
#    x 1.914690 0.016970 -0.015330 
#    y 0.016970 1.905240 0.017080 
#    z -0.015330 0.017080 1.905230 
# 
# From -- ./inp_files/470161.got.cif
#   From: 2010.06.25/outbox.cif.g09.slc.cpg/sg2_236_cif.got.tgz:470161.got - 2010.06.27 13:26:56.
