data_PCOD8000298
_publ_section_title
;
Structure prediction by ZEFSAII (Michael W. Deem and Ramdas Pophale) SiO2 
 PCOD8000298
Probable space group: P -1
;
_chemical_formula_sum "Si O2"
_cell_formula_units_Z 16
_cell_length_a 12.501279
_cell_length_b 11.781500
_cell_length_c 12.679479
_cell_angle_alpha 135.466469
_cell_angle_beta 73.286954
_cell_angle_gamma 70.436581
_cell_volume 746.399791
_symmetry_space_group_name_H-M "P -1"
_symmetry_group_IT_number 2
_symmetry_cell_setting 'triclinic'
loop_
_space_group_symop_operation_xyz
x,y,z
-x,-y,-z
loop_
_atom_site_type_symbol
_atom_site_label
_atom_site_fract_x
_atom_site_fract_y
_atom_site_fract_z
Si Si1 0.230088 0.990976 0.353835
Si Si2 0.412355 0.242967 0.379480
Si Si3 0.837238 0.727428 0.618649
Si Si4 0.511051 0.678830 0.800178
Si Si5 0.788077 0.360932 0.909651
Si Si6 0.623612 0.681387 0.968143
Si Si7 0.505116 0.675207 0.382949
Si Si8 0.888373 0.795703 0.242973
O O1 0.190733 0.847105 0.270654
O O2 0.091619 0.231187 0.464624
O O3 0.196691 0.107927 0.553096
O O4 0.441428 0.789248 0.127164
O O5 0.224112 0.364988 0.485088
O O6 0.436777 0.353344 0.357498
O O7 0.392002 0.346799 0.568290
O O8 0.586469 0.915119 0.118977
O O9 0.000000 0.500000 0.500000
O O10 0.667869 0.000322 0.913887
O O11 0.675080 0.545887 0.748297
O O12 0.466666 0.544142 0.742047
O O13 0.776707 0.478065 0.881511
O O14 0.972336 0.213563 0.819063
O O15 0.607882 0.595564 0.190879
O O16 0.285911 0.980804 0.640255
O O17 0.000000 0.500000 0.000000
#
# Coordination Sequence:
#
# PCOD8000298 Si02
#       8
#     2   2   2   2   2   2   2   2
#     4  10  21  43  61  96 132 170 222 269 331 385
#     4  10  23  39  64  95 129 179 210 261 339 381
#     4  10  22  40  68  95 126 167 225 276 310 391
#     4  10  21  43  66  91 127 179 222 261 329 384
#     4  12  23  42  71  96 132 174 220 271 332 383
#     4  10  19  38  70  91 124 177 218 271 321 388
#     4  12  24  45  66  95 142 173 212 272 330 397
#     4  12  28  39  64 103 133 173 219 269 331 399
#
# _framework density 21.436233000000001
#
# number of rings (size 3 to 8) (size 9 to 14) (size 15 to 20)
#    0.000    1.500    3.750    4.125    3.500    5.000 
#    0.000    0.625    0.000    0.000    0.000    0.000 
#    0.000    0.000    0.000    0.000    0.000    0.000 
#
# Total GULP energy -198352.203721 kJ/mol
# GULP energy per Si atom -12397.012733 kJ/mol
# Density = 2.138744 g / cm^3
# Si number density = 21.436233 Si / 1000 Ang^3
#
#
#
# Elastic Constant Matrix: (Units=GPa)
#
#
# Indices 1 2 3 4 5 6 
#
# 1 77.5674 36.7787 31.4470 8.3219 13.6285 -21.8481
# 2 36.7787 136.3793 30.3214 -6.4410 4.0169 -16.5304
# 3 31.4470 30.3214 64.8025 -2.9419 18.3170 -16.2004
# 4 8.3219 -6.4410 -2.9419 25.3203 -7.0553 -1.9523
# 5 13.6285 4.0169 18.3170 -7.0553 34.8693 -4.0694
# 6 -21.8481 -16.5304 -16.2004 -1.9523 -4.0694 37.1799
#
#
#
# Elastic Compliance Matrix: (Units=1/GPa)
#
#
# Indices 1 2 3 4 5 6 
#
# 1 0.021005 -0.003899 -0.005303 -0.009662 -0.006099 0.007125
# 2 -0.003899 0.009255 -0.002780 0.004211 0.002905 0.001151
# 3 -0.005303 -0.002780 0.023085 0.001626 -0.008842 0.004824
# 4 -0.009662 0.004211 0.001626 0.047357 0.012102 0.000714
# 5 -0.006099 0.002905 -0.008842 0.012102 0.037659 -0.001388
# 6 0.007125 0.001151 0.004824 0.000714 -0.001388 0.033582
#
#
# Mechanical properties :
#
#
# Convention : Reuss Voigt Hill
#
# Bulk Modulus (GPa) = 34.03574 52.87150 43.45362
# Shear Modulus (GPa) = 24.30714 31.48735 27.89725
#
# Velocity S-wave (km/s) = 3.37104 3.83676 3.61141
# Velocity P-wave (km/s) = 5.57351 6.65926 6.14043
#
# Compressibility (1/GPa) = 0.02938088
#
# Stress axis : x y z
#
# Youngs Moduli (GPa) = 47.60707 108.05000 43.31854
#
# Poissons Ratio (x) = 0.42127 0.22971
# Poissons Ratio (y) = 0.18561 0.12045
# Poissons Ratio (z) = 0.25245 0.30043
#
# Static dielectric constant tensor:
#      x y z
#    x 3.908960 -0.092840 0.126960 
#    y -0.092840 4.331030 -0.066100 
#    z 0.126960 -0.066100 3.698820 
# 
# 
# High freq. dielectric constant tensor:
#      x y z
#    x 1.842320 -0.000200 0.014010 
#    y -0.000200 1.858160 -0.005340 
#    z 0.014010 -0.005340 1.819730 
# 
# From -- ./inp_files/429069.got.cif
#   From: 2010.06.25/outbox.cif.g09.slc.cpg/sg2_215_cif.got.tgz:429069.got - 2010.06.27 13:26:56.
