data_PCOD8000482
_publ_section_title
;
Structure prediction by ZEFSAII (Michael W. Deem and Ramdas Pophale) SiO2 
 PCOD8000482
Probable space group: P -1
;
_chemical_formula_sum "Si O2"
_cell_formula_units_Z 16
_cell_length_a 13.122145
_cell_length_b 9.100814
_cell_length_c 9.787157
_cell_angle_alpha 137.292726
_cell_angle_beta 70.159021
_cell_angle_gamma 106.047027
_cell_volume 745.017024
_symmetry_space_group_name_H-M "P -1"
_symmetry_group_IT_number 2
_symmetry_cell_setting 'triclinic'
loop_
_space_group_symop_operation_xyz
x,y,z
-x,-y,-z
loop_
_atom_site_type_symbol
_atom_site_label
_atom_site_fract_x
_atom_site_fract_y
_atom_site_fract_z
Si Si1 0.935257 0.611578 0.407409
Si Si2 0.071042 0.383385 0.993471
Si Si3 0.326373 0.944877 0.577348
Si Si4 0.953693 0.973387 0.852590
Si Si5 0.217877 0.216523 0.616011
Si Si6 0.488271 0.357982 0.776696
Si Si7 0.597048 0.478672 0.338646
Si Si8 0.768355 0.207270 0.201943
O O1 0.960131 0.732735 0.622004
O O2 0.885959 0.785696 0.440642
O O3 0.846624 0.417628 0.338175
O O4 0.048629 0.507728 0.232238
O O5 0.192617 0.375106 0.869027
O O6 0.000000 0.500000 0.000000
O O7 0.027951 0.133960 0.837721
O O8 0.395746 0.735276 0.378154
O O9 0.258195 0.908520 0.721582
O O10 0.246204 0.983069 0.509254
O O11 0.401542 0.162109 0.706635
O O12 0.828440 0.040078 0.962095
O O13 0.000000 0.000000 0.000000
O O14 0.321285 0.310169 0.548549
O O15 0.452924 0.529363 0.795334
O O16 0.500000 0.500000 0.000000
O O17 0.500000 0.500000 0.500000
O O18 0.660911 0.266500 0.207531
#
# Coordination Sequence:
#
# PCOD8000482 Si02
#       8
#     2   2   2   2   2   2   2   2
#     4   9  21  39  60  86 123 160 199 248 307 367
#     4   9  19  38  58  85 118 154 198 244 300 359
#     4  10  20  38  59  84 122 154 199 261 296 348
#     4  11  23  39  59  90 125 158 201 250 306 367
#     4   9  19  36  62  88 117 159 203 249 302 361
#     4  10  22  38  59  87 119 160 206 250 307 355
#     4  10  19  39  63  84 124 163 197 252 302 353
#     4  10  21  38  62  89 120 165 203 249 304 363
#
# _framework density 21.476019000000001
#
# number of rings (size 3 to 8) (size 9 to 14) (size 15 to 20)
#    0.000    2.250    1.250    1.500    0.000    6.000 
#    0.000    6.875    0.000    0.000    0.000    0.000 
#    0.000    0.000    0.000    0.000    0.000    0.000 
#
# Total GULP energy -198214.672910 kJ/mol
# GULP energy per Si atom -12388.417057 kJ/mol
# Density = 2.142714 g / cm^3
# Si number density = 21.476019 Si / 1000 Ang^3
#
#
#
# Elastic Constant Matrix: (Units=GPa)
#
#
# Indices 1 2 3 4 5 6 
#
# 1 73.3961 14.2729 30.9463 -9.6976 -18.3690 -4.1787
# 2 14.2729 99.3283 17.8450 -16.6276 -4.9255 1.2724
# 3 30.9463 17.8450 133.8147 -8.8434 -3.3340 18.5222
# 4 -9.6976 -16.6276 -8.8434 26.2634 -2.7789 -3.9723
# 5 -18.3690 -4.9255 -3.3340 -2.7789 30.9196 -6.2583
# 6 -4.1787 1.2724 18.5222 -3.9723 -6.2583 28.1607
#
#
#
# Elastic Compliance Matrix: (Units=1/GPa)
#
#
# Indices 1 2 3 4 5 6 
#
# 1 0.021868 0.000125 -0.005680 0.009686 0.015662 0.011822
# 2 0.000125 0.011675 -0.001295 0.007620 0.002896 0.002062
# 3 -0.005680 -0.001295 0.009937 -0.001312 -0.004342 -0.008470
# 4 0.009686 0.007620 -0.001312 0.049289 0.013675 0.011948
# 5 0.015662 0.002896 -0.004342 0.013675 0.046367 0.017282
# 6 0.011822 0.002062 -0.008470 0.011948 0.017282 0.048269
#
#
# Mechanical properties :
#
#
# Convention : Reuss Voigt Hill
#
# Bulk Modulus (GPa) = 33.58068 48.07416 40.82742
# Shear Modulus (GPa) = 23.69309 33.30041 28.49675
#
# Velocity S-wave (km/s) = 3.32510 3.94202 3.64663
# Velocity P-wave (km/s) = 5.51471 6.56909 6.06486
#
# Compressibility (1/GPa) = 0.02977903
#
# Stress axis : x y z
#
# Youngs Moduli (GPa) = 45.72886 85.65164 100.63552
#
# Poissons Ratio (x) = -0.01069 0.57160
# Poissons Ratio (y) = -0.00571 0.13037
# Poissons Ratio (z) = 0.25974 0.11096
#
# Static dielectric constant tensor:
#      x y z
#    x 4.654460 -0.420320 -0.988250 
#    y -0.420320 4.423730 -0.249670 
#    z -0.988250 -0.249670 4.511040 
# 
# 
# High freq. dielectric constant tensor:
#      x y z
#    x 1.842320 -0.016390 -0.035620 
#    y -0.016390 1.860650 -0.020080 
#    z -0.035620 -0.020080 1.812600 
# 
# From -- ./inp_files/203394.got.cif
#   From: 2010.06.25/outbox.cif.g09.slc.cpg/sg2_102_cif.got.tgz:203394.got - 2010.06.27 13:26:56.
