data_PCOD8000851
_publ_section_title
;
Structure prediction by ZEFSAII (Michael W. Deem and Ramdas Pophale) SiO2 
 PCOD8000851
Probable space group: P -1
;
_chemical_formula_sum "Si O2"
_cell_formula_units_Z 16
_cell_length_a 10.853800
_cell_length_b 13.978927
_cell_length_c 12.244131
_cell_angle_alpha 41.989185
_cell_angle_beta 115.572070
_cell_angle_gamma 82.034287
_cell_volume 726.902747
_symmetry_space_group_name_H-M "P -1"
_symmetry_group_IT_number 2
_symmetry_cell_setting 'triclinic'
loop_
_space_group_symop_operation_xyz
x,y,z
-x,-y,-z
loop_
_atom_site_type_symbol
_atom_site_label
_atom_site_fract_x
_atom_site_fract_y
_atom_site_fract_z
Si Si1 0.374142 0.512969 0.768404
Si Si2 0.613698 0.695801 0.757813
Si Si3 0.517105 0.550394 0.582283
Si Si4 0.460691 0.137828 0.637533
Si Si5 0.884152 0.284766 0.077445
Si Si6 0.822022 0.639229 0.221986
Si Si7 0.991055 0.544336 0.142672
Si Si8 0.279924 0.807552 0.667825
O O1 0.363877 0.601394 0.572191
O O2 0.249494 0.464298 0.746208
O O3 0.268084 0.682207 0.686576
O O4 0.618109 0.298782 0.083229
O O5 0.535770 0.870091 0.487684
O O6 0.416384 0.825114 0.650060
O O7 0.688525 0.486531 0.909744
O O8 0.817859 0.575408 0.005181
O O9 0.500000 0.500000 0.500000
O O10 0.476452 0.753329 0.390157
O O11 0.761482 0.316651 0.900209
O O12 0.222705 0.287660 0.454612
O O13 0.617030 0.897716 0.955436
O O14 0.012424 0.320320 0.055879
O O15 0.042855 0.049078 0.394806
O O16 0.000000 0.500000 0.500000
O O17 0.927306 0.636251 0.162647
#
# Coordination Sequence:
#
# PCOD8000851 Si02
#       8
#     2   2   2   2   2   2   2   2
#     4  11  25  44  64  97 138 167 217 280 326 390
#     4  10  19  40  64 102 131 160 224 267 330 399
#     4  10  23  47  68  95 130 177 225 266 315 401
#     4  10  23  44  68  92 130 172 220 269 320 390
#     4  10  22  38  69  96 125 177 218 263 330 396
#     4  12  28  44  63  96 134 175 220 268 326 390
#     4  10  22  39  67  97 128 173 215 269 326 397
#     4  11  22  42  64  99 137 167 212 281 340 377
#
# _framework density 22.011199000000001
#
# number of rings (size 3 to 8) (size 9 to 14) (size 15 to 20)
#    0.000    1.750    3.750    2.250    7.000    3.000 
#    2.250    1.250    0.000    0.000    0.000    0.000 
#    0.000    0.000    0.000    0.000    0.000    0.000 
#
# Total GULP energy -198274.789340 kJ/mol
# GULP energy per Si atom -12392.174334 kJ/mol
# Density = 2.196110 g / cm^3
# Si number density = 22.011199 Si / 1000 Ang^3
#
#
#
# Elastic Constant Matrix: (Units=GPa)
#
#
# Indices 1 2 3 4 5 6 
#
# 1 65.6070 23.2456 11.3349 5.4464 -3.2721 12.1513
# 2 23.2456 87.9128 35.7864 30.5834 -12.5050 5.7499
# 3 11.3349 35.7864 151.5208 4.1340 2.2189 13.6186
# 4 5.4464 30.5834 4.1340 29.5154 0.9394 -0.1502
# 5 -3.2721 -12.5050 2.2189 0.9394 16.7512 4.6589
# 6 12.1513 5.7499 13.6186 -0.1502 4.6589 31.8092
#
#
#
# Elastic Compliance Matrix: (Units=1/GPa)
#
#
# Indices 1 2 3 4 5 6 
#
# 1 0.018013 -0.004733 0.000280 0.001456 0.001641 -0.006379
# 2 -0.004733 0.028655 -0.005562 -0.028831 0.024116 -0.004659
# 3 0.000280 -0.005562 0.007995 0.004739 -0.004927 -0.001781
# 4 0.001456 -0.028831 0.004739 0.063729 -0.027369 0.006936
# 5 0.001641 0.024116 -0.004927 -0.027369 0.084486 -0.015380
# 6 -0.006379 -0.004659 -0.001781 0.006936 -0.015380 0.037764
#
#
# Mechanical properties :
#
#
# Convention : Reuss Voigt Hill
#
# Bulk Modulus (GPa) = 28.87302 49.53049 39.20176
# Shear Modulus (GPa) = 18.36770 31.26007 24.81389
#
# Velocity S-wave (km/s) = 2.89185 3.77263 3.36122
# Velocity P-wave (km/s) = 4.92913 6.44424 5.73692
#
# Compressibility (1/GPa) = 0.03463441
#
# Stress axis : x y z
#
# Youngs Moduli (GPa) = 55.51462 34.89752 125.07418
#
# Poissons Ratio (x) = 0.16517 -0.03501
# Poissons Ratio (y) = 0.26275 0.69561
# Poissons Ratio (z) = -0.01554 0.19409
#
# Static dielectric constant tensor:
#      x y z
#    x 4.057550 -0.101180 -0.029470 
#    y -0.101180 3.982970 0.157310 
#    z -0.029470 0.157310 3.927300 
# 
# 
# High freq. dielectric constant tensor:
#      x y z
#    x 1.882230 0.000310 0.002100 
#    y 0.000310 1.852390 0.007630 
#    z 0.002100 0.007630 1.856730 
# 
# From -- ./inp_files/427636.got.cif
#   From: 2010.06.25/outbox.cif.g09.slc.cpg/sg2_214_cif.got.tgz:427636.got - 2010.06.27 13:26:56.
