data_PCOD8000136
_publ_section_title
;
Structure prediction by ZEFSAII (Michael W. Deem and Ramdas Pophale) SiO2 
 PCOD8000136
Probable space group: P 1
;
_chemical_formula_sum "Si O2"
_cell_formula_units_Z 8
_cell_length_a 9.365129
_cell_length_b 12.424837
_cell_length_c 5.605141
_cell_angle_alpha 85.314738
_cell_angle_beta 94.370973
_cell_angle_gamma 147.243157
_cell_volume 351.683915
_symmetry_space_group_name_H-M "P 1"
_symmetry_group_IT_number 1
_symmetry_cell_setting 'triclinic'
loop_
_space_group_symop_operation_xyz
x,y,z
loop_
_atom_site_type_symbol
_atom_site_label
_atom_site_fract_x
_atom_site_fract_y
_atom_site_fract_z
Si Si1 0.418780 0.428430 0.842860
Si Si2 0.088633 0.129431 0.239565
Si Si3 0.138719 0.764164 0.210480
Si Si4 0.940401 0.845932 0.972476
Si Si5 0.397500 0.195200 0.646460
Si Si6 0.913233 0.185775 0.546663
Si Si7 0.927695 0.439913 0.496717
Si Si8 0.354219 0.839110 0.713360
O O1 0.671271 0.665887 0.821288
O O2 0.510654 0.370487 0.767936
O O3 0.189051 0.334012 0.676151
O O4 0.311815 0.346644 0.112056
O O5 0.234990 0.131543 0.410429
O O6 0.881188 0.077216 0.352209
O O7 0.923493 0.955303 0.059386
O O8 0.312407 0.887174 0.456161
O O9 0.956415 0.541255 0.259037
O O10 0.297356 0.854406 0.963662
O O11 0.956981 0.756358 0.177026
O O12 0.198288 0.998506 0.814267
O O13 0.641619 0.272891 0.607837
O O14 0.939850 0.324732 0.428037
O O15 0.666300 0.009937 0.724016
O O16 0.161308 0.613058 0.689018
#
# Coordination Sequence:
#
# PCOD8000136 Si02
#       8
#     1   1   1   1   1   1   1   1
#     4  10  24  43  67  98 143 183 236 288 354 425
#     4  10  25  42  66 100 139 188 235 289 350 423
#     4  10  24  45  74 106 141 181 237 297 358 407
#     4  11  23  42  73 102 141 183 235 299 351 420
#     4  10  22  43  68 102 136 178 239 292 354 415
#     4  11  25  46  68 101 142 193 232 288 352 433
#     4  10  24  41  72 103 139 185 235 295 351 424
#     4  10  25  46  68 108 143 185 231 296 354 421
#
# _framework density 22.747698
#
# number of rings (size 3 to 8) (size 9 to 14) (size 15 to 20)
#    0.750    1.000    0.000    2.250    5.250    8.000 
#    0.000    0.000    0.000    0.000    0.000    0.000 
#    0.000    0.000    0.000    0.000    0.000    0.000 
#
# Total GULP energy -99136.836992 kJ/mol
# GULP energy per Si atom -12392.104624 kJ/mol
# Density = 2.269592 g / cm^3
# Si number density = 22.747698 Si / 1000 Ang^3
#
#
#
# Elastic Constant Matrix: (Units=GPa)
#
#
# Indices 1 2 3 4 5 6 
#
# 1 127.0374 52.3681 36.8472 -13.5472 -16.0433 -6.5902
# 2 52.3681 141.5909 33.8285 -10.5007 -13.1085 3.7488
# 3 36.8472 33.8285 114.2345 -3.0730 -12.7442 -3.7751
# 4 -13.5472 -10.5007 -3.0730 20.9690 -1.4865 6.6256
# 5 -16.0433 -13.1085 -12.7442 -1.4865 26.1268 -8.5896
# 6 -6.5902 3.7488 -3.7751 6.6256 -8.5896 24.4252
#
#
#
# Elastic Compliance Matrix: (Units=1/GPa)
#
#
# Indices 1 2 3 4 5 6 
#
# 1 0.011029 -0.002860 -0.001779 0.004591 0.006054 0.004024
# 2 -0.002860 0.008940 -0.001596 0.003394 0.001193 -0.002891
# 3 -0.001779 -0.001596 0.010331 -0.001127 0.004105 0.003111
# 4 0.004591 0.003394 -0.001127 0.056779 0.002621 -0.013937
# 5 0.006054 0.001193 0.004105 0.002621 0.051102 0.019345
# 6 0.004024 -0.002891 0.003111 -0.013937 0.019345 0.053535
#
#
# Mechanical properties :
#
#
# Convention : Reuss Voigt Hill
#
# Bulk Modulus (GPa) = 56.08270 69.88337 62.98303
# Shear Modulus (GPa) = 23.79474 31.62546 27.71010
#
# Velocity S-wave (km/s) = 3.23774 3.73268 3.49399
# Velocity P-wave (km/s) = 6.21973 7.02602 6.63513
#
# Compressibility (1/GPa) = 0.01783081
#
# Stress axis : x y z
#
# Youngs Moduli (GPa) = 90.66677 111.85146 96.79785
#
# Poissons Ratio (x) = 0.31988 0.17219
# Poissons Ratio (y) = 0.25930 0.15451
# Poissons Ratio (z) = 0.16128 0.17854
#
# Static dielectric constant tensor:
#      x y z
#    x 3.952550 -0.090140 -0.113560 
#    y -0.090140 4.054850 -0.064760 
#    z -0.113560 -0.064760 4.066140 
# 
# 
# High freq. dielectric constant tensor:
#      x y z
#    x 1.892230 -0.005360 -0.004870 
#    y -0.005360 1.901320 -0.004110 
#    z -0.004870 -0.004110 1.888510 
# 
# From -- ./inp_files/1692.got.cif
#   From: 2010.03.12/outbox.cif.g09.slc.cpg/sg1_1_cif.got.tgz:1692.got - 2010.03.29 11:57:58.
