data_PCOD8000087
_publ_section_title
;
Structure prediction by ZEFSAII (Michael W. Deem and Ramdas Pophale) SiO2 
 PCOD8000087
Probable space group: P 1
;
_chemical_formula_sum "Si O2"
_cell_formula_units_Z 8
_cell_length_a 10.281853
_cell_length_b 7.132567
_cell_length_c 7.155512
_cell_angle_alpha 104.369709
_cell_angle_beta 122.659828
_cell_angle_gamma 45.441109
_cell_volume 307.251485
_symmetry_space_group_name_H-M "P 1"
_symmetry_group_IT_number 1
_symmetry_cell_setting 'triclinic'
loop_
_space_group_symop_operation_xyz
x,y,z
loop_
_atom_site_type_symbol
_atom_site_label
_atom_site_fract_x
_atom_site_fract_y
_atom_site_fract_z
Si Si1 0.033000 0.949310 0.517630
Si Si2 0.039335 0.545800 0.619296
Si Si3 0.492172 0.238191 0.002714
Si Si4 0.374748 0.909151 0.300775
Si Si5 0.660458 0.985382 0.701205
Si Si6 0.617399 0.330284 0.475024
Si Si7 0.458721 0.685584 0.930676
Si Si8 0.928623 0.294081 0.207833
O O1 0.258807 0.872391 0.679949
O O2 0.058903 0.698784 0.516641
O O3 0.862722 0.187609 0.595032
O O4 0.937549 0.077139 0.268309
O O5 0.886398 0.731850 0.722026
O O6 0.948404 0.436405 0.421017
O O7 0.273511 0.302660 0.832793
O O8 0.429887 0.511051 0.973366
O O9 0.668410 0.992635 0.935197
O O10 0.584909 0.172282 0.268393
O O11 0.469672 0.006158 0.508835
O O12 0.449008 0.648510 0.399045
O O13 0.442828 0.861034 0.125268
O O14 0.115090 0.146915 0.163721
O O15 0.589608 0.262957 0.643053
O O16 0.695022 0.510699 0.976604
#
# Coordination Sequence:
#
# PCOD8000087 Si02
#       8
#     1   1   1   1   1   1   1   1
#     4  10  22  44  68  91 134 178 217 280 340 389
#     4  10  22  40  66  96 134 173 224 283 326 402
#     4  10  21  42  65 101 132 172 226 278 334 400
#     4  11  23  41  66  98 134 178 220 277 341 400
#     4  11  22  42  70  92 137 180 220 281 340 396
#     4  10  23  44  69  99 136 176 230 275 341 406
#     4  10  23  43  65  98 138 168 227 284 327 402
#     4  12  22  42  69  93 137 175 218 280 335 401
#
# _framework density 26.037303999999999
#
# number of rings (size 3 to 8) (size 9 to 14) (size 15 to 20)
#    0.000    1.500    5.000    0.000    3.500    5.000 
#    0.000    0.000    5.500    0.000    0.000    0.000 
#    0.000    0.000    0.000    0.000    0.000    0.000 
#
# Total GULP energy -99174.278567 kJ/mol
# GULP energy per Si atom -12396.784821 kJ/mol
# Density = 2.597804 g / cm^3
# Si number density = 26.037304 Si / 1000 Ang^3
#
#
#
# Elastic Constant Matrix: (Units=GPa)
#
#
# Indices 1 2 3 4 5 6 
#
# 1 78.1458 27.3664 19.3338 -13.2135 24.2725 -25.1708
# 2 27.3664 86.5312 23.4595 -15.4890 17.8812 -29.1841
# 3 19.3338 23.4595 88.3728 -25.1347 33.5892 -17.9941
# 4 -13.2135 -15.4890 -25.1347 27.9770 -6.5867 14.6483
# 5 24.2725 17.8812 33.5892 -6.5867 40.6733 -5.5270
# 6 -25.1708 -29.1841 -17.9941 14.6483 -5.5270 43.9372
#
#
#
# Elastic Compliance Matrix: (Units=1/GPa)
#
#
# Indices 1 2 3 4 5 6 
#
# 1 0.019818 -0.000727 0.003890 0.004569 -0.012710 0.009341
# 2 -0.000727 0.016358 0.000716 0.003372 -0.005591 0.008914
# 3 0.003890 0.000716 0.022592 0.015990 -0.018113 0.004347
# 4 0.004569 0.003372 0.015990 0.056407 -0.009446 -0.008588
# 5 -0.012710 -0.005591 -0.018113 -0.009446 0.046783 -0.009379
# 6 0.009341 0.008914 0.004347 -0.008588 -0.009379 0.037496
#
#
# Mechanical properties :
#
#
# Convention : Reuss Voigt Hill
#
# Bulk Modulus (GPa) = 15.03194 43.70769 29.36982
# Shear Modulus (GPa) = 23.37844 34.71017 29.04430
#
# Velocity S-wave (km/s) = 2.99972 3.65512 3.34352
# Velocity P-wave (km/s) = 4.21705 5.88525 5.11956
#
# Compressibility (1/GPa) = 0.06652501
#
# Stress axis : x y z
#
# Youngs Moduli (GPa) = 50.45882 61.13221 44.26321
#
# Poissons Ratio (x) = 0.04447 -0.17217
# Poissons Ratio (y) = 0.03671 -0.03170
# Poissons Ratio (z) = -0.19627 -0.04378
#
# Static dielectric constant tensor:
#      x y z
#    x 4.526070 -0.053060 0.293450 
#    y -0.053060 4.619890 -0.083330 
#    z 0.293450 -0.083330 4.891300 
# 
# 
# High freq. dielectric constant tensor:
#      x y z
#    x 2.036770 -0.008680 0.019910 
#    y -0.008680 2.040510 -0.000700 
#    z 0.019910 -0.000700 2.034350 
# 
# From -- ./inp_files/4170.got.cif
#   From: 2010.03.12/outbox.cif.g09.slc.cpg/sg1_3_cif.got.tgz:4170.got - 2010.03.29 11:57:58.
