data_PCOD8000154
_publ_section_title
;
Structure prediction by ZEFSAII (Michael W. Deem and Ramdas Pophale) SiO2 
 PCOD8000154
Probable space group: P 1
;
_chemical_formula_sum "Si O2"
_cell_formula_units_Z 8
_cell_length_a 8.633688
_cell_length_b 8.277763
_cell_length_c 8.633685
_cell_angle_alpha 106.666115
_cell_angle_beta 127.471596
_cell_angle_gamma 106.666337
_cell_volume 372.935560
_symmetry_space_group_name_H-M "P 1"
_symmetry_group_IT_number 1
_symmetry_cell_setting 'triclinic'
loop_
_space_group_symop_operation_xyz
x,y,z
loop_
_atom_site_type_symbol
_atom_site_label
_atom_site_fract_x
_atom_site_fract_y
_atom_site_fract_z
Si Si1 0.378080 0.777640 0.922040
Si Si2 0.721166 0.404062 0.630367
Si Si3 0.953006 0.306705 0.496964
Si Si4 0.356164 0.042171 0.518878
Si Si5 0.575867 0.542173 0.299180
Si Si6 0.875091 0.900880 0.333337
Si Si7 0.244676 0.680280 0.153878
Si Si8 0.541710 0.183465 0.999955
O O1 0.192523 0.542173 0.682523
O O2 0.642816 0.831721 0.068744
O O3 0.347659 0.805994 0.090629
O O4 0.339655 0.936080 0.856962
O O5 0.784412 0.278347 0.527380
O O6 0.461067 0.228179 0.506178
O O7 0.689130 0.547902 0.535848
O O8 0.946830 0.542169 0.928213
O O9 0.806305 0.252625 0.232228
O O10 0.018087 0.148267 0.535390
O O11 0.368864 0.856163 0.413977
O O12 0.531266 0.177418 0.807098
O O13 0.067944 0.906925 0.343776
O O14 0.790498 0.749959 0.390500
O O15 0.339197 0.536441 0.185914
O O16 0.484550 0.334388 0.084550
#
# Coordination Sequence:
#
# PCOD8000154 Si02
#       8
#     1   1   1   1   1   1   1   1
#     4   9  20  45  71  92 126 180 226 261 313 406
#     4  10  23  44  66  92 134 176 215 268 328 389
#     4   9  20  45  71  92 126 180 226 261 313 406
#     4  12  26  40  60 104 140 160 210 286 334 372
#     4  10  22  48  70  92 126 184 228 254 318 412
#     4  10  23  38  69  99 129 166 222 271 324 380
#     4  10  23  44  66  92 134 176 215 268 328 389
#     4  10  23  38  69  99 129 166 222 271 324 380
#
# _framework density 21.451428
#
# number of rings (size 3 to 8) (size 9 to 14) (size 15 to 20)
#    0.000    2.000    0.000    3.000   12.250    0.000 
#   11.250    0.000    0.000    0.000    0.000    0.000 
#    0.000    0.000    0.000    0.000    0.000    0.000 
#
# Total GULP energy -99117.214641 kJ/mol
# GULP energy per Si atom -12389.651830 kJ/mol
# Density = 2.140260 g / cm^3
# Si number density = 21.451428 Si / 1000 Ang^3
#
#
#
# Elastic Constant Matrix: (Units=GPa)
#
#
# Indices 1 2 3 4 5 6 
#
# 1 86.4807 55.8126 46.8022 -0.2764 5.4185 1.3264
# 2 55.8126 165.1984 47.2821 17.3955 1.1961 -13.7847
# 3 46.8022 47.2821 117.9242 15.4513 -7.1072 -2.0288
# 4 -0.2764 17.3955 15.4513 34.2271 2.3473 1.0879
# 5 5.4185 1.1961 -7.1072 2.3473 32.0056 12.3789
# 6 1.3264 -13.7847 -2.0288 1.0879 12.3789 30.5281
#
#
#
# Elastic Compliance Matrix: (Units=1/GPa)
#
#
# Indices 1 2 3 4 5 6 
#
# 1 0.018745 -0.005302 -0.006387 0.006073 -0.003973 -0.002238
# 2 -0.005302 0.008972 -0.000925 -0.004257 -0.001212 0.004863
# 3 -0.006387 -0.000925 0.012363 -0.005450 0.004652 -0.001010
# 4 0.006073 -0.004257 -0.005450 0.034216 -0.003714 -0.002262
# 5 -0.003973 -0.001212 0.004652 -0.003714 0.039425 -0.015920
# 6 -0.002238 0.004863 -0.001010 -0.002262 -0.015920 0.041519
#
#
# Mechanical properties :
#
#
# Convention : Reuss Voigt Hill
#
# Bulk Modulus (GPa) = 67.33427 74.37745 70.85586
# Shear Modulus (GPa) = 26.96611 33.99925 30.48268
#
# Velocity S-wave (km/s) = 3.54938 3.98545 3.77372
# Velocity P-wave (km/s) = 6.94656 7.47838 7.21737
#
# Compressibility (1/GPa) = 0.01485128
#
# Stress axis : x y z
#
# Youngs Moduli (GPa) = 53.34866 111.45531 80.88831
#
# Poissons Ratio (x) = 0.59097 0.51665
# Poissons Ratio (y) = 0.28287 0.07479
# Poissons Ratio (z) = 0.34075 0.10305
#
# Static dielectric constant tensor:
#      x y z
#    x 3.782350 -0.168980 0.205700 
#    y -0.168980 4.105090 -0.082970 
#    z 0.205700 -0.082970 4.164820 
# 
# 
# High freq. dielectric constant tensor:
#      x y z
#    x 1.823690 -0.006300 0.004680 
#    y -0.006300 1.850760 0.009190 
#    z 0.004680 0.009190 1.841380 
# 
# From -- ./inp_files/4185.got.cif
#   From: 2010.03.12/outbox.cif.g09.slc.cpg/sg1_3_cif.got.tgz:4185.got - 2010.03.29 11:57:58.
