data_PCOD8000847
_publ_section_title
;
Structure prediction by ZEFSAII (Michael W. Deem and Ramdas Pophale) SiO2 
 PCOD8000847
Probable space group: P -1
;
_chemical_formula_sum "Si O2"
_cell_formula_units_Z 14
_cell_length_a 15.200914
_cell_length_b 14.963440
_cell_length_c 9.165578
_cell_angle_alpha 39.944182
_cell_angle_beta 141.398685
_cell_angle_gamma 150.092805
_cell_volume 621.264878
_symmetry_space_group_name_H-M "P -1"
_symmetry_group_IT_number 2
_symmetry_cell_setting 'triclinic'
loop_
_space_group_symop_operation_xyz
x,y,z
-x,-y,-z
loop_
_atom_site_type_symbol
_atom_site_label
_atom_site_fract_x
_atom_site_fract_y
_atom_site_fract_z
Si Si1 0.912216 0.012133 0.090498
Si Si2 0.491225 0.736661 0.960323
Si Si3 0.351741 0.562739 0.382940
Si Si4 0.846049 0.049777 0.652695
Si Si5 0.479571 0.645361 0.748017
Si Si6 0.357702 0.841200 0.896091
Si Si7 0.277332 0.335327 0.326568
O O1 0.067851 0.168712 0.208385
O O2 0.887998 0.108040 0.805707
O O3 0.968971 0.899942 0.238507
O O4 0.715728 0.858232 0.111436
O O5 0.429493 0.708245 0.744352
O O6 0.455080 0.855363 0.853037
O O7 0.374513 0.530109 0.128620
O O8 0.321588 0.548861 0.536132
O O9 0.250490 0.362270 0.428355
O O10 0.578592 0.700229 0.460405
O O11 0.264666 0.646677 0.097856
O O12 0.802600 0.156965 0.365548
O O13 0.673649 0.825859 0.700198
O O14 0.500000 0.500000 0.000000
O O15 0.500000 0.000000 0.000000
#
# Coordination Sequence:
#
# PCOD8000847 Si02
#       7
#     2   2   2   2   2   2   2
#     4  10  20  39  66  96 124 161 221 269 307 374
#     4  10  23  36  70  98 116 170 222 257 312 384
#     4  10  20  35  63  87 125 170 205 256 324 375
#     4  10  21  37  63  95 130 168 205 267 326 374
#     4  11  18  35  62  94 120 160 218 262 302 371
#     4  11  21  41  62  93 134 172 202 258 336 382
#     4  10  19  40  63  93 128 166 212 268 317 367
#
# _framework density 22.534670999999999
#
# number of rings (size 3 to 8) (size 9 to 14) (size 15 to 20)
#    0.000    1.714    4.286    0.000    0.000    2.286 
#    0.000   14.286    0.000   21.429    0.000    0.000 
#    0.000    0.000    0.000    0.000    0.000    0.000 
#
# Total GULP energy -173471.156573 kJ/mol
# GULP energy per Si atom -12390.796898 kJ/mol
# Density = 2.248338 g / cm^3
# Si number density = 22.534671 Si / 1000 Ang^3
#
#
#
# Elastic Constant Matrix: (Units=GPa)
#
#
# Indices 1 2 3 4 5 6 
#
# 1 114.4883 26.4650 29.3121 10.9954 -14.8890 -28.2864
# 2 26.4650 81.6602 17.1294 18.2934 -8.9998 -17.8071
# 3 29.3121 17.1294 147.1382 8.6061 0.9073 -16.4692
# 4 10.9954 18.2934 8.6061 34.0251 -10.8131 -9.4897
# 5 -14.8890 -8.9998 0.9073 -10.8131 30.4722 11.0481
# 6 -28.2864 -17.8071 -16.4692 -9.4897 11.0481 36.2218
#
#
#
# Elastic Compliance Matrix: (Units=1/GPa)
#
#
# Indices 1 2 3 4 5 6 
#
# 1 0.011480 -0.001733 -0.001371 0.000339 0.002823 0.006718
# 2 -0.001733 0.015268 -0.000583 -0.006351 -0.000118 0.004260
# 3 -0.001371 -0.000583 0.007499 -0.001212 -0.002388 0.002463
# 4 0.000339 -0.006351 -0.001212 0.037181 0.010371 0.003170
# 5 0.002823 -0.000118 -0.002388 0.010371 0.041086 -0.008754
# 6 0.006718 0.004260 0.002463 0.003170 -0.008754 0.039569
#
#
# Mechanical properties :
#
#
# Convention : Reuss Voigt Hill
#
# Bulk Modulus (GPa) = 37.21133 54.34441 45.77787
# Shear Modulus (GPa) = 29.68847 38.16917 33.92882
#
# Velocity S-wave (km/s) = 3.63362 4.12004 3.88445
# Velocity P-wave (km/s) = 5.84406 6.84114 6.36216
#
# Compressibility (1/GPa) = 0.02687354
#
# Stress axis : x y z
#
# Youngs Moduli (GPa) = 87.10507 65.49446 133.35772
#
# Poissons Ratio (x) = 0.11351 0.18278
# Poissons Ratio (y) = 0.15096 0.07778
# Poissons Ratio (z) = 0.11939 0.03820
#
# Static dielectric constant tensor:
#      x y z
#    x 4.371330 -0.469920 -0.338840 
#    y -0.469920 3.894630 0.224570 
#    z -0.338840 0.224570 4.247090 
# 
# 
# High freq. dielectric constant tensor:
#      x y z
#    x 1.882040 -0.027990 -0.029080 
#    y -0.027990 1.869330 0.008770 
#    z -0.029080 0.008770 1.887040 
# 
# From -- ./inp_files/314524.got.cif
#   From: 2010.06.25/outbox.cif.g09.slc.cpg/sg2_158_cif.got.tgz:314524.got - 2010.06.27 13:26:56.
