data_PCOD8000218
_publ_section_title
;
Structure prediction by ZEFSAII (Michael W. Deem and Ramdas Pophale) SiO2 
 PCOD8000218
Probable space group: P 1
;
_chemical_formula_sum "Si O2"
_cell_formula_units_Z 6
_cell_length_a 10.511942
_cell_length_b 5.139307
_cell_length_c 5.186464
_cell_angle_alpha 90.003660
_cell_angle_beta 73.600672
_cell_angle_gamma 89.997830
_cell_volume 268.794980
_symmetry_space_group_name_H-M "P 1"
_symmetry_group_IT_number 1
_symmetry_cell_setting 'triclinic'
loop_
_space_group_symop_operation_xyz
x,y,z
loop_
_atom_site_type_symbol
_atom_site_label
_atom_site_fract_x
_atom_site_fract_y
_atom_site_fract_z
Si Si1 0.248800 0.155150 0.220570
Si Si2 0.748798 0.080425 0.720625
Si Si3 0.136554 0.670137 0.077240
Si Si4 0.533230 0.346632 0.123936
Si Si5 0.033240 0.888952 0.623826
Si Si6 0.636532 0.565445 0.577378
O O1 0.392742 0.210398 0.255848
O O2 0.250984 0.891747 0.046477
O O3 0.146854 0.110798 0.518667
O O4 0.200050 0.386903 0.063465
O O5 0.700027 0.848677 0.563526
O O6 0.892745 0.025159 0.755861
O O7 0.750973 0.343828 0.546568
O O8 0.646860 0.124795 0.018743
O O9 0.066036 0.700400 0.842998
O O10 0.027544 0.713245 0.367193
O O11 0.565974 0.535106 0.343217
O O12 0.527553 0.522413 0.867368
#
# Coordination Sequence:
#
# PCOD8000218 Si02
#       6
#     1   1   1   1   1   1
#     4  10  26  44  67 101 130 177 218 276 329 396
#     4  10  26  44  67 101 130 177 218 276 329 396
#     4  10  26  39  71  94 138 168 223 265 338 389
#     4  10  26  43  70  97 134 173 221 275 329 397
#     4  10  26  43  70  97 134 173 221 275 329 397
#     4  10  26  39  71  94 138 168 223 265 338 389
#
# _framework density 22.321843000000001
#
# number of rings (size 3 to 8) (size 9 to 14) (size 15 to 20)
#    2.000    0.000    0.000    0.000   14.000    0.000 
#    0.000    0.000    0.000    0.000    0.000    0.000 
#    0.000    0.000    0.000    0.000    0.000    0.000 
#
# Total GULP energy -74340.071573 kJ/mol
# GULP energy per Si atom -12390.011929 kJ/mol
# Density = 2.227104 g / cm^3
# Si number density = 22.321843 Si / 1000 Ang^3
#
#
#
# Elastic Constant Matrix: (Units=GPa)
#
#
# Indices 1 2 3 4 5 6 
#
# 1 106.7115 14.5928 52.6540 12.6881 -16.2162 -9.7863
# 2 14.5928 100.2780 32.8138 -7.1680 -3.9233 9.0067
# 3 52.6540 32.8138 130.9511 4.1889 19.0684 -4.4487
# 4 12.6881 -7.1680 4.1889 23.2677 -0.9126 8.4439
# 5 -16.2162 -3.9233 19.0684 -0.9126 34.2168 5.5891
# 6 -9.7863 9.0067 -4.4487 8.4439 5.5891 30.9008
#
#
#
# Elastic Compliance Matrix: (Units=1/GPa)
#
#
# Indices 1 2 3 4 5 6 
#
# 1 0.016340 -0.000544 -0.007570 -0.009007 0.010887 0.004736
# 2 -0.000544 0.012908 -0.004270 0.008019 0.005067 -0.007657
# 3 -0.007570 -0.004270 0.013703 -0.001380 -0.012310 0.003423
# 4 -0.009007 0.008019 -0.001380 0.058648 0.002557 -0.021877
# 5 0.010887 0.005067 -0.012310 0.002557 0.043254 -0.008323
# 6 0.004736 -0.007657 0.003423 -0.021877 -0.008323 0.044070
#
#
# Mechanical properties :
#
#
# Convention : Reuss Voigt Hill
#
# Bulk Modulus (GPa) = 54.99673 59.78465 57.39069
# Shear Modulus (GPa) = 22.75282 33.53572 28.14427
#
# Velocity S-wave (km/s) = 3.19612 3.88025 3.55468
# Velocity P-wave (km/s) = 6.18966 6.84955 6.52794
#
# Compressibility (1/GPa) = 0.01818290
#
# Stress axis : x y z
#
# Youngs Moduli (GPa) = 61.19786 77.47157 72.97495
#
# Poissons Ratio (x) = 0.04214 0.55244
# Poissons Ratio (y) = 0.03329 0.31162
# Poissons Ratio (z) = 0.46328 0.33082
#
# Static dielectric constant tensor:
#      x y z
#    x 3.695190 0.011810 -0.107640 
#    y 0.011810 3.840100 0.005960 
#    z -0.107640 0.005960 3.743700 
# 
# 
# High freq. dielectric constant tensor:
#      x y z
#    x 1.862030 0.003490 0.002750 
#    y 0.003490 1.878500 -0.002310 
#    z 0.002750 -0.002310 1.866010 
# 
# From -- ./inp_files/1936.got.cif
#   From: 2010.03.12/outbox.cif.g09.slc.cpg/sg1_1_cif.got.tgz:1936.got - 2010.03.29 11:57:58.
