data_PCOD8000380
_publ_section_title
;
Structure prediction by ZEFSAII (Michael W. Deem and Ramdas Pophale) SiO2 
 PCOD8000380
Probable space group: P -1
;
_chemical_formula_sum "Si O2"
_cell_formula_units_Z 16
_cell_length_a 23.564011
_cell_length_b 8.973938
_cell_length_c 19.174363
_cell_angle_alpha 143.257602
_cell_angle_beta 20.045282
_cell_angle_gamma 142.306133
_cell_volume 816.607318
_symmetry_space_group_name_H-M "P -1"
_symmetry_group_IT_number 2
_symmetry_cell_setting 'triclinic'
loop_
_space_group_symop_operation_xyz
x,y,z
-x,-y,-z
loop_
_atom_site_type_symbol
_atom_site_label
_atom_site_fract_x
_atom_site_fract_y
_atom_site_fract_z
Si Si1 0.631369 0.372726 0.097469
Si Si2 0.665020 0.437122 0.753072
Si Si3 0.917200 0.223493 0.464721
Si Si4 0.727423 0.796591 0.616729
Si Si5 0.189683 0.052106 0.275377
Si Si6 0.779263 0.297751 0.431030
Si Si7 0.104897 0.237960 0.117951
Si Si8 0.337777 0.093847 0.694206
O O1 0.445807 0.238412 0.238791
O O2 0.620203 0.599098 0.250814
O O3 0.736323 0.169939 0.932975
O O4 0.747215 0.508958 0.950155
O O5 0.737650 0.242046 0.644967
O O6 0.638971 0.321301 0.661280
O O7 0.795856 0.705261 0.700221
O O8 0.500000 0.500000 0.000000
O O9 0.000000 0.500000 0.500000
O O10 0.039455 0.139867 0.232788
O O11 0.877364 0.000457 0.484058
O O12 0.791766 0.528804 0.448072
O O13 0.693815 0.891458 0.768633
O O14 0.000000 0.000000 0.500000
O O15 0.956388 0.313085 0.270731
O O16 0.723170 0.033994 0.356653
O O17 0.187744 0.028659 0.901376
O O18 0.500000 0.000000 0.500000
#
# Coordination Sequence:
#
# PCOD8000380 Si02
#       8
#     2   2   2   2   2   2   2   2
#     4  10  20  34  58  87 113 150 201 238 291 339
#     4  10  22  36  58  84 118 150 188 241 296 347
#     4  11  22  37  55  87 122 154 186 242 300 351
#     4  11  21  34  61  84 121 149 196 242 293 343
#     4  11  21  37  56  85 114 153 197 239 290 352
#     4  10  19  39  60  90 113 159 198 243 286 347
#     4   9  21  36  61  83 115 155 196 239 290 345
#     4  10  20  37  62  89 117 151 205 244 285 347
#
# _framework density 19.593260000000001
#
# number of rings (size 3 to 8) (size 9 to 14) (size 15 to 20)
#    0.750    1.000    1.250    5.250    0.000    4.000 
#    0.000    0.625    0.000    6.750    0.000    0.000 
#    0.000    0.000    0.000    0.000    0.000    0.000 
#
# Total GULP energy -198220.998569 kJ/mol
# GULP energy per Si atom -12388.812411 kJ/mol
# Density = 1.954867 g / cm^3
# Si number density = 19.593260 Si / 1000 Ang^3
#
#
#
# Elastic Constant Matrix: (Units=GPa)
#
#
# Indices 1 2 3 4 5 6 
#
# 1 50.8161 27.9104 28.2240 3.0366 6.5248 4.3276
# 2 27.9104 84.1275 27.8250 8.5861 4.0491 9.3641
# 3 28.2240 27.8250 131.3719 8.8869 6.8725 7.1670
# 4 3.0366 8.5861 8.8869 41.7167 1.8403 0.7551
# 5 6.5248 4.0491 6.8725 1.8403 26.8203 2.3457
# 6 4.3276 9.3641 7.1670 0.7551 2.3457 33.0266
#
#
#
# Elastic Compliance Matrix: (Units=1/GPa)
#
#
# Indices 1 2 3 4 5 6 
#
# 1 0.026405 -0.007286 -0.003931 0.000611 -0.004337 -0.000247
# 2 -0.007286 0.015319 -0.001370 -0.002286 0.000235 -0.003056
# 3 -0.003931 -0.001370 0.008934 -0.001276 -0.000957 -0.000938
# 4 0.000611 -0.002286 -0.001276 0.024716 -0.001204 0.000365
# 5 -0.004337 0.000235 -0.000957 -0.001204 0.038809 -0.002020
# 6 -0.000247 -0.003056 -0.000938 0.000365 -0.002020 0.031516
#
#
# Mechanical properties :
#
#
# Convention : Reuss Voigt Hill
#
# Bulk Modulus (GPa) = 39.23960 48.24825 43.74392
# Shear Modulus (GPa) = 27.87550 32.46979 30.17265
#
# Velocity S-wave (km/s) = 3.77597 4.07528 3.92848
# Velocity P-wave (km/s) = 6.25150 6.84268 6.55376
#
# Compressibility (1/GPa) = 0.02548446
#
# Stress axis : x y z
#
# Youngs Moduli (GPa) = 37.87116 65.27677 111.92947
#
# Poissons Ratio (x) = 0.47563 0.43995
# Poissons Ratio (y) = 0.27594 0.15337
# Poissons Ratio (z) = 0.14886 0.08945
#
# Static dielectric constant tensor:
#      x y z
#    x 3.485460 0.144250 0.018150 
#    y 0.144250 3.507060 0.201930 
#    z 0.018150 0.201930 3.660130 
# 
# 
# High freq. dielectric constant tensor:
#      x y z
#    x 1.744610 0.007630 -0.014520 
#    y 0.007630 1.752270 0.006780 
#    z -0.014520 0.006780 1.768510 
# 
# From -- ./inp_files/579059.got.cif
#   From: 2010.06.25/outbox.cif.g09.slc.cpg/sg2_290_cif.got.tgz:579059.got - 2010.06.27 13:26:56.
