data_PCOD8000652
_publ_section_title
;
Structure prediction by ZEFSAII (Michael W. Deem and Ramdas Pophale) SiO2 
 PCOD8000652
Probable space group: P -1
;
_chemical_formula_sum "Si O2"
_cell_formula_units_Z 16
_cell_length_a 14.979778
_cell_length_b 8.747835
_cell_length_c 15.238497
_cell_angle_alpha 103.393231
_cell_angle_beta 39.319255
_cell_angle_gamma 73.038758
_cell_volume 794.216334
_symmetry_space_group_name_H-M "P -1"
_symmetry_group_IT_number 2
_symmetry_cell_setting 'triclinic'
loop_
_space_group_symop_operation_xyz
x,y,z
-x,-y,-z
loop_
_atom_site_type_symbol
_atom_site_label
_atom_site_fract_x
_atom_site_fract_y
_atom_site_fract_z
Si Si1 0.260052 0.772205 0.462953
Si Si2 0.963757 0.507540 0.815733
Si Si3 0.430222 0.357785 0.939770
Si Si4 0.065844 0.820960 0.352842
Si Si5 0.102734 0.565866 0.546411
Si Si6 0.330053 0.980932 0.558818
Si Si7 0.787049 0.837019 0.669000
Si Si8 0.215261 0.244983 0.842820
O O1 0.424025 0.684397 0.249665
O O2 0.254006 0.589486 0.450562
O O3 0.314349 0.812047 0.518617
O O4 0.021526 0.039790 0.654446
O O5 0.042440 0.554229 0.685700
O O6 0.781797 0.538874 0.928975
O O7 0.846810 0.725353 0.003969
O O8 0.171399 0.233862 0.658962
O O9 0.559559 0.121813 0.869087
O O10 0.327135 0.576535 0.113404
O O11 0.956382 0.748412 0.452951
O O12 0.000000 0.000000 0.500000
O O13 0.244633 0.321055 0.347994
O O14 0.883347 0.789182 0.686410
O O15 0.579905 0.813152 0.328745
O O16 0.274478 0.038082 0.713258
O O17 0.000000 0.500000 0.000000
#
# Coordination Sequence:
#
# PCOD8000652 Si02
#       8
#     2   2   2   2   2   2   2   2
#     4  11  22  38  62  91 125 160 207 259 310 353
#     4  11  20  38  63  92 121 160 209 248 308 371
#     4  11  22  39  66  87 117 171 221 249 290 370
#     4  11  21  42  59  86 123 163 210 261 293 349
#     4  11  23  42  55  89 136 166 201 266 308 351
#     4  10  19  39  66  92 123 152 200 261 306 366
#     4  10  23  41  58  82 130 173 214 249 305 354
#     4   9  20  36  67  96 114 152 205 249 309 378
#
# _framework density 20.145643
#
# number of rings (size 3 to 8) (size 9 to 14) (size 15 to 20)
#    0.000    1.500    5.000    0.750    0.000    2.500 
#    2.250    0.625    0.000    6.750    0.000    0.000 
#    0.000    0.000    0.000    0.000    0.000    0.000 
#
# Total GULP energy -198251.948054 kJ/mol
# GULP energy per Si atom -12390.746753 kJ/mol
# Density = 2.009979 g / cm^3
# Si number density = 20.145643 Si / 1000 Ang^3
#
#
#
# Elastic Constant Matrix: (Units=GPa)
#
#
# Indices 1 2 3 4 5 6 
#
# 1 121.6547 41.4916 52.7457 3.9660 8.3983 24.3362
# 2 41.4916 82.6474 43.5975 -1.3967 -2.3397 17.4065
# 3 52.7457 43.5975 119.9102 24.5607 1.1582 4.1840
# 4 3.9660 -1.3967 24.5607 27.5534 -1.0268 1.6364
# 5 8.3983 -2.3397 1.1582 -1.0268 39.4443 4.5978
# 6 24.3362 17.4065 4.1840 1.6364 4.5978 35.2306
#
#
#
# Elastic Compliance Matrix: (Units=1/GPa)
#
#
# Indices 1 2 3 4 5 6 
#
# 1 0.012578 -0.002172 -0.005091 0.002962 -0.001774 -0.006917
# 2 -0.002172 0.018975 -0.007437 0.008474 0.002932 -0.007768
# 3 -0.005091 -0.007437 0.016011 -0.014310 -0.000908 0.006073
# 4 0.002962 0.008474 -0.014310 0.049567 0.002416 -0.007151
# 5 -0.001774 0.002932 -0.000908 0.002416 0.026422 -0.003676
# 6 -0.006917 -0.007768 0.006073 -0.007151 -0.003676 0.037091
#
#
# Mechanical properties :
#
#
# Convention : Reuss Voigt Hill
#
# Bulk Modulus (GPa) = 55.05401 66.65354 60.85378
# Shear Modulus (GPa) = 25.49744 32.87081 29.18413
#
# Velocity S-wave (km/s) = 3.56146 4.04376 3.81025
# Velocity P-wave (km/s) = 6.65578 7.41352 7.04485
#
# Compressibility (1/GPa) = 0.01816398
#
# Stress axis : x y z
#
# Youngs Moduli (GPa) = 79.50578 52.70039 62.45755
#
# Poissons Ratio (x) = 0.11448 0.31798
# Poissons Ratio (y) = 0.17270 0.46447
# Poissons Ratio (z) = 0.40477 0.39191
#
# Static dielectric constant tensor:
#      x y z
#    x 4.310070 0.004300 0.098650 
#    y 0.004300 3.507600 0.098160 
#    z 0.098650 0.098160 4.140350 
# 
# 
# High freq. dielectric constant tensor:
#      x y z
#    x 1.803580 0.002860 0.006040 
#    y 0.002860 1.750090 0.012770 
#    z 0.006040 0.012770 1.795310 
# 
# From -- ./inp_files/529878.got.cif
#   From: 2010.06.25/outbox.cif.g09.slc.cpg/sg2_265_cif.got.tgz:529878.got - 2010.06.27 13:26:56.
