data_PCOD8000693
_publ_section_title
;
Structure prediction by ZEFSAII (Michael W. Deem and Ramdas Pophale) SiO2 
 PCOD8000693
Probable space group: P -1
;
_chemical_formula_sum "Si O2"
_cell_formula_units_Z 14
_cell_length_a 13.769446
_cell_length_b 7.672902
_cell_length_c 10.986625
_cell_angle_alpha 78.872898
_cell_angle_beta 60.284778
_cell_angle_gamma 40.791732
_cell_volume 623.696043
_symmetry_space_group_name_H-M "P -1"
_symmetry_group_IT_number 2
_symmetry_cell_setting 'triclinic'
loop_
_space_group_symop_operation_xyz
x,y,z
-x,-y,-z
loop_
_atom_site_type_symbol
_atom_site_label
_atom_site_fract_x
_atom_site_fract_y
_atom_site_fract_z
Si Si1 0.359441 0.020410 0.581871
Si Si2 0.301274 0.761881 0.042071
Si Si3 0.982081 0.865806 0.624644
Si Si4 0.255187 0.010756 0.416694
Si Si5 0.207816 0.236727 0.907083
Si Si6 0.303865 0.593127 0.580613
Si Si7 0.651264 0.551888 0.160974
O O1 0.243318 0.175765 0.507814
O O2 0.486649 0.688134 0.539771
O O3 0.500000 0.000000 0.500000
O O4 0.245520 0.155555 0.753622
O O5 0.160951 0.897823 0.217250
O O6 0.500000 0.500000 0.000000
O O7 0.265366 0.658127 0.974809
O O8 0.280464 0.986117 0.974909
O O9 0.175032 0.593114 0.604596
O O10 0.904955 0.787650 0.609876
O O11 0.000000 0.000000 0.500000
O O12 0.235475 0.854282 0.526393
O O13 0.437895 0.801768 0.256621
O O14 0.294489 0.308158 0.897371
O O15 0.000000 0.500000 0.000000
O O16 0.270108 0.632281 0.740604
#
# Coordination Sequence:
#
# PCOD8000693 Si02
#       7
#     2   2   2   2   2   2   2
#     4  11  21  39  68  92 132 179 223 275 345 398
#     4  12  26  45  72 100 142 189 226 283 363 408
#     4  10  23  41  67  98 134 171 234 285 336 412
#     4  10  19  39  67  99 129 179 229 278 340 415
#     4  12  27  44  71 108 141 175 239 297 335 411
#     4  10  20  38  69  97 132 174 232 287 332 410
#     4  11  22  44  70 100 137 184 232 280 349 414
#
# _framework density 22.446829999999999
#
# number of rings (size 3 to 8) (size 9 to 14) (size 15 to 20)
#    0.000    1.143    4.286    4.286    2.000    5.143 
#    0.000    0.714    3.143    0.000    0.000    0.000 
#    0.000    0.000    0.000    0.000    0.000    0.000 
#
# Total GULP energy -173518.540253 kJ/mol
# GULP energy per Si atom -12394.181447 kJ/mol
# Density = 2.239574 g / cm^3
# Si number density = 22.446830 Si / 1000 Ang^3
#
#
#
# Elastic Constant Matrix: (Units=GPa)
#
#
# Indices 1 2 3 4 5 6 
#
# 1 172.1512 32.3813 59.9798 1.5027 20.1343 -22.8472
# 2 32.3813 66.6648 35.8509 0.5386 0.4577 -11.8758
# 3 59.9798 35.8509 172.7276 2.5476 13.8362 -3.4436
# 4 1.5027 0.5386 2.5476 21.8029 1.0533 -8.4034
# 5 20.1343 0.4577 13.8362 1.0533 40.7780 3.2894
# 6 -22.8472 -11.8758 -3.4436 -8.4034 3.2894 52.1514
#
#
#
# Elastic Compliance Matrix: (Units=1/GPa)
#
#
# Indices 1 2 3 4 5 6 
#
# 1 0.007680 -0.002130 -0.001906 0.001124 -0.003405 0.003150
# 2 -0.002130 0.018253 -0.003135 0.001180 0.001630 0.003104
# 3 -0.001906 -0.003135 0.007202 -0.001011 -0.001348 -0.001151
# 4 0.001124 0.001180 -0.001011 0.049371 -0.002210 0.008789
# 5 -0.003405 0.001630 -0.001348 -0.002210 0.026964 -0.003266
# 6 0.003150 0.003104 -0.001151 0.008789 -0.003266 0.022808
#
#
# Mechanical properties :
#
#
# Convention : Reuss Voigt Hill
#
# Bulk Modulus (GPa) = 53.21074 74.21862 63.71468
# Shear Modulus (GPa) = 32.70450 41.83522 37.26986
#
# Velocity S-wave (km/s) = 3.82118 4.32180 4.07917
# Velocity P-wave (km/s) = 6.57459 7.61839 7.11566
#
# Compressibility (1/GPa) = 0.01879320
#
# Stress axis : x y z
#
# Youngs Moduli (GPa) = 130.21033 54.78494 138.85178
#
# Poissons Ratio (x) = 0.11670 0.26462
# Poissons Ratio (y) = 0.27737 0.43530
# Poissons Ratio (z) = 0.24815 0.17175
#
# Static dielectric constant tensor:
#      x y z
#    x 5.298820 -0.652580 -0.134670 
#    y -0.652580 4.243360 0.064580 
#    z -0.134670 0.064580 4.036860 
# 
# 
# High freq. dielectric constant tensor:
#      x y z
#    x 1.918450 -0.012420 0.001250 
#    y -0.012420 1.863050 -0.002740 
#    z 0.001250 -0.002740 1.888650 
# 
# From -- ./inp_files/445850.got.cif
#   From: 2010.06.25/outbox.cif.g09.slc.cpg/sg2_223_cif.got.tgz:445850.got - 2010.06.27 13:26:56.
