data_PCOD8000019
_publ_section_title
;
Structure prediction by ZEFSAII (Michael W. Deem and Ramdas Pophale) SiO2 
 PCOD8000019
Probable space group: P 1
;
_chemical_formula_sum "Si O2"
_cell_formula_units_Z 8
_cell_length_a 9.102467
_cell_length_b 7.603598
_cell_length_c 13.053365
_cell_angle_alpha 88.609633
_cell_angle_beta 145.939291
_cell_angle_gamma 104.511938
_cell_volume 460.998288
_symmetry_space_group_name_H-M "P 1"
_symmetry_group_IT_number 1
_symmetry_cell_setting 'triclinic'
loop_
_space_group_symop_operation_xyz
x,y,z
loop_
_atom_site_type_symbol
_atom_site_label
_atom_site_fract_x
_atom_site_fract_y
_atom_site_fract_z
Si Si1 0.530210 0.368030 0.115790
Si Si2 0.452933 0.964463 0.003723
Si Si3 0.812702 0.511551 0.484763
Si Si4 0.472960 0.917604 0.579119
Si Si5 0.814546 0.754065 0.166070
Si Si6 0.892899 0.220335 0.686781
Si Si7 0.825798 0.819807 0.636258
Si Si8 0.431640 0.803697 0.788390
O O1 0.583154 0.179316 0.120314
O O2 0.584188 0.409306 0.266319
O O3 0.752541 0.542831 0.175106
O O4 0.210484 0.347653 0.909654
O O5 0.664256 0.858458 0.153482
O O6 0.417601 0.963259 0.858440
O O7 0.129427 0.836328 0.861181
O O8 0.791022 0.348153 0.554700
O O9 0.716589 0.662576 0.485656
O O10 0.129668 0.615457 0.617141
O O11 0.585136 0.771016 0.587683
O O12 0.502199 0.897192 0.716900
O O13 0.153722 0.877385 0.359273
O O14 0.675322 0.138117 0.659355
O O15 0.683871 0.741070 0.975722
O O16 0.887942 0.033794 0.623602
#
# Coordination Sequence:
#
# PCOD8000019 Si02
#       8
#     1   1   1   1   1   1   1   1
#     4  11  19  36  61  86 109 150 198 232 268 348
#     4   8  19  38  58  82 113 151 196 225 274 352
#     4  11  19  37  63  83 110 158 194 223 283 347
#     4  10  20  40  59  84 122 148 180 247 296 317
#     4  10  20  37  60  85 117 146 192 236 281 339
#     4   9  21  38  57  84 118 143 193 235 277 337
#     4   8  19  38  59  82 120 147 186 239 282 337
#     4   9  19  38  61  80 117 153 183 237 287 331
#
# _framework density 17.353643000000002
#
# number of rings (size 3 to 8) (size 9 to 14) (size 15 to 20)
#    1.500    1.000    2.500    0.000    0.000    2.000 
#    4.500    2.500    0.000    0.000    0.000    0.000 
#    0.000    0.000    0.000    0.000    0.000    0.000 
#
# Total GULP energy -99108.323933 kJ/mol
# GULP energy per Si atom -12388.540492 kJ/mol
# Density = 1.731415 g / cm^3
# Si number density = 17.353643 Si / 1000 Ang^3
#
#
#
# Elastic Constant Matrix: (Units=GPa)
#
#
# Indices 1 2 3 4 5 6 
#
# 1 88.7473 31.5954 42.1656 -2.7205 0.8535 -0.9940
# 2 31.5954 78.6000 29.6372 2.1341 -12.9876 2.4545
# 3 42.1656 29.6372 87.3405 -6.6286 -9.2039 -3.1272
# 4 -2.7205 2.1341 -6.6286 24.6731 -0.6304 -5.4342
# 5 0.8535 -12.9876 -9.2039 -0.6304 35.3349 -0.6291
# 6 -0.9940 2.4545 -3.1272 -5.4342 -0.6291 35.8668
#
#
#
# Elastic Compliance Matrix: (Units=1/GPa)
#
#
# Indices 1 2 3 4 5 6 
#
# 1 0.016083 -0.004634 -0.006558 0.000355 -0.003790 0.000178
# 2 -0.004634 0.016830 -0.003214 -0.003120 0.005370 -0.001939
# 3 -0.006558 -0.003214 0.016490 0.004562 0.003393 0.002227
# 4 0.000355 -0.003120 0.004562 0.043687 0.000942 0.007257
# 5 -0.003790 0.005370 0.003393 0.000942 0.031276 0.000515
# 6 0.000178 -0.001939 0.002227 0.007257 0.000515 0.029321
#
#
# Mechanical properties :
#
#
# Convention : Reuss Voigt Hill
#
# Bulk Modulus (GPa) = 48.56590 51.27604 49.92097
# Shear Modulus (GPa) = 26.40450 29.26092 27.83271
#
# Velocity S-wave (km/s) = 3.90494 4.11074 4.00916
# Velocity P-wave (km/s) = 6.95544 7.22099 7.08946
#
# Compressibility (1/GPa) = 0.02059058
#
# Stress axis : x y z
#
# Youngs Moduli (GPa) = 62.17821 59.41834 60.64378
#
# Poissons Ratio (x) = 0.27532 0.39771
# Poissons Ratio (y) = 0.28811 0.19492
# Poissons Ratio (z) = 0.40777 0.19098
#
# Static dielectric constant tensor:
#      x y z
#    x 3.082700 -0.077510 0.089490 
#    y -0.077510 3.060350 0.057720 
#    z 0.089490 0.057720 3.219020 
# 
# 
# High freq. dielectric constant tensor:
#      x y z
#    x 1.652860 -0.003580 0.009500 
#    y -0.003580 1.658620 0.004100 
#    z 0.009500 0.004100 1.669830 
# 
# From -- ./inp_files/3536.got.cif
#   From: 2010.03.12/outbox.cif.g09.slc.cpg/sg1_2_cif.got.tgz:3536.got - 2010.03.29 11:57:58.
