data_PCOD8000430
_publ_section_title
;
Structure prediction by ZEFSAII (Michael W. Deem and Ramdas Pophale) SiO2 
 PCOD8000430
Probable space group: P -1
;
_chemical_formula_sum "Si O2"
_cell_formula_units_Z 14
_cell_length_a 14.330186
_cell_length_b 9.716473
_cell_length_c 14.239795
_cell_angle_alpha 99.407370
_cell_angle_beta 35.704033
_cell_angle_gamma 126.961360
_cell_volume 663.409055
_symmetry_space_group_name_H-M "P -1"
_symmetry_group_IT_number 2
_symmetry_cell_setting 'triclinic'
loop_
_space_group_symop_operation_xyz
x,y,z
-x,-y,-z
loop_
_atom_site_type_symbol
_atom_site_label
_atom_site_fract_x
_atom_site_fract_y
_atom_site_fract_z
Si Si1 0.363758 0.805456 0.332905
Si Si2 0.552704 0.798156 0.922462
Si Si3 0.403790 0.321061 0.482492
Si Si4 0.320508 0.953252 0.566973
Si Si5 0.303517 0.442246 0.927696
Si Si6 0.769848 0.889797 0.944743
Si Si7 0.128929 0.720646 0.322720
O O1 0.374202 0.920995 0.420208
O O2 0.213423 0.779850 0.369162
O O3 0.189313 0.540264 0.465372
O O4 0.670373 0.969286 0.075793
O O5 0.511685 0.671629 0.852006
O O6 0.597511 0.736913 0.972549
O O7 0.824938 0.088373 0.726915
O O8 0.297258 0.722898 0.128442
O O9 0.500000 0.500000 0.500000
O O10 0.598119 0.470105 0.249409
O O11 0.425556 0.185834 0.498492
O O12 0.091190 0.128152 0.685965
O O13 0.500000 0.000000 0.500000
O O14 0.003134 0.714524 0.829429
O O15 0.297008 0.276050 0.943176
#
# Coordination Sequence:
#
# PCOD8000430 Si02
#       7
#     2   2   2   2   2   2   2
#     4  10  20  41  63  98 129 169 216 262 325 378
#     4  10  19  39  62 102 129 166 214 258 328 385
#     4  11  28  48  64  94 131 175 222 268 322 383
#     4  11  26  44  71  95 125 171 224 271 318 381
#     4  11  24  45  66  93 137 169 210 274 321 386
#     4  10  25  40  68  97 131 175 208 262 328 396
#     4   9  19  34  66  94 136 165 202 273 316 385
#
# _framework density 21.103117999999998
#
# number of rings (size 3 to 8) (size 9 to 14) (size 15 to 20)
#    0.000    1.714    1.429    1.286    6.000    2.286 
#    2.571    0.000    0.000    0.000    0.000    0.000 
#    0.000    0.000    0.000    0.000    0.000    0.000 
#
# Total GULP energy -173598.652705 kJ/mol
# GULP energy per Si atom -12399.903765 kJ/mol
# Density = 2.105509 g / cm^3
# Si number density = 21.103118 Si / 1000 Ang^3
#
#
#
# Elastic Constant Matrix: (Units=GPa)
#
#
# Indices 1 2 3 4 5 6 
#
# 1 89.9907 53.0998 36.5477 7.8995 1.7341 -1.7479
# 2 53.0998 114.1212 42.9942 15.6796 8.5061 12.9954
# 3 36.5477 42.9942 86.2339 12.1723 8.6028 -0.5861
# 4 7.8995 15.6796 12.1723 30.0147 -0.0248 14.8920
# 5 1.7341 8.5061 8.6028 -0.0248 39.0356 5.9656
# 6 -1.7479 12.9954 -0.5861 14.8920 5.9656 29.7195
#
#
#
# Elastic Compliance Matrix: (Units=1/GPa)
#
#
# Indices 1 2 3 4 5 6 
#
# 1 0.016802 -0.006843 -0.003519 -0.001702 0.000816 0.004600
# 2 -0.006843 0.014387 -0.004060 -0.001077 -0.001015 -0.006030
# 3 -0.003519 -0.004060 0.016419 -0.006521 -0.003477 0.005858
# 4 -0.001702 -0.001077 -0.006521 0.049811 0.005732 -0.025868
# 5 0.000816 -0.001015 -0.003477 0.005732 0.027800 -0.008029
# 6 0.004600 -0.006030 0.005858 -0.025868 -0.008029 0.051245
#
#
# Mechanical properties :
#
#
# Convention : Reuss Voigt Hill
#
# Bulk Modulus (GPa) = 53.29639 61.73660 57.51649
# Shear Modulus (GPa) = 23.63358 30.26757 26.95057
#
# Velocity S-wave (km/s) = 3.35014 3.79128 3.57752
# Velocity P-wave (km/s) = 6.34623 6.96300 6.66175
#
# Compressibility (1/GPa) = 0.01876300
#
# Stress axis : x y z
#
# Youngs Moduli (GPa) = 59.51559 69.50928 60.90353
#
# Poissons Ratio (x) = 0.47565 0.21434
# Poissons Ratio (y) = 0.40726 0.24729
# Poissons Ratio (z) = 0.20946 0.28223
#
# Static dielectric constant tensor:
#      x y z
#    x 1.400030 -1.039040 -0.434100 
#    y -1.039040 3.375750 -0.318010 
#    z -0.434100 -0.318010 3.894250 
# 
# 
# High freq. dielectric constant tensor:
#      x y z
#    x 1.826050 -0.004760 0.006170 
#    y -0.004760 1.823730 0.001530 
#    z 0.006170 0.001530 1.834380 
# 
# From -- ./inp_files/187209.got.cif
#   From: 2010.06.25/outbox.cif.g09.slc.cpg/sg2_94_cif.got.tgz:187209.got - 2010.06.27 13:26:56.
