data_PCOD8000525
_publ_section_title
;
Structure prediction by ZEFSAII (Michael W. Deem and Ramdas Pophale) SiO2 
 PCOD8000525
Probable space group: P -1
;
_chemical_formula_sum "Si O2"
_cell_formula_units_Z 16
_cell_length_a 11.682324
_cell_length_b 20.036327
_cell_length_c 18.760434
_cell_angle_alpha 161.982688
_cell_angle_beta 148.151297
_cell_angle_gamma 28.308739
_cell_volume 641.871421
_symmetry_space_group_name_H-M "P -1"
_symmetry_group_IT_number 2
_symmetry_cell_setting 'triclinic'
loop_
_space_group_symop_operation_xyz
x,y,z
-x,-y,-z
loop_
_atom_site_type_symbol
_atom_site_label
_atom_site_fract_x
_atom_site_fract_y
_atom_site_fract_z
Si Si1 0.104497 0.042729 0.940712
Si Si2 0.498058 0.592763 0.739900
Si Si3 0.936087 0.119411 0.474567
Si Si4 0.732502 0.676218 0.578020
Si Si5 0.227654 0.534593 0.888942
Si Si6 0.248655 0.129475 0.775771
Si Si7 0.666881 0.888364 0.404745
Si Si8 0.209821 0.197776 0.413534
O O1 0.357684 0.799644 0.815527
O O2 0.155096 0.219852 0.198215
O O3 0.926634 0.961717 0.804771
O O4 0.975679 0.187870 0.947219
O O5 0.680610 0.344653 0.546652
O O6 0.288761 0.557131 0.637993
O O7 0.644603 0.681356 0.961483
O O8 0.066268 0.216054 0.700494
O O9 0.113775 0.036494 0.414809
O O10 0.897268 0.895864 0.257086
O O11 0.876316 0.644873 0.545865
O O12 0.459359 0.862450 0.602492
O O13 0.203575 0.404824 0.817267
O O14 0.182645 0.389487 0.653561
O O15 0.500000 0.500000 0.000000
O O16 0.500000 0.000000 0.500000
O O17 0.490106 0.990396 0.346709
#
# Coordination Sequence:
#
# PCOD8000525 Si02
#       8
#     2   2   2   2   2   2   2   2
#     4  11  23  40  62  92 137 171 219 267 327 401
#     4  10  22  38  60  95 131 171 209 267 339 393
#     4  10  19  39  63  93 131 168 219 268 326 391
#     4  10  21  38  64 100 133 168 212 270 339 397
#     4  11  24  42  62  90 125 177 224 266 316 381
#     4   9  19  36  63  96 131 169 212 271 326 393
#     4  10  22  42  65  94 127 170 217 275 318 378
#     4  11  22  40  66  95 131 171 215 274 334 386
#
# _framework density 24.927112000000001
#
# number of rings (size 3 to 8) (size 9 to 14) (size 15 to 20)
#    0.000    1.750    2.500    1.500    0.000    5.000 
#    4.500    0.625    0.000   15.750    0.000    0.000 
#    0.000    0.000    0.000    0.000    0.000    0.000 
#
# Total GULP energy -198212.960450 kJ/mol
# GULP energy per Si atom -12388.310028 kJ/mol
# Density = 2.487038 g / cm^3
# Si number density = 24.927112 Si / 1000 Ang^3
#
#
#
# Elastic Constant Matrix: (Units=GPa)
#
#
# Indices 1 2 3 4 5 6 
#
# 1 82.4852 20.6694 30.3559 4.7210 30.1746 -4.0067
# 2 20.6694 169.0545 30.2833 27.4653 10.6561 21.9944
# 3 30.3559 30.2833 131.3008 -15.7126 32.6072 3.9509
# 4 4.7210 27.4653 -15.7126 39.7316 -2.1387 14.2415
# 5 30.1746 10.6561 32.6072 -2.1387 33.4379 1.1579
# 6 -4.0067 21.9944 3.9509 14.2415 1.1579 39.7382
#
#
#
# Elastic Compliance Matrix: (Units=1/GPa)
#
#
# Indices 1 2 3 4 5 6 
#
# 1 0.019281 -0.001061 -0.000706 -0.004417 -0.016817 0.004675
# 2 -0.001061 0.007520 -0.002127 -0.005087 0.000387 -0.002246
# 3 -0.000706 -0.002127 0.011398 0.006278 -0.009330 -0.002006
# 4 -0.004417 -0.005087 0.006278 0.035806 0.002161 -0.011149
# 5 -0.016817 0.000387 -0.009330 0.002161 0.054310 -0.003340
# 6 0.004675 -0.002246 -0.002006 -0.011149 -0.003340 0.031171
#
#
# Mechanical properties :
#
#
# Convention : Reuss Voigt Hill
#
# Bulk Modulus (GPa) = 32.88149 60.60640 46.74395
# Shear Modulus (GPa) = 28.18292 42.68368 35.43330
#
# Velocity S-wave (km/s) = 3.36611 4.14253 3.77434
# Velocity P-wave (km/s) = 5.32234 6.87364 6.14712
#
# Compressibility (1/GPa) = 0.03041224
#
# Stress axis : x y z
#
# Youngs Moduli (GPa) = 51.86429 132.97373 87.73264
#
# Poissons Ratio (x) = 0.14115 0.06191
# Poissons Ratio (y) = 0.05505 0.18656
# Poissons Ratio (z) = 0.03660 0.28277
#
# Static dielectric constant tensor:
#      x y z
#    x 4.328610 0.185970 0.603690 
#    y 0.185970 5.866440 0.317510 
#    z 0.603690 0.317510 4.248200 
# 
# 
# High freq. dielectric constant tensor:
#      x y z
#    x 1.953640 0.001370 0.034800 
#    y 0.001370 2.040730 0.004020 
#    z 0.034800 0.004020 1.988840 
# 
# From -- ./inp_files/596274.got.cif
#   From: 2010.06.25/outbox.cif.g09.slc.cpg/sg2_299_cif.got.tgz:596274.got - 2010.06.27 13:26:56.
