data_PCOD8000712
_publ_section_title
;
Structure prediction by ZEFSAII (Michael W. Deem and Ramdas Pophale) SiO2 
 PCOD8000712
Probable space group: P -1
;
_chemical_formula_sum "Si O2"
_cell_formula_units_Z 16
_cell_length_a 21.701211
_cell_length_b 11.737456
_cell_length_c 18.587934
_cell_angle_alpha 151.416347
_cell_angle_beta 19.223501
_cell_angle_gamma 143.675222
_cell_volume 737.510477
_symmetry_space_group_name_H-M "P -1"
_symmetry_group_IT_number 2
_symmetry_cell_setting 'triclinic'
loop_
_space_group_symop_operation_xyz
x,y,z
-x,-y,-z
loop_
_atom_site_type_symbol
_atom_site_label
_atom_site_fract_x
_atom_site_fract_y
_atom_site_fract_z
Si Si1 0.071967 0.996838 0.838912
Si Si2 0.812372 0.161160 0.830207
Si Si3 0.019729 0.487819 0.613930
Si Si4 0.498042 0.980346 0.646258
Si Si5 0.075666 0.494374 0.729333
Si Si6 0.623236 0.847143 0.975456
Si Si7 0.384698 0.462802 0.961322
Si Si8 0.522443 0.492161 0.675955
O O1 0.031342 0.749564 0.711761
O O2 0.290907 0.013214 0.607513
O O3 0.000000 0.000000 0.000000
O O4 0.959163 0.228982 0.051788
O O5 0.915317 0.359266 0.869101
O O6 0.659615 0.305868 0.024351
O O7 0.000000 0.000000 0.500000
O O8 0.684341 0.014373 0.937666
O O9 0.048302 0.475978 0.662459
O O10 0.823445 0.411503 0.762940
O O11 0.185030 0.309725 0.294199
O O12 0.443102 0.727075 0.540011
O O13 0.475222 0.983165 0.759125
O O14 0.374336 0.223131 0.886383
O O15 0.286496 0.381422 0.460177
O O16 0.480128 0.667597 0.009337
O O17 0.501906 0.375026 0.711785
#
# Coordination Sequence:
#
# PCOD8000712 Si02
#       8
#     2   2   2   2   2   2   2   2
#     4  10  19  39  68  94 131 167 217 279 327 387
#     4  12  24  45  70  97 135 181 232 275 322 401
#     4  11  21  41  67 100 135 169 223 281 333 394
#     4  12  25  44  68 103 141 173 217 286 348 398
#     4  11  21  42  68 102 126 172 229 287 323 382
#     4  12  27  44  63 101 146 178 218 275 343 402
#     4  12  22  43  73 100 130 179 226 276 344 399
#     4  12  23  43  74 101 127 176 235 276 331 399
#
# _framework density 21.694604999999999
#
# number of rings (size 3 to 8) (size 9 to 14) (size 15 to 20)
#    0.000    0.500    6.250    3.000    0.000    4.000 
#    2.250    0.625    0.000    0.000    0.000    0.000 
#    0.000    0.000    0.000    0.000    0.000    0.000 
#
# Total GULP energy -198257.044934 kJ/mol
# GULP energy per Si atom -12391.065308 kJ/mol
# Density = 2.164523 g / cm^3
# Si number density = 21.694605 Si / 1000 Ang^3
#
#
#
# Elastic Constant Matrix: (Units=GPa)
#
#
# Indices 1 2 3 4 5 6 
#
# 1 79.6285 25.2260 50.8853 -3.1302 -7.2513 9.1992
# 2 25.2260 84.9173 31.6593 4.3392 -20.3283 -2.9691
# 3 50.8853 31.6593 105.9333 -5.1793 -18.9650 11.7137
# 4 -3.1302 4.3392 -5.1793 41.2467 10.3350 -9.7307
# 5 -7.2513 -20.3283 -18.9650 10.3350 41.2264 -10.9865
# 6 9.1992 -2.9691 11.7137 -9.7307 -10.9865 25.8253
#
#
#
# Elastic Compliance Matrix: (Units=1/GPa)
#
#
# Indices 1 2 3 4 5 6 
#
# 1 0.019249 -0.003741 -0.008218 0.000590 -0.003696 -0.004909
# 2 -0.003741 0.016291 -0.002399 -0.002871 0.008850 0.006977
# 3 -0.008218 -0.002399 0.015039 -0.000006 0.003586 -0.002646
# 4 0.000590 -0.002871 -0.000006 0.027901 -0.006373 0.007264
# 5 -0.003696 0.008850 0.003586 -0.006373 0.034700 0.013068
# 6 -0.004909 0.006977 -0.002646 0.007264 0.013068 0.050769
#
#
# Mechanical properties :
#
#
# Convention : Reuss Voigt Hill
#
# Bulk Modulus (GPa) = 45.74045 54.00226 49.87135
# Shear Modulus (GPa) = 25.00583 32.50692 28.75638
#
# Velocity S-wave (km/s) = 3.39872 3.87510 3.64470
# Velocity P-wave (km/s) = 6.04411 6.70581 6.38354
#
# Compressibility (1/GPa) = 0.02186249
#
# Stress axis : x y z
#
# Youngs Moduli (GPa) = 51.95113 61.38259 66.49404
#
# Poissons Ratio (x) = 0.22961 0.54646
# Poissons Ratio (y) = 0.19433 0.15954
# Poissons Ratio (z) = 0.42695 0.14728
#
# Static dielectric constant tensor:
#      x y z
#    x 3.577380 0.044030 -0.211180 
#    y 0.044030 4.610410 0.342360 
#    z -0.211180 0.342360 4.144580 
# 
# 
# High freq. dielectric constant tensor:
#      x y z
#    x 1.811830 0.013200 -0.019810 
#    y 0.013200 1.867570 -0.003260 
#    z -0.019810 -0.003260 1.863520 
# 
# From -- ./inp_files/578021.got.cif
#   From: 2010.06.25/outbox.cif.g09.slc.cpg/sg2_290_cif.got.tgz:578021.got - 2010.06.27 13:26:56.
