data_PCOD8000919
_publ_section_title
;
Structure prediction by ZEFSAII (Michael W. Deem and Ramdas Pophale) SiO2 
 PCOD8000919
Probable space group: P -1
;
_chemical_formula_sum "Si O2"
_cell_formula_units_Z 16
_cell_length_a 20.644759
_cell_length_b 9.032380
_cell_length_c 12.055356
_cell_angle_alpha 68.737809
_cell_angle_beta 24.642956
_cell_angle_gamma 82.807019
_cell_volume 742.909182
_symmetry_space_group_name_H-M "P -1"
_symmetry_group_IT_number 2
_symmetry_cell_setting 'triclinic'
loop_
_space_group_symop_operation_xyz
x,y,z
-x,-y,-z
loop_
_atom_site_type_symbol
_atom_site_label
_atom_site_fract_x
_atom_site_fract_y
_atom_site_fract_z
Si Si1 0.611796 0.923186 0.597434
Si Si2 0.100947 0.525262 0.693146
Si Si3 0.295748 0.946245 0.340677
Si Si4 0.601700 0.561446 0.706275
Si Si5 0.624309 0.749732 0.029164
Si Si6 0.286110 0.695624 0.707707
Si Si7 0.172172 0.426924 0.165170
Si Si8 0.795058 0.345834 0.738111
O O1 0.716282 0.989594 0.534606
O O2 0.652502 0.767786 0.533617
O O3 0.691993 0.106216 0.343832
O O4 0.391709 0.834169 0.966860
O O5 0.213901 0.441461 0.592127
O O6 0.122364 0.512107 0.531492
O O7 0.160558 0.728250 0.590198
O O8 0.883747 0.401886 0.088792
O O9 0.257431 0.058167 0.275861
O O10 0.500000 0.000000 0.000000
O O11 0.459956 0.419067 0.878913
O O12 0.500000 0.500000 0.000000
O O13 0.468804 0.749335 0.343571
O O14 0.759179 0.718082 0.905173
O O15 0.258570 0.565931 0.889040
O O16 0.243474 0.555843 0.128178
O O17 0.950498 0.301161 0.542595
#
# Coordination Sequence:
#
# PCOD8000919 Si02
#       8
#     2   2   2   2   2   2   2   2
#     4  12  22  39  64  96 119 164 200 254 310 363
#     4  11  22  41  63  94 124 161 199 255 310 362
#     4  12  20  38  67  93 118 158 205 250 308 362
#     4  12  20  36  68  92 121 154 210 255 297 363
#     4  12  21  40  64  92 124 161 206 250 302 368
#     4  11  26  41  60  87 135 164 199 245 313 368
#     4  10  23  40  64  90 120 167 205 256 299 352
#     4  10  19  40  66  87 117 157 216 251 294 350
#
# _framework density 21.536953
#
# number of rings (size 3 to 8) (size 9 to 14) (size 15 to 20)
#    0.000    0.750    7.500    0.375    0.000    3.000 
#    0.000    6.875    0.000    0.000    0.000    0.000 
#    0.000    0.000    0.000    0.000    0.000    0.000 
#
# Total GULP energy -198297.921080 kJ/mol
# GULP energy per Si atom -12393.620068 kJ/mol
# Density = 2.148793 g / cm^3
# Si number density = 21.536953 Si / 1000 Ang^3
#
#
#
# Elastic Constant Matrix: (Units=GPa)
#
#
# Indices 1 2 3 4 5 6 
#
# 1 77.6066 44.4268 26.7790 0.2804 -1.3352 -14.6608
# 2 44.4268 157.3938 49.8038 -9.7000 -14.1287 -26.4658
# 3 26.7790 49.8038 77.7977 5.5428 -20.7832 -14.7212
# 4 0.2804 -9.7000 5.5428 29.1068 -2.9801 -3.2017
# 5 -1.3352 -14.1287 -20.7832 -2.9801 31.1582 4.1951
# 6 -14.6608 -26.4658 -14.7212 -3.2017 4.1951 45.8296
#
#
#
# Elastic Compliance Matrix: (Units=1/GPa)
#
#
# Indices 1 2 3 4 5 6 
#
# 1 0.016625 -0.003389 -0.004116 -0.000651 -0.003949 0.002355
# 2 -0.003389 0.009641 -0.004359 0.004571 0.001314 0.003282
# 3 -0.004116 -0.004359 0.020562 -0.004042 0.010976 0.001484
# 4 -0.000651 0.004571 -0.004042 0.037292 0.002443 0.003515
# 5 -0.003949 0.001314 0.010976 0.002443 0.040141 -0.000482
# 6 0.002355 0.003282 0.001484 0.003515 -0.000482 0.025235
#
#
# Mechanical properties :
#
#
# Convention : Reuss Voigt Hill
#
# Bulk Modulus (GPa) = 43.28917 61.64638 52.46778
# Shear Modulus (GPa) = 27.63589 34.00481 30.82035
#
# Velocity S-wave (km/s) = 3.58604 3.97786 3.78702
# Velocity P-wave (km/s) = 6.10654 7.05574 6.59823
#
# Compressibility (1/GPa) = 0.02310046
#
# Stress axis : x y z
#
# Youngs Moduli (GPa) = 60.14996 103.72459 48.63341
#
# Poissons Ratio (x) = 0.35150 0.20018
# Poissons Ratio (y) = 0.20384 0.21199
# Poissons Ratio (z) = 0.24758 0.45212
#
# Static dielectric constant tensor:
#      x y z
#    x 4.191640 -0.384700 -0.000840 
#    y -0.384700 3.546500 0.418270 
#    z -0.000840 0.418270 3.488970 
# 
# 
# High freq. dielectric constant tensor:
#      x y z
#    x 1.847940 -0.005870 -0.011250 
#    y -0.005870 1.847850 0.000940 
#    z -0.011250 0.000940 1.832420 
# 
# From -- ./inp_files/542660.got.cif
#   From: 2010.06.25/outbox.cif.g09.slc.cpg/sg2_272_cif.got.tgz:542660.got - 2010.06.27 13:26:56.
