data_PCOD8000796
_publ_section_title
;
Structure prediction by ZEFSAII (Michael W. Deem and Ramdas Pophale) SiO2 
 PCOD8000796
Probable space group: P -1
;
_chemical_formula_sum "Si O2"
_cell_formula_units_Z 16
_cell_length_a 6.210216
_cell_length_b 20.401036
_cell_length_c 18.242706
_cell_angle_alpha 20.220890
_cell_angle_beta 104.680272
_cell_angle_gamma 110.471905
_cell_volume 728.186905
_symmetry_space_group_name_H-M "P -1"
_symmetry_group_IT_number 2
_symmetry_cell_setting 'triclinic'
loop_
_space_group_symop_operation_xyz
x,y,z
-x,-y,-z
loop_
_atom_site_type_symbol
_atom_site_label
_atom_site_fract_x
_atom_site_fract_y
_atom_site_fract_z
Si Si1 0.676724 0.382333 0.455198
Si Si2 0.471984 0.218871 0.764827
Si Si3 0.603667 0.121979 0.586988
Si Si4 0.716477 0.644980 0.945568
Si Si5 0.041138 0.389688 0.264167
Si Si6 0.452146 0.315207 0.957527
Si Si7 0.703922 0.748954 0.683084
Si Si8 0.868691 0.562728 0.490108
O O1 0.537103 0.305051 0.598596
O O2 0.543754 0.241588 0.524175
O O3 0.678950 0.605355 0.201187
O O4 0.949702 0.390462 0.475566
O O5 0.638307 0.363250 0.689952
O O6 0.212304 0.238564 0.737313
O O7 0.500000 0.000000 0.000000
O O8 0.434034 0.117525 0.507446
O O9 0.876954 0.235077 0.471185
O O10 0.540259 0.896944 0.846818
O O11 0.711805 0.739534 0.925881
O O12 0.457552 0.483923 0.083551
O O13 0.917733 0.544307 0.062539
O O14 0.768149 0.810785 0.709521
O O15 0.290187 0.519405 0.184588
O O16 0.069609 0.248830 0.347350
O O17 0.000000 0.500000 0.500000
#
# Coordination Sequence:
#
# PCOD8000796 Si02
#       8
#     2   2   2   2   2   2   2   2
#     4  11  23  43  61  93 135 162 208 264 311 386
#     4  10  23  43  70 101 126 165 211 255 317 389
#     4  11  24  40  61  93 128 172 214 264 322 381
#     4   9  18  36  61  87 123 169 215 279 323 369
#     4  10  19  40  61  85 128 164 221 267 324 381
#     4  11  24  41  61  92 130 170 215 266 320 380
#     4   9  18  36  60  89 124 164 222 273 321 379
#     4   9  22  42  67  93 131 163 201 258 310 380
#
# _framework density 21.972380999999999
#
# number of rings (size 3 to 8) (size 9 to 14) (size 15 to 20)
#    0.000    2.000    3.750    0.375    1.750    8.500 
#    0.000    1.250    0.000    0.000    0.000    0.000 
#    0.000    0.000    0.000    0.000    0.000    0.000 
#
# Total GULP energy -198240.988575 kJ/mol
# GULP energy per Si atom -12390.061786 kJ/mol
# Density = 2.192237 g / cm^3
# Si number density = 21.972381 Si / 1000 Ang^3
#
#
#
# Elastic Constant Matrix: (Units=GPa)
#
#
# Indices 1 2 3 4 5 6 
#
# 1 108.7379 22.8660 36.0566 6.1640 23.1110 -4.4168
# 2 22.8660 58.8474 43.6507 16.3660 3.6583 -3.7046
# 3 36.0566 43.6507 144.5682 4.0656 26.1037 -4.9531
# 4 6.1640 16.3660 4.0656 30.6519 -1.3367 3.8352
# 5 23.1110 3.6583 26.1037 -1.3367 31.2054 6.7024
# 6 -4.4168 -3.7046 -4.9531 3.8352 6.7024 28.9560
#
#
#
# Elastic Compliance Matrix: (Units=1/GPa)
#
#
# Indices 1 2 3 4 5 6 
#
# 1 0.012190 -0.003384 -0.000154 -0.001505 -0.009377 0.003770
# 2 -0.003384 0.027696 -0.007948 -0.013127 0.004855 0.002283
# 3 -0.000154 -0.007948 0.010924 0.002137 -0.008542 0.002522
# 4 -0.001505 -0.013127 0.002137 0.040836 0.004323 -0.007953
# 5 -0.009377 0.004855 -0.008542 0.004323 0.048788 -0.014136
# 6 0.003770 0.002283 0.002522 -0.007953 -0.014136 0.040159
#
#
# Mechanical properties :
#
#
# Convention : Reuss Voigt Hill
#
# Bulk Modulus (GPa) = 35.92043 57.47778 46.69911
# Shear Modulus (GPa) = 23.49130 32.13468 27.81299
#
# Velocity S-wave (km/s) = 3.27330 3.82842 3.56169
# Velocity P-wave (km/s) = 5.53800 6.76449 6.18174
#
# Compressibility (1/GPa) = 0.02783931
#
# Stress axis : x y z
#
# Youngs Moduli (GPa) = 82.03124 36.10653 91.54067
#
# Poissons Ratio (x) = 0.12217 0.01411
# Poissons Ratio (y) = 0.27756 0.72755
# Poissons Ratio (z) = 0.01264 0.28697
#
# Static dielectric constant tensor:
#      x y z
#    x 4.245970 0.041670 0.169290 
#    y 0.041670 4.190540 0.191390 
#    z 0.169290 0.191390 3.790520 
# 
# 
# High freq. dielectric constant tensor:
#      x y z
#    x 1.870380 -0.006550 0.016540 
#    y -0.006550 1.854080 0.011940 
#    z 0.016540 0.011940 1.846680 
# 
# From -- ./inp_files/550975.got.cif
#   From: 2010.06.25/outbox.cif.g09.slc.cpg/sg2_276_cif.got.tgz:550975.got - 2010.06.27 13:26:56.
