data_PCOD8000709
_publ_section_title
;
Structure prediction by ZEFSAII (Michael W. Deem and Ramdas Pophale) SiO2 
 PCOD8000709
Probable space group: P -1
;
_chemical_formula_sum "Si O2"
_cell_formula_units_Z 14
_cell_length_a 8.546315
_cell_length_b 12.954939
_cell_length_c 11.126913
_cell_angle_alpha 70.586767
_cell_angle_beta 46.330786
_cell_angle_gamma 46.970061
_cell_volume 628.553863
_symmetry_space_group_name_H-M "P -1"
_symmetry_group_IT_number 2
_symmetry_cell_setting 'triclinic'
loop_
_space_group_symop_operation_xyz
x,y,z
-x,-y,-z
loop_
_atom_site_type_symbol
_atom_site_label
_atom_site_fract_x
_atom_site_fract_y
_atom_site_fract_z
Si Si1 0.466171 0.621479 0.127648
Si Si2 0.760113 0.390133 0.238218
Si Si3 0.778342 0.521894 0.402738
Si Si4 0.499019 0.968653 0.215087
Si Si5 0.945999 0.763261 0.498305
Si Si6 0.411222 0.176467 0.003485
Si Si7 0.926105 0.720165 0.266352
O O1 0.717738 0.451845 0.100513
O O2 0.600888 0.694000 0.997735
O O3 0.263528 0.703533 0.322281
O O4 0.267351 0.640594 0.117349
O O5 0.704433 0.509236 0.312775
O O6 0.520415 0.376995 0.399451
O O7 0.085394 0.236548 0.138644
O O8 0.914307 0.595998 0.292683
O O9 0.018867 0.359546 0.394933
O O10 0.221362 0.086115 0.399320
O O11 0.433914 0.894407 0.180776
O O12 0.767247 0.846850 0.203317
O O13 0.577721 0.052274 0.065994
O O14 0.786285 0.788056 0.446813
#
# Coordination Sequence:
#
# PCOD8000709 Si02
#       7
#     2   2   2   2   2   2   2
#     4   9  22  38  66  92 125 156 207 258 308 357
#     4  10  20  38  65  93 122 160 206 261 301 356
#     4  10  19  39  68  94 120 156 213 260 301 354
#     4  11  23  42  62  88 130 168 204 246 311 368
#     4   9  20  40  64  92 121 160 208 252 298 367
#     4  11  23  42  60  92 129 163 204 253 308 372
#     4  10  22  40  64  97 121 161 208 252 310 366
#
# _framework density 22.273351000000002
#
# number of rings (size 3 to 8) (size 9 to 14) (size 15 to 20)
#    0.857    1.143    1.429    2.143    0.000    1.143 
#    5.143    4.286    0.000    0.000    0.000    0.000 
#    0.000    0.000    0.000    0.000    0.000    0.000 
#
# Total GULP energy -173487.716251 kJ/mol
# GULP energy per Si atom -12391.979732 kJ/mol
# Density = 2.222266 g / cm^3
# Si number density = 22.273351 Si / 1000 Ang^3
#
#
#
# Elastic Constant Matrix: (Units=GPa)
#
#
# Indices 1 2 3 4 5 6 
#
# 1 85.4820 47.2284 10.4837 -14.1323 -7.8828 -16.3747
# 2 47.2284 140.8147 24.5131 -14.1272 -8.5587 -31.0648
# 3 10.4837 24.5131 22.2910 3.1782 -0.6321 -7.7085
# 4 -14.1323 -14.1272 3.1782 32.1784 -0.7682 12.0381
# 5 -7.8828 -8.5587 -0.6321 -0.7682 27.4362 -5.4060
# 6 -16.3747 -31.0648 -7.7085 12.0381 -5.4060 37.9186
#
#
#
# Elastic Compliance Matrix: (Units=1/GPa)
#
#
# Indices 1 2 3 4 5 6 
#
# 1 0.015611 -0.003414 -0.003408 0.004950 0.003922 0.002240
# 2 -0.003414 0.011655 -0.009407 0.002421 0.003672 0.005917
# 3 -0.003408 -0.009407 0.061553 -0.014654 -0.001371 0.007792
# 4 0.004950 0.002421 -0.014654 0.040072 0.000700 -0.011480
# 5 0.003922 0.003672 -0.001371 0.000700 0.040679 0.010001
# 6 0.002240 0.005917 0.007792 -0.011480 0.010001 0.038842
#
#
# Mechanical properties :
#
#
# Convention : Reuss Voigt Hill
#
# Bulk Modulus (GPa) = 17.74210 45.89312 31.81761
# Shear Modulus (GPa) = 19.25608 30.59746 24.92677
#
# Velocity S-wave (km/s) = 2.94349 3.71040 3.34897
# Velocity P-wave (km/s) = 4.41985 6.24542 5.41019
#
# Compressibility (1/GPa) = 0.05636310
#
# Stress axis : x y z
#
# Youngs Moduli (GPa) = 64.05568 85.79715 16.24605
#
# Poissons Ratio (x) = 0.29287 0.05537
# Poissons Ratio (y) = 0.21866 0.15282
# Poissons Ratio (z) = 0.21833 0.80707
#
# Static dielectric constant tensor:
#      x y z
#    x 3.820330 -0.202170 0.239310 
#    y -0.202170 3.901450 -0.000660 
#    z 0.239310 -0.000660 3.939330 
# 
# 
# High freq. dielectric constant tensor:
#      x y z
#    x 1.860330 -0.017160 0.020780 
#    y -0.017160 1.875050 -0.002740 
#    z 0.020780 -0.002740 1.869900 
# 
# From -- ./inp_files/398901.got.cif
#   From: 2010.06.25/outbox.cif.g09.slc.cpg/sg2_200_cif.got.tgz:398901.got - 2010.06.27 13:26:56.
