data_PCOD8000771
_publ_section_title
;
Structure prediction by ZEFSAII (Michael W. Deem and Ramdas Pophale) SiO2 
 PCOD8000771
Probable space group: P -1
;
_chemical_formula_sum "Si O2"
_cell_formula_units_Z 16
_cell_length_a 11.944975
_cell_length_b 8.942601
_cell_length_c 8.652866
_cell_angle_alpha 67.397389
_cell_angle_beta 69.512942
_cell_angle_gamma 95.498041
_cell_volume 770.457646
_symmetry_space_group_name_H-M "P -1"
_symmetry_group_IT_number 2
_symmetry_cell_setting 'triclinic'
loop_
_space_group_symop_operation_xyz
x,y,z
-x,-y,-z
loop_
_atom_site_type_symbol
_atom_site_label
_atom_site_fract_x
_atom_site_fract_y
_atom_site_fract_z
Si Si1 0.863966 0.006666 0.243858
Si Si2 0.251074 0.275476 0.260638
Si Si3 0.625104 0.340989 0.456382
Si Si4 0.022872 0.677226 0.109135
Si Si5 0.806804 0.515348 0.052437
Si Si6 0.991074 0.773704 0.411913
Si Si7 0.645501 0.678544 0.491086
Si Si8 0.774130 0.102975 0.557179
O O1 0.816384 0.114365 0.353703
O O2 0.758784 0.835558 0.320520
O O3 0.906698 0.125356 0.028519
O O4 0.982290 0.954185 0.278397
O O5 0.354898 0.348666 0.312127
O O6 0.120738 0.287695 0.389971
O O7 0.260510 0.088147 0.291150
O O8 0.269307 0.378198 0.051806
O O9 0.703172 0.375429 0.246882
O O10 0.659365 0.509904 0.472910
O O11 0.480104 0.278242 0.515263
O O12 0.660368 0.188601 0.590974
O O13 0.984440 0.647782 0.319290
O O14 0.900454 0.632238 0.081169
O O15 0.116001 0.566672 0.069984
O O16 0.117273 0.785352 0.435296
#
# Coordination Sequence:
#
# PCOD8000771 Si02
#       8
#     2   2   2   2   2   2   2   2
#     4  10  19  40  58  91 117 162 195 245 295 357
#     4  10  22  39  59  89 120 162 194 245 295 356
#     4  11  22  42  63  89 116 160 198 253 290 355
#     4  11  22  35  57  93 125 158 196 242 299 356
#     4  11  23  37  59  89 128 154 196 246 302 352
#     4  10  20  33  59  85 123 154 194 240 291 356
#     4   9  23  41  66  84 118 154 209 242 299 347
#     4  10  20  36  61  86 119 155 200 238 297 352
#
# _framework density 20.766877999999998
#
# number of rings (size 3 to 8) (size 9 to 14) (size 15 to 20)
#    0.000    2.000    1.250    4.875    3.500    4.000 
#    0.000    0.000    0.000    2.250    0.000    0.000 
#    0.000    0.000    0.000    0.000    0.000    0.000 
#
# Total GULP energy -198350.800794 kJ/mol
# GULP energy per Si atom -12396.925050 kJ/mol
# Density = 2.071961 g / cm^3
# Si number density = 20.766878 Si / 1000 Ang^3
#
#
#
# Elastic Constant Matrix: (Units=GPa)
#
#
# Indices 1 2 3 4 5 6 
#
# 1 111.4154 38.7183 11.8677 -0.3758 16.1770 -13.9280
# 2 38.7183 74.7561 20.6292 11.3021 8.7465 -11.1196
# 3 11.8677 20.6292 43.5165 -11.9686 7.1906 -1.2008
# 4 -0.3758 11.3021 -11.9686 29.3262 -0.3332 2.5309
# 5 16.1770 8.7465 7.1906 -0.3332 19.7638 3.4953
# 6 -13.9280 -11.1196 -1.2008 2.5309 3.4953 31.7214
#
#
#
# Elastic Compliance Matrix: (Units=1/GPa)
#
#
# Indices 1 2 3 4 5 6 
#
# 1 0.012663 -0.005612 0.001523 0.002457 -0.009185 0.004467
# 2 -0.005612 0.023495 -0.013171 -0.015112 -0.002461 0.006750
# 3 0.001523 -0.013171 0.035357 0.019733 -0.007353 -0.003374
# 4 0.002457 -0.015112 0.019733 0.048635 -0.000390 -0.007309
# 5 -0.009185 -0.002461 -0.007353 -0.000390 0.064030 -0.012198
# 6 0.004467 0.006750 -0.003374 -0.007309 -0.012198 0.037651
#
#
# Mechanical properties :
#
#
# Convention : Reuss Voigt Hill
#
# Bulk Modulus (GPa) = 27.02927 41.34648 34.18787
# Shear Modulus (GPa) = 18.60933 26.72713 22.66823
#
# Velocity S-wave (km/s) = 2.99675 3.59138 3.30746
# Velocity P-wave (km/s) = 5.00178 6.09511 5.57531
#
# Compressibility (1/GPa) = 0.03699693
#
# Stress axis : x y z
#
# Youngs Moduli (GPa) = 78.96714 42.56307 28.28275
#
# Poissons Ratio (x) = 0.23884 -0.04308
# Poissons Ratio (y) = 0.44313 0.37251
# Poissons Ratio (z) = -0.12028 0.56059
#
# Static dielectric constant tensor:
#      x y z
#    x 3.731690 -0.074680 0.123870 
#    y -0.074680 3.748810 0.095730 
#    z 0.123870 0.095730 3.556120 
# 
# 
# High freq. dielectric constant tensor:
#      x y z
#    x 1.805450 -0.009510 0.017460 
#    y -0.009510 1.821010 0.004970 
#    z 0.017460 0.004970 1.791220 
# 
# From -- ./inp_files/242934.got.cif
#   From: 2010.06.25/outbox.cif.g09.slc.cpg/sg2_122_cif.got.tgz:242934.got - 2010.06.27 13:26:56.
