data_PCOD8000339
_publ_section_title
;
Structure prediction by ZEFSAII (Michael W. Deem and Ramdas Pophale) SiO2 
 PCOD8000339
Probable space group: P -1
;
_chemical_formula_sum "Si O2"
_cell_formula_units_Z 14
_cell_length_a 13.183933
_cell_length_b 11.026055
_cell_length_c 11.083925
_cell_angle_alpha 81.725203
_cell_angle_beta 63.087620
_cell_angle_gamma 34.038028
_cell_volume 712.760141
_symmetry_space_group_name_H-M "P -1"
_symmetry_group_IT_number 2
_symmetry_cell_setting 'triclinic'
loop_
_space_group_symop_operation_xyz
x,y,z
-x,-y,-z
loop_
_atom_site_type_symbol
_atom_site_label
_atom_site_fract_x
_atom_site_fract_y
_atom_site_fract_z
Si Si1 0.377231 0.298430 0.211729
Si Si2 0.418048 0.119664 0.742582
Si Si3 0.319612 0.787772 0.341270
Si Si4 0.304047 0.419647 0.958250
Si Si5 0.836400 0.337162 0.539910
Si Si6 0.801048 0.914985 0.177718
Si Si7 0.467332 0.767841 0.499749
O O1 0.182286 0.554069 0.351551
O O2 0.376646 0.156627 0.276164
O O3 0.624864 0.125594 0.138796
O O4 0.337047 0.340846 0.086213
O O5 0.314678 0.295508 0.880824
O O6 0.223008 0.211498 0.780663
O O7 0.512861 0.116813 0.586653
O O8 0.508917 0.652957 0.163176
O O9 0.266267 0.696847 0.358278
O O10 0.410454 0.717997 0.438740
O O11 0.099012 0.078856 0.399712
O O12 0.057016 0.712857 0.035903
O O13 0.706416 0.512062 0.469315
O O14 0.733775 0.041710 0.321693
#
# Coordination Sequence:
#
# PCOD8000339 Si02
#       7
#     2   2   2   2   2   2   2
#     4   9  21  36  56  81 112 147 178 221 272 325
#     4   9  20  36  56  84 113 142 184 216 272 329
#     4  10  23  37  59  82 106 144 190 226 271 321
#     4  11  20  37  53  82 115 147 175 225 273 323
#     4  10  21  41  58  79 108 144 188 232 265 316
#     4   9  20  34  56  82 114 141 179 220 271 329
#     4  10  19  39  59  83 107 145 183 228 269 319
#
# _framework density 19.641950999999999
#
# number of rings (size 3 to 8) (size 9 to 14) (size 15 to 20)
#    0.857    1.429    0.000    2.571    0.000    2.857 
#    5.143    6.429    0.000    0.000    0.000    0.000 
#    0.000    0.000    0.000    0.000    0.000    0.000 
#
# Total GULP energy -173548.718599 kJ/mol
# GULP energy per Si atom -12396.337043 kJ/mol
# Density = 1.959724 g / cm^3
# Si number density = 19.641951 Si / 1000 Ang^3
#
#
#
# Elastic Constant Matrix: (Units=GPa)
#
#
# Indices 1 2 3 4 5 6 
#
# 1 15.6203 10.6349 22.0793 2.3390 -0.3923 -5.4183
# 2 10.6349 75.3162 29.0800 4.5850 7.8457 -6.1666
# 3 22.0793 29.0800 74.9510 18.8933 3.4599 -2.6742
# 4 2.3390 4.5850 18.8933 24.1698 -5.5823 0.5358
# 5 -0.3923 7.8457 3.4599 -5.5823 32.6823 -0.4982
# 6 -5.4183 -6.1666 -2.6742 0.5358 -0.4982 24.8465
#
#
#
# Elastic Compliance Matrix: (Units=1/GPa)
#
#
# Indices 1 2 3 4 5 6 
#
# 1 0.132282 -0.002531 -0.043711 0.023934 0.011265 0.023224
# 2 -0.002531 0.016277 -0.005483 0.000640 -0.003205 0.002820
# 3 -0.043711 -0.005483 0.034184 -0.022879 -0.006840 -0.006857
# 4 0.023934 0.000640 -0.022879 0.059732 0.012787 0.001884
# 5 0.011265 -0.003205 -0.006840 0.012787 0.034431 0.001340
# 6 0.023224 0.002820 -0.006857 0.001884 0.001340 0.045260
#
#
# Mechanical properties :
#
#
# Convention : Reuss Voigt Hill
#
# Bulk Modulus (GPa) = 12.61105 32.16399 22.38752
# Shear Modulus (GPa) = 11.06082 23.27929 17.17005
#
# Velocity S-wave (km/s) = 2.37559 3.44638 2.95981
# Velocity P-wave (km/s) = 3.73617 5.67868 4.80658
#
# Compressibility (1/GPa) = 0.07929551
#
# Stress axis : x y z
#
# Youngs Moduli (GPa) = 7.55959 61.43491 29.25349
#
# Poissons Ratio (x) = 0.15547 1.27869
# Poissons Ratio (y) = 0.01913 0.16039
# Poissons Ratio (z) = 0.33043 0.33683
#
# Static dielectric constant tensor:
#      x y z
#    x 3.526450 -0.065260 0.135860 
#    y -0.065260 3.541980 0.123750 
#    z 0.135860 0.123750 3.401680 
# 
# 
# High freq. dielectric constant tensor:
#      x y z
#    x 1.761190 -0.005020 0.016920 
#    y -0.005020 1.762210 0.008870 
#    z 0.016920 0.008870 1.756510 
# 
# From -- ./inp_files/249172.got.cif
#   From: 2010.06.25/outbox.cif.g09.slc.cpg/sg2_125_cif.got.tgz:249172.got - 2010.06.27 13:26:56.
