data_PCOD8000262
_publ_section_title
;
Structure prediction by ZEFSAII (Michael W. Deem and Ramdas Pophale) SiO2 
 PCOD8000262
Probable space group: P 1
;
_chemical_formula_sum "Si O2"
_cell_formula_units_Z 6
_cell_length_a 7.329320
_cell_length_b 7.287736
_cell_length_c 5.172706
_cell_angle_alpha 93.389455
_cell_angle_beta 64.685192
_cell_angle_gamma 62.804337
_cell_volume 210.726008
_symmetry_space_group_name_H-M "P 1"
_symmetry_group_IT_number 1
_symmetry_cell_setting 'triclinic'
loop_
_space_group_symop_operation_xyz
x,y,z
loop_
_atom_site_type_symbol
_atom_site_label
_atom_site_fract_x
_atom_site_fract_y
_atom_site_fract_z
Si Si1 0.110150 0.457320 0.726370
Si Si2 0.529920 0.088812 0.732811
Si Si3 0.233506 0.054752 0.360016
Si Si4 0.535924 0.471481 0.844316
Si Si5 0.046246 0.757994 0.339959
Si Si6 0.640239 0.650668 0.303055
O O1 0.379905 0.268609 0.619470
O O2 0.043590 0.304181 0.585340
O O3 0.115224 0.632106 0.558487
O O4 0.915890 0.579336 0.083838
O O5 0.639488 0.217781 0.821612
O O6 0.760433 0.856990 0.468282
O O7 0.378042 0.040634 0.015269
O O8 0.432435 0.913454 0.460636
O O9 0.069685 0.964316 0.376361
O O10 0.645080 0.516608 0.533465
O O11 0.555451 0.589172 0.090880
O O12 0.238888 0.595987 0.991462
#
# Coordination Sequence:
#
# PCOD8000262 Si02
#       6
#     1   1   1   1   1   1
#     4  12  27  49  77 114 154 203 255 320 381 458
#     4  12  26  47  79 113 151 204 259 309 391 454
#     4  11  26  48  75 113 150 203 257 310 389 450
#     4  11  26  50  79 116 152 206 255 318 383 454
#     4  11  26  53  73 111 157 195 259 319 378 458
#     4  11  27  49  81 113 158 199 259 318 382 456
#
# _framework density 28.472992999999999
#
# number of rings (size 3 to 8) (size 9 to 14) (size 15 to 20)
#    0.000    0.667    3.333    3.000    9.333    1.333 
#    6.000    0.000    0.000    0.000    0.000    0.000 
#    0.000    0.000    0.000    0.000    0.000    0.000 
#
# Total GULP energy -74420.064719 kJ/mol
# GULP energy per Si atom -12403.344120 kJ/mol
# Density = 2.840819 g / cm^3
# Si number density = 28.472993 Si / 1000 Ang^3
#
#
#
# Elastic Constant Matrix: (Units=GPa)
#
#
# Indices 1 2 3 4 5 6 
#
# 1 38.6135 30.0975 15.3275 -12.1338 -17.5762 -9.9350
# 2 30.0975 158.7282 79.8049 1.3229 -8.0528 13.9082
# 3 15.3275 79.8049 192.3419 -0.7058 -22.5827 8.0830
# 4 -12.1338 1.3229 -0.7058 69.5153 1.6341 -2.7309
# 5 -17.5762 -8.0528 -22.5827 1.6341 39.9922 -3.0695
# 6 -9.9350 13.9082 8.0830 -2.7309 -3.0695 57.1131
#
#
#
# Elastic Compliance Matrix: (Units=1/GPa)
#
#
# Indices 1 2 3 4 5 6 
#
# 1 0.048718 -0.010571 0.002520 0.008711 0.021290 0.012253
# 2 -0.010571 0.010390 -0.003885 -0.002130 -0.004982 -0.004189
# 3 0.002520 -0.003885 0.007097 0.000509 0.004361 0.000639
# 4 0.008711 -0.002130 0.000509 0.015989 0.003256 0.002902
# 5 0.021290 -0.004982 0.004361 0.003256 0.036179 0.006400
# 6 0.012253 -0.004189 0.000639 0.002902 0.006400 0.021053
#
#
# Mechanical properties :
#
#
# Convention : Reuss Voigt Hill
#
# Bulk Modulus (GPa) = 23.62202 71.12706 47.37454
# Shear Modulus (GPa) = 28.18347 50.95436 39.56891
#
# Velocity S-wave (km/s) = 3.14957 4.23492 3.73191
# Velocity P-wave (km/s) = 4.64120 6.99625 5.93667
#
# Compressibility (1/GPa) = 0.04233338
#
# Stress axis : x y z
#
# Youngs Moduli (GPa) = 20.52642 96.24681 140.89789
#
# Poissons Ratio (x) = 1.01743 -0.35513
# Poissons Ratio (y) = 0.21699 0.54742
# Poissons Ratio (z) = -0.05174 0.37394
#
# Static dielectric constant tensor:
#      x y z
#    x 6.150460 0.396550 0.085170 
#    y 0.396550 5.722850 0.696470 
#    z 0.085170 0.696470 5.384970 
# 
# 
# High freq. dielectric constant tensor:
#      x y z
#    x 2.216480 0.021810 0.005900 
#    y 0.021810 2.172050 0.033830 
#    z 0.005900 0.033830 2.160000 
# 
# From -- ./inp_files/1056.got.cif
#   From: 2010.03.12/outbox.cif.g09.slc.cpg/sg1_1_cif.got.tgz:1056.got - 2010.03.29 11:57:58.
