data_PCOD8000305
_publ_section_title
;
Structure prediction by ZEFSAII (Michael W. Deem and Ramdas Pophale) SiO2 
 PCOD8000305
Probable space group: P -1
;
_chemical_formula_sum "Si O2"
_cell_formula_units_Z 12
_cell_length_a 14.936932
_cell_length_b 11.671814
_cell_length_c 8.007223
_cell_angle_alpha 55.328890
_cell_angle_beta 44.104154
_cell_angle_gamma 32.113520
_cell_volume 513.550555
_symmetry_space_group_name_H-M "P -1"
_symmetry_group_IT_number 2
_symmetry_cell_setting 'triclinic'
loop_
_space_group_symop_operation_xyz
x,y,z
-x,-y,-z
loop_
_atom_site_type_symbol
_atom_site_label
_atom_site_fract_x
_atom_site_fract_y
_atom_site_fract_z
Si Si1 0.998872 0.586572 0.597893
Si Si2 0.433553 0.206900 0.471768
Si Si3 0.304948 0.759336 0.903413
Si Si4 0.542624 0.365073 0.708153
Si Si5 0.629339 0.764980 0.083994
Si Si6 0.910621 0.975856 0.366695
O O1 0.217909 0.422381 0.512985
O O2 0.000000 0.500000 0.500000
O O3 0.905128 0.814139 0.497822
O O4 0.862153 0.614991 0.889007
O O5 0.593252 0.185962 0.203678
O O6 0.433130 0.224785 0.655544
O O7 0.500000 0.000000 0.500000
O O8 0.477691 0.497386 0.857286
O O9 0.194829 0.878288 0.777791
O O10 0.137409 0.845265 0.187455
O O11 0.500000 0.500000 0.500000
O O12 0.409422 0.335616 0.898924
O O13 0.780203 0.130854 0.575380
O O14 0.500000 0.000000 0.000000
#
# Coordination Sequence:
#
# PCOD8000305 Si02
#       6
#     2   2   2   2   2   2
#     4  12  25  43  68  99 137 186 235 283 351 410
#     4  12  26  44  65 102 141 180 235 287 342 416
#     4  10  21  41  69  96 137 178 234 282 347 406
#     4  10  19  38  70  97 131 177 226 278 341 412
#     4  12  22  44  72 100 138 179 230 283 347 413
#     4  10  20  40  66  98 128 184 225 279 345 412
#
# _framework density 23.366734999999998
#
# number of rings (size 3 to 8) (size 9 to 14) (size 15 to 20)
#    0.000    1.000    5.000    3.500    0.000    3.333 
#    3.000    0.833    0.000    0.000    0.000    0.000 
#    0.000    0.000    0.000    0.000    0.000    0.000 
#
# Total GULP energy -148825.518694 kJ/mol
# GULP energy per Si atom -12402.126558 kJ/mol
# Density = 2.331355 g / cm^3
# Si number density = 23.366735 Si / 1000 Ang^3
#
#
#
# Elastic Constant Matrix: (Units=GPa)
#
#
# Indices 1 2 3 4 5 6 
#
# 1 91.1886 36.1379 41.8983 14.3311 -27.7769 25.7417
# 2 36.1379 124.8357 44.0086 22.7657 -16.6913 31.4473
# 3 41.8983 44.0086 145.4189 31.7939 -49.6662 14.9985
# 4 14.3311 22.7657 31.7939 48.8401 -2.8756 -6.0270
# 5 -27.7769 -16.6913 -49.6662 -2.8756 46.0228 -5.2030
# 6 25.7417 31.4473 14.9985 -6.0270 -5.2030 45.5345
#
#
#
# Elastic Compliance Matrix: (Units=1/GPa)
#
#
# Indices 1 2 3 4 5 6 
#
# 1 0.017348 -0.000565 0.000693 -0.005864 0.009592 -0.009325
# 2 -0.000565 0.011767 -0.000610 -0.005811 0.001984 -0.008149
# 3 0.000693 -0.000610 0.014142 -0.008786 0.014441 -0.004142
# 4 -0.005864 -0.005811 -0.008786 0.031548 -0.011680 0.013063
# 5 0.009592 0.001984 0.014441 -0.011680 0.042156 -0.008279
# 6 -0.009325 -0.008149 -0.004142 0.013063 -0.008279 0.035008
#
#
# Mechanical properties :
#
#
# Convention : Reuss Voigt Hill
#
# Bulk Modulus (GPa) = 23.64489 67.28144 45.46316
# Shear Modulus (GPa) = 29.93473 44.03937 36.98705
#
# Velocity S-wave (km/s) = 3.58310 4.34603 3.98288
# Velocity P-wave (km/s) = 5.22103 7.35120 6.37571
#
# Compressibility (1/GPa) = 0.04229243
#
# Stress axis : x y z
#
# Youngs Moduli (GPa) = 57.64434 84.98536 70.71148
#
# Poissons Ratio (x) = 0.04803 -0.04898
# Poissons Ratio (y) = 0.03258 0.04310
# Poissons Ratio (z) = -0.03993 0.05180
#
# Static dielectric constant tensor:
#      x y z
#    x 3.972880 0.206000 -0.210140 
#    y 0.206000 4.761440 0.432260 
#    z -0.210140 0.432260 4.845160 
# 
# 
# High freq. dielectric constant tensor:
#      x y z
#    x 1.907530 0.009080 -0.017370 
#    y 0.009080 1.939640 0.006250 
#    z -0.017370 0.006250 1.942810 
# 
# From -- ./inp_files/151809.got.cif
#   From: 2010.06.25/outbox.cif.g09.slc.cpg/sg2_76_cif.got.tgz:151809.got - 2010.06.27 13:26:56.
