data_PCOD8000957
_publ_section_title
;
Structure prediction by ZEFSAII (Michael W. Deem and Ramdas Pophale) SiO2 
 PCOD8000957
Probable space group: P -1
;
_chemical_formula_sum "Si O2"
_cell_formula_units_Z 16
_cell_length_a 11.124150
_cell_length_b 7.285132
_cell_length_c 13.073288
_cell_angle_alpha 112.403470
_cell_angle_beta 41.468320
_cell_angle_gamma 96.338926
_cell_volume 621.514935
_symmetry_space_group_name_H-M "P -1"
_symmetry_group_IT_number 2
_symmetry_cell_setting 'triclinic'
loop_
_space_group_symop_operation_xyz
x,y,z
-x,-y,-z
loop_
_atom_site_type_symbol
_atom_site_label
_atom_site_fract_x
_atom_site_fract_y
_atom_site_fract_z
Si Si1 0.853456 0.157273 0.198391
Si Si2 0.348523 0.011622 0.011479
Si Si3 0.635934 0.691718 0.281685
Si Si4 0.275268 0.029269 0.567154
Si Si5 0.087794 0.382684 0.565579
Si Si6 0.506356 0.310418 0.314719
Si Si7 0.847510 0.622355 0.926074
Si Si8 0.018846 0.825472 0.599772
O O1 0.836062 0.073006 0.302311
O O2 0.643828 0.211011 0.297634
O O3 0.943967 0.344837 0.189685
O O4 0.000000 0.000000 0.000000
O O5 0.414205 0.793481 0.865224
O O6 0.316945 0.199560 0.988829
O O7 0.151257 0.034835 0.195702
O O8 0.500000 0.000000 0.000000
O O9 0.498015 0.915107 0.383577
O O10 0.501155 0.550136 0.364728
O O11 0.749077 0.738894 0.320469
O O12 0.775736 0.587567 0.077512
O O13 0.162103 0.973701 0.528839
O O14 0.297033 0.281344 0.464275
O O15 0.102953 0.594212 0.546472
O O16 0.913447 0.420183 0.767045
O O17 0.052241 0.214272 0.475059
#
# Coordination Sequence:
#
# PCOD8000957 Si02
#       8
#     2   2   2   2   2   2   2   2
#     4  12  21  41  68  91 130 172 220 264 314 387
#     4  11  21  39  72  96 125 169 231 267 307 385
#     4  11  25  39  64 101 137 167 205 273 343 382
#     4  11  21  43  67  94 129 178 207 262 337 386
#     4  10  21  38  69  94 122 165 229 268 303 382
#     4  12  23  40  67 105 125 165 226 271 314 395
#     4  11  23  43  63  97 132 174 208 270 337 378
#     4  10  19  40  67  91 122 170 220 265 317 369
#
# _framework density 25.743549000000002
#
# number of rings (size 3 to 8) (size 9 to 14) (size 15 to 20)
#    0.000    1.000    7.500    0.000    0.000    2.500 
#    0.000    2.500    0.000    1.500    0.000    0.000 
#    0.000    0.000    0.000    0.000    0.000    0.000 
#
# Total GULP energy -198223.287631 kJ/mol
# GULP energy per Si atom -12388.955477 kJ/mol
# Density = 2.568496 g / cm^3
# Si number density = 25.743549 Si / 1000 Ang^3
#
#
#
# Elastic Constant Matrix: (Units=GPa)
#
#
# Indices 1 2 3 4 5 6 
#
# 1 169.8963 36.8198 30.5339 6.4291 -7.8417 22.0083
# 2 36.8198 43.9136 14.9434 0.0844 2.7009 26.8408
# 3 30.5339 14.9434 125.5899 8.5407 12.6209 6.8235
# 4 6.4291 0.0844 8.5407 34.5281 2.5415 -0.7431
# 5 -7.8417 2.7009 12.6209 2.5415 47.3681 4.5112
# 6 22.0083 26.8408 6.8235 -0.7431 4.5112 37.4665
#
#
#
# Elastic Compliance Matrix: (Units=1/GPa)
#
#
# Indices 1 2 3 4 5 6 
#
# 1 0.007556 -0.005864 -0.001242 -0.001239 0.002009 -0.000278
# 2 -0.005864 0.046526 -0.002562 0.000994 -0.000197 -0.029376
# 3 -0.001242 -0.002562 0.008868 -0.001750 -0.002444 0.001209
# 4 -0.001239 0.000994 -0.001750 0.029757 -0.001497 0.001105
# 5 0.002009 -0.000197 -0.002444 -0.001497 0.022504 -0.003334
# 6 -0.000278 -0.029376 0.001209 0.001105 -0.003334 0.048102
#
#
# Mechanical properties :
#
#
# Convention : Reuss Voigt Hill
#
# Bulk Modulus (GPa) = 22.92831 55.99933 39.46382
# Shear Modulus (GPa) = 25.35678 41.01273 33.18476
#
# Velocity S-wave (km/s) = 3.14184 3.99573 3.59423
# Velocity P-wave (km/s) = 4.69971 6.56413 5.70855
#
# Compressibility (1/GPa) = 0.04361421
#
# Stress axis : x y z
#
# Youngs Moduli (GPa) = 132.35350 21.49332 112.76438
#
# Poissons Ratio (x) = 0.12604 0.14002
# Poissons Ratio (y) = 0.77611 0.28891
# Poissons Ratio (z) = 0.16435 0.05507
#
# Static dielectric constant tensor:
#      x y z
#    x 4.788530 0.636250 0.319380 
#    y 0.636250 4.522210 0.469670 
#    z 0.319380 0.469670 4.835680 
# 
# 
# High freq. dielectric constant tensor:
#      x y z
#    x 2.047070 0.011140 0.014930 
#    y 0.011140 2.011320 0.007440 
#    z 0.014930 0.007440 2.043700 
# 
# From -- ./inp_files/274433.got.cif
#   From: 2010.06.25/outbox.cif.g09.slc.cpg/sg2_138_cif.got.tgz:274433.got - 2010.06.27 13:26:56.
