data_PCOD8000797
_publ_section_title
;
Structure prediction by ZEFSAII (Michael W. Deem and Ramdas Pophale) SiO2 
 PCOD8000797
Probable space group: P -1
;
_chemical_formula_sum "Si O2"
_cell_formula_units_Z 16
_cell_length_a 15.376515
_cell_length_b 19.035519
_cell_length_c 12.263117
_cell_angle_alpha 28.410665
_cell_angle_beta 133.647183
_cell_angle_gamma 152.534203
_cell_volume 718.043176
_symmetry_space_group_name_H-M "P -1"
_symmetry_group_IT_number 2
_symmetry_cell_setting 'triclinic'
loop_
_space_group_symop_operation_xyz
x,y,z
-x,-y,-z
loop_
_atom_site_type_symbol
_atom_site_label
_atom_site_fract_x
_atom_site_fract_y
_atom_site_fract_z
Si Si1 0.773083 0.436515 0.346502
Si Si2 0.226766 0.890313 0.119500
Si Si3 0.350971 0.992975 0.493950
Si Si4 0.648773 0.290724 0.845165
Si Si5 0.361431 0.192074 0.031167
Si Si6 0.765740 0.451248 0.971122
Si Si7 0.765813 0.080263 0.263227
Si Si8 0.638488 0.469044 0.392766
O O1 0.737524 0.237419 0.631287
O O2 0.594912 0.281011 0.315484
O O3 0.752441 0.532077 0.295922
O O4 0.999880 0.682025 0.153669
O O5 0.404803 0.090866 0.910539
O O6 0.247542 0.027438 0.047916
O O7 0.314564 0.783467 0.726825
O O8 0.238251 0.921749 0.606046
O O9 0.262843 0.999350 0.308593
O O10 0.736950 0.473378 0.571734
O O11 0.761444 0.444901 0.844580
O O12 0.685235 0.154074 0.041662
O O13 0.309710 0.309760 0.845101
O O14 0.609596 0.419375 0.923512
O O15 0.999990 0.718878 0.846251
O O16 0.609685 0.799848 0.467028
#
# Coordination Sequence:
#
# PCOD8000797 Si02
#       8
#     2   2   2   2   2   2   2   2
#     4  10  21  38  60  88 117 152 199 242 290 350
#     4  10  21  38  60  88 117 152 199 242 290 350
#     4  10  19  40  61  87 117 158 197 245 294 344
#     4  10  19  40  61  87 117 158 197 245 294 344
#     4  11  24  40  59  89 126 157 192 242 300 353
#     4  10  21  38  62  90 116 154 202 245 291 347
#     4  10  21  38  62  90 116 154 202 245 291 347
#     4  11  24  40  59  89 126 157 192 242 300 353
#
# _framework density 22.282782000000001
#
# number of rings (size 3 to 8) (size 9 to 14) (size 15 to 20)
#    0.000    1.750    5.000    2.250    0.000    8.000 
#    0.000    2.500    0.000    0.000    0.000    0.000 
#    0.000    0.000    0.000    0.000    0.000    0.000 
#
# Total GULP energy -198377.663072 kJ/mol
# GULP energy per Si atom -12398.603942 kJ/mol
# Density = 2.223207 g / cm^3
# Si number density = 22.282782 Si / 1000 Ang^3
#
#
#
# Elastic Constant Matrix: (Units=GPa)
#
#
# Indices 1 2 3 4 5 6 
#
# 1 50.4124 -1.3086 21.5205 -12.0233 18.0051 -6.0103
# 2 -1.3086 8.5271 57.1434 -43.0466 -35.6878 2.0983
# 3 21.5205 57.1434 -1.7255 41.0536 36.6027 20.8249
# 4 -12.0233 -43.0466 41.0536 2.4787 -20.0993 -26.0272
# 5 18.0051 -35.6878 36.6027 -20.0993 21.6622 -19.0487
# 6 -6.0103 2.0983 20.8249 -26.0272 -19.0487 22.8372
#
#
#
# Elastic Compliance Matrix: (Units=1/GPa)
#
#
# Indices 1 2 3 4 5 6 
#
# 1 0.030353 -0.007193 -0.004341 0.007168 -0.018094 0.005684
# 2 -0.007193 0.020800 0.005260 -0.012431 -0.000745 -0.023390
# 3 -0.004341 0.005260 0.011181 0.009884 0.007743 0.005902
# 4 0.007168 -0.012431 0.009884 0.023044 -0.014732 0.007990
# 5 -0.018094 -0.000745 0.007743 -0.014732 0.030471 -0.003129
# 6 0.005684 -0.023390 0.005902 0.007990 -0.003129 0.048547
#
#
# Mechanical properties :
#
#
# Convention : Reuss Voigt Hill
#
# Bulk Modulus (GPa) = 20.08604 23.54717 21.81661
# Shear Modulus (GPa) = 25.83481 8.05288 16.94384
#
# Velocity S-wave (km/s) = 3.40870 1.90310 2.76053
# Velocity P-wave (km/s) = 4.95238 3.92676 4.46909
#
# Compressibility (1/GPa) = 0.04978581
#
# Stress axis : x y z
#
# Youngs Moduli (GPa) = 32.94608 48.07664 89.44048
#
# Poissons Ratio (x) = 0.34582 0.38826
# Poissons Ratio (y) = 0.23699 -0.47049
# Poissons Ratio (z) = 0.14302 -0.25290
#
# Static dielectric constant tensor:
#      x y z
#    x 3.888390 0.031870 -0.156310 
#    y 0.031870 3.993400 -0.124780 
#    z -0.156310 -0.124780 3.668200 
# 
# 
# High freq. dielectric constant tensor:
#      x y z
#    x 1.873760 -0.004460 -0.016730 
#    y -0.004460 1.879690 -0.007700 
#    z -0.016730 -0.007700 1.847800 
# 
# From -- ./inp_files/456923.got.cif
#   From: 2010.06.25/outbox.cif.g09.slc.cpg/sg2_229_cif.got.tgz:456923.got - 2010.06.27 13:26:56.
