data_PCOD8000923
_publ_section_title
;
Structure prediction by ZEFSAII (Michael W. Deem and Ramdas Pophale) SiO2 
 PCOD8000923
Probable space group: P -1
;
_chemical_formula_sum "Si O2"
_cell_formula_units_Z 14
_cell_length_a 8.793520
_cell_length_b 16.648960
_cell_length_c 12.142540
_cell_angle_alpha 30.667613
_cell_angle_beta 124.133125
_cell_angle_gamma 136.551594
_cell_volume 613.308740
_symmetry_space_group_name_H-M "P -1"
_symmetry_group_IT_number 2
_symmetry_cell_setting 'triclinic'
loop_
_space_group_symop_operation_xyz
x,y,z
-x,-y,-z
loop_
_atom_site_type_symbol
_atom_site_label
_atom_site_fract_x
_atom_site_fract_y
_atom_site_fract_z
Si Si1 0.632957 0.864467 0.419690
Si Si2 0.674553 0.702907 0.274049
Si Si3 0.016937 0.113120 0.618356
Si Si4 0.762843 0.449022 0.493694
Si Si5 0.439492 0.142553 0.347626
Si Si6 0.069610 0.564300 0.829312
Si Si7 0.328984 0.769523 0.065392
O O1 0.838774 0.863873 0.457074
O O2 0.404391 0.653929 0.555523
O O3 0.654021 0.906426 0.508169
O O4 0.620890 0.022114 0.162582
O O5 0.500000 0.500000 0.500000
O O6 0.857227 0.866268 0.240786
O O7 0.794582 0.651555 0.292888
O O8 0.530470 0.774972 0.076105
O O9 0.976606 0.279561 0.406077
O O10 0.773616 0.904689 0.757308
O O11 0.658156 0.292744 0.733275
O O12 0.000000 0.500000 0.500000
O O13 0.667904 0.357089 0.173884
O O14 0.500000 0.000000 0.500000
O O15 0.918174 0.379780 0.908414
O O16 0.000000 0.500000 0.000000
#
# Coordination Sequence:
#
# PCOD8000923 Si02
#       7
#     2   2   2   2   2   2   2
#     4  12  23  40  67  97 128 168 214 268 316 377
#     4  10  19  40  66  89 128 175 203 258 322 380
#     4  11  21  42  67  90 132 169 214 258 322 377
#     4  11  22  38  62  94 129 167 214 260 313 374
#     4  10  24  41  64  94 126 168 212 265 319 376
#     4  11  22  43  68  89 125 173 214 260 320 385
#     4  11  21  40  64  94 127 167 215 255 324 375
#
# _framework density 22.827002
#
# number of rings (size 3 to 8) (size 9 to 14) (size 15 to 20)
#    0.000    1.143    5.714    3.429    2.000    0.000 
#    0.000    9.286    0.000    0.000    0.000    0.000 
#    0.000    0.000    0.000    0.000    0.000    0.000 
#
# Total GULP energy -173540.941483 kJ/mol
# GULP energy per Si atom -12395.781535 kJ/mol
# Density = 2.277505 g / cm^3
# Si number density = 22.827002 Si / 1000 Ang^3
#
#
#
# Elastic Constant Matrix: (Units=GPa)
#
#
# Indices 1 2 3 4 5 6 
#
# 1 128.8899 61.3308 -5.0667 -19.1755 8.9205 13.7874
# 2 61.3308 187.5234 9.9751 -0.6923 3.0814 22.5030
# 3 -5.0667 9.9751 31.0320 -4.9413 -0.5769 1.7098
# 4 -19.1755 -0.6923 -4.9413 12.0144 0.1954 -0.0997
# 5 8.9205 3.0814 -0.5769 0.1954 15.5503 2.1878
# 6 13.7874 22.5030 1.7098 -0.0997 2.1878 50.1353
#
#
#
# Elastic Compliance Matrix: (Units=1/GPa)
#
#
# Indices 1 2 3 4 5 6 
#
# 1 0.015342 -0.005019 0.008508 0.027804 -0.007577 -0.001871
# 2 -0.005019 0.007379 -0.004572 -0.009507 0.001629 -0.001866
# 3 0.008508 -0.004572 0.039850 0.029736 -0.002663 -0.001471
# 4 0.027804 -0.009507 0.029736 0.139495 -0.014224 -0.003495
# 5 -0.007577 0.001629 -0.002663 -0.014224 0.068634 -0.001580
# 6 -0.001871 -0.001866 -0.001471 -0.003495 -0.001580 0.021410
#
#
# Mechanical properties :
#
#
# Convention : Reuss Voigt Hill
#
# Bulk Modulus (GPa) = 16.55475 53.32484 34.93980
# Shear Modulus (GPa) = 15.90270 34.28706 25.09488
#
# Velocity S-wave (km/s) = 2.64230 3.87982 3.31924
# Velocity P-wave (km/s) = 4.07149 6.59407 5.47991
#
# Compressibility (1/GPa) = 0.06040563
#
# Stress axis : x y z
#
# Youngs Moduli (GPa) = 65.17963 135.51330 25.09393
#
# Poissons Ratio (x) = 0.68010 -0.21350
# Poissons Ratio (y) = 0.32712 0.11474
# Poissons Ratio (z) = -0.55454 0.61960
#
# Static dielectric constant tensor:
#      x y z
#    x 3.756210 0.793790 0.008890 
#    y 0.793790 4.554470 -0.015320 
#    z 0.008890 -0.015320 3.657210 
# 
# 
# High freq. dielectric constant tensor:
#      x y z
#    x 1.911730 0.005980 0.010300 
#    y 0.005980 1.925990 -0.000280 
#    z 0.010300 -0.000280 1.852940 
# 
# From -- ./inp_files/181373.got.cif
#   From: 2010.06.25/outbox.cif.g09.slc.cpg/sg2_91_cif.got.tgz:181373.got - 2010.06.27 13:26:56.
