data_PCOD8000555
_publ_section_title
;
Structure prediction by ZEFSAII (Michael W. Deem and Ramdas Pophale) SiO2 
 PCOD8000555
Probable space group: P -1
;
_chemical_formula_sum "Si O2"
_cell_formula_units_Z 16
_cell_length_a 8.747943
_cell_length_b 8.171611
_cell_length_c 15.842362
_cell_angle_alpha 129.643417
_cell_angle_beta 76.292393
_cell_angle_gamma 124.616311
_cell_volume 703.467313
_symmetry_space_group_name_H-M "P -1"
_symmetry_group_IT_number 2
_symmetry_cell_setting 'triclinic'
loop_
_space_group_symop_operation_xyz
x,y,z
-x,-y,-z
loop_
_atom_site_type_symbol
_atom_site_label
_atom_site_fract_x
_atom_site_fract_y
_atom_site_fract_z
Si Si1 0.271866 0.245298 0.618154
Si Si2 0.163931 0.515084 0.844382
Si Si3 0.129275 0.211284 0.447753
Si Si4 0.070936 0.327212 0.176537
Si Si5 0.598691 0.264126 0.963996
Si Si6 0.241690 0.224091 0.971400
Si Si7 0.206039 0.950606 0.220137
Si Si8 0.699280 0.525519 0.650582
O O1 0.282265 0.430344 0.749547
O O2 0.234348 0.331698 0.561607
O O3 0.478488 0.287300 0.601657
O O4 0.100395 0.950211 0.563190
O O5 0.313239 0.750618 0.963209
O O6 0.062656 0.592757 0.817151
O O7 0.005916 0.290534 0.853494
O O8 0.202533 0.438371 0.442840
O O9 0.189868 0.019472 0.343170
O O10 0.220579 0.364841 0.099892
O O11 0.182103 0.505882 0.302323
O O12 0.951502 0.027197 0.118983
O O13 0.373206 0.121166 0.945763
O O14 0.675233 0.563976 0.042567
O O15 0.650453 0.137089 0.841084
O O16 0.280114 0.206989 0.240178
#
# Coordination Sequence:
#
# PCOD8000555 Si02
#       8
#     2   2   2   2   2   2   2   2
#     4  10  19  39  64  91 109 155 202 238 288 352
#     4  11  22  35  61  83 122 154 198 243 283 354
#     4   8  20  37  64  90 114 149 199 244 290 342
#     4  11  23  37  50  88 120 157 191 241 295 341
#     4  11  21  39  56  86 111 163 197 234 295 346
#     4  10  24  36  55  78 124 155 196 241 286 353
#     4   9  20  35  59  84 114 153 192 240 286 349
#     4  10  21  37  61  86 118 156 188 245 296 339
#
# _framework density 22.744482000000001
#
# number of rings (size 3 to 8) (size 9 to 14) (size 15 to 20)
#    0.750    1.250    1.250    2.250    5.250    0.500 
#    0.000    0.625    0.000    6.750    0.000    0.000 
#    0.000    0.000    0.000    0.000    0.000    0.000 
#
# Total GULP energy -198237.993480 kJ/mol
# GULP energy per Si atom -12389.874592 kJ/mol
# Density = 2.269271 g / cm^3
# Si number density = 22.744482 Si / 1000 Ang^3
#
#
#
# Elastic Constant Matrix: (Units=GPa)
#
#
# Indices 1 2 3 4 5 6 
#
# 1 87.2233 33.5453 7.1401 -8.2919 25.5359 5.9649
# 2 33.5453 55.4919 5.6935 -9.6704 14.9944 12.0441
# 3 7.1401 5.6935 44.2839 -11.7793 16.4268 4.6679
# 4 -8.2919 -9.6704 -11.7793 26.8355 -2.9097 -1.2626
# 5 25.5359 14.9944 16.4268 -2.9097 34.8330 1.5165
# 6 5.9649 12.0441 4.6679 -1.2626 1.5165 28.3465
#
#
#
# Elastic Compliance Matrix: (Units=1/GPa)
#
#
# Indices 1 2 3 4 5 6 
#
# 1 0.017526 -0.007419 0.002914 0.002838 -0.010778 -0.000313
# 2 -0.007419 0.027577 0.003377 0.007906 -0.006930 -0.009989
# 3 0.002914 0.003377 0.032577 0.014243 -0.017508 -0.005841
# 4 0.002838 0.007906 0.014243 0.046176 -0.008178 -0.003808
# 5 -0.010778 -0.006930 -0.017508 -0.008178 0.046939 0.005220
# 6 -0.000313 -0.009989 -0.005841 -0.003808 0.005220 0.040101
#
#
# Mechanical properties :
#
#
# Convention : Reuss Voigt Hill
#
# Bulk Modulus (GPa) = 13.25838 31.08410 22.17124
# Shear Modulus (GPa) = 20.98250 27.37769 24.18010
#
# Velocity S-wave (km/s) = 3.04062 3.47321 3.26409
# Velocity P-wave (km/s) = 4.26252 5.45716 4.89641
#
# Compressibility (1/GPa) = 0.07542398
#
# Stress axis : x y z
#
# Youngs Moduli (GPa) = 57.05745 36.26164 30.69691
#
# Poissons Ratio (x) = 0.26902 -0.08945
# Poissons Ratio (y) = 0.42331 -0.10366
# Poissons Ratio (z) = -0.16626 -0.12246
#
# Static dielectric constant tensor:
#      x y z
#    x 3.843160 0.253670 0.087820 
#    y 0.253670 4.028600 -0.063840 
#    z 0.087820 -0.063840 3.767430 
# 
# 
# High freq. dielectric constant tensor:
#      x y z
#    x 1.880710 0.021270 0.009690 
#    y 0.021270 1.894070 -0.009640 
#    z 0.009690 -0.009640 1.874750 
# 
# From -- ./inp_files/324679.got.cif
#   From: 2010.06.25/outbox.cif.g09.slc.cpg/sg2_163_cif.got.tgz:324679.got - 2010.06.27 13:26:56.
