data_PCOD8000141
_publ_section_title
;
Structure prediction by ZEFSAII (Michael W. Deem and Ramdas Pophale) SiO2 
 PCOD8000141
Probable space group: P 1
;
_chemical_formula_sum "Si O2"
_cell_formula_units_Z 8
_cell_length_a 8.112401
_cell_length_b 13.235614
_cell_length_c 6.409457
_cell_angle_alpha 75.273994
_cell_angle_beta 80.452631
_cell_angle_gamma 32.358357
_cell_volume 354.644165
_symmetry_space_group_name_H-M "P 1"
_symmetry_group_IT_number 1
_symmetry_cell_setting 'triclinic'
loop_
_space_group_symop_operation_xyz
x,y,z
loop_
_atom_site_type_symbol
_atom_site_label
_atom_site_fract_x
_atom_site_fract_y
_atom_site_fract_z
Si Si1 0.276760 0.792880 0.748760
Si Si2 0.672905 0.031054 0.888371
Si Si3 0.558552 0.834595 0.416540
Si Si4 0.552509 0.290344 0.006902
Si Si5 0.231541 0.948815 0.032523
Si Si6 0.120987 0.632900 0.243299
Si Si7 0.226917 0.138406 0.633567
Si Si8 0.542842 0.475623 0.600664
O O1 0.437683 0.791747 0.564678
O O2 0.395745 0.617820 0.747597
O O3 0.352956 0.777351 0.986538
O O4 0.900011 0.983904 0.721428
O O5 0.883486 0.833197 0.064381
O O6 0.494972 0.199163 0.004316
O O7 0.407328 0.124796 0.747021
O O8 0.478081 0.869587 0.172626
O O9 0.928678 0.657298 0.427854
O O10 0.410978 0.018479 0.444275
O O11 0.306003 0.461185 0.135427
O O12 0.551275 0.355239 0.756136
O O13 0.897957 0.113258 0.129024
O O14 0.199453 0.040667 0.795045
O O15 0.350092 0.579356 0.371012
O O16 0.874024 0.356404 0.544487
#
# Coordination Sequence:
#
# PCOD8000141 Si02
#       8
#     1   1   1   1   1   1   1   1
#     4  10  23  40  68  98 135 178 219 277 336 396
#     4  11  23  47  72  97 135 182 223 277 339 396
#     4  11  23  40  68  99 135 174 225 275 333 400
#     4  10  24  43  68  96 139 178 221 278 336 399
#     4   9  20  42  65  97 131 176 217 273 335 392
#     4  12  25  44  70 102 135 176 230 279 329 402
#     4  10  22  44  65  96 137 176 218 279 335 395
#     4  11  24  44  68 101 139 176 225 280 335 398
#
# _framework density 22.557824
#
# number of rings (size 3 to 8) (size 9 to 14) (size 15 to 20)
#    0.000    1.500    2.500    2.250    3.500    2.000 
#    4.500    0.000    0.000    0.000    0.000    0.000 
#    0.000    0.000    0.000    0.000    0.000    0.000 
#
# Total GULP energy -99111.118121 kJ/mol
# GULP energy per Si atom -12388.889765 kJ/mol
# Density = 2.250648 g / cm^3
# Si number density = 22.557824 Si / 1000 Ang^3
#
#
#
# Elastic Constant Matrix: (Units=GPa)
#
#
# Indices 1 2 3 4 5 6 
#
# 1 134.4271 65.5377 50.5152 10.1346 28.6803 -16.1222
# 2 65.5377 134.9841 59.5917 32.8631 27.2402 -0.5723
# 3 50.5152 59.5917 87.0518 16.3564 28.1763 -9.0809
# 4 10.1346 32.8631 16.3564 42.6030 1.6028 8.7595
# 5 28.6803 27.2402 28.1763 1.6028 54.7928 4.2273
# 6 -16.1222 -0.5723 -9.0809 8.7595 4.2273 46.6180
#
#
#
# Elastic Compliance Matrix: (Units=1/GPa)
#
#
# Indices 1 2 3 4 5 6 
#
# 1 0.011340 -0.003865 -0.002788 0.000752 -0.002869 0.003450
# 2 -0.003865 0.013812 -0.005256 -0.007521 -0.001874 -0.000608
# 3 -0.002788 -0.005256 0.019836 -0.003496 -0.006340 0.004067
# 4 0.000752 -0.007521 -0.003496 0.031677 0.004749 -0.006896
# 5 -0.002869 -0.001874 -0.006340 0.004749 0.024217 -0.005338
# 6 0.003450 -0.000608 0.004067 -0.006896 -0.005338 0.025209
#
#
# Mechanical properties :
#
#
# Convention : Reuss Voigt Hill
#
# Bulk Modulus (GPa) = 47.23370 78.63914 62.93642
# Shear Modulus (GPa) = 31.85449 40.85731 36.35590
#
# Velocity S-wave (km/s) = 3.76190 4.26047 4.01892
# Velocity P-wave (km/s) = 6.31297 7.69018 7.03536
#
# Compressibility (1/GPa) = 0.02117133
#
# Stress axis : x y z
#
# Youngs Moduli (GPa) = 88.18483 72.40212 50.41297
#
# Poissons Ratio (x) = 0.27981 0.14054
# Poissons Ratio (y) = 0.34080 0.26497
# Poissons Ratio (z) = 0.24583 0.38054
#
# Static dielectric constant tensor:
#      x y z
#    x 4.192380 -0.083710 0.062290 
#    y -0.083710 4.226090 0.275680 
#    z 0.062290 0.275680 3.854260 
# 
# 
# High freq. dielectric constant tensor:
#      x y z
#    x 1.903760 -0.003840 0.012070 
#    y -0.003840 1.884590 0.025660 
#    z 0.012070 0.025660 1.874390 
# 
# From -- ./inp_files/1878.got.cif
#   From: 2010.03.12/outbox.cif.g09.slc.cpg/sg1_1_cif.got.tgz:1878.got - 2010.03.29 11:57:58.
