data_PCOD8000471
_publ_section_title
;
Structure prediction by ZEFSAII (Michael W. Deem and Ramdas Pophale) SiO2 
 PCOD8000471
Probable space group: P -1
;
_chemical_formula_sum "Si O2"
_cell_formula_units_Z 16
_cell_length_a 10.304300
_cell_length_b 8.089279
_cell_length_c 10.313919
_cell_angle_alpha 83.248887
_cell_angle_beta 105.008534
_cell_angle_gamma 112.319133
_cell_volume 767.995607
_symmetry_space_group_name_H-M "P -1"
_symmetry_group_IT_number 2
_symmetry_cell_setting 'triclinic'
loop_
_space_group_symop_operation_xyz
x,y,z
-x,-y,-z
loop_
_atom_site_type_symbol
_atom_site_label
_atom_site_fract_x
_atom_site_fract_y
_atom_site_fract_z
Si Si1 0.878891 0.431517 0.588472
Si Si2 0.139150 0.154397 0.970192
Si Si3 0.170670 0.213788 0.431555
Si Si4 0.688237 0.168824 0.135127
Si Si5 0.371065 0.035580 0.127707
Si Si6 0.337987 0.959429 0.414926
Si Si7 0.936954 0.524469 0.116271
Si Si8 0.870218 0.976439 0.297981
O O1 0.792121 0.569965 0.575547
O O2 0.769170 0.231781 0.537457
O O3 0.000000 0.500000 0.500000
O O4 0.946745 0.404714 0.745541
O O5 0.132554 0.343160 0.970338
O O6 0.156340 0.141172 0.824009
O O7 0.278460 0.160904 0.085915
O O8 0.000000 0.000000 0.000000
O O9 0.133766 0.153194 0.574464
O O10 0.288352 0.129435 0.419753
O O11 0.026032 0.136523 0.314806
O O12 0.536656 0.166418 0.147665
O O13 0.807476 0.361670 0.156508
O O14 0.740233 0.050879 0.260950
O O15 0.676959 0.105319 0.989086
O O16 0.338627 0.930432 0.263600
O O17 0.500000 0.000000 0.500000
O O18 0.000000 0.500000 0.000000
#
# Coordination Sequence:
#
# PCOD8000471 Si02
#       8
#     2   2   2   2   2   2   2   2
#     4  12  26  44  70 105 134 174 237 286 332 415
#     4  11  22  38  62  91 132 168 216 274 333 395
#     4  11  22  39  69  95 131 180 223 272 338 408
#     4  10  21  41  68  94 131 173 216 277 337 406
#     4  10  23  42  64  93 132 177 219 265 347 408
#     4  12  27  45  67  97 141 182 222 280 345 404
#     4  12  24  39  68 101 128 165 226 285 328 394
#     4  10  19  39  62  95 128 168 217 272 336 391
#
# _framework density 20.833449999999999
#
# number of rings (size 3 to 8) (size 9 to 14) (size 15 to 20)
#    0.000    1.000    1.250    7.500    3.500    1.000 
#    0.000    0.000    0.000    0.000    0.000    0.000 
#    0.000    0.000    0.000    0.000    0.000    0.000 
#
# Total GULP energy -198261.171592 kJ/mol
# GULP energy per Si atom -12391.323224 kJ/mol
# Density = 2.078603 g / cm^3
# Si number density = 20.833450 Si / 1000 Ang^3
#
#
#
# Elastic Constant Matrix: (Units=GPa)
#
#
# Indices 1 2 3 4 5 6 
#
# 1 143.4746 50.5433 38.4291 -5.3214 26.4445 -9.0881
# 2 50.5433 105.3146 18.4680 -7.3989 8.4469 -10.8245
# 3 38.4291 18.4680 96.7326 -5.0948 14.5744 0.5767
# 4 -5.3214 -7.3989 -5.0948 24.1800 5.5803 6.6942
# 5 26.4445 8.4469 14.5744 5.5803 31.0047 -6.6766
# 6 -9.0881 -10.8245 0.5767 6.6942 -6.6766 36.4668
#
#
#
# Elastic Compliance Matrix: (Units=1/GPa)
#
#
# Indices 1 2 3 4 5 6 
#
# 1 0.010302 -0.003852 -0.002141 0.002389 -0.007226 -0.000304
# 2 -0.003852 0.011792 -0.000727 0.001829 0.000586 0.002323
# 3 -0.002141 -0.000727 0.012289 0.003748 -0.004975 -0.002542
# 4 0.002389 0.001829 0.003748 0.049866 -0.015628 -0.010936
# 5 -0.007226 0.000586 -0.004975 -0.015628 0.045486 0.009648
# 6 -0.000304 0.002323 -0.002542 -0.010936 0.009648 0.031850
#
#
# Mechanical properties :
#
#
# Convention : Reuss Voigt Hill
#
# Bulk Modulus (GPa) = 47.74837 62.26695 55.00766
# Shear Modulus (GPa) = 27.47178 34.20241 30.83710
#
# Velocity S-wave (km/s) = 3.63525 4.05619 3.85147
# Velocity P-wave (km/s) = 6.37094 7.20346 6.79995
#
# Compressibility (1/GPa) = 0.02094312
#
# Stress axis : x y z
#
# Youngs Moduli (GPa) = 97.07224 84.80363 81.37329
#
# Poissons Ratio (x) = 0.32670 0.17419
# Poissons Ratio (y) = 0.37397 0.05913
# Poissons Ratio (z) = 0.20780 0.06162
#
# Static dielectric constant tensor:
#      x y z
#    x 3.876820 0.095110 0.032840 
#    y 0.095110 3.373800 0.154040 
#    z 0.032840 0.154040 3.953690 
# 
# 
# High freq. dielectric constant tensor:
#      x y z
#    x 1.819800 -0.013170 0.001070 
#    y -0.013170 1.798860 -0.005480 
#    z 0.001070 -0.005480 1.839900 
# 
# From -- ./inp_files/382066.got.cif
#   From: 2010.06.25/outbox.cif.g09.slc.cpg/sg2_192_cif.got.tgz:382066.got - 2010.06.27 13:26:56.
