data_PCOD8000706
_publ_section_title
;
Structure prediction by ZEFSAII (Michael W. Deem and Ramdas Pophale) SiO2 
 PCOD8000706
Probable space group: P -1
;
_chemical_formula_sum "Si O2"
_cell_formula_units_Z 14
_cell_length_a 10.400262
_cell_length_b 8.222004
_cell_length_c 11.895747
_cell_angle_alpha 104.375300
_cell_angle_beta 64.504309
_cell_angle_gamma 62.273889
_cell_volume 672.585369
_symmetry_space_group_name_H-M "P -1"
_symmetry_group_IT_number 2
_symmetry_cell_setting 'triclinic'
loop_
_space_group_symop_operation_xyz
x,y,z
-x,-y,-z
loop_
_atom_site_type_symbol
_atom_site_label
_atom_site_fract_x
_atom_site_fract_y
_atom_site_fract_z
Si Si1 0.386094 0.426898 0.572997
Si Si2 0.894653 0.601331 0.439852
Si Si3 0.213855 0.803344 0.861805
Si Si4 0.084472 0.486695 0.124629
Si Si5 0.408241 0.487432 0.926630
Si Si6 0.245476 0.132810 0.826966
Si Si7 0.417296 0.901623 0.365179
O O1 0.500000 0.500000 0.500000
O O2 0.261330 0.425793 0.526608
O O3 0.238466 0.609370 0.752852
O O4 0.529149 0.189323 0.541945
O O5 0.000000 0.500000 0.500000
O O6 0.062460 0.467000 0.261623
O O7 0.793186 0.861748 0.518677
O O8 0.321588 0.704545 0.922494
O O9 0.292249 0.898831 0.775607
O O10 0.000000 0.000000 0.000000
O O11 0.882694 0.717880 0.204651
O O12 0.246002 0.492418 0.034280
O O13 0.133649 0.275433 0.006198
O O14 0.564902 0.270335 0.755378
O O15 0.500000 0.500000 0.000000
O O16 0.446825 0.060288 0.726514
#
# Coordination Sequence:
#
# PCOD8000706 Si02
#       7
#     2   2   2   2   2   2   2
#     4  11  24  40  63  92 124 167 217 259 310 378
#     4  12  26  43  63  95 133 170 213 261 326 386
#     4  11  21  35  62  95 118 155 215 266 302 365
#     4  10  21  39  65  91 124 165 210 262 310 375
#     4  10  23  41  61  94 132 163 204 266 327 371
#     4  10  19  39  68  93 116 161 223 259 304 367
#     4  10  23  42  65  88 124 175 211 257 315 387
#
# _framework density 20.815200000000001
#
# number of rings (size 3 to 8) (size 9 to 14) (size 15 to 20)
#    0.000    1.429    2.857    2.143    2.000    5.714 
#    0.000    4.286    0.000    0.000    0.000    0.000 
#    0.000    0.000    0.000    0.000    0.000    0.000 
#
# Total GULP energy -173612.162786 kJ/mol
# GULP energy per Si atom -12400.868770 kJ/mol
# Density = 2.076782 g / cm^3
# Si number density = 20.815200 Si / 1000 Ang^3
#
#
#
# Elastic Constant Matrix: (Units=GPa)
#
#
# Indices 1 2 3 4 5 6 
#
# 1 72.8969 36.0856 11.6237 1.5992 24.2061 -14.2197
# 2 36.0856 129.5754 33.3935 3.0089 16.2634 -11.3351
# 3 11.6237 33.3935 68.0977 -3.5075 6.9359 -14.6055
# 4 1.5992 3.0089 -3.5075 39.1319 -1.4175 0.5037
# 5 24.2061 16.2634 6.9359 -1.4175 28.2908 -11.2104
# 6 -14.2197 -11.3351 -14.6055 0.5037 -11.2104 37.3833
#
#
#
# Elastic Compliance Matrix: (Units=1/GPa)
#
#
# Indices 1 2 3 4 5 6 
#
# 1 0.021031 -0.003809 0.000276 -0.001115 -0.014943 0.002486
# 2 -0.003809 0.010080 -0.004293 -0.001061 -0.001768 -0.000586
# 3 0.000276 -0.004293 0.018084 0.001872 0.000236 0.005914
# 4 -0.001115 -0.001061 0.001872 0.025937 0.002565 0.000405
# 5 -0.014943 -0.001768 0.000236 0.002565 0.053086 0.009757
# 6 0.002486 -0.000586 0.005914 0.000405 0.009757 0.032749
#
#
# Mechanical properties :
#
#
# Convention : Reuss Voigt Hill
#
# Bulk Modulus (GPa) = 29.81295 48.08618 38.94956
# Shear Modulus (GPa) = 26.62401 33.59234 30.10818
#
# Velocity S-wave (km/s) = 3.58028 4.02162 3.80735
# Velocity P-wave (km/s) = 5.60759 6.68701 6.17095
#
# Compressibility (1/GPa) = 0.03354247
#
# Stress axis : x y z
#
# Youngs Moduli (GPa) = 47.54865 99.20619 55.29842
#
# Poissons Ratio (x) = 0.37789 -0.01526
# Poissons Ratio (y) = 0.18112 0.23740
# Poissons Ratio (z) = -0.01312 0.42589
#
# Static dielectric constant tensor:
#      x y z
#    x 3.537210 0.038940 0.182220 
#    y 0.038940 3.797090 0.118270 
#    z 0.182220 0.118270 4.021260 
# 
# 
# High freq. dielectric constant tensor:
#      x y z
#    x 1.794610 0.014670 0.004560 
#    y 0.014670 1.814940 0.003470 
#    z 0.004560 0.003470 1.837030 
# 
# From -- ./inp_files/150965.got.cif
#   From: 2010.06.25/outbox.cif.g09.slc.cpg/sg2_76_cif.got.tgz:150965.got - 2010.06.27 13:26:56.
