data_PCOD8000834
_publ_section_title
;
Structure prediction by ZEFSAII (Michael W. Deem and Ramdas Pophale) SiO2 
 PCOD8000834
Probable space group: P -1
;
_chemical_formula_sum "Si O2"
_cell_formula_units_Z 16
_cell_length_a 20.101658
_cell_length_b 8.501167
_cell_length_c 10.403279
_cell_angle_alpha 57.158994
_cell_angle_beta 55.093777
_cell_angle_gamma 31.388883
_cell_volume 753.311393
_symmetry_space_group_name_H-M "P -1"
_symmetry_group_IT_number 2
_symmetry_cell_setting 'triclinic'
loop_
_space_group_symop_operation_xyz
x,y,z
-x,-y,-z
loop_
_atom_site_type_symbol
_atom_site_label
_atom_site_fract_x
_atom_site_fract_y
_atom_site_fract_z
Si Si1 0.874914 0.840757 0.394087
Si Si2 0.544707 0.820517 0.159738
Si Si3 0.606407 0.315264 0.354738
Si Si4 0.126073 0.234873 0.292212
Si Si5 0.030731 0.931594 0.185893
Si Si6 0.856315 0.206877 0.615750
Si Si7 0.181683 0.502915 0.975719
Si Si8 0.398711 0.095627 0.468533
O O1 0.832876 0.806350 0.585385
O O2 0.965960 0.545864 0.330955
O O3 0.745971 0.133257 0.332661
O O4 0.956471 0.875455 0.330997
O O5 0.563017 0.570706 0.202236
O O6 0.444059 0.018481 0.303493
O O7 0.674720 0.682024 0.134825
O O8 0.500000 0.000000 0.000000
O O9 0.500000 0.500000 0.500000
O O10 0.619100 0.086461 0.379586
O O11 0.193164 0.267842 0.113268
O O12 0.178819 0.940796 0.316952
O O13 0.135424 0.798685 0.237304
O O14 0.120888 0.746930 0.043474
O O15 0.917900 0.295995 0.125315
O O16 0.742971 0.544004 0.530522
O O17 0.000000 0.000000 0.500000
O O18 0.500000 0.000000 0.500000
#
# Coordination Sequence:
#
# PCOD8000834 Si02
#       8
#     2   2   2   2   2   2   2   2
#     4  10  19  40  62  96 126 166 227 269 313 389
#     4  11  24  44  69  95 131 179 224 268 331 399
#     4  10  23  39  67  91 122 176 224 267 319 396
#     4  10  23  35  66  94 128 170 214 270 325 387
#     4  10  21  39  65  94 133 164 219 271 329 385
#     4  12  24  40  67  99 132 172 215 278 329 382
#     4  10  22  40  63  94 128 172 214 276 322 391
#     4  11  28  46  66 100 138 174 223 277 332 398
#
# _framework density 21.239556
#
# number of rings (size 3 to 8) (size 9 to 14) (size 15 to 20)
#    0.000    1.500    2.500    1.500   12.250    0.500 
#    0.000    3.750    0.000    0.000    0.000    0.000 
#    0.000    0.000    0.000    0.000    0.000    0.000 
#
# Total GULP energy -198283.751881 kJ/mol
# GULP energy per Si atom -12392.734493 kJ/mol
# Density = 2.119121 g / cm^3
# Si number density = 21.239556 Si / 1000 Ang^3
#
#
#
# Elastic Constant Matrix: (Units=GPa)
#
#
# Indices 1 2 3 4 5 6 
#
# 1 87.9696 47.8711 29.9967 -14.4472 -6.7177 3.3118
# 2 47.8711 130.2566 44.5931 -25.5370 -12.4645 0.5331
# 3 29.9967 44.5931 94.6515 -30.7817 -10.5334 5.3460
# 4 -14.4472 -25.5370 -30.7817 38.8887 3.2257 -6.7905
# 5 -6.7177 -12.4645 -10.5334 3.2257 34.9517 -10.3507
# 6 3.3118 0.5331 5.3460 -6.7905 -10.3507 33.8619
#
#
#
# Elastic Compliance Matrix: (Units=1/GPa)
#
#
# Indices 1 2 3 4 5 6 
#
# 1 0.014737 -0.004496 -0.002305 0.000534 0.000241 -0.000826
# 2 -0.004496 0.011168 -0.002378 0.003951 0.002706 0.002259
# 3 -0.002305 -0.002378 0.015976 0.010105 0.002773 0.000615
# 4 0.000534 0.003951 0.010105 0.037426 0.003100 0.006743
# 5 0.000241 0.002706 0.002773 0.003100 0.033213 0.010270
# 6 -0.000826 0.002259 0.000615 0.006743 0.010270 0.033971
#
#
# Mechanical properties :
#
#
# Convention : Reuss Voigt Hill
#
# Bulk Modulus (GPa) = 42.51266 61.97774 52.24520
# Shear Modulus (GPa) = 28.95329 34.23490 31.59410
#
# Velocity S-wave (km/s) = 3.69613 4.01914 3.86101
# Velocity P-wave (km/s) = 6.18663 7.12612 6.67293
#
# Compressibility (1/GPa) = 0.02352241
#
# Stress axis : x y z
#
# Youngs Moduli (GPa) = 67.85467 89.54184 62.59291
#
# Poissons Ratio (x) = 0.40257 0.14430
# Poissons Ratio (y) = 0.30507 0.14886
# Poissons Ratio (z) = 0.15643 0.21295
#
# Static dielectric constant tensor:
#      x y z
#    x 3.811970 0.013870 -0.105160 
#    y 0.013870 4.151070 -0.296290 
#    z -0.105160 -0.296290 3.946580 
# 
# 
# High freq. dielectric constant tensor:
#      x y z
#    x 1.808940 -0.008550 -0.012160 
#    y -0.008550 1.843470 -0.016720 
#    z -0.012160 -0.016720 1.835800 
# 
# From -- ./inp_files/353488.got.cif
#   From: 2010.06.25/outbox.cif.g09.slc.cpg/sg2_177_cif.got.tgz:353488.got - 2010.06.27 13:26:56.
