data_PCOD8000805
_publ_section_title
;
Structure prediction by ZEFSAII (Michael W. Deem and Ramdas Pophale) SiO2 
 PCOD8000805
Probable space group: P -1
;
_chemical_formula_sum "Si O2"
_cell_formula_units_Z 14
_cell_length_a 22.224622
_cell_length_b 19.577947
_cell_length_c 7.869928
_cell_angle_alpha 38.058550
_cell_angle_beta 37.593882
_cell_angle_gamma 19.516670
_cell_volume 683.952349
_symmetry_space_group_name_H-M "P -1"
_symmetry_group_IT_number 2
_symmetry_cell_setting 'triclinic'
loop_
_space_group_symop_operation_xyz
x,y,z
-x,-y,-z
loop_
_atom_site_type_symbol
_atom_site_label
_atom_site_fract_x
_atom_site_fract_y
_atom_site_fract_z
Si Si1 0.278761 0.630462 0.889067
Si Si2 0.283197 0.403517 0.516811
Si Si3 0.364509 0.101439 0.757440
Si Si4 0.438066 0.851858 0.322492
Si Si5 0.594556 0.480419 0.563805
Si Si6 0.022077 0.935663 0.387233
Si Si7 0.085193 0.191869 0.262902
O O1 0.428003 0.552746 0.823406
O O2 0.334234 0.588719 0.651927
O O3 0.267123 0.515350 0.195960
O O4 0.077641 0.881185 0.873824
O O5 0.267895 0.303461 0.648574
O O6 0.484025 0.217661 0.524515
O O7 0.117273 0.571747 0.694465
O O8 0.500000 0.000000 0.500000
O O9 0.193873 0.181872 0.927032
O O10 0.485664 0.922968 0.981196
O O11 0.538272 0.658497 0.377215
O O12 0.213388 0.047512 0.428529
O O13 0.758211 0.285989 0.708186
O O14 0.926385 0.906653 0.633930
O O15 0.000000 0.000000 0.500000
#
# Coordination Sequence:
#
# PCOD8000805 Si02
#       7
#     2   2   2   2   2   2   2
#     4  10  22  35  63  90 126 162 215 244 307 365
#     4  12  23  41  64  95 126 168 201 257 315 371
#     4  10  23  44  69  88 122 164 212 258 307 369
#     4  10  22  39  66  86 130 159 208 253 319 359
#     4  10  19  40  61  89 124 168 202 262 296 364
#     4  10  20  38  63  89 125 164 204 253 302 365
#     4  10  23  41  64  91 130 159 206 260 313 358
#
# _framework density 20.469263000000002
#
# number of rings (size 3 to 8) (size 9 to 14) (size 15 to 20)
#    0.857    0.857    2.857    1.714    0.000    2.286 
#    0.000    2.143    0.000    0.000    0.000    0.000 
#    0.000    0.000    0.000    0.000    0.000    0.000 
#
# Total GULP energy -173484.381549 kJ/mol
# GULP energy per Si atom -12391.741539 kJ/mol
# Density = 2.042267 g / cm^3
# Si number density = 20.469263 Si / 1000 Ang^3
#
#
#
# Elastic Constant Matrix: (Units=GPa)
#
#
# Indices 1 2 3 4 5 6 
#
# 1 87.0221 36.3836 34.0957 -9.1218 -27.6507 -9.5198
# 2 36.3836 104.5980 42.7667 -23.0937 -13.4007 -12.4818
# 3 34.0957 42.7667 97.5466 -28.6563 -22.0848 -0.5560
# 4 -9.1218 -23.0937 -28.6563 36.6223 8.1518 -3.5594
# 5 -27.6507 -13.4007 -22.0848 8.1518 27.3329 -3.4725
# 6 -9.5198 -12.4818 -0.5560 -3.5594 -3.4725 41.7249
#
#
#
# Elastic Compliance Matrix: (Units=1/GPa)
#
#
# Indices 1 2 3 4 5 6 
#
# 1 0.019765 -0.003805 -0.001886 -0.002495 0.017938 0.004626
# 2 -0.003805 0.013787 -0.003204 0.005803 -0.000948 0.003630
# 3 -0.001886 -0.003204 0.016575 0.008875 0.007292 0.000196
# 4 -0.002495 0.005803 0.008875 0.038470 -0.003437 0.004281
# 5 0.017938 -0.000948 0.007292 -0.003437 0.062302 0.008798
# 6 0.004626 0.003630 0.000196 0.004281 0.008798 0.027208
#
#
# Mechanical properties :
#
#
# Convention : Reuss Voigt Hill
#
# Bulk Modulus (GPa) = 30.92370 57.29541 44.10955
# Shear Modulus (GPa) = 24.19275 32.86405 28.52840
#
# Velocity S-wave (km/s) = 3.44162 4.01126 3.73730
# Velocity P-wave (km/s) = 5.56176 7.03600 6.34186
#
# Compressibility (1/GPa) = 0.03233766
#
# Stress axis : x y z
#
# Youngs Moduli (GPa) = 50.59408 72.53401 60.33358
#
# Poissons Ratio (x) = 0.27597 0.11378
# Poissons Ratio (y) = 0.19250 0.19329
# Poissons Ratio (z) = 0.09542 0.23237
#
# Static dielectric constant tensor:
#      x y z
#    x 3.735040 -0.300640 -0.259250 
#    y -0.300640 4.163270 -0.250900 
#    z -0.259250 -0.250900 3.493870 
# 
# 
# High freq. dielectric constant tensor:
#      x y z
#    x 1.794500 -0.006830 -0.021700 
#    y -0.006830 1.813510 -0.019850 
#    z -0.021700 -0.019850 1.784190 
# 
# From -- ./inp_files/355230.got.cif
#   From: 2010.06.25/outbox.cif.g09.slc.cpg/sg2_178_cif.got.tgz:355230.got - 2010.06.27 13:26:56.
