data_PCOD8000329
_publ_section_title
;
Structure prediction by ZEFSAII (Michael W. Deem and Ramdas Pophale) SiO2 
 PCOD8000329
Probable space group: P -1
;
_chemical_formula_sum "Si O2"
_cell_formula_units_Z 16
_cell_length_a 20.112699
_cell_length_b 15.435130
_cell_length_c 8.240746
_cell_angle_alpha 75.633637
_cell_angle_beta 113.934124
_cell_angle_gamma 160.109468
_cell_volume 718.670416
_symmetry_space_group_name_H-M "P -1"
_symmetry_group_IT_number 2
_symmetry_cell_setting 'triclinic'
loop_
_space_group_symop_operation_xyz
x,y,z
-x,-y,-z
loop_
_atom_site_type_symbol
_atom_site_label
_atom_site_fract_x
_atom_site_fract_y
_atom_site_fract_z
Si Si1 0.151744 0.048259 0.810437
Si Si2 0.632474 0.975991 0.276056
Si Si3 0.795399 0.549828 0.471863
Si Si4 0.157205 0.335448 0.012513
Si Si5 0.752533 0.266942 0.071926
Si Si6 0.616616 0.499873 0.128319
Si Si7 0.009079 0.705449 0.329019
Si Si8 0.405552 0.832709 0.339538
O O1 0.266951 0.277672 0.779550
O O2 0.348467 0.204897 0.969665
O O3 0.029771 0.872418 0.607330
O O4 0.966499 0.846404 0.865681
O O5 0.622028 0.050363 0.349483
O O6 0.774850 0.184880 0.166158
O O7 0.376961 0.652080 0.123194
O O8 0.756182 0.038302 0.458910
O O9 0.622236 0.424747 0.296508
O O10 0.820296 0.507475 0.370978
O O11 0.708967 0.394056 0.612733
O O12 0.244888 0.359844 0.966939
O O13 0.968586 0.179528 0.811807
O O14 0.944650 0.544751 0.232799
O O15 0.770650 0.312857 0.876418
O O16 0.500000 0.000000 0.000000
O O17 0.500000 0.000000 0.500000
#
# Coordination Sequence:
#
# PCOD8000329 Si02
#       8
#     2   2   2   2   2   2   2   2
#     4  11  22  44  64  97 129 165 218 262 328 381
#     4  11  22  39  62  87 124 169 215 261 315 381
#     4  11  22  41  62  92 128 161 212 267 319 375
#     4  11  22  41  65  92 130 167 214 263 323 382
#     4  10  19  39  58  83 126 167 210 263 316 371
#     4  10  25  40  68  94 128 170 209 271 323 385
#     4  11  22  38  63  91 121 175 213 263 320 379
#     4  11  23  39  62  90 126 166 208 264 316 375
#
# _framework density 22.263334
#
# number of rings (size 3 to 8) (size 9 to 14) (size 15 to 20)
#    0.000    1.250    3.750    3.375    3.500    0.000 
#    0.000    1.250    0.000    8.250    0.000    0.000 
#    0.000    0.000    0.000    0.000    0.000    0.000 
#
# Total GULP energy -198309.613865 kJ/mol
# GULP energy per Si atom -12394.350867 kJ/mol
# Density = 2.221266 g / cm^3
# Si number density = 22.263334 Si / 1000 Ang^3
#
#
#
# Elastic Constant Matrix: (Units=GPa)
#
#
# Indices 1 2 3 4 5 6 
#
# 1 72.7853 16.2739 48.5319 6.2604 5.2809 -13.7619
# 2 16.2739 51.7683 25.3880 -8.8993 0.5813 -7.2858
# 3 48.5319 25.3880 135.0105 -7.7749 7.2756 -11.0672
# 4 6.2604 -8.8993 -7.7749 29.6604 -1.6174 -0.8376
# 5 5.2809 0.5813 7.2756 -1.6174 36.1904 1.8272
# 6 -13.7619 -7.2858 -11.0672 -0.8376 1.8272 23.4860
#
#
#
# Elastic Compliance Matrix: (Units=1/GPa)
#
#
# Indices 1 2 3 4 5 6 
#
# 1 0.021264 -0.003502 -0.006593 -0.007169 -0.002456 0.008202
# 2 -0.003502 0.023455 -0.002419 0.007303 0.000730 0.004288
# 3 -0.006593 -0.002419 0.010525 0.003386 -0.000991 0.000543
# 4 -0.007169 0.007303 0.003386 0.038437 0.001921 0.000882
# 5 -0.002456 0.000730 -0.000991 0.001921 0.028456 -0.003825
# 6 0.008202 0.004288 0.000543 0.000882 -0.003825 0.049300
#
#
# Mechanical properties :
#
#
# Convention : Reuss Voigt Hill
#
# Bulk Modulus (GPa) = 33.09594 48.88352 40.98973
# Shear Modulus (GPa) = 24.20880 29.15873 26.68377
#
# Velocity S-wave (km/s) = 3.30113 3.62293 3.46577
# Velocity P-wave (km/s) = 5.42475 6.28534 5.87083
#
# Compressibility (1/GPa) = 0.03021518
#
# Stress axis : x y z
#
# Youngs Moduli (GPa) = 47.02794 42.63536 95.01360
#
# Poissons Ratio (x) = 0.14929 0.62647
# Poissons Ratio (y) = 0.16467 0.22985
# Poissons Ratio (z) = 0.31008 0.10314
#
# Static dielectric constant tensor:
#      x y z
#    x 3.955340 -0.145290 0.044180 
#    y -0.145290 3.934150 -0.358400 
#    z 0.044180 -0.358400 4.387860 
# 
# 
# High freq. dielectric constant tensor:
#      x y z
#    x 1.868070 -0.013970 -0.002040 
#    y -0.013970 1.856470 -0.009980 
#    z -0.002040 -0.009980 1.893780 
# 
# From -- ./inp_files/206688.got.cif
#   From: 2010.06.25/outbox.cif.g09.slc.cpg/sg2_104_cif.got.tgz:206688.got - 2010.06.27 13:26:56.
