data_PCOD8000580
_publ_section_title
;
Structure prediction by ZEFSAII (Michael W. Deem and Ramdas Pophale) SiO2 
 PCOD8000580
Probable space group: P -1
;
_chemical_formula_sum "Si O2"
_cell_formula_units_Z 16
_cell_length_a 11.625170
_cell_length_b 9.090285
_cell_length_c 14.529143
_cell_angle_alpha 114.713203
_cell_angle_beta 31.720927
_cell_angle_gamma 108.264261
_cell_volume 730.469250
_symmetry_space_group_name_H-M "P -1"
_symmetry_group_IT_number 2
_symmetry_cell_setting 'triclinic'
loop_
_space_group_symop_operation_xyz
x,y,z
-x,-y,-z
loop_
_atom_site_type_symbol
_atom_site_label
_atom_site_fract_x
_atom_site_fract_y
_atom_site_fract_z
Si Si1 0.108728 0.369502 0.461255
Si Si2 0.465565 0.316496 0.496322
Si Si3 0.135368 0.929997 0.507037
Si Si4 0.538427 0.938512 0.096371
Si Si5 0.987685 0.709832 0.294143
Si Si6 0.455755 0.739966 0.937890
Si Si7 0.753484 0.003682 0.139002
Si Si8 0.458631 0.852847 0.423607
O O1 0.054011 0.397349 0.614060
O O2 0.368668 0.377840 0.269073
O O3 0.000000 0.500000 0.500000
O O4 0.035054 0.194655 0.439082
O O5 0.500000 0.500000 0.500000
O O6 0.209144 0.297392 0.646512
O O7 0.615300 0.179695 0.299738
O O8 0.523576 0.302930 0.562418
O O9 0.327970 0.949812 0.308860
O O10 0.228711 0.878050 0.531435
O O11 0.989844 0.101186 0.649511
O O12 0.556723 0.087391 0.055955
O O13 0.750272 0.953583 0.021086
O O14 0.540579 0.770594 0.993123
O O15 0.226743 0.653235 0.073010
O O16 0.654802 0.851519 0.216587
O O17 0.000000 0.000000 0.000000
O O18 0.500000 0.000000 0.500000
#
# Coordination Sequence:
#
# PCOD8000580 Si02
#       8
#     2   2   2   2   2   2   2   2
#     4  12  27  43  62  97 138 172 208 273 339 380
#     4  11  24  42  65  96 134 171 214 270 342 390
#     4  11  19  41  68  90 131 171 216 270 316 387
#     4  10  19  39  65 100 121 163 226 270 310 377
#     4  12  23  44  69  93 131 170 222 272 316 400
#     4  11  23  37  69  97 121 170 221 263 324 388
#     4  10  21  39  66  94 130 166 219 275 315 385
#     4   9  19  38  62  94 119 170 217 255 318 388
#
# _framework density 21.903729999999999
#
# number of rings (size 3 to 8) (size 9 to 14) (size 15 to 20)
#    0.000    1.250    6.250    1.875    3.500    2.500 
#    0.000    1.875    0.000    0.000    0.000    0.000 
#    0.000    0.000    0.000    0.000    0.000    0.000 
#
# Total GULP energy -198236.927828 kJ/mol
# GULP energy per Si atom -12389.807989 kJ/mol
# Density = 2.185388 g / cm^3
# Si number density = 21.903730 Si / 1000 Ang^3
#
#
#
# Elastic Constant Matrix: (Units=GPa)
#
#
# Indices 1 2 3 4 5 6 
#
# 1 110.6130 16.0862 31.1264 -9.3008 -10.6048 -24.0471
# 2 16.0862 95.7572 24.7664 -8.0595 0.5606 -21.7958
# 3 31.1264 24.7664 120.4781 -24.9042 -22.6994 -5.8246
# 4 -9.3008 -8.0595 -24.9042 14.1526 -1.3824 1.6590
# 5 -10.6048 0.5606 -22.6994 -1.3824 34.4257 -6.5543
# 6 -24.0471 -21.7958 -5.8246 1.6590 -6.5543 38.8442
#
#
#
# Elastic Compliance Matrix: (Units=1/GPa)
#
#
# Indices 1 2 3 4 5 6 
#
# 1 0.011957 0.000519 -0.000317 0.007149 0.005321 0.008238
# 2 0.000519 0.012707 -0.001397 0.004336 0.000567 0.007152
# 3 -0.000317 -0.001397 0.017797 0.031317 0.013415 0.002614
# 4 0.007149 0.004336 0.031317 0.134611 0.030265 0.010912
# 5 0.005321 0.000567 0.013415 0.030265 0.042943 0.011578
# 6 0.008238 0.007152 0.002614 0.010912 0.011578 0.036737
#
#
# Mechanical properties :
#
#
# Convention : Reuss Voigt Hill
#
# Bulk Modulus (GPa) = 24.95641 52.31181 38.63411
# Shear Modulus (GPa) = 18.34874 34.47579 26.41227
#
# Velocity S-wave (km/s) = 2.89744 3.97163 3.47628
# Velocity P-wave (km/s) = 4.75521 6.70569 5.81284
#
# Compressibility (1/GPa) = 0.04006987
#
# Stress axis : x y z
#
# Youngs Moduli (GPa) = 83.63641 78.69773 56.18934
#
# Poissons Ratio (x) = -0.04086 0.01781
# Poissons Ratio (y) = -0.04342 0.07852
# Poissons Ratio (z) = 0.02652 0.10997
#
# Static dielectric constant tensor:
#      x y z
#    x 4.436580 1.258930 -3.105520 
#    y 1.258930 0.126470 6.603090 
#    z -3.105520 6.603090 -7.568120 
# 
# 
# High freq. dielectric constant tensor:
#      x y z
#    x 1.880500 -0.018080 -0.008160 
#    y -0.018080 1.841540 -0.026960 
#    z -0.008160 -0.026960 1.846230 
# 
# From -- ./inp_files/515731.got.cif
#   From: 2010.06.25/outbox.cif.g09.slc.cpg/sg2_258_cif.got.tgz:515731.got - 2010.06.27 13:26:56.
