data_PCOD8000501
_publ_section_title
;
Structure prediction by ZEFSAII (Michael W. Deem and Ramdas Pophale) SiO2 
 PCOD8000501
Probable space group: P -1
;
_chemical_formula_sum "Si O2"
_cell_formula_units_Z 16
_cell_length_a 8.435061
_cell_length_b 18.493098
_cell_length_c 9.340098
_cell_angle_alpha 136.624802
_cell_angle_beta 131.536496
_cell_angle_gamma 62.648868
_cell_volume 748.265499
_symmetry_space_group_name_H-M "P -1"
_symmetry_group_IT_number 2
_symmetry_cell_setting 'triclinic'
loop_
_space_group_symop_operation_xyz
x,y,z
-x,-y,-z
loop_
_atom_site_type_symbol
_atom_site_label
_atom_site_fract_x
_atom_site_fract_y
_atom_site_fract_z
Si Si1 0.503661 0.597696 0.747889
Si Si2 0.241738 0.978924 0.594462
Si Si3 0.707566 0.184921 0.850263
Si Si4 0.301625 0.641036 0.132113
Si Si5 0.879825 0.273394 0.339682
Si Si6 0.315040 0.189841 0.826348
Si Si7 0.714911 0.587723 0.167504
Si Si8 0.178209 0.805157 0.514109
O O1 0.500000 0.500000 0.500000
O O2 0.262458 0.632725 0.667712
O O3 0.644053 0.697184 0.908116
O O4 0.598788 0.570413 0.920324
O O5 0.276555 0.922158 0.381577
O O6 0.309904 0.903857 0.659191
O O7 0.370335 0.092044 0.824021
O O8 0.000000 0.000000 0.500000
O O9 0.769831 0.285136 0.932609
O O10 0.469456 0.192039 0.782142
O O11 0.885314 0.190486 0.091492
O O12 0.553145 0.622577 0.243615
O O13 0.243084 0.696172 0.324409
O O14 0.186351 0.524121 0.891749
O O15 0.763151 0.207216 0.302522
O O16 0.103319 0.320394 0.597609
O O17 0.071616 0.175861 0.616068
#
# Coordination Sequence:
#
# PCOD8000501 Si02
#       8
#     2   2   2   2   2   2   2   2
#     4  11  23  38  62  95 122 160 217 250 297 379
#     4   9  20  38  64  92 123 164 205 259 316 364
#     4  10  20  40  61  92 123 162 212 254 305 379
#     4  10  21  38  58  87 124 166 207 256 305 373
#     4  11  22  39  64  92 123 165 209 252 307 378
#     4  10  19  39  63  88 121 169 203 250 315 363
#     4  11  22  41  61  85 130 170 206 253 319 357
#     4  10  20  37  63  90 125 160 207 255 317 359
#
# _framework density 21.382785999999999
#
# number of rings (size 3 to 8) (size 9 to 14) (size 15 to 20)
#    0.000    1.750    3.750    1.125    1.750    1.500 
#    0.000   12.500    0.000    1.500    0.000    0.000 
#    0.000    0.000    0.000    0.000    0.000    0.000 
#
# Total GULP energy -198231.099634 kJ/mol
# GULP energy per Si atom -12389.443727 kJ/mol
# Density = 2.133412 g / cm^3
# Si number density = 21.382786 Si / 1000 Ang^3
#
#
#
# Elastic Constant Matrix: (Units=GPa)
#
#
# Indices 1 2 3 4 5 6 
#
# 1 73.8734 33.9543 36.3719 5.5469 -12.4070 8.7123
# 2 33.9543 106.5113 50.6326 22.5585 -10.4355 21.3390
# 3 36.3719 50.6326 88.2706 9.8230 -7.8811 15.7579
# 4 5.5469 22.5585 9.8230 38.2631 -1.3978 3.3005
# 5 -12.4070 -10.4355 -7.8811 -1.3978 26.4975 0.9575
# 6 8.7123 21.3390 15.7579 3.3005 0.9575 35.4638
#
#
#
# Elastic Compliance Matrix: (Units=1/GPa)
#
#
# Indices 1 2 3 4 5 6 
#
# 1 0.018531 -0.002686 -0.005494 0.000590 0.006042 -0.000713
# 2 -0.002686 0.016021 -0.006011 -0.006903 0.003108 -0.005751
# 3 -0.005494 -0.006011 0.017577 0.000089 0.000396 -0.002863
# 4 0.000590 -0.006903 0.000089 0.029960 -0.000879 0.001205
# 5 0.006042 0.003108 0.000396 -0.000879 0.042029 -0.004583
# 6 -0.000713 -0.005751 -0.002863 0.001205 -0.004583 0.033117
#
#
# Mechanical properties :
#
#
# Convention : Reuss Voigt Hill
#
# Bulk Modulus (GPa) = 42.10924 56.73033 49.41979
# Shear Modulus (GPa) = 25.83556 29.89131 27.86343
#
# Velocity S-wave (km/s) = 3.47975 3.74293 3.61373
# Velocity P-wave (km/s) = 5.99005 6.72813 6.36979
#
# Compressibility (1/GPa) = 0.02374776
#
# Stress axis : x y z
#
# Youngs Moduli (GPa) = 53.96484 62.41839 56.89302
#
# Poissons Ratio (x) = 0.16764 0.31256
# Poissons Ratio (y) = 0.14494 0.34197
# Poissons Ratio (z) = 0.29648 0.37518
#
# Static dielectric constant tensor:
#      x y z
#    x 3.973000 0.270300 -0.084880 
#    y 0.270300 4.509200 0.385100 
#    z -0.084880 0.385100 3.732420 
# 
# 
# High freq. dielectric constant tensor:
#      x y z
#    x 1.836590 0.011100 -0.007100 
#    y 0.011100 1.854390 0.016490 
#    z -0.007100 0.016490 1.810860 
# 
# From -- ./inp_files/218772.got.cif
#   From: 2010.06.25/outbox.cif.g09.slc.cpg/sg2_110_cif.got.tgz:218772.got - 2010.06.27 13:26:56.
