data_PCOD8000648
_publ_section_title
;
Structure prediction by ZEFSAII (Michael W. Deem and Ramdas Pophale) SiO2 
 PCOD8000648
Probable space group: P -1
;
_chemical_formula_sum "Si O2"
_cell_formula_units_Z 14
_cell_length_a 7.447336
_cell_length_b 10.348511
_cell_length_c 10.741192
_cell_angle_alpha 105.897140
_cell_angle_beta 42.720235
_cell_angle_gamma 104.785576
_cell_volume 538.273780
_symmetry_space_group_name_H-M "P -1"
_symmetry_group_IT_number 2
_symmetry_cell_setting 'triclinic'
loop_
_space_group_symop_operation_xyz
x,y,z
-x,-y,-z
loop_
_atom_site_type_symbol
_atom_site_label
_atom_site_fract_x
_atom_site_fract_y
_atom_site_fract_z
Si Si1 0.890068 0.803662 0.838696
Si Si2 0.522673 0.155881 0.468093
Si Si3 0.642720 0.570607 0.769124
Si Si4 0.112596 0.699458 0.106307
Si Si5 0.001097 0.979670 0.346720
Si Si6 0.372772 0.285223 0.818706
Si Si7 0.729247 0.603706 0.458735
O O1 0.853949 0.644665 0.776871
O O2 0.829458 0.896485 0.775596
O O3 0.190257 0.848495 0.742360
O O4 0.690848 0.818246 0.060812
O O5 0.555718 0.220132 0.606479
O O6 0.354691 0.246124 0.485602
O O7 0.313162 0.019782 0.540932
O O8 0.535497 0.420241 0.824530
O O9 0.790584 0.572649 0.561700
O O10 0.397769 0.664579 0.905798
O O11 0.908424 0.684621 0.090543
O O12 0.001826 0.591616 0.239891
O O13 0.133872 0.847934 0.196705
O O14 0.000000 0.000000 0.500000
O O15 0.500000 0.500000 0.500000
#
# Coordination Sequence:
#
# PCOD8000648 Si02
#       7
#     2   2   2   2   2   2   2
#     4  12  25  39  64  92 134 174 203 261 327 372
#     4  10  23  42  66  95 127 167 208 267 322 374
#     4  12  23  39  63 100 131 166 214 258 314 388
#     4  10  23  40  68  92 125 168 216 271 306 371
#     4  10  23  47  68  93 121 165 230 266 309 378
#     4  10  23  40  60  98 130 162 211 256 322 385
#     4  10  19  39  66  91 122 171 210 252 315 365
#
# _framework density 26.009070999999999
#
# number of rings (size 3 to 8) (size 9 to 14) (size 15 to 20)
#    0.000    1.714    2.857    3.857    2.000    5.714 
#    0.000    4.286    0.000    0.000    0.000    0.000 
#    0.000    0.000    0.000    0.000    0.000    0.000 
#
# Total GULP energy -173564.170014 kJ/mol
# GULP energy per Si atom -12397.440715 kJ/mol
# Density = 2.594987 g / cm^3
# Si number density = 26.009071 Si / 1000 Ang^3
#
#
#
# Elastic Constant Matrix: (Units=GPa)
#
#
# Indices 1 2 3 4 5 6 
#
# 1 51.4981 10.8659 16.0155 -14.8201 12.4149 12.8295
# 2 10.8659 129.1367 28.3653 -25.4933 6.2089 15.0952
# 3 16.0155 28.3653 92.0140 -39.4923 32.7808 -12.2533
# 4 -14.8201 -25.4933 -39.4923 43.1242 -7.4967 5.8771
# 5 12.4149 6.2089 32.7808 -7.4967 37.7966 -8.5104
# 6 12.8295 15.0952 -12.2533 5.8771 -8.5104 35.5014
#
#
#
# Elastic Compliance Matrix: (Units=1/GPa)
#
#
# Indices 1 2 3 4 5 6 
#
# 1 0.029204 0.002146 0.002666 0.013636 -0.013146 -0.015955
# 2 0.002146 0.009905 -0.001015 0.006288 -0.001734 -0.006794
# 3 0.002666 -0.001015 0.027152 0.021664 -0.019850 0.000495
# 4 0.013636 0.006288 0.021664 0.050155 -0.017177 -0.012545
# 5 -0.013146 -0.001734 -0.019850 -0.017177 0.047781 0.012935
# 6 -0.015955 -0.006794 0.000495 -0.012545 0.012935 0.042171
#
#
# Mechanical properties :
#
#
# Convention : Reuss Voigt Hill
#
# Bulk Modulus (GPa) = 13.53992 42.57136 28.05564
# Shear Modulus (GPa) = 22.38213 37.77791 30.08002
#
# Velocity S-wave (km/s) = 2.93670 3.81529 3.40445
# Velocity P-wave (km/s) = 4.08853 5.98431 5.12484
#
# Compressibility (1/GPa) = 0.07385571
#
# Stress axis : x y z
#
# Youngs Moduli (GPa) = 34.24178 100.95923 36.82909
#
# Poissons Ratio (x) = -0.21665 -0.09820
# Poissons Ratio (y) = -0.07348 0.03739
# Poissons Ratio (z) = -0.09130 0.10250
#
# Static dielectric constant tensor:
#      x y z
#    x 4.776840 -0.213030 0.497960 
#    y -0.213030 5.180650 -0.670540 
#    z 0.497960 -0.670540 5.294920 
# 
# 
# High freq. dielectric constant tensor:
#      x y z
#    x 2.031050 0.003590 0.005260 
#    y 0.003590 2.049680 -0.023900 
#    z 0.005260 -0.023900 2.046880 
# 
# From -- ./inp_files/286047.got.cif
#   From: 2010.06.25/outbox.cif.g09.slc.cpg/sg2_144_cif.got.tgz:286047.got - 2010.06.27 13:26:56.
