data_PCOD8000363
_publ_section_title
;
Structure prediction by ZEFSAII (Michael W. Deem and Ramdas Pophale) SiO2 
 PCOD8000363
Probable space group: P -1
;
_chemical_formula_sum "Si O2"
_cell_formula_units_Z 16
_cell_length_a 12.868685
_cell_length_b 9.062095
_cell_length_c 10.927477
_cell_angle_alpha 41.311004
_cell_angle_beta 84.314474
_cell_angle_gamma 88.407201
_cell_volume 834.996266
_symmetry_space_group_name_H-M "P -1"
_symmetry_group_IT_number 2
_symmetry_cell_setting 'triclinic'
loop_
_space_group_symop_operation_xyz
x,y,z
-x,-y,-z
loop_
_atom_site_type_symbol
_atom_site_label
_atom_site_fract_x
_atom_site_fract_y
_atom_site_fract_z
Si Si1 0.902176 0.685745 0.716566
Si Si2 0.392388 0.113437 0.962039
Si Si3 0.474977 0.652637 0.019597
Si Si4 0.197225 0.800154 0.223611
Si Si5 0.294652 0.398935 0.349994
Si Si6 0.966155 0.060983 0.660281
Si Si7 0.875031 0.167123 0.050718
Si Si8 0.346606 0.043777 0.747976
O O1 0.785325 0.725958 0.658423
O O2 0.985045 0.763636 0.553394
O O3 0.921962 0.831228 0.745204
O O4 0.913178 0.425977 0.910554
O O5 0.421762 0.320787 0.921565
O O6 0.350238 0.180841 0.791294
O O7 0.500000 0.000000 0.000000
O O8 0.304477 0.950773 0.138760
O O9 0.376581 0.561147 0.167318
O O10 0.500000 0.500000 0.000000
O O11 0.445237 0.891744 0.820631
O O12 0.226130 0.544708 0.357832
O O13 0.127014 0.815054 0.342797
O O14 0.131845 0.880710 0.064015
O O15 0.357043 0.221253 0.527225
O O16 0.048724 0.999484 0.791977
O O17 0.759935 0.114409 0.154395
#
# Coordination Sequence:
#
# PCOD8000363 Si02
#       8
#     2   2   2   2   2   2   2   2
#     4  10  22  38  57  85 121 157 189 235 295 340
#     4   9  18  40  59  85 114 149 192 236 289 337
#     4  11  23  40  63  87 116 152 190 242 293 342
#     4  10  21  37  61  88 115 153 196 243 282 333
#     4  11  21  40  61  83 119 158 187 239 294 339
#     4  11  22  37  59  88 118 155 195 239 282 347
#     4  10  19  39  60  84 116 159 191 237 291 338
#     4  10  20  39  64  82 116 153 193 238 288 346
#
# _framework density 19.161762
#
# number of rings (size 3 to 8) (size 9 to 14) (size 15 to 20)
#    0.000    1.750    6.250    0.750    1.750    3.000 
#    4.500    1.250    0.000    0.000    0.000    0.000 
#    0.000    0.000    0.000    0.000    0.000    0.000 
#
# Total GULP energy -198360.674613 kJ/mol
# GULP energy per Si atom -12397.542163 kJ/mol
# Density = 1.911815 g / cm^3
# Si number density = 19.161762 Si / 1000 Ang^3
#
#
#
# Elastic Constant Matrix: (Units=GPa)
#
#
# Indices 1 2 3 4 5 6 
#
# 1 88.1246 41.3194 22.3601 -2.5988 -0.3461 13.4166
# 2 41.3194 112.8794 25.9871 -1.4365 -2.0056 4.0758
# 3 22.3601 25.9871 69.5497 0.8253 14.6210 -4.2636
# 4 -2.5988 -1.4365 0.8253 14.6855 4.9399 -2.1593
# 5 -0.3461 -2.0056 14.6210 4.9399 22.9179 -6.3987
# 6 13.4166 4.0758 -4.2636 -2.1593 -6.3987 31.5727
#
#
#
# Elastic Compliance Matrix: (Units=1/GPa)
#
#
# Indices 1 2 3 4 5 6 
#
# 1 0.015427 -0.004548 -0.003685 0.001531 0.000085 -0.006344
# 2 -0.004548 0.011349 -0.003452 -0.000558 0.003431 0.000659
# 3 -0.003685 -0.003452 0.019655 0.002548 -0.012821 0.002242
# 4 0.001531 -0.000558 0.002548 0.074172 -0.017265 0.001339
# 5 0.000085 0.003431 -0.012821 -0.017265 0.058181 0.008400
# 6 -0.006344 0.000659 0.002242 0.001339 0.008400 0.036381
#
#
# Mechanical properties :
#
#
# Convention : Reuss Voigt Hill
#
# Bulk Modulus (GPa) = 43.36712 49.98742 46.67727
# Shear Modulus (GPa) = 20.30682 25.89437 23.10060
#
# Velocity S-wave (km/s) = 3.25892 3.68007 3.47588
# Velocity P-wave (km/s) = 6.06976 6.64838 6.36565
#
# Compressibility (1/GPa) = 0.02305894
#
# Stress axis : x y z
#
# Youngs Moduli (GPa) = 64.82338 88.11442 50.87688
#
# Poissons Ratio (x) = 0.40079 0.18748
# Poissons Ratio (y) = 0.29485 0.17565
# Poissons Ratio (z) = 0.23887 0.30421
#
# Static dielectric constant tensor:
#      x y z
#    x 3.882720 0.353400 0.043470 
#    y 0.353400 3.587480 0.003260 
#    z 0.043470 0.003260 3.397660 
# 
# 
# High freq. dielectric constant tensor:
#      x y z
#    x 1.752880 0.020920 -0.006910 
#    y 0.020920 1.733670 0.003580 
#    z -0.006910 0.003580 1.734110 
# 
# From -- ./inp_files/276779.got.cif
#   From: 2010.06.25/outbox.cif.g09.slc.cpg/sg2_139_cif.got.tgz:276779.got - 2010.06.27 13:26:56.
