data_PCOD8000691
_publ_section_title
;
Structure prediction by ZEFSAII (Michael W. Deem and Ramdas Pophale) SiO2 
 PCOD8000691
Probable space group: P -1
;
_chemical_formula_sum "Si O2"
_cell_formula_units_Z 16
_cell_length_a 7.444999
_cell_length_b 13.715598
_cell_length_c 11.526072
_cell_angle_alpha 42.251387
_cell_angle_beta 85.976881
_cell_angle_gamma 66.989723
_cell_volume 681.191928
_symmetry_space_group_name_H-M "P -1"
_symmetry_group_IT_number 2
_symmetry_cell_setting 'triclinic'
loop_
_space_group_symop_operation_xyz
x,y,z
-x,-y,-z
loop_
_atom_site_type_symbol
_atom_site_label
_atom_site_fract_x
_atom_site_fract_y
_atom_site_fract_z
Si Si1 0.630173 0.340706 0.780829
Si Si2 0.893142 0.451747 0.823707
Si Si3 0.411795 0.869645 0.675825
Si Si4 0.098894 0.746272 0.791315
Si Si5 0.320125 0.956569 0.355712
Si Si6 0.366695 0.229947 0.027201
Si Si7 0.104187 0.228517 0.459461
Si Si8 0.736673 0.296758 0.563370
O O1 0.795808 0.377921 0.802739
O O2 0.737426 0.240682 0.745688
O O3 0.415462 0.506222 0.615400
O O4 0.563402 0.229725 0.959501
O O5 0.791624 0.653040 0.635452
O O6 0.846901 0.410563 0.990288
O O7 0.143022 0.370119 0.864746
O O8 0.300724 0.762630 0.750220
O O9 0.461507 0.915944 0.504026
O O10 0.619381 0.753627 0.845876
O O11 0.269695 0.032889 0.616946
O O12 0.043163 0.705245 0.705041
O O13 0.918071 0.920422 0.701204
O O14 0.345891 0.791335 0.442825
O O15 0.387076 0.046652 0.175703
O O16 0.968497 0.252214 0.559411
#
# Coordination Sequence:
#
# PCOD8000691 Si02
#       8
#     2   2   2   2   2   2   2   2
#     4  11  26  46  65  92 134 174 227 272 310 381
#     4  11  24  44  66  96 135 174 212 271 326 381
#     4  11  20  40  68 101 134 167 208 268 329 399
#     4  10  19  39  67  98 134 164 210 270 328 395
#     4  10  21  40  67  98 133 168 212 266 332 388
#     4  11  24  43  67  98 137 169 215 269 325 386
#     4  11  21  40  68 101 130 171 215 263 332 392
#     4  11  23  45  68  95 127 176 225 269 322 382
#
# _framework density 23.488240000000001
#
# number of rings (size 3 to 8) (size 9 to 14) (size 15 to 20)
#    0.000    1.250    5.000    1.500    1.750    1.000 
#    2.250    7.500    0.000    0.000    0.000    0.000 
#    0.000    0.000    0.000    0.000    0.000    0.000 
#
# Total GULP energy -198381.098446 kJ/mol
# GULP energy per Si atom -12398.818653 kJ/mol
# Density = 2.343478 g / cm^3
# Si number density = 23.488240 Si / 1000 Ang^3
#
#
#
# Elastic Constant Matrix: (Units=GPa)
#
#
# Indices 1 2 3 4 5 6 
#
# 1 106.2770 25.6250 21.9550 5.4293 -8.3037 -1.9597
# 2 25.6250 97.7525 27.8076 12.9787 -16.7297 -3.2966
# 3 21.9550 27.8076 71.5132 14.6732 -23.2954 -3.4192
# 4 5.4293 12.9787 14.6732 24.4303 6.2439 -3.2188
# 5 -8.3037 -16.7297 -23.2954 6.2439 37.9880 7.1463
# 6 -1.9597 -3.2966 -3.4192 -3.2188 7.1463 19.5890
#
#
#
# Elastic Compliance Matrix: (Units=1/GPa)
#
#
# Indices 1 2 3 4 5 6 
#
# 1 0.010404 -0.002119 -0.002602 0.000551 -0.000435 0.000479
# 2 -0.002119 0.013106 -0.000815 -0.007885 0.006443 -0.001795
# 3 -0.002602 -0.000815 0.024907 -0.019528 0.018700 -0.006081
# 4 0.000551 -0.007885 -0.019528 0.066495 -0.029454 0.016990
# 5 -0.000435 0.006443 0.018700 -0.029454 0.048826 -0.018347
# 6 0.000479 -0.001795 -0.006081 0.016990 -0.018347 0.059219
#
#
# Mechanical properties :
#
#
# Convention : Reuss Voigt Hill
#
# Bulk Modulus (GPa) = 26.77680 47.36865 37.07273
# Shear Modulus (GPa) = 20.28585 29.74516 25.01551
#
# Velocity S-wave (km/s) = 2.94200 3.56249 3.26701
# Velocity P-wave (km/s) = 4.79221 6.09365 5.48169
#
# Compressibility (1/GPa) = 0.03734577
#
# Stress axis : x y z
#
# Youngs Moduli (GPa) = 96.11240 76.29982 40.14973
#
# Poissons Ratio (x) = 0.16165 0.10448
# Poissons Ratio (y) = 0.20362 0.03272
# Poissons Ratio (z) = 0.25011 0.06218
#
# Static dielectric constant tensor:
#      x y z
#    x 4.388750 0.004870 -0.182730 
#    y 0.004870 3.960120 0.133660 
#    z -0.182730 0.133660 4.338240 
# 
# 
# High freq. dielectric constant tensor:
#      x y z
#    x 1.951380 0.004350 -0.017410 
#    y 0.004350 1.897560 -0.002020 
#    z -0.017410 -0.002020 1.931250 
# 
# From -- ./inp_files/398403.got.cif
#   From: 2010.06.25/outbox.cif.g09.slc.cpg/sg2_200_cif.got.tgz:398403.got - 2010.06.27 13:26:56.
