data_PCOD8000661
_publ_section_title
;
Structure prediction by ZEFSAII (Michael W. Deem and Ramdas Pophale) SiO2 
 PCOD8000661
Probable space group: P -1
;
_chemical_formula_sum "Si O2"
_cell_formula_units_Z 16
_cell_length_a 8.820385
_cell_length_b 14.769562
_cell_length_c 14.191462
_cell_angle_alpha 49.699069
_cell_angle_beta 76.582897
_cell_angle_gamma 37.889579
_cell_volume 696.337004
_symmetry_space_group_name_H-M "P -1"
_symmetry_group_IT_number 2
_symmetry_cell_setting 'triclinic'
loop_
_space_group_symop_operation_xyz
x,y,z
-x,-y,-z
loop_
_atom_site_type_symbol
_atom_site_label
_atom_site_fract_x
_atom_site_fract_y
_atom_site_fract_z
Si Si1 0.618668 0.931715 0.731028
Si Si2 0.214846 0.661448 0.808635
Si Si3 0.103345 0.919148 0.324282
Si Si4 0.130455 0.044522 0.941953
Si Si5 0.450324 0.437152 0.345917
Si Si6 0.535223 0.216496 0.105595
Si Si7 0.887655 0.577056 0.571527
Si Si8 0.555601 0.118028 0.805394
O O1 0.662294 0.760444 0.835258
O O2 0.904797 0.801569 0.720991
O O3 0.304388 0.174449 0.558594
O O4 0.610032 0.983081 0.807531
O O5 0.432151 0.576266 0.756289
O O6 0.390940 0.441759 0.989100
O O7 0.117388 0.831346 0.775621
O O8 0.272912 0.730615 0.506658
O O9 0.368207 0.801586 0.300380
O O10 0.879179 0.982111 0.255717
O O11 0.868040 0.293000 0.760305
O O12 0.432143 0.837798 0.972886
O O13 0.225509 0.046660 0.024774
O O14 0.000000 0.000000 0.000000
O O15 0.366012 0.353649 0.406626
O O16 0.000000 0.500000 0.500000
O O17 0.202276 0.357391 0.733341
#
# Coordination Sequence:
#
# PCOD8000661 Si02
#       8
#     2   2   2   2   2   2   2   2
#     4  10  23  42  69  95 132 173 223 266 325 390
#     4  11  23  45  67  94 134 173 224 270 321 386
#     4  11  23  41  71  95 126 183 221 258 332 389
#     4  12  24  41  64 104 134 159 216 276 326 385
#     4  12  23  41  71  97 131 172 218 276 317 391
#     4  12  25  43  66  99 136 170 218 277 325 388
#     4  10  19  39  66  98 127 167 219 261 317 391
#     4  10  21  43  68  96 130 175 213 264 332 392
#
# _framework density 22.97738
#
# number of rings (size 3 to 8) (size 9 to 14) (size 15 to 20)
#    0.000    1.000    6.250    2.625    0.000    4.500 
#    0.000    1.875    0.000    0.000    0.000    0.000 
#    0.000    0.000    0.000    0.000    0.000    0.000 
#
# Total GULP energy -198247.139718 kJ/mol
# GULP energy per Si atom -12390.446232 kJ/mol
# Density = 2.292508 g / cm^3
# Si number density = 22.977380 Si / 1000 Ang^3
#
#
#
# Elastic Constant Matrix: (Units=GPa)
#
#
# Indices 1 2 3 4 5 6 
#
# 1 91.1179 12.7033 38.0717 9.7347 -2.4751 -20.4899
# 2 12.7033 51.4365 22.0402 -9.1186 0.7936 -16.2322
# 3 38.0717 22.0402 134.9274 -20.3105 1.3622 8.1626
# 4 9.7347 -9.1186 -20.3105 26.0515 -4.9428 -0.1188
# 5 -2.4751 0.7936 1.3622 -4.9428 41.6572 2.5633
# 6 -20.4899 -16.2322 8.1626 -0.1188 2.5633 36.1972
#
#
#
# Elastic Compliance Matrix: (Units=1/GPa)
#
#
# Indices 1 2 3 4 5 6 
#
# 1 0.018420 0.000516 -0.007993 -0.013062 -0.000972 0.012486
# 2 0.000516 0.026344 -0.004402 0.005566 -0.000476 0.013150
# 3 -0.007993 -0.004402 0.012674 0.011500 0.001137 -0.009399
# 4 -0.013062 0.005566 0.011500 0.055240 0.005771 -0.007718
# 5 -0.000972 -0.000476 0.001137 0.005771 0.024774 -0.002756
# 6 0.012486 0.013150 -0.009399 -0.007718 -0.002756 0.042881
#
#
# Mechanical properties :
#
#
# Convention : Reuss Voigt Hill
#
# Bulk Modulus (GPa) = 29.69154 47.01245 38.35199
# Shear Modulus (GPa) = 23.22144 34.42562 28.82353
#
# Velocity S-wave (km/s) = 3.18248 3.87491 3.54564
# Velocity P-wave (km/s) = 5.14338 6.36590 5.78701
#
# Compressibility (1/GPa) = 0.03367963
#
# Stress axis : x y z
#
# Youngs Moduli (GPa) = 54.28986 37.95897 78.90098
#
# Poissons Ratio (x) = -0.01958 0.63068
# Poissons Ratio (y) = -0.02801 0.34730
# Poissons Ratio (z) = 0.43396 0.16708
#
# Static dielectric constant tensor:
#      x y z
#    x 4.246950 -0.345520 0.074910 
#    y -0.345520 4.086410 -0.186430 
#    z 0.074910 -0.186430 4.457180 
# 
# 
# High freq. dielectric constant tensor:
#      x y z
#    x 1.907490 -0.026780 -0.004080 
#    y -0.026780 1.880070 -0.018070 
#    z -0.004080 -0.018070 1.913840 
# 
# From -- ./inp_files/389537.got.cif
#   From: 2010.06.25/outbox.cif.g09.slc.cpg/sg2_195_cif.got.tgz:389537.got - 2010.06.27 13:26:56.
