data_PCOD8000261
_publ_section_title
;
Structure prediction by ZEFSAII (Michael W. Deem and Ramdas Pophale) SiO2 
 PCOD8000261
Probable space group: P 1
;
_chemical_formula_sum "Si O2"
_cell_formula_units_Z 8
_cell_length_a 4.895975
_cell_length_b 5.248392
_cell_length_c 12.768823
_cell_angle_alpha 99.851068
_cell_angle_beta 78.943551
_cell_angle_gamma 88.307305
_cell_volume 316.609414
_symmetry_space_group_name_H-M "P 1"
_symmetry_group_IT_number 1
_symmetry_cell_setting 'triclinic'
loop_
_space_group_symop_operation_xyz
x,y,z
loop_
_atom_site_type_symbol
_atom_site_label
_atom_site_fract_x
_atom_site_fract_y
_atom_site_fract_z
Si Si1 0.688100 0.912330 0.660170
Si Si2 0.043855 0.534466 0.937365
Si Si3 0.056792 0.424789 0.250254
Si Si4 0.112305 0.977016 0.803480
Si Si5 0.935768 0.451363 0.487175
Si Si6 0.468935 0.602604 0.086008
Si Si7 0.708525 0.924827 0.248107
Si Si8 0.452654 0.145598 0.481489
O O1 0.407103 0.838198 0.733795
O O2 0.898334 0.676640 0.589703
O O3 0.887235 0.057052 0.734547
O O4 0.577665 0.072280 0.579644
O O5 0.985502 0.757963 0.869979
O O6 0.755990 0.475431 0.009941
O O7 0.172275 0.253751 0.869377
O O8 0.255455 0.655574 0.010622
O O9 0.111353 0.507815 0.373136
O O10 0.903634 0.159867 0.234631
O O11 0.354430 0.400540 0.166619
O O12 0.891425 0.656566 0.218811
O O13 0.629962 0.394197 0.462201
O O14 0.120515 0.216824 0.515148
O O15 0.508299 0.881973 0.160020
O O16 0.522489 0.943097 0.369045
#
# Coordination Sequence:
#
# PCOD8000261 Si02
#       8
#     1   1   1   1   1   1   1   1
#     4  12  26  49  82 108 154 209 254 322 404 458
#     4  12  30  53  76 114 148 203 272 338 384 456
#     4  11  27  48  76 120 163 208 255 313 387 484
#     4  12  30  51  80 110 152 199 274 336 386 456
#     4  11  26  45  74 115 163 202 253 311 385 482
#     4  12  28  51  84 108 160 209 260 320 408 456
#     4  11  27  48  76 120 163 208 255 313 387 484
#     4  11  26  45  74 115 163 202 253 311 385 482
#
# _framework density 25.267726
#
# number of rings (size 3 to 8) (size 9 to 14) (size 15 to 20)
#    0.000    0.500    2.500    3.000   14.000    3.000 
#    0.000    0.000    0.000    0.000    0.000    0.000 
#    0.000    0.000    0.000    0.000    0.000    0.000 
#
# Total GULP energy -99159.280615 kJ/mol
# GULP energy per Si atom -12394.910077 kJ/mol
# Density = 2.521022 g / cm^3
# Si number density = 25.267726 Si / 1000 Ang^3
#
#
#
# Elastic Constant Matrix: (Units=GPa)
#
#
# Indices 1 2 3 4 5 6 
#
# 1 138.8911 31.0093 59.3797 -22.0149 24.8733 -4.3954
# 2 31.0093 124.6753 46.6530 -15.4502 10.0644 5.3978
# 3 59.3797 46.6530 158.3994 -13.7110 16.9815 1.8203
# 4 -22.0149 -15.4502 -13.7110 -46.2608 60.2153 0.4302
# 5 24.8733 10.0644 16.9815 60.2153 -12.3164 -0.6133
# 6 -4.3954 5.3978 1.8203 0.4302 -0.6133 35.6204
#
#
#
# Elastic Compliance Matrix: (Units=1/GPa)
#
#
# Indices 1 2 3 4 5 6 
#
# 1 0.008415 -0.001340 -0.003005 -0.002341 0.000240 0.001427
# 2 -0.001340 0.009173 -0.002328 -0.000075 0.001287 -0.001413
# 3 -0.003005 -0.002328 0.008110 -0.000747 -0.000420 -0.000431
# 4 -0.002341 -0.000075 -0.000747 0.005189 0.019548 0.000035
# 5 0.000240 0.001287 -0.000420 0.019548 0.015341 -0.000116
# 6 0.001427 -0.001413 -0.000431 0.000035 -0.000116 0.028484
#
#
# Mechanical properties :
#
#
# Convention : Reuss Voigt Hill
#
# Bulk Modulus (GPa) = 80.94486 77.33887 79.14186
# Shear Modulus (GPa) = 54.24524 14.40356 34.32440
#
# Velocity S-wave (km/s) = 4.63840 2.39014 3.68968
# Velocity P-wave (km/s) = 7.79685 6.18799 7.03854
#
# Compressibility (1/GPa) = 0.01235409
#
# Stress axis : x y z
#
# Youngs Moduli (GPa) = 118.83919 109.01362 123.29957
#
# Poissons Ratio (x) = 0.14607 0.37046
# Poissons Ratio (y) = 0.15923 0.28699
# Poissons Ratio (z) = 0.35706 0.25374
#
# Static dielectric constant tensor:
#      x y z
#    x 5.448150 -0.098160 -0.181000 
#    y -0.098160 4.227320 0.011080 
#    z -0.181000 0.011080 4.992620 
# 
# 
# High freq. dielectric constant tensor:
#      x y z
#    x 2.025850 0.000530 -0.000200 
#    y 0.000530 1.984090 0.000930 
#    z -0.000200 0.000930 2.028510 
# 
# From -- ./inp_files/5906.got.cif
#   From: 2010.03.12/outbox.cif.g09.slc.cpg/sg1_3_cif.got.tgz:5906.got - 2010.03.29 11:57:58.
