data_PCOD8000589
_publ_section_title
;
Structure prediction by ZEFSAII (Michael W. Deem and Ramdas Pophale) SiO2 
 PCOD8000589
Probable space group: P -1
;
_chemical_formula_sum "Si O2"
_cell_formula_units_Z 16
_cell_length_a 10.048839
_cell_length_b 10.048838
_cell_length_c 19.023332
_cell_angle_alpha 65.368026
_cell_angle_beta 132.686282
_cell_angle_gamma 138.830636
_cell_volume 911.990226
_symmetry_space_group_name_H-M "P -1"
_symmetry_group_IT_number 2
_symmetry_cell_setting 'triclinic'
loop_
_space_group_symop_operation_xyz
x,y,z
-x,-y,-z
loop_
_atom_site_type_symbol
_atom_site_label
_atom_site_fract_x
_atom_site_fract_y
_atom_site_fract_z
Si Si1 0.677669 0.960659 0.069164
Si Si2 0.495653 0.904131 0.449892
Si Si3 0.525903 0.436918 0.449368
Si Si4 0.456235 0.438744 0.916931
Si Si5 0.112136 0.885603 0.248870
Si Si6 0.961818 0.872834 0.449368
Si Si7 0.104881 0.122373 0.083069
Si Si8 0.982201 0.937790 0.709996
O O1 0.885077 0.088288 0.052639
O O2 0.816718 0.038112 0.177414
O O3 0.516993 0.720202 0.052640
O O4 0.500000 0.000000 0.000000
O O5 0.400193 0.688413 0.482446
O O6 0.304229 0.859647 0.331937
O O7 0.500000 0.000000 0.500000
O O8 0.776480 0.064699 0.482446
O O9 0.500000 0.500000 0.500000
O O10 0.741355 0.630302 0.435829
O O11 0.257902 0.300894 0.342638
O O12 0.659380 0.635765 0.897572
O O13 0.174968 0.334973 0.818406
O O14 0.500000 0.500000 0.000000
O O15 0.198160 0.038157 0.181594
O O16 0.123945 0.983104 0.303526
O O17 0.000000 0.000000 0.500000
O O18 0.884384 0.927376 0.342638
O O19 0.000000 0.000000 0.000000
#
# Coordination Sequence:
#
# PCOD8000589 Si02
#       8
#     2   2   2   2   2   2   2   2
#     4  10  23  41  60  90 126 151 200 254 289 352
#     4  11  22  42  58  92 124 143 205 255 280 357
#     4  11  21  39  63  83 121 162 193 239 303 350
#     4  10  19  39  65  87 119 159 195 242 303 349
#     4  10  21  38  62  91 120 150 199 255 289 346
#     4  11  21  39  63  83 121 162 193 239 303 350
#     4  10  19  39  65  87 119 159 195 242 303 349
#     4   9  20  40  59  84 122 154 198 240 299 350
#
# _framework density 17.544049000000001
#
# number of rings (size 3 to 8) (size 9 to 14) (size 15 to 20)
#    0.000    2.000    7.500    0.000    0.000    6.000 
#    4.500    0.000    0.000    0.000    0.000    0.000 
#    0.000    0.000    0.000    0.000    0.000    0.000 
#
# Total GULP energy -198365.734835 kJ/mol
# GULP energy per Si atom -12397.858427 kJ/mol
# Density = 1.750412 g / cm^3
# Si number density = 17.544049 Si / 1000 Ang^3
#
#
#
# Elastic Constant Matrix: (Units=GPa)
#
#
# Indices 1 2 3 4 5 6 
#
# 1 114.0465 65.9732 76.9055 -5.8896 2.7364 5.7997
# 2 65.9732 166.6262 67.0632 1.9177 3.6909 25.2320
# 3 76.9055 67.0632 144.8669 -1.1212 3.3499 -5.3272
# 4 -5.8896 1.9177 -1.1212 32.8761 -4.0745 -3.6095
# 5 2.7364 3.6909 3.3499 -4.0745 40.1518 -2.7727
# 6 5.7997 25.2320 -5.3272 -3.6095 -2.7727 40.1814
#
#
#
# Elastic Compliance Matrix: (Units=1/GPa)
#
#
# Indices 1 2 3 4 5 6 
#
# 1 0.015316 -0.003323 -0.006600 0.002632 0.000027 -0.000761
# 2 -0.003323 0.009410 -0.002806 -0.002032 -0.001029 -0.006055
# 3 -0.006600 -0.002806 0.011862 -0.000145 -0.000001 0.004275
# 4 0.002632 -0.002032 -0.000145 0.031877 0.003529 0.003984
# 5 0.000027 -0.001029 -0.000001 0.003529 0.025544 0.002722
# 6 -0.000761 -0.006055 0.004275 0.003984 0.002722 0.029911
#
#
# Mechanical properties :
#
#
# Convention : Reuss Voigt Hill
#
# Bulk Modulus (GPa) = 89.86840 93.93592 91.90216
# Shear Modulus (GPa) = 32.66051 37.01504 34.83778
#
# Velocity S-wave (km/s) = 4.31934 4.59828 4.46099
# Velocity P-wave (km/s) = 8.72991 9.04717 8.88995
#
# Compressibility (1/GPa) = 0.01112738
#
# Stress axis : x y z
#
# Youngs Moduli (GPa) = 65.29295 106.27171 84.30175
#
# Poissons Ratio (x) = 0.35316 0.55642
# Poissons Ratio (y) = 0.21698 0.23659
# Poissons Ratio (z) = 0.43096 0.29825
#
# Static dielectric constant tensor:
#      x y z
#    x 3.066450 0.050960 -0.242570 
#    y 0.050960 3.167780 0.117910 
#    z -0.242570 0.117910 3.404330 
# 
# 
# High freq. dielectric constant tensor:
#      x y z
#    x 1.671140 0.005970 -0.014410 
#    y 0.005970 1.682130 0.006790 
#    z -0.014410 0.006790 1.688650 
# 
# From -- ./inp_files/527600.got.cif
#   From: 2010.06.25/outbox.cif.g09.slc.cpg/sg2_264_cif.got.tgz:527600.got - 2010.06.27 13:26:56.
