data_PCOD8000450
_publ_section_title
;
Structure prediction by ZEFSAII (Michael W. Deem and Ramdas Pophale) SiO2 
 PCOD8000450
Probable space group: P -1
;
_chemical_formula_sum "Si O2"
_cell_formula_units_Z 16
_cell_length_a 13.428521
_cell_length_b 9.816100
_cell_length_c 21.932031
_cell_angle_alpha 48.393044
_cell_angle_beta 148.651732
_cell_angle_gamma 146.934845
_cell_volume 806.847926
_symmetry_space_group_name_H-M "P -1"
_symmetry_group_IT_number 2
_symmetry_cell_setting 'triclinic'
loop_
_space_group_symop_operation_xyz
x,y,z
-x,-y,-z
loop_
_atom_site_type_symbol
_atom_site_label
_atom_site_fract_x
_atom_site_fract_y
_atom_site_fract_z
Si Si1 0.402181 0.188879 0.622198
Si Si2 0.036018 0.496683 0.118374
Si Si3 0.021106 0.835898 0.202819
Si Si4 0.821559 0.110779 0.017595
Si Si5 0.398772 0.870667 0.621244
Si Si6 0.072443 0.312837 0.409654
Si Si7 0.945633 0.381129 0.600855
Si Si8 0.785254 0.360941 0.153025
O O1 0.682197 0.382635 0.744817
O O2 0.314698 0.336220 0.515456
O O3 0.415733 0.077602 0.601207
O O4 0.191009 0.969293 0.624674
O O5 0.913816 0.253013 0.087680
O O6 0.830795 0.404176 0.092272
O O7 0.055549 0.694572 0.031498
O O8 0.023338 0.770433 0.293481
O O9 0.809856 0.576509 0.131510
O O10 0.308315 0.015487 0.267542
O O11 0.926425 0.977593 0.108136
O O12 0.504779 0.910650 0.904901
O O13 0.267936 0.814041 0.503771
O O14 0.230758 0.615674 0.649436
O O15 0.160108 0.513539 0.448328
O O16 0.008123 0.377534 0.294680
#
# Coordination Sequence:
#
# PCOD8000450 Si02
#       8
#     2   2   2   2   2   2   2   2
#     4  10  19  39  62  89 122 157 195 245 305 356
#     4  11  24  43  63  86 123 159 205 255 294 359
#     4  11  23  39  64  90 120 165 199 248 301 357
#     4  11  26  43  61  88 122 162 207 252 297 349
#     4  10  20  39  59  93 126 155 201 240 304 363
#     4   9  20  36  65  90 120 157 191 248 307 355
#     4   9  21  38  60  89 131 154 192 255 294 363
#     4  11  22  43  63  91 121 157 205 252 298 360
#
# _framework density 19.830255999999999
#
# number of rings (size 3 to 8) (size 9 to 14) (size 15 to 20)
#    0.000    1.750    2.500    1.125    1.750    3.000 
#    0.000    0.000    0.000    0.000    0.000    0.000 
#    0.000    0.000    0.000    0.000    0.000    0.000 
#
# Total GULP energy -198473.866015 kJ/mol
# GULP energy per Si atom -12404.616626 kJ/mol
# Density = 1.978512 g / cm^3
# Si number density = 19.830256 Si / 1000 Ang^3
#
#
#
# Elastic Constant Matrix: (Units=GPa)
#
#
# Indices 1 2 3 4 5 6 
#
# 1 101.9054 33.0395 51.0646 -11.2159 -20.7011 -10.3219
# 2 33.0395 86.6290 50.2142 -5.2537 -6.0610 -24.1464
# 3 51.0646 50.2142 99.1645 -13.6489 5.1616 -23.6180
# 4 -11.2159 -5.2537 -13.6489 38.5379 -6.5668 -1.1149
# 5 -20.7011 -6.0610 5.1616 -6.5668 21.6519 4.0166
# 6 -10.3219 -24.1464 -23.6180 -1.1149 4.0166 28.7756
#
#
#
# Elastic Compliance Matrix: (Units=1/GPa)
#
#
# Indices 1 2 3 4 5 6 
#
# 1 0.022311 -0.000261 -0.013624 0.006145 0.027672 -0.007022
# 2 -0.000261 0.018895 -0.007448 0.001054 0.005480 0.008924
# 3 -0.013624 -0.007448 0.025185 0.000324 -0.023393 0.012812
# 4 0.006145 0.001054 0.000324 0.030609 0.014920 0.002458
# 5 0.027672 0.005480 -0.023393 0.014920 0.087299 -0.016283
# 6 -0.007022 0.008924 0.012812 0.002458 -0.016283 0.052605
#
#
# Mechanical properties :
#
#
# Convention : Reuss Voigt Hill
#
# Bulk Modulus (GPa) = 42.14963 61.81506 51.98235
# Shear Modulus (GPa) = 17.39261 28.01847 22.70554
#
# Velocity S-wave (km/s) = 2.96476 3.76295 3.38745
# Velocity P-wave (km/s) = 5.74640 7.07952 6.44750
#
# Compressibility (1/GPa) = 0.02372500
#
# Stress axis : x y z
#
# Youngs Moduli (GPa) = 44.82112 52.92353 39.70574
#
# Poissons Ratio (x) = 0.01379 0.54096
# Poissons Ratio (y) = 0.01168 0.29575
# Poissons Ratio (z) = 0.61065 0.39420
#
# Static dielectric constant tensor:
#      x y z
#    x 3.707940 0.004690 -0.104790 
#    y 0.004690 3.758380 0.073830 
#    z -0.104790 0.073830 3.503090 
# 
# 
# High freq. dielectric constant tensor:
#      x y z
#    x 1.781270 0.003510 -0.007550 
#    y 0.003510 1.786380 0.006170 
#    z -0.007550 0.006170 1.765670 
# 
# From -- ./inp_files/284697.got.cif
#   From: 2010.06.25/outbox.cif.g09.slc.cpg/sg2_143_cif.got.tgz:284697.got - 2010.06.27 13:26:56.
