data_PCOD8000186
_publ_section_title
;
Structure prediction by ZEFSAII (Michael W. Deem and Ramdas Pophale) SiO2 
 PCOD8000186
Probable space group: P 1
;
_chemical_formula_sum "Si O2"
_cell_formula_units_Z 8
_cell_length_a 7.994943
_cell_length_b 13.894046
_cell_length_c 10.966582
_cell_angle_alpha 29.718430
_cell_angle_beta 136.287932
_cell_angle_gamma 147.101121
_cell_volume 327.923191
_symmetry_space_group_name_H-M "P 1"
_symmetry_group_IT_number 1
_symmetry_cell_setting 'triclinic'
loop_
_space_group_symop_operation_xyz
x,y,z
loop_
_atom_site_type_symbol
_atom_site_label
_atom_site_fract_x
_atom_site_fract_y
_atom_site_fract_z
Si Si1 0.877720 0.359300 0.263110
Si Si2 0.784950 0.744035 0.815100
Si Si3 0.681915 0.952176 0.765565
Si Si4 0.859899 0.109969 0.116755
Si Si5 0.839336 0.459251 0.557557
Si Si6 0.573707 0.699005 0.225214
Si Si7 0.480749 0.925003 0.340141
Si Si8 0.302840 0.069036 0.546229
O O1 0.212304 0.557108 0.163705
O O2 0.919706 0.242031 0.533293
O O3 0.632888 0.129128 0.301402
O O4 0.715536 0.481453 0.078232
O O5 0.695358 0.795047 0.840998
O O6 0.579534 0.747248 0.600509
O O7 0.132295 0.941519 0.726223
O O8 0.349405 0.900955 0.668509
O O9 0.766438 0.889676 0.005163
O O10 0.148941 0.168656 0.280051
O O11 0.691324 0.853480 0.240000
O O12 0.601959 0.067481 0.119028
O O13 0.966046 0.339516 0.834195
O O14 0.623528 0.492860 0.488114
O O15 0.650351 0.297590 0.517708
O O16 0.113726 0.739320 0.352819
#
# Coordination Sequence:
#
# PCOD8000186 Si02
#       8
#     1   1   1   1   1   1   1   1
#     4  11  25  48  76 109 154 203 246 311 379 443
#     4  10  23  47  77 111 151 197 249 311 379 442
#     4  11  25  44  79 114 144 199 250 304 379 443
#     4  11  27  49  74 111 152 199 248 316 374 443
#     4  12  27  48  74 111 149 201 251 303 378 447
#     4  12  27  45  76 115 152 197 256 307 377 453
#     4  10  27  45  71 113 148 196 258 304 371 449
#     4  11  25  52  77 108 158 196 252 312 375 446
#
# _framework density 24.395958
#
# number of rings (size 3 to 8) (size 9 to 14) (size 15 to 20)
#    0.000    1.000    2.500    2.250    8.750    7.000 
#    0.000    0.000    0.000    0.000    0.000    0.000 
#    0.000    0.000    0.000    0.000    0.000    0.000 
#
# Total GULP energy -99128.664517 kJ/mol
# GULP energy per Si atom -12391.083065 kJ/mol
# Density = 2.434043 g / cm^3
# Si number density = 24.395958 Si / 1000 Ang^3
#
#
#
# Elastic Constant Matrix: (Units=GPa)
#
#
# Indices 1 2 3 4 5 6 
#
# 1 157.1950 46.6569 39.7635 -5.6792 7.6161 -8.7367
# 2 46.6569 121.3151 45.7257 -3.2827 -9.2986 -3.7514
# 3 39.7635 45.7257 140.9728 0.3461 17.5882 -11.4296
# 4 -5.6792 -3.2827 0.3461 30.2406 -2.2790 2.4055
# 5 7.6161 -9.2986 17.5882 -2.2790 49.3361 -4.7469
# 6 -8.7367 -3.7514 -11.4296 2.4055 -4.7469 26.0382
#
#
#
# Elastic Compliance Matrix: (Units=1/GPa)
#
#
# Indices 1 2 3 4 5 6 
#
# 1 0.007542 -0.002512 -0.001066 0.000962 -0.001077 0.001416
# 2 -0.002512 0.010726 -0.003234 0.001013 0.003594 -0.000155
# 3 -0.001066 -0.003234 0.009095 -0.001128 -0.003486 0.002637
# 4 0.000962 0.001013 -0.001128 0.033727 0.001730 -0.002827
# 5 -0.001077 0.003594 -0.003486 0.001730 0.022686 0.002602
# 6 0.001416 -0.000155 0.002637 -0.002827 0.002602 0.040751
#
#
# Mechanical properties :
#
#
# Convention : Reuss Voigt Hill
#
# Bulk Modulus (GPa) = 72.78255 75.97502 74.37878
# Shear Modulus (GPa) = 35.03123 40.27879 37.65501
#
# Velocity S-wave (km/s) = 3.79350 4.06771 3.93299
# Velocity P-wave (km/s) = 7.00615 7.29875 7.15395
#
# Compressibility (1/GPa) = 0.01373956
#
# Stress axis : x y z
#
# Youngs Moduli (GPa) = 132.58591 93.23102 109.95400
#
# Poissons Ratio (x) = 0.23417 0.11720
# Poissons Ratio (y) = 0.33301 0.35560
# Poissons Ratio (z) = 0.14133 0.30152
#
# Static dielectric constant tensor:
#      x y z
#    x 4.715600 0.061680 0.039650 
#    y 0.061680 3.919730 -0.052790 
#    z 0.039650 -0.052790 4.587800 
# 
# 
# High freq. dielectric constant tensor:
#      x y z
#    x 1.990500 0.002300 0.005030 
#    y 0.002300 1.934230 -0.005710 
#    z 0.005030 -0.005710 1.983610 
# 
# From -- ./inp_files/6619.got.cif
#   From: 2010.03.12/outbox.cif.g09.slc.cpg/sg1_4_cif.got.tgz:6619.got - 2010.03.29 11:57:58.
