data_PCOD8000230
_publ_section_title
;
Structure prediction by ZEFSAII (Michael W. Deem and Ramdas Pophale) SiO2 
 PCOD8000230
Probable space group: P 1
;
_chemical_formula_sum "Si O2"
_cell_formula_units_Z 8
_cell_length_a 9.393632
_cell_length_b 8.918170
_cell_length_c 8.860261
_cell_angle_alpha 132.447868
_cell_angle_beta 115.551103
_cell_angle_gamma 97.480791
_cell_volume 382.606282
_symmetry_space_group_name_H-M "P 1"
_symmetry_group_IT_number 1
_symmetry_cell_setting 'triclinic'
loop_
_space_group_symop_operation_xyz
x,y,z
loop_
_atom_site_type_symbol
_atom_site_label
_atom_site_fract_x
_atom_site_fract_y
_atom_site_fract_z
Si Si1 0.303280 0.694890 0.880530
Si Si2 0.099888 0.929697 0.852654
Si Si3 0.748290 0.978644 0.245358
Si Si4 0.762196 0.616389 0.227049
Si Si5 0.027502 0.200367 0.247739
Si Si6 0.127412 0.389654 0.861264
Si Si7 0.331082 0.149943 0.838834
Si Si8 0.064176 0.552358 0.248983
O O1 0.140022 0.730531 0.780901
O O2 0.225244 0.415612 0.585775
O O3 0.293652 0.665105 0.038435
O O4 0.534941 0.925137 0.092007
O O5 0.912921 0.799730 0.559058
O O6 0.305440 0.168553 0.020425
O O7 0.064767 0.025978 0.053318
O O8 0.706894 0.751452 0.179430
O O9 0.831676 0.999552 0.129206
O O10 0.908489 0.253340 0.591415
O O11 0.866324 0.529373 0.110529
O O12 0.560644 0.363246 0.038448
O O13 0.998603 0.366042 0.235523
O O14 0.183137 0.198109 0.728207
O O15 0.121235 0.444729 0.069786
O O16 0.256156 0.858943 0.572330
#
# Coordination Sequence:
#
# PCOD8000230 Si02
#       8
#     1   1   1   1   1   1   1   1
#     4  11  25  43  63  98 133 169 208 265 328 373
#     4  11  24  45  66  95 129 172 216 262 319 379
#     4  11  24  44  66  95 133 166 212 270 320 374
#     4  11  23  44  68  94 127 173 215 263 317 379
#     4  11  24  43  67  94 136 165 211 270 318 379
#     4  11  23  44  67  92 133 169 215 265 315 383
#     4  11  22  42  68  92 129 167 216 263 308 384
#     4  11  23  43  67  98 126 173 213 262 321 377
#
# _framework density 20.909222
#
# number of rings (size 3 to 8) (size 9 to 14) (size 15 to 20)
#    0.000    1.000    7.500    0.000    3.500    2.000 
#    4.500    0.000    0.000    0.000    0.000    0.000 
#    0.000    0.000    0.000    0.000    0.000    0.000 
#
# Total GULP energy -99126.887961 kJ/mol
# GULP energy per Si atom -12390.860995 kJ/mol
# Density = 2.086163 g / cm^3
# Si number density = 20.909222 Si / 1000 Ang^3
#
#
#
# Elastic Constant Matrix: (Units=GPa)
#
#
# Indices 1 2 3 4 5 6 
#
# 1 107.5413 44.3649 57.8307 10.6384 -0.7033 16.1607
# 2 44.3649 125.2551 32.6844 3.2472 -2.4007 24.0891
# 3 57.8307 32.6844 76.1965 7.5118 -1.6659 8.2993
# 4 10.6384 3.2472 7.5118 29.0438 6.8951 5.4046
# 5 -0.7033 -2.4007 -1.6659 6.8951 33.8811 4.1571
# 6 16.1607 24.0891 8.2993 5.4046 4.1571 43.1114
#
#
#
# Elastic Compliance Matrix: (Units=1/GPa)
#
#
# Indices 1 2 3 4 5 6 
#
# 1 0.017083 -0.002531 -0.011330 -0.002688 0.000474 -0.002517
# 2 -0.002531 0.010302 -0.002067 0.000944 0.000950 -0.004619
# 3 -0.011330 -0.002067 0.022694 -0.001942 0.000984 0.001182
# 4 -0.002688 0.000944 -0.001942 0.038181 -0.007460 -0.003213
# 5 0.000474 0.000950 0.000984 -0.007460 0.031527 -0.003003
# 6 -0.002517 -0.004619 0.001182 -0.003213 -0.003003 0.027185
#
#
# Mechanical properties :
#
#
# Convention : Reuss Voigt Hill
#
# Bulk Modulus (GPa) = 54.87841 64.30587 59.59214
# Shear Modulus (GPa) = 27.04111 32.81479 29.92795
#
# Velocity S-wave (km/s) = 3.60010 3.96585 3.78739
# Velocity P-wave (km/s) = 6.60181 7.19668 6.90566
#
# Compressibility (1/GPa) = 0.01822210
#
# Stress axis : x y z
#
# Youngs Moduli (GPa) = 58.53704 97.07035 44.06443
#
# Poissons Ratio (x) = 0.24573 0.49926
# Poissons Ratio (y) = 0.14818 0.09107
# Poissons Ratio (z) = 0.66324 0.20062
#
# Static dielectric constant tensor:
#      x y z
#    x 3.762700 0.171050 -0.018290 
#    y 0.171050 4.066620 0.009610 
#    z -0.018290 0.009610 3.542810 
# 
# 
# High freq. dielectric constant tensor:
#      x y z
#    x 1.816680 0.011050 0.001650 
#    y 0.011050 1.844950 0.002770 
#    z 0.001650 0.002770 1.789840 
# 
# From -- ./inp_files/4053.got.cif
#   From: 2010.03.12/outbox.cif.g09.slc.cpg/sg1_3_cif.got.tgz:4053.got - 2010.03.29 11:57:58.
