data_PCOD8000167
_publ_section_title
;
Structure prediction by ZEFSAII (Michael W. Deem and Ramdas Pophale) SiO2 
 PCOD8000167
Probable space group: P 1
;
_chemical_formula_sum "Si O2"
_cell_formula_units_Z 8
_cell_length_a 10.017283
_cell_length_b 12.433748
_cell_length_c 5.468259
_cell_angle_alpha 82.891732
_cell_angle_beta 105.320392
_cell_angle_gamma 37.853809
_cell_volume 333.530389
_symmetry_space_group_name_H-M "P 1"
_symmetry_group_IT_number 1
_symmetry_cell_setting 'triclinic'
loop_
_space_group_symop_operation_xyz
x,y,z
loop_
_atom_site_type_symbol
_atom_site_label
_atom_site_fract_x
_atom_site_fract_y
_atom_site_fract_z
Si Si1 0.294580 0.607010 0.875000
Si Si2 0.321272 0.163244 0.314562
Si Si3 0.840860 0.192380 0.049098
Si Si4 0.851357 0.550216 0.262374
Si Si5 0.958229 0.288843 0.736580
Si Si6 0.837617 0.794819 0.390655
Si Si7 0.342588 0.937246 0.651783
Si Si8 0.064000 0.821438 0.208177
O O1 0.229158 0.728561 0.572153
O O2 0.094351 0.637285 0.741975
O O3 0.607400 0.359285 0.093675
O O4 0.249677 0.693355 0.091576
O O5 0.158199 0.357452 0.357159
O O6 0.576889 0.032162 0.318185
O O7 0.440086 0.986949 0.583859
O O8 0.077825 0.288575 0.992837
O O9 0.763477 0.330707 0.759199
O O10 0.141571 0.013691 0.345909
O O11 0.851536 0.062113 0.994904
O O12 0.814716 0.462738 0.419996
O O13 0.785706 0.702591 0.343894
O O14 0.621580 0.685609 0.906025
O O15 0.194213 0.056606 0.802193
O O16 0.895932 0.821508 0.158112
#
# Coordination Sequence:
#
# PCOD8000167 Si02
#       8
#     1   1   1   1   1   1   1   1
#     4  10  27  48  73 112 140 201 243 299 368 426
#     4  10  23  43  66 106 142 185 233 294 366 431
#     4  11  26  49  72 102 149 189 250 298 362 439
#     4  11  24  43  72 108 144 186 232 305 374 425
#     4  10  24  42  67 105 140 189 233 295 365 433
#     4  10  25  45  70 108 145 185 247 296 360 445
#     4  10  24  43  70 107 144 184 240 301 363 434
#     4  10  27  47  74 108 144 197 244 302 356 433
#
# _framework density 23.98582
#
# number of rings (size 3 to 8) (size 9 to 14) (size 15 to 20)
#    0.750    1.000    1.250    0.000    7.000    7.000 
#    0.000    0.000    0.000    0.000    0.000    0.000 
#    0.000    0.000    0.000    0.000    0.000    0.000 
#
# Total GULP energy -99107.494092 kJ/mol
# GULP energy per Si atom -12388.436761 kJ/mol
# Density = 2.393123 g / cm^3
# Si number density = 23.985820 Si / 1000 Ang^3
#
#
#
# Elastic Constant Matrix: (Units=GPa)
#
#
# Indices 1 2 3 4 5 6 
#
# 1 79.2941 47.7163 34.9403 -15.7410 -14.1522 -5.6809
# 2 47.7163 162.6670 44.7332 -7.7169 -19.4121 -21.1223
# 3 34.9403 44.7332 105.9877 -12.5197 -20.8237 -11.1451
# 4 -15.7410 -7.7169 -12.5197 42.1911 -4.1965 -0.9870
# 5 -14.1522 -19.4121 -20.8237 -4.1965 18.5490 -1.3298
# 6 -5.6809 -21.1223 -11.1451 -0.9870 -1.3298 31.6969
#
#
#
# Elastic Compliance Matrix: (Units=1/GPa)
#
#
# Indices 1 2 3 4 5 6 
#
# 1 0.018690 -0.003253 -0.001777 0.006925 0.010514 0.001214
# 2 -0.003253 0.008817 -0.000673 0.000981 0.006596 0.005363
# 3 -0.001777 -0.000673 0.014590 0.005244 0.015877 0.005192
# 4 0.006925 0.000981 0.005244 0.030078 0.019395 0.005489
# 5 0.010514 0.006596 0.015877 0.019395 0.092220 0.016336
# 6 0.001214 0.005363 0.005192 0.005489 0.016336 0.038022
#
#
# Mechanical properties :
#
#
# Convention : Reuss Voigt Hill
#
# Bulk Modulus (GPa) = 32.58330 66.96983 49.77656
# Shear Modulus (GPa) = 22.31606 33.19132 27.75369
#
# Velocity S-wave (km/s) = 3.05353 3.72397 3.40529
# Velocity P-wave (km/s) = 5.10352 6.81702 6.02153
#
# Compressibility (1/GPa) = 0.03069057
#
# Stress axis : x y z
#
# Youngs Moduli (GPa) = 53.50447 113.41852 68.54034
#
# Poissons Ratio (x) = 0.36894 0.12180
# Poissons Ratio (y) = 0.17404 0.04614
# Poissons Ratio (z) = 0.09508 0.07635
#
# Static dielectric constant tensor:
#      x y z
#    x 4.119010 -0.234310 -0.190620 
#    y -0.234310 4.326430 0.040980 
#    z -0.190620 0.040980 4.132330 
# 
# 
# High freq. dielectric constant tensor:
#      x y z
#    x 1.930770 -0.014580 -0.007840 
#    y -0.014580 1.958600 -0.001230 
#    z -0.007840 -0.001230 1.941220 
# 
# From -- ./inp_files/2370.got.cif
#   From: 2010.03.12/outbox.cif.g09.slc.cpg/sg1_2_cif.got.tgz:2370.got - 2010.03.29 11:57:58.
