data_PCOD8000884
_publ_section_title
;
Structure prediction by ZEFSAII (Michael W. Deem and Ramdas Pophale) SiO2 
 PCOD8000884
Probable space group: P -1
;
_chemical_formula_sum "Si O2"
_cell_formula_units_Z 16
_cell_length_a 16.663188
_cell_length_b 8.099552
_cell_length_c 8.822191
_cell_angle_alpha 69.495444
_cell_angle_beta 54.850584
_cell_angle_gamma 53.558294
_cell_volume 783.133027
_symmetry_space_group_name_H-M "P -1"
_symmetry_group_IT_number 2
_symmetry_cell_setting 'triclinic'
loop_
_space_group_symop_operation_xyz
x,y,z
-x,-y,-z
loop_
_atom_site_type_symbol
_atom_site_label
_atom_site_fract_x
_atom_site_fract_y
_atom_site_fract_z
Si Si1 0.292247 0.943906 0.910166
Si Si2 0.959306 0.722547 0.543393
Si Si3 0.897753 0.628584 0.955347
Si Si4 0.252373 0.862512 0.436295
Si Si5 0.822037 0.259683 0.730177
Si Si6 0.257123 0.441517 0.026776
Si Si7 0.393782 0.982779 0.070327
Si Si8 0.374010 0.631501 0.662861
O O1 0.357732 0.815461 0.730984
O O2 0.397096 0.883490 0.934175
O O3 0.199940 0.887813 0.091160
O O4 0.210975 0.188957 0.891740
O O5 0.938482 0.720620 0.746151
O O6 0.000000 0.500000 0.500000
O O7 0.046823 0.803431 0.401433
O O8 0.847212 0.899335 0.522771
O O9 0.859190 0.473873 0.973782
O O10 0.000000 0.500000 0.000000
O O11 0.225748 0.732202 0.387615
O O12 0.277073 0.743481 0.604873
O O13 0.368471 0.858954 0.264008
O O14 0.756346 0.479347 0.812845
O O15 0.288166 0.210288 0.092045
O O16 0.350895 0.471487 0.828440
O O17 0.500000 0.000000 0.000000
O O18 0.500000 0.500000 0.500000
#
# Coordination Sequence:
#
# PCOD8000884 Si02
#       8
#     2   2   2   2   2   2   2   2
#     4   9  22  42  60  87 126 156 204 251 307 370
#     4  12  22  39  62  93 126 159 211 247 302 372
#     4  11  23  39  61  92 127 163 197 247 313 371
#     4  11  23  39  62  92 121 159 210 253 298 365
#     4  10  20  38  63  86 120 162 194 254 300 368
#     4  10  21  42  58  88 125 153 205 253 305 369
#     4  10  19  40  65  84 113 162 205 256 307 356
#     4  11  25  42  61  89 125 162 209 259 309 358
#
# _framework density 20.430755000000001
#
# number of rings (size 3 to 8) (size 9 to 14) (size 15 to 20)
#    0.000    1.500    5.000    1.125    3.500    1.000 
#    0.000   11.875    0.000    0.000    0.000    0.000 
#    0.000    0.000    0.000    0.000    0.000    0.000 
#
# Total GULP energy -198244.648749 kJ/mol
# GULP energy per Si atom -12390.290547 kJ/mol
# Density = 2.038425 g / cm^3
# Si number density = 20.430755 Si / 1000 Ang^3
#
#
#
# Elastic Constant Matrix: (Units=GPa)
#
#
# Indices 1 2 3 4 5 6 
#
# 1 135.5074 34.4827 42.9763 15.9017 -4.9822 10.9806
# 2 34.4827 71.5473 29.1152 16.7041 17.2942 5.9257
# 3 42.9763 29.1152 90.1628 19.1323 1.1087 3.1702
# 4 15.9017 16.7041 19.1323 28.0016 8.4315 5.7539
# 5 -4.9822 17.2942 1.1087 8.4315 41.2628 1.0207
# 6 10.9806 5.9257 3.1702 5.7539 1.0207 36.8422
#
#
#
# Elastic Compliance Matrix: (Units=1/GPa)
#
#
# Indices 1 2 3 4 5 6 
#
# 1 0.009766 -0.003652 -0.003053 -0.001869 0.003220 -0.001858
# 2 -0.003652 0.020358 -0.003634 -0.005054 -0.007822 -0.000867
# 3 -0.003053 -0.003634 0.015225 -0.007438 0.002233 0.001284
# 4 -0.001869 -0.005054 -0.007438 0.048262 -0.007638 -0.005316
# 5 0.003220 -0.007822 0.002233 -0.007638 0.029391 0.000485
# 6 -0.001858 -0.000867 0.001284 -0.005316 0.000485 0.028542
#
#
# Mechanical properties :
#
#
# Convention : Reuss Voigt Hill
#
# Bulk Modulus (GPa) = 40.53446 56.70730 48.62088
# Shear Modulus (GPa) = 27.70897 33.93088 30.81992
#
# Velocity S-wave (km/s) = 3.68671 4.07968 3.88816
# Velocity P-wave (km/s) = 6.16485 7.07162 6.63375
#
# Compressibility (1/GPa) = 0.02467037
#
# Stress axis : x y z
#
# Youngs Moduli (GPa) = 102.40045 49.12001 65.67942
#
# Poissons Ratio (x) = 0.17940 0.20053
# Poissons Ratio (y) = 0.37399 0.23868
# Poissons Ratio (z) = 0.31264 0.17851
#
# Static dielectric constant tensor:
#      x y z
#    x 4.067730 0.253270 0.042030 
#    y 0.253270 3.841310 0.099850 
#    z 0.042030 0.099850 3.721720 
# 
# 
# High freq. dielectric constant tensor:
#      x y z
#    x 1.809480 0.019170 -0.003260 
#    y 0.019170 1.788630 0.005080 
#    z -0.003260 0.005080 1.793020 
# 
# From -- ./inp_files/218691.got.cif
#   From: 2010.06.25/outbox.cif.g09.slc.cpg/sg2_110_cif.got.tgz:218691.got - 2010.06.27 13:26:56.
