data_PCOD8000057
_publ_section_title
;
Structure prediction by ZEFSAII (Michael W. Deem and Ramdas Pophale) SiO2 
 PCOD8000057
Probable space group: P 1
;
_chemical_formula_sum "Si O2"
_cell_formula_units_Z 8
_cell_length_a 7.900085
_cell_length_b 5.224036
_cell_length_c 14.499728
_cell_angle_alpha 60.117036
_cell_angle_beta 55.035054
_cell_angle_gamma 89.961118
_cell_volume 389.535380
_symmetry_space_group_name_H-M "P 1"
_symmetry_group_IT_number 1
_symmetry_cell_setting 'triclinic'
loop_
_space_group_symop_operation_xyz
x,y,z
loop_
_atom_site_type_symbol
_atom_site_label
_atom_site_fract_x
_atom_site_fract_y
_atom_site_fract_z
Si Si1 0.855760 0.808470 0.260100
Si Si2 0.153027 0.417125 0.967480
Si Si3 0.866241 0.672146 0.903961
Si Si4 0.919084 0.241361 0.671016
Si Si5 0.389054 0.714401 0.361547
Si Si6 0.459894 0.437061 0.199463
Si Si7 0.667496 0.586080 0.791745
Si Si8 0.079362 0.392659 0.194871
O O1 0.588462 0.699107 0.365004
O O2 0.912448 0.496028 0.289804
O O3 0.957817 0.003948 0.288014
O O4 0.975103 0.042618 0.093685
O O5 0.405472 0.438014 0.873020
O O6 0.083430 0.591817 0.873451
O O7 0.136114 0.570810 0.045304
O O8 0.719085 0.470345 0.897884
O O9 0.953787 0.052229 0.784470
O O10 0.717337 0.581317 0.059470
O O11 0.794028 0.470213 0.695344
O O12 0.158425 0.445036 0.516041
O O13 0.768155 0.977356 0.690044
O O14 0.436530 0.642054 0.255710
O O15 0.380671 0.061334 0.314813
O O16 0.315698 0.492098 0.152808
#
# Coordination Sequence:
#
# PCOD8000057 Si02
#       8
#     1   1   1   1   1   1   1   1
#     4  10  21  36  61  94 129 163 207 271 326 369
#     4  10  21  38  65 100 129 159 220 275 325 366
#     4  10  22  41  66 101 120 174 215 267 322 382
#     4  10  25  45  64  87 139 176 210 258 334 390
#     4  12  24  43  66  96 132 176 213 268 331 391
#     4  12  23  39  70  97 129 169 226 266 323 386
#     4  10  23  41  66  90 133 169 218 259 324 381
#     4  10  21  37  58  99 133 158 207 280 327 367
#
# _framework density 20.537286999999999
#
# number of rings (size 3 to 8) (size 9 to 14) (size 15 to 20)
#    1.500    0.000    2.500    3.000    5.250    1.000 
#    0.000    3.750    0.000    0.000    0.000    0.000 
#    0.000    0.000    0.000    0.000    0.000    0.000 
#
# Total GULP energy -99144.203275 kJ/mol
# GULP energy per Si atom -12393.025409 kJ/mol
# Density = 2.049054 g / cm^3
# Si number density = 20.537287 Si / 1000 Ang^3
#
#
#
# Elastic Constant Matrix: (Units=GPa)
#
#
# Indices 1 2 3 4 5 6 
#
# 1 103.4798 6.9298 10.7273 15.4009 -19.7064 -8.0029
# 2 6.9298 105.5731 6.6862 22.4001 -3.3950 1.6527
# 3 10.7273 6.6862 92.5443 5.5011 -18.6990 -1.9537
# 4 15.4009 22.4001 5.5011 24.2103 -8.3436 -3.0072
# 5 -19.7064 -3.3950 -18.6990 -8.3436 26.2278 2.2494
# 6 -8.0029 1.6527 -1.9537 -3.0072 2.2494 26.8154
#
#
#
# Elastic Compliance Matrix: (Units=1/GPa)
#
#
# Indices 1 2 3 4 5 6 
#
# 1 0.011985 0.000520 0.000455 -0.005333 0.007499 0.002351
# 2 0.000520 0.012058 -0.000705 -0.012356 -0.002325 -0.001830
# 3 0.000455 -0.000705 0.012688 0.000810 0.009520 0.000396
# 4 -0.005333 -0.012356 0.000810 0.061412 0.014085 0.004934
# 5 0.007499 -0.002325 0.009520 0.014085 0.054723 0.000064
# 6 0.002351 -0.001830 0.000396 0.004934 0.000064 0.038683
#
#
# Mechanical properties :
#
#
# Convention : Reuss Voigt Hill
#
# Bulk Modulus (GPa) = 26.83082 38.92042 32.87562
# Shear Modulus (GPa) = 24.57810 33.93428 29.25619
#
# Velocity S-wave (km/s) = 3.46317 4.06929 3.77840
# Velocity P-wave (km/s) = 5.39297 6.40867 5.92264
#
# Compressibility (1/GPa) = 0.03727057
#
# Stress axis : x y z
#
# Youngs Moduli (GPa) = 83.43596 82.93171 78.81707
#
# Poissons Ratio (x) = -0.04315 -0.03586
# Poissons Ratio (y) = -0.04341 0.05560
# Poissons Ratio (z) = -0.03796 0.05850
#
# Static dielectric constant tensor:
#      x y z
#    x 3.589540 0.005210 -0.180350 
#    y 0.005210 3.770640 0.011230 
#    z -0.180350 0.011230 3.359400 
# 
# 
# High freq. dielectric constant tensor:
#      x y z
#    x 1.796050 -0.000360 -0.023120 
#    y -0.000360 1.808300 0.007080 
#    z -0.023120 0.007080 1.773780 
# 
# From -- ./inp_files/5139.got.cif
#   From: 2010.03.12/outbox.cif.g09.slc.cpg/sg1_3_cif.got.tgz:5139.got - 2010.03.29 11:57:58.
