data_PCOD8000441
_publ_section_title
;
Structure prediction by ZEFSAII (Michael W. Deem and Ramdas Pophale) SiO2 
 PCOD8000441
Probable space group: P -1
;
_chemical_formula_sum "Si O2"
_cell_formula_units_Z 16
_cell_length_a 9.204293
_cell_length_b 6.827113
_cell_length_c 21.962882
_cell_angle_alpha 136.424760
_cell_angle_beta 121.609480
_cell_angle_gamma 53.511851
_cell_volume 753.925954
_symmetry_space_group_name_H-M "P -1"
_symmetry_group_IT_number 2
_symmetry_cell_setting 'triclinic'
loop_
_space_group_symop_operation_xyz
x,y,z
-x,-y,-z
loop_
_atom_site_type_symbol
_atom_site_label
_atom_site_fract_x
_atom_site_fract_y
_atom_site_fract_z
Si Si1 0.613634 0.345115 0.895651
Si Si2 0.726742 0.605547 0.310007
Si Si3 0.098769 0.259664 0.738234
Si Si4 0.697681 0.659654 0.750511
Si Si5 0.984506 0.707508 0.601737
Si Si6 0.572519 0.131147 0.601583
Si Si7 0.298975 0.403343 0.921442
Si Si8 0.480443 0.253530 0.146256
O O1 0.415410 0.499226 0.917936
O O2 0.625291 0.569599 0.895971
O O3 0.631345 0.016100 0.797254
O O4 0.765026 0.338043 0.980346
O O5 0.756093 0.739304 0.281452
O O6 0.564187 0.853051 0.368882
O O7 0.658363 0.330763 0.220126
O O8 0.917731 0.499542 0.365599
O O9 0.141826 0.341090 0.834832
O O10 0.901250 0.507956 0.735147
O O11 0.098440 0.921145 0.660640
O O12 0.576417 0.463145 0.656238
O O13 0.681195 0.645692 0.816590
O O14 0.000000 0.500000 0.500000
O O15 0.774119 0.905978 0.616118
O O16 0.500000 0.000000 0.500000
O O17 0.434764 0.109539 0.922221
#
# Coordination Sequence:
#
# PCOD8000441 Si02
#       8
#     2   2   2   2   2   2   2   2
#     4  10  20  37  62  92 119 162 213 252 303 375
#     4  11  22  39  67  90 121 169 204 248 319 370
#     4  11  23  41  61  90 126 161 206 256 309 371
#     4   9  23  38  60  88 126 159 204 259 313 356
#     4  11  23  42  64  90 129 158 205 264 307 367
#     4  10  21  42  67  91 125 164 207 258 313 370
#     4  10  20  36  62  91 123 160 205 259 305 362
#     4  10  19  39  62  87 121 167 204 249 313 371
#
# _framework density 21.222245000000001
#
# number of rings (size 3 to 8) (size 9 to 14) (size 15 to 20)
#    0.000    1.750    3.750    0.375    0.000    4.000 
#    0.000    1.250    0.000    0.000    0.000    0.000 
#    0.000    0.000    0.000    0.000    0.000    0.000 
#
# Total GULP energy -198228.484161 kJ/mol
# GULP energy per Si atom -12389.280260 kJ/mol
# Density = 2.117394 g / cm^3
# Si number density = 21.222245 Si / 1000 Ang^3
#
#
#
# Elastic Constant Matrix: (Units=GPa)
#
#
# Indices 1 2 3 4 5 6 
#
# 1 96.7995 31.9327 19.4664 0.8429 -2.0433 -0.6421
# 2 31.9327 71.7745 26.8739 -4.7930 -3.1874 6.6039
# 3 19.4664 26.8739 131.9771 -1.0113 5.9778 -3.7694
# 4 0.8429 -4.7930 -1.0113 30.9233 -0.9354 1.7630
# 5 -2.0433 -3.1874 5.9778 -0.9354 23.8718 -1.6597
# 6 -0.6421 6.6039 -3.7694 1.7630 -1.6597 28.1470
#
#
#
# Elastic Compliance Matrix: (Units=1/GPa)
#
#
# Indices 1 2 3 4 5 6 
#
# 1 0.012289 -0.005409 -0.000702 -0.001269 0.000565 0.001568
# 2 -0.005409 0.018302 -0.003160 0.003237 0.002559 -0.004892
# 3 -0.000702 -0.003160 0.008484 -0.000368 -0.002500 0.001737
# 4 -0.001269 0.003237 -0.000368 0.033069 0.001515 -0.002820
# 5 0.000565 0.002559 -0.002500 0.001515 0.043072 0.001522
# 6 0.001568 -0.004892 0.001737 -0.002820 0.001522 0.037210
#
#
# Mechanical properties :
#
#
# Convention : Reuss Voigt Hill
#
# Bulk Modulus (GPa) = 48.69807 50.78857 49.74332
# Shear Modulus (GPa) = 28.11959 31.40697 29.76328
#
# Velocity S-wave (km/s) = 3.64401 3.85113 3.74900
# Velocity P-wave (km/s) = 6.37978 6.61503 6.49847
#
# Compressibility (1/GPa) = 0.02053470
#
# Stress axis : x y z
#
# Youngs Moduli (GPa) = 81.37089 54.63897 117.86836
#
# Poissons Ratio (x) = 0.29553 0.08272
# Poissons Ratio (y) = 0.44011 0.37244
# Poissons Ratio (z) = 0.05711 0.17265
#
# Static dielectric constant tensor:
#      x y z
#    x 3.712610 0.016860 0.036000 
#    y 0.016860 3.706160 0.132880 
#    z 0.036000 0.132880 4.184990 
# 
# 
# High freq. dielectric constant tensor:
#      x y z
#    x 1.818740 0.007050 0.002900 
#    y 0.007050 1.811280 0.005220 
#    z 0.002900 0.005220 1.850530 
# 
# From -- ./inp_files/110892.got.cif
#   From: 2010.06.25/outbox.cif.g09.slc.cpg/sg2_56_cif.got.tgz:110892.got - 2010.06.27 13:26:56.
