data_PCOD8000562
_publ_section_title
;
Structure prediction by ZEFSAII (Michael W. Deem and Ramdas Pophale) SiO2 
 PCOD8000562
Probable space group: P -1
;
_chemical_formula_sum "Si O2"
_cell_formula_units_Z 16
_cell_length_a 16.971447
_cell_length_b 9.192089
_cell_length_c 11.877717
_cell_angle_alpha 54.130276
_cell_angle_beta 152.735153
_cell_angle_gamma 125.047953
_cell_volume 680.707413
_symmetry_space_group_name_H-M "P -1"
_symmetry_group_IT_number 2
_symmetry_cell_setting 'triclinic'
loop_
_space_group_symop_operation_xyz
x,y,z
-x,-y,-z
loop_
_atom_site_type_symbol
_atom_site_label
_atom_site_fract_x
_atom_site_fract_y
_atom_site_fract_z
Si Si1 0.468884 0.509493 0.767009
Si Si2 0.358111 0.926709 0.757216
Si Si3 0.776038 0.361356 0.127580
Si Si4 0.936289 0.901318 0.788958
Si Si5 0.630435 0.750826 0.057849
Si Si6 0.126661 0.251642 0.987656
Si Si7 0.801595 0.126285 0.053903
Si Si8 0.482971 0.814058 0.498064
O O1 0.609014 0.628414 0.974355
O O2 0.376094 0.651761 0.512014
O O3 0.573988 0.394661 0.867235
O O4 0.333139 0.374472 0.731302
O O5 0.205568 0.773023 0.683020
O O6 0.453787 0.837005 0.818063
O O7 0.259434 0.085401 0.509040
O O8 0.500000 0.000000 0.000000
O O9 0.898712 0.555856 0.189042
O O10 0.830108 0.256505 0.135926
O O11 0.940686 0.764626 0.961553
O O12 0.043098 0.824800 0.859085
O O13 0.025980 0.099668 0.849888
O O14 0.789044 0.914188 0.170686
O O15 0.328655 0.236289 0.262405
O O16 0.618295 0.164691 0.754159
O O17 0.500000 0.000000 0.500000
#
# Coordination Sequence:
#
# PCOD8000562 Si02
#       8
#     2   2   2   2   2   2   2   2
#     4   9  20  34  61  96 125 161 217 270 302 382
#     4  11  23  43  68  96 126 170 217 267 325 384
#     4  10  23  42  63  97 133 165 216 268 326 378
#     4  11  25  42  68  92 130 175 217 263 324 385
#     4  10  19  39  64  91 125 165 216 261 318 377
#     4  10  23  44  65  97 131 167 218 271 316 383
#     4  12  22  38  66  94 130 175 209 265 324 386
#     4  11  19  37  67  96 123 169 220 257 317 386
#
# _framework density 23.504960000000001
#
# number of rings (size 3 to 8) (size 9 to 14) (size 15 to 20)
#    0.000    1.500    3.750    1.500    0.000    3.500 
#    2.250    1.250    2.750    0.000    0.000    0.000 
#    0.000    0.000    0.000    0.000    0.000    0.000 
#
# Total GULP energy -198271.724964 kJ/mol
# GULP energy per Si atom -12391.982810 kJ/mol
# Density = 2.345146 g / cm^3
# Si number density = 23.504960 Si / 1000 Ang^3
#
#
#
# Elastic Constant Matrix: (Units=GPa)
#
#
# Indices 1 2 3 4 5 6 
#
# 1 123.1958 25.3517 0.7313 -9.6440 4.1780 -4.5493
# 2 25.3517 79.4367 -2.3385 -15.0529 -4.2814 15.5903
# 3 0.7313 -2.3385 51.4774 3.1191 3.1175 0.0055
# 4 -9.6440 -15.0529 3.1191 23.0087 6.1602 -5.9335
# 5 4.1780 -4.2814 3.1175 6.1602 22.7202 -11.3241
# 6 -4.5493 15.5903 0.0055 -5.9335 -11.3241 46.0893
#
#
#
# Elastic Compliance Matrix: (Units=1/GPa)
#
#
# Indices 1 2 3 4 5 6 
#
# 1 0.009062 -0.002775 -0.000310 0.003032 -0.002120 0.001703
# 2 -0.002775 0.015951 0.000336 0.008290 -0.001221 -0.004903
# 3 -0.000310 0.000336 0.019730 -0.002181 -0.002517 -0.001046
# 4 0.003032 0.008290 -0.002181 0.054205 -0.012721 0.001348
# 5 -0.002120 -0.001221 -0.002517 -0.012721 0.053848 0.011797
# 6 0.001703 -0.004903 -0.001046 0.001348 0.011797 0.026596
#
#
# Mechanical properties :
#
#
# Convention : Reuss Voigt Hill
#
# Bulk Modulus (GPa) = 25.48066 33.51099 29.49583
# Shear Modulus (GPa) = 25.25604 33.72133 29.48868
#
# Velocity S-wave (km/s) = 3.28151 3.79178 3.54584
# Velocity P-wave (km/s) = 5.02213 5.78430 5.41664
#
# Compressibility (1/GPa) = 0.03924545
#
# Stress axis : x y z
#
# Youngs Moduli (GPa) = 110.34862 62.69009 50.68339
#
# Poissons Ratio (x) = 0.17398 0.01573
# Poissons Ratio (y) = 0.30624 -0.01704
# Poissons Ratio (z) = 0.03424 -0.02108
#
# Static dielectric constant tensor:
#      x y z
#    x 4.370700 0.744930 -0.545090 
#    y 0.744930 3.540790 0.246160 
#    z -0.545090 0.246160 3.165990 
# 
# 
# High freq. dielectric constant tensor:
#      x y z
#    x 1.950030 0.008610 -0.015510 
#    y 0.008610 1.935500 -0.023450 
#    z -0.015510 -0.023450 1.882230 
# 
# From -- ./inp_files/461134.got.cif
#   From: 2010.06.25/outbox.cif.g09.slc.cpg/sg2_231_cif.got.tgz:461134.got - 2010.06.27 13:26:56.
