data_PCOD8000610
_publ_section_title
;
Structure prediction by ZEFSAII (Michael W. Deem and Ramdas Pophale) SiO2 
 PCOD8000610
Probable space group: P -1
;
_chemical_formula_sum "Si O2"
_cell_formula_units_Z 16
_cell_length_a 12.351405
_cell_length_b 16.701111
_cell_length_c 19.724954
_cell_angle_alpha 158.494866
_cell_angle_beta 28.928413
_cell_angle_gamma 140.971196
_cell_volume 705.221786
_symmetry_space_group_name_H-M "P -1"
_symmetry_group_IT_number 2
_symmetry_cell_setting 'triclinic'
loop_
_space_group_symop_operation_xyz
x,y,z
-x,-y,-z
loop_
_atom_site_type_symbol
_atom_site_label
_atom_site_fract_x
_atom_site_fract_y
_atom_site_fract_z
Si Si1 0.626127 0.007301 0.620362
Si Si2 0.826386 0.751128 0.001322
Si Si3 0.652977 0.712632 0.584509
Si Si4 0.137442 0.607606 0.189668
Si Si5 0.010523 0.272764 0.897374
Si Si6 0.854583 0.556232 0.496899
Si Si7 0.428234 0.411187 0.609433
Si Si8 0.841858 0.027501 0.919497
O O1 0.575127 0.850526 0.585766
O O2 0.838696 0.876977 0.358330
O O3 0.686401 0.232231 0.794457
O O4 0.406831 0.069477 0.740344
O O5 0.781926 0.550483 0.914550
O O6 0.917604 0.637368 0.789473
O O7 0.022197 0.874102 0.018984
O O8 0.749761 0.620127 0.530295
O O9 0.582658 0.538673 0.428723
O O10 0.881322 0.763736 0.462331
O O11 0.433687 0.914628 0.872699
O O12 0.152971 0.436495 0.983910
O O13 0.916788 0.108370 0.870298
O O14 0.786443 0.430528 0.110956
O O15 0.650917 0.455113 0.561467
O O16 0.911122 0.757935 0.668647
#
# Coordination Sequence:
#
# PCOD8000610 Si02
#       8
#     2   2   2   2   2   2   2   2
#     4  12  25  42  57  89 133 171 195 231 311 376
#     4  10  23  41  63  89 124 160 207 254 288 363
#     4  10  19  39  65  93 119 145 207 265 303 336
#     4   9  22  38  65  89 116 164 205 255 297 353
#     4  10  22  39  61  93 120 154 206 258 300 355
#     4  11  21  38  66  96 114 156 209 257 309 342
#     4  11  23  39  63  90 130 160 196 255 300 369
#     4  11  21  38  69  95 115 152 209 267 300 342
#
# _framework density 22.687899000000002
#
# number of rings (size 3 to 8) (size 9 to 14) (size 15 to 20)
#    0.000    1.500    2.500    3.750    1.750    5.500 
#    2.250    0.625    0.000    0.000    0.000    0.000 
#    0.000    0.000    0.000    0.000    0.000    0.000 
#
# Total GULP energy -198259.328279 kJ/mol
# GULP energy per Si atom -12391.208017 kJ/mol
# Density = 2.263626 g / cm^3
# Si number density = 22.687899 Si / 1000 Ang^3
#
#
#
# Elastic Constant Matrix: (Units=GPa)
#
#
# Indices 1 2 3 4 5 6 
#
# 1 20.2395 9.3165 6.2390 5.1541 7.4105 4.7751
# 2 9.3165 64.8844 26.8604 15.8833 5.8702 21.0213
# 3 6.2390 26.8604 84.8755 10.4078 15.2031 -0.6616
# 4 5.1541 15.8833 10.4078 18.1292 4.6129 3.7455
# 5 7.4105 5.8702 15.2031 4.6129 22.1390 2.5680
# 6 4.7751 21.0213 -0.6616 3.7455 2.5680 20.0609
#
#
#
# Elastic Compliance Matrix: (Units=1/GPa)
#
#
# Indices 1 2 3 4 5 6 
#
# 1 0.060977 -0.002566 0.000500 -0.009373 -0.017210 -0.007856
# 2 -0.002566 0.034690 -0.009870 -0.018680 0.006202 -0.033372
# 3 0.000500 -0.009870 0.016966 -0.001137 -0.010394 0.012326
# 4 -0.009373 -0.018680 -0.001137 0.075012 -0.007774 0.008758
# 5 -0.017210 0.006202 -0.010394 -0.007774 0.059070 -0.008855
# 6 -0.007856 -0.033372 0.012326 0.008758 -0.008855 0.086592
#
#
# Mechanical properties :
#
#
# Convention : Reuss Voigt Hill
#
# Bulk Modulus (GPa) = 11.26615 28.31458 19.79037
# Shear Modulus (GPa) = 12.92776 20.57137 16.74957
#
# Velocity S-wave (km/s) = 2.38966 3.01443 2.72004
# Velocity P-wave (km/s) = 3.54830 4.96214 4.31354
#
# Compressibility (1/GPa) = 0.08876144
#
# Stress axis : x y z
#
# Youngs Moduli (GPa) = 16.39975 28.82687 58.94142
#
# Poissons Ratio (x) = 0.07397 -0.02950
# Poissons Ratio (y) = 0.04208 0.58175
# Poissons Ratio (z) = -0.00821 0.28452
#
# Static dielectric constant tensor:
#      x y z
#    x 3.728840 0.158900 -0.022030 
#    y 0.158900 4.221030 -0.132550 
#    z -0.022030 -0.132550 4.160900 
# 
# 
# High freq. dielectric constant tensor:
#      x y z
#    x 1.861260 0.018000 0.005210 
#    y 0.018000 1.898220 -0.008220 
#    z 0.005210 -0.008220 1.894100 
# 
# From -- ./inp_files/426859.got.cif
#   From: 2010.06.25/outbox.cif.g09.slc.cpg/sg2_214_cif.got.tgz:426859.got - 2010.06.27 13:26:56.
