data_PCOD8000663
_publ_section_title
;
Structure prediction by ZEFSAII (Michael W. Deem and Ramdas Pophale) SiO2 
 PCOD8000663
Probable space group: P -1
;
_chemical_formula_sum "Si O2"
_cell_formula_units_Z 16
_cell_length_a 21.958838
_cell_length_b 8.274845
_cell_length_c 9.493284
_cell_angle_alpha 99.282469
_cell_angle_beta 130.427139
_cell_angle_gamma 43.436434
_cell_volume 727.953451
_symmetry_space_group_name_H-M "P -1"
_symmetry_group_IT_number 2
_symmetry_cell_setting 'triclinic'
loop_
_space_group_symop_operation_xyz
x,y,z
-x,-y,-z
loop_
_atom_site_type_symbol
_atom_site_label
_atom_site_fract_x
_atom_site_fract_y
_atom_site_fract_z
Si Si1 0.409472 0.769944 0.613897
Si Si2 0.910179 0.406854 0.565835
Si Si3 0.898390 0.783337 0.706974
Si Si4 0.374255 0.868787 0.098265
Si Si5 0.102561 0.171910 0.598858
Si Si6 0.591169 0.001952 0.098347
Si Si7 0.626033 0.902836 0.623429
Si Si8 0.913432 0.298346 0.856500
O O1 0.515230 0.439442 0.702489
O O2 0.439495 0.798263 0.814096
O O3 0.250197 0.968251 0.396889
O O4 0.434299 0.870273 0.551594
O O5 0.948000 0.517936 0.705812
O O6 0.916104 0.273998 0.687634
O O7 0.028755 0.160804 0.589341
O O8 0.756284 0.669969 0.299260
O O9 0.884247 0.909944 0.555460
O O10 0.013629 0.661572 0.969040
O O11 0.310027 0.097339 0.152775
O O12 0.451424 0.856049 0.098462
O O13 0.256460 0.958653 0.857890
O O14 0.000000 0.500000 0.500000
O O15 0.500000 0.000000 0.000000
O O16 0.749641 0.577968 0.700201
O O17 0.500000 0.000000 0.500000
O O18 0.000000 0.000000 0.000000
#
# Coordination Sequence:
#
# PCOD8000663 Si02
#       8
#     2   2   2   2   2   2   2   2
#     4  11  24  44  67 104 129 181 234 274 331 411
#     4  10  21  42  67  96 126 173 224 268 331 399
#     4  10  21  41  70  92 131 164 231 273 329 395
#     4  12  24  40  73  98 132 178 229 278 338 402
#     4  10  19  39  66  99 121 159 224 277 321 385
#     4  11  22  41  68  95 139 175 214 272 344 398
#     4  12  27  46  65  98 144 178 223 285 347 400
#     4  12  27  44  69  97 134 183 224 278 347 406
#
# _framework density 21.979427999999999
#
# number of rings (size 3 to 8) (size 9 to 14) (size 15 to 20)
#    0.000    1.000    6.250    3.375    3.500    1.000 
#    0.000    0.625    0.000    0.000    0.000    0.000 
#    0.000    0.000    0.000    0.000    0.000    0.000 
#
# Total GULP energy -198386.950952 kJ/mol
# GULP energy per Si atom -12399.184434 kJ/mol
# Density = 2.192940 g / cm^3
# Si number density = 21.979428 Si / 1000 Ang^3
#
#
#
# Elastic Constant Matrix: (Units=GPa)
#
#
# Indices 1 2 3 4 5 6 
#
# 1 160.6787 41.2978 43.2861 -23.5818 -13.1262 -19.5995
# 2 41.2978 38.2551 12.8367 -16.6138 -11.1290 -3.1468
# 3 43.2861 12.8367 70.0611 -12.1197 -11.2910 -1.9518
# 4 -23.5818 -16.6138 -12.1197 29.0613 1.5028 -7.8361
# 5 -13.1262 -11.1290 -11.2910 1.5028 50.4523 1.5251
# 6 -19.5995 -3.1468 -1.9518 -7.8361 1.5251 31.5419
#
#
#
# Elastic Compliance Matrix: (Units=1/GPa)
#
#
# Indices 1 2 3 4 5 6 
#
# 1 0.010877 -0.007904 -0.004371 0.004326 -0.000226 0.006785
# 2 -0.007904 0.046104 0.001516 0.021458 0.007670 0.004742
# 3 -0.004371 0.001516 0.017964 0.004522 0.003097 -0.000479
# 4 0.004326 0.021458 0.004522 0.056969 0.004598 0.019039
# 5 -0.000226 0.007670 0.003097 0.004598 0.021983 0.000896
# 6 0.006785 0.004742 -0.000479 0.019039 0.000896 0.041050
#
#
# Mechanical properties :
#
#
# Convention : Reuss Voigt Hill
#
# Bulk Modulus (GPa) = 18.71686 51.53734 35.12710
# Shear Modulus (GPa) = 21.34258 33.64940 27.49599
#
# Velocity S-wave (km/s) = 3.11951 3.91698 3.54077
# Velocity P-wave (km/s) = 4.63780 6.62992 5.72124
#
# Compressibility (1/GPa) = 0.05342777
#
# Stress axis : x y z
#
# Youngs Moduli (GPa) = 91.94036 21.68987 55.66678
#
# Poissons Ratio (x) = 0.17144 0.24331
# Poissons Ratio (y) = 0.72670 -0.08440
# Poissons Ratio (z) = 0.40186 -0.03289
#
# Static dielectric constant tensor:
#      x y z
#    x 4.795010 -0.458190 -0.250820 
#    y -0.458190 3.594220 0.230500 
#    z -0.250820 0.230500 4.031400 
# 
# 
# High freq. dielectric constant tensor:
#      x y z
#    x 1.879240 -0.019280 -0.010390 
#    y -0.019280 1.838040 0.004590 
#    z -0.010390 0.004590 1.867490 
# 
# From -- ./inp_files/278086.got.cif
#   From: 2010.06.25/outbox.cif.g09.slc.cpg/sg2_140_cif.got.tgz:278086.got - 2010.06.27 13:26:56.
