data_PCOD8000827
_publ_section_title
;
Structure prediction by ZEFSAII (Michael W. Deem and Ramdas Pophale) SiO2 
 PCOD8000827
Probable space group: P -1
;
_chemical_formula_sum "Si O2"
_cell_formula_units_Z 16
_cell_length_a 15.866420
_cell_length_b 12.411616
_cell_length_c 19.066672
_cell_angle_alpha 39.389290
_cell_angle_beta 157.161477
_cell_angle_gamma 152.614572
_cell_volume 648.241102
_symmetry_space_group_name_H-M "P -1"
_symmetry_group_IT_number 2
_symmetry_cell_setting 'triclinic'
loop_
_space_group_symop_operation_xyz
x,y,z
-x,-y,-z
loop_
_atom_site_type_symbol
_atom_site_label
_atom_site_fract_x
_atom_site_fract_y
_atom_site_fract_z
Si Si1 0.283390 0.304804 0.990826
Si Si2 0.864305 0.044452 0.532853
Si Si3 0.856105 0.103312 0.341775
Si Si4 0.451574 0.596489 0.521350
Si Si5 0.607666 0.855300 0.648247
Si Si6 0.284951 0.607935 0.116107
Si Si7 0.676541 0.229365 0.392919
Si Si8 0.569410 0.463603 0.873849
O O1 0.403179 0.192427 0.169974
O O2 0.264048 0.435864 0.972686
O O3 0.500000 0.500000 0.000000
O O4 0.966066 0.092293 0.815406
O O5 0.824547 0.122908 0.390311
O O6 0.707079 0.074113 0.454294
O O7 0.220249 0.189798 0.748493
O O8 0.639931 0.751587 0.516316
O O9 0.076645 0.365503 0.340458
O O10 0.518009 0.900645 0.149145
O O11 0.000000 0.000000 0.500000
O O12 0.514966 0.782761 0.532702
O O13 0.568796 0.480234 0.695784
O O14 0.400184 0.865569 0.535602
O O15 0.513442 0.623487 0.726912
O O16 0.220058 0.527832 0.024208
O O17 0.000000 0.500000 0.000000
O O18 0.000000 0.500000 0.500000
#
# Coordination Sequence:
#
# PCOD8000827 Si02
#       8
#     2   2   2   2   2   2   2   2
#     4  11  23  40  63  93 137 174 210 262 332 389
#     4  12  21  38  68  93 127 168 218 267 317 383
#     4  10  20  42  64  88 125 166 207 273 323 373
#     4  10  22  40  66  95 128 171 212 261 334 380
#     4  10  20  39  62  89 137 169 204 263 326 378
#     4  10  22  42  71  88 126 170 215 274 330 381
#     4  11  21  38  64  93 124 172 222 261 310 384
#     4  10  19  40  62  90 128 168 209 271 324 374
#
# _framework density 24.682174
#
# number of rings (size 3 to 8) (size 9 to 14) (size 15 to 20)
#    0.000    1.500    6.250    2.250    0.000    5.500 
#    2.250    0.625    5.500    0.000    0.000    0.000 
#    0.000    0.000    0.000    0.000    0.000    0.000 
#
# Total GULP energy -198245.523767 kJ/mol
# GULP energy per Si atom -12390.345235 kJ/mol
# Density = 2.462600 g / cm^3
# Si number density = 24.682174 Si / 1000 Ang^3
#
#
#
# Elastic Constant Matrix: (Units=GPa)
#
#
# Indices 1 2 3 4 5 6 
#
# 1 140.2522 33.6680 26.5645 11.1720 30.7270 -1.6940
# 2 33.6680 93.0819 25.1750 41.1868 11.8109 16.1901
# 3 26.5645 25.1750 66.5251 28.0449 19.4435 -9.4817
# 4 11.1720 41.1868 28.0449 47.2783 4.1350 3.6105
# 5 30.7270 11.8109 19.4435 4.1350 38.5122 3.6293
# 6 -1.6940 16.1901 -9.4817 3.6105 3.6293 45.6150
#
#
#
# Elastic Compliance Matrix: (Units=1/GPa)
#
#
# Indices 1 2 3 4 5 6 
#
# 1 0.009407 -0.003407 -0.001210 0.001879 -0.006207 0.001652
# 2 -0.003407 0.020447 0.000102 -0.016502 -0.001271 -0.005955
# 3 -0.001210 0.000102 0.026126 -0.014875 -0.011360 0.007431
# 4 0.001879 -0.016502 -0.014875 0.043422 0.006515 -0.001120
# 5 -0.006207 -0.001271 -0.011360 0.006515 0.036871 -0.005590
# 6 0.001652 -0.005955 0.007431 -0.001120 -0.005590 0.026176
#
#
# Mechanical properties :
#
#
# Convention : Reuss Voigt Hill
#
# Bulk Modulus (GPa) = 21.29837 52.29713 36.79775
# Shear Modulus (GPa) = 26.71976 40.57789 33.64882
#
# Velocity S-wave (km/s) = 3.29379 4.05905 3.69627
# Velocity P-wave (km/s) = 4.80761 6.57282 5.75826
#
# Compressibility (1/GPa) = 0.04695194
#
# Stress axis : x y z
#
# Youngs Moduli (GPa) = 106.30247 48.90791 38.27565
#
# Poissons Ratio (x) = 0.16661 0.04630
# Poissons Ratio (y) = 0.36213 -0.00391
# Poissons Ratio (z) = 0.12859 -0.00500
#
# Static dielectric constant tensor:
#      x y z
#    x 4.393930 0.026340 0.388910 
#    y 0.026340 5.095550 0.429520 
#    z 0.388910 0.429520 4.018010 
# 
# 
# High freq. dielectric constant tensor:
#      x y z
#    x 2.005820 0.005820 0.010190 
#    y 0.005820 2.004880 0.022280 
#    z 0.010190 0.022280 1.944250 
# 
# From -- ./inp_files/597995.got.cif
#   From: 2010.06.25/outbox.cif.g09.slc.cpg/sg2_299_cif.got.tgz:597995.got - 2010.06.27 13:26:56.
