data_PCOD8000361
_publ_section_title
;
Structure prediction by ZEFSAII (Michael W. Deem and Ramdas Pophale) SiO2 
 PCOD8000361
Probable space group: P -1
;
_chemical_formula_sum "Si O2"
_cell_formula_units_Z 16
_cell_length_a 11.980304
_cell_length_b 18.736911
_cell_length_c 27.387730
_cell_angle_alpha 17.423867
_cell_angle_beta 149.280526
_cell_angle_gamma 150.521816
_cell_volume 888.074076
_symmetry_space_group_name_H-M "P -1"
_symmetry_group_IT_number 2
_symmetry_cell_setting 'triclinic'
loop_
_space_group_symop_operation_xyz
x,y,z
-x,-y,-z
loop_
_atom_site_type_symbol
_atom_site_label
_atom_site_fract_x
_atom_site_fract_y
_atom_site_fract_z
Si Si1 0.156124 0.989571 0.171853
Si Si2 0.281253 0.781254 0.000002
Si Si3 0.887541 0.536682 0.194376
Si Si4 0.770792 0.165771 0.943369
Si Si5 0.468697 0.049693 0.340211
Si Si6 0.870966 0.958178 0.700288
Si Si7 0.433755 0.346545 0.299712
Si Si8 0.072527 0.491531 0.659787
O O1 0.364052 0.999364 0.279727
O O2 0.111109 0.746407 0.279738
O O3 0.228338 0.242152 0.000469
O O4 0.923471 0.975576 0.124186
O O5 0.513148 0.016687 0.926040
O O6 0.227913 0.724377 0.073964
O O7 0.298968 0.531319 0.145044
O O8 0.076185 0.843835 0.854960
O O9 0.971989 0.531495 0.284421
O O10 0.114652 0.601578 0.202483
O O11 0.711825 0.271322 0.284425
O O12 0.298337 0.133566 0.257304
O O13 0.504417 0.792602 0.539530
O O14 0.972903 0.261087 0.539533
O O15 0.727091 0.867284 0.656309
O O16 0.666762 0.501996 0.257303
#
# Coordination Sequence:
#
# PCOD8000361 Si02
#       8
#     2   2   2   2   2   2   2   2
#     4  10  21  33  59  91 109 151 188 235 288 333
#     4  11  21  40  56  84 117 153 198 224 292 344
#     4  10  19  39  60  83 123 147 191 233 295 335
#     4   9  22  36  60  81 114 160 181 241 277 344
#     4  11  20  37  61  90 116 144 196 243 287 330
#     4  11  21  36  61  86 115 153 188 246 283 336
#     4  11  21  36  61  86 115 153 188 246 283 336
#     4  11  20  37  61  90 116 144 196 243 287 330
#
# _framework density 18.016517
#
# number of rings (size 3 to 8) (size 9 to 14) (size 15 to 20)
#    0.750    0.750    5.000    1.875    0.000    4.000 
#    0.000    1.250    2.750    0.000    0.000    0.000 
#    0.000    0.000    0.000    0.000    0.000    0.000 
#
# Total GULP energy -198412.444849 kJ/mol
# GULP energy per Si atom -12400.777803 kJ/mol
# Density = 1.797551 g / cm^3
# Si number density = 18.016517 Si / 1000 Ang^3
#
#
#
# Elastic Constant Matrix: (Units=GPa)
#
#
# Indices 1 2 3 4 5 6 
#
# 1 87.0924 41.3535 30.0018 -6.5566 -9.9429 8.8333
# 2 41.3535 92.3386 21.3199 0.6448 -7.8254 -10.9451
# 3 30.0018 21.3199 78.6782 1.9820 6.3453 4.4512
# 4 -6.5566 0.6448 1.9820 22.0218 4.0190 0.3475
# 5 -9.9429 -7.8254 6.3453 4.0190 30.6876 -3.7296
# 6 8.8333 -10.9451 4.4512 0.3475 -3.7296 25.1896
#
#
#
# Elastic Compliance Matrix: (Units=1/GPa)
#
#
# Indices 1 2 3 4 5 6 
#
# 1 0.018664 -0.008058 -0.004837 0.005790 0.003165 -0.008803
# 2 -0.008058 0.016639 -0.002290 -0.003571 0.003921 0.011090
# 3 -0.004837 -0.002290 0.015830 -0.001740 -0.005548 -0.002894
# 4 0.005790 -0.003571 -0.001740 0.048493 -0.005606 -0.004773
# 5 0.003165 0.003921 -0.005548 -0.005606 0.037366 0.007184
# 6 -0.008803 0.011090 -0.002894 -0.004773 0.007184 0.049245
#
#
# Mechanical properties :
#
#
# Convention : Reuss Voigt Hill
#
# Bulk Modulus (GPa) = 48.15935 49.27329 48.71632
# Shear Modulus (GPa) = 22.36872 26.60872 24.48872
#
# Velocity S-wave (km/s) = 3.52741 3.84722 3.69078
# Velocity P-wave (km/s) = 6.58626 6.86609 6.72763
#
# Compressibility (1/GPa) = 0.02076440
#
# Stress axis : x y z
#
# Youngs Moduli (GPa) = 53.57887 60.10094 63.17204
#
# Poissons Ratio (x) = 0.48427 0.30554
# Poissons Ratio (y) = 0.43171 0.14465
# Poissons Ratio (z) = 0.25914 0.13762
#
# Static dielectric constant tensor:
#      x y z
#    x 3.253520 -0.009950 -0.045190 
#    y -0.009950 3.277400 -0.013930 
#    z -0.045190 -0.013930 3.144070 
# 
# 
# High freq. dielectric constant tensor:
#      x y z
#    x 1.687700 -0.008060 -0.008820 
#    y -0.008060 1.704300 -0.002940 
#    z -0.008820 -0.002940 1.686720 
# 
# From -- ./inp_files/279286.got.cif
#   From: 2010.06.25/outbox.cif.g09.slc.cpg/sg2_140_cif.got.tgz:279286.got - 2010.06.27 13:26:56.
