data_PCOD8000703
_publ_section_title
;
Structure prediction by ZEFSAII (Michael W. Deem and Ramdas Pophale) SiO2 
 PCOD8000703
Probable space group: P -1
;
_chemical_formula_sum "Si O2"
_cell_formula_units_Z 16
_cell_length_a 14.583780
_cell_length_b 9.296072
_cell_length_c 14.715993
_cell_angle_alpha 138.402072
_cell_angle_beta 41.311770
_cell_angle_gamma 138.419602
_cell_volume 791.452888
_symmetry_space_group_name_H-M "P -1"
_symmetry_group_IT_number 2
_symmetry_cell_setting 'triclinic'
loop_
_space_group_symop_operation_xyz
x,y,z
-x,-y,-z
loop_
_atom_site_type_symbol
_atom_site_label
_atom_site_fract_x
_atom_site_fract_y
_atom_site_fract_z
Si Si1 0.589854 0.118039 0.156234
Si Si2 0.583883 0.422503 0.979762
Si Si3 0.964137 0.749785 0.363434
Si Si4 0.915990 0.226950 0.903419
Si Si5 0.101139 0.114732 0.844971
Si Si6 0.938773 0.635130 0.836389
Si Si7 0.616519 0.436114 0.442490
Si Si8 0.561876 0.527138 0.250245
O O1 0.610446 0.199383 0.285473
O O2 0.559696 0.293958 0.192140
O O3 0.742696 0.097488 0.003598
O O4 0.451994 0.856254 0.130072
O O5 0.527539 0.477338 0.145376
O O6 0.500000 0.500000 0.000000
O O7 0.766264 0.561843 0.894770
O O8 0.790015 0.637727 0.403903
O O9 0.084170 0.798893 0.216190
O O10 0.001216 0.571201 0.317457
O O11 0.000000 0.000000 0.500000
O O12 0.004144 0.079354 0.809127
O O13 0.000000 0.500000 0.000000
O O14 0.278462 0.243356 0.747537
O O15 0.055357 0.283713 0.025140
O O16 0.061465 0.856099 0.793505
O O17 0.500000 0.500000 0.500000
O O18 0.563089 0.402409 0.572171
#
# Coordination Sequence:
#
# PCOD8000703 Si02
#       8
#     2   2   2   2   2   2   2   2
#     4  11  21  37  67  92 124 161 216 267 313 381
#     4  11  24  40  61  96 129 170 211 267 325 379
#     4  12  26  40  64  96 135 171 212 266 323 378
#     4  12  18  38  65  95 117 159 221 260 310 382
#     4  10  19  39  68  91 122 161 216 269 316 381
#     4  10  22  41  63  94 130 166 214 268 322 377
#     4  10  22  40  63  96 125 166 211 263 323 377
#     4  10  21  38  63  93 123 163 212 265 322 375
#
# _framework density 20.215986999999998
#
# number of rings (size 3 to 8) (size 9 to 14) (size 15 to 20)
#    0.000    1.250    3.750    2.625    5.250    2.000 
#    0.000    3.125    0.000    0.000    0.000    0.000 
#    0.000    0.000    0.000    0.000    0.000    0.000 
#
# Total GULP energy -198376.186397 kJ/mol
# GULP energy per Si atom -12398.511650 kJ/mol
# Density = 2.016997 g / cm^3
# Si number density = 20.215987 Si / 1000 Ang^3
#
#
#
# Elastic Constant Matrix: (Units=GPa)
#
#
# Indices 1 2 3 4 5 6 
#
# 1 103.5192 31.0242 36.2753 2.6628 -1.6997 -4.5945
# 2 31.0242 103.9654 47.8542 1.9528 -5.0078 -3.8705
# 3 36.2753 47.8542 121.7576 -0.1794 11.0523 -2.9850
# 4 2.6628 1.9528 -0.1794 29.2450 -0.8269 -1.8306
# 5 -1.6997 -5.0078 11.0523 -0.8269 29.7713 -2.0694
# 6 -4.5945 -3.8705 -2.9850 -1.8306 -2.0694 28.9170
#
#
#
# Elastic Compliance Matrix: (Units=1/GPa)
#
#
# Indices 1 2 3 4 5 6 
#
# 1 0.011299 -0.002015 -0.002668 -0.000791 0.001365 0.001298
# 2 -0.002015 0.012605 -0.004672 -0.000509 0.003804 0.001125
# 3 -0.002668 -0.004672 0.011306 0.000465 -0.005138 -0.000220
# 4 -0.000791 -0.000509 0.000465 0.034456 0.000799 0.002093
# 5 0.001365 0.003804 -0.005138 0.000799 0.036435 0.002854
# 6 0.001298 0.001125 -0.000220 0.002093 0.002854 0.035252
#
#
# Mechanical properties :
#
#
# Convention : Reuss Voigt Hill
#
# Bulk Modulus (GPa) = 60.60534 62.17219 61.38877
# Shear Modulus (GPa) = 30.19986 31.85922 31.02954
#
# Velocity S-wave (km/s) = 3.86924 3.97412 3.92203
# Velocity P-wave (km/s) = 7.07145 7.20270 7.13738
#
# Compressibility (1/GPa) = 0.01650020
#
# Stress axis : x y z
#
# Youngs Moduli (GPa) = 88.50298 79.33275 88.44997
#
# Poissons Ratio (x) = 0.15985 0.23595
# Poissons Ratio (y) = 0.17833 0.41327
# Poissons Ratio (z) = 0.23609 0.37067
#
# Static dielectric constant tensor:
#      x y z
#    x 3.624800 0.089560 0.293060 
#    y 0.089560 3.684010 -0.239940 
#    z 0.293060 -0.239940 3.868140 
# 
# 
# High freq. dielectric constant tensor:
#      x y z
#    x 1.786150 0.007450 0.002600 
#    y 0.007450 1.792370 -0.009920 
#    z 0.002600 -0.009920 1.780300 
# 
# From -- ./inp_files/274784.got.cif
#   From: 2010.06.25/outbox.cif.g09.slc.cpg/sg2_138_cif.got.tgz:274784.got - 2010.06.27 13:26:56.
