data_PCOD8000649
_publ_section_title
;
Structure prediction by ZEFSAII (Michael W. Deem and Ramdas Pophale) SiO2 
 PCOD8000649
Probable space group: P -1
;
_chemical_formula_sum "Si O2"
_cell_formula_units_Z 14
_cell_length_a 19.581409
_cell_length_b 16.353284
_cell_length_c 8.735093
_cell_angle_alpha 47.945017
_cell_angle_beta 38.005003
_cell_angle_gamma 21.561702
_cell_volume 607.942862
_symmetry_space_group_name_H-M "P -1"
_symmetry_group_IT_number 2
_symmetry_cell_setting 'triclinic'
loop_
_space_group_symop_operation_xyz
x,y,z
-x,-y,-z
loop_
_atom_site_type_symbol
_atom_site_label
_atom_site_fract_x
_atom_site_fract_y
_atom_site_fract_z
Si Si1 0.463712 0.395751 0.365670
Si Si2 0.963423 0.856368 0.612320
Si Si3 0.372099 0.263879 0.869469
Si Si4 0.865056 0.748582 0.722364
Si Si5 0.928633 0.436616 0.711005
Si Si6 0.125845 0.060984 0.983980
Si Si7 0.819602 0.162578 0.250882
O O1 0.342705 0.391846 0.649567
O O2 0.567069 0.380736 0.340182
O O3 0.237325 0.654501 0.370094
O O4 0.655451 0.196464 0.149928
O O5 0.923036 0.763824 0.754257
O O6 0.827737 0.049237 0.488080
O O7 0.854736 0.966582 0.833620
O O8 0.632535 0.992252 0.740348
O O9 0.179748 0.341819 0.053571
O O10 0.318114 0.350909 0.030860
O O11 0.075055 0.593539 0.424545
O O12 0.114189 0.197516 0.776271
O O13 0.000000 0.500000 0.500000
O O14 0.878311 0.221633 0.167978
O O15 0.000000 0.000000 0.000000
#
# Coordination Sequence:
#
# PCOD8000649 Si02
#       7
#     2   2   2   2   2   2   2
#     4  11  23  43  66  94 129 169 214 258 321 376
#     4  12  24  42  65 100 126 166 215 262 318 378
#     4  10  19  39  66  91 122 175 208 256 317 373
#     4  10  21  38  66  90 132 166 213 260 315 377
#     4  10  20  39  66  93 124 171 212 254 318 380
#     4  11  23  41  64  96 131 164 215 268 310 377
#     4  10  23  45  67  90 131 169 210 266 317 374
#
# _framework density 23.028479000000001
#
# number of rings (size 3 to 8) (size 9 to 14) (size 15 to 20)
#    0.000    1.429    4.286    1.286    0.000    4.571 
#    0.000    0.714    0.000    0.000    0.000    0.000 
#    0.000    0.000    0.000    0.000    0.000    0.000 
#
# Total GULP energy -173482.415609 kJ/mol
# GULP energy per Si atom -12391.601115 kJ/mol
# Density = 2.297606 g / cm^3
# Si number density = 23.028479 Si / 1000 Ang^3
#
#
#
# Elastic Constant Matrix: (Units=GPa)
#
#
# Indices 1 2 3 4 5 6 
#
# 1 136.3697 5.6672 53.9492 3.8500 12.1821 -6.9664
# 2 5.6672 32.8919 10.6896 3.9931 -0.0828 -4.6413
# 3 53.9492 10.6896 107.4018 -2.2920 16.4041 6.5396
# 4 3.8500 3.9931 -2.2920 34.0334 -0.0506 -0.2763
# 5 12.1821 -0.0828 16.4041 -0.0506 35.6508 7.0409
# 6 -6.9664 -4.6413 6.5396 -0.2763 7.0409 26.4410
#
#
#
# Elastic Compliance Matrix: (Units=1/GPa)
#
#
# Indices 1 2 3 4 5 6 
#
# 1 0.009699 0.000735 -0.004954 -0.001484 -0.001904 0.004401
# 2 0.000735 0.033139 -0.004240 -0.004200 0.000407 0.006907
# 3 -0.004954 -0.004240 0.013055 0.001897 -0.003465 -0.004336
# 4 -0.001484 -0.004200 0.001897 0.030161 -0.000084 -0.001260
# 5 -0.001904 0.000407 -0.003465 -0.000084 0.031889 -0.008066
# 6 0.004401 0.006907 -0.004336 -0.001260 -0.008066 0.043399
#
#
# Mechanical properties :
#
#
# Convention : Reuss Voigt Hill
#
# Bulk Modulus (GPa) = 25.65661 46.36392 36.01027
# Shear Modulus (GPa) = 26.14350 32.98221 29.56285
#
# Velocity S-wave (km/s) = 3.37303 3.78859 3.58684
# Velocity P-wave (km/s) = 5.13178 6.27016 5.72932
#
# Compressibility (1/GPa) = 0.03897631
#
# Stress axis : x y z
#
# Youngs Moduli (GPa) = 103.10160 30.17547 76.59899
#
# Poissons Ratio (x) = -0.02219 0.37947
# Poissons Ratio (y) = -0.07581 0.32478
# Poissons Ratio (z) = 0.51076 0.12794
#
# Static dielectric constant tensor:
#      x y z
#    x 4.499370 0.286930 0.048710 
#    y 0.286930 3.976550 0.068390 
#    z 0.048710 0.068390 4.552790 
# 
# 
# High freq. dielectric constant tensor:
#      x y z
#    x 1.904710 0.019240 0.008390 
#    y 0.019240 1.889440 -0.004800 
#    z 0.008390 -0.004800 1.923990 
# 
# From -- ./inp_files/245840.got.cif
#   From: 2010.06.25/outbox.cif.g09.slc.cpg/sg2_123_cif.got.tgz:245840.got - 2010.06.27 13:26:56.
