data_PCOD8000479
_publ_section_title
;
Structure prediction by ZEFSAII (Michael W. Deem and Ramdas Pophale) SiO2 
 PCOD8000479
Probable space group: P -1
;
_chemical_formula_sum "Si O2"
_cell_formula_units_Z 12
_cell_length_a 9.337209
_cell_length_b 13.715631
_cell_length_c 8.935200
_cell_angle_alpha 40.906276
_cell_angle_beta 63.724917
_cell_angle_gamma 84.368080
_cell_volume 615.012383
_symmetry_space_group_name_H-M "P -1"
_symmetry_group_IT_number 2
_symmetry_cell_setting 'triclinic'
loop_
_space_group_symop_operation_xyz
x,y,z
-x,-y,-z
loop_
_atom_site_type_symbol
_atom_site_label
_atom_site_fract_x
_atom_site_fract_y
_atom_site_fract_z
Si Si1 0.025082 0.837013 0.193217
Si Si2 0.570320 0.394095 0.789630
Si Si3 0.057401 0.387052 0.769851
Si Si4 0.265937 0.508903 0.791918
Si Si5 0.213165 0.474196 0.204180
Si Si6 0.630887 0.166874 0.817618
O O1 0.201012 0.859853 0.171826
O O2 0.031516 0.781116 0.082785
O O3 0.853882 0.716942 0.504414
O O4 0.000000 0.000000 0.000000
O O5 0.749121 0.514976 0.493695
O O6 0.418513 0.450164 0.753494
O O7 0.601851 0.412262 0.934559
O O8 0.534343 0.215514 0.945568
O O9 0.090861 0.377093 0.944819
O O10 0.937111 0.486029 0.690094
O O11 0.314000 0.690959 0.497451
O O12 0.227694 0.510204 0.982032
O O13 0.500000 0.000000 0.000000
#
# Coordination Sequence:
#
# PCOD8000479 Si02
#       6
#     2   2   2   2   2   2
#     4  11  23  38  61  87 115 157 196 238 288 346
#     4  10  20  39  60  88 116 158 195 232 286 356
#     4  10  19  39  63  82 113 158 203 232 277 352
#     4  11  23  36  65  91 115 150 197 246 288 337
#     4  11  20  41  63  87 116 152 199 245 284 337
#     4  11  23  39  59  87 120 153 194 238 291 350
#
# _framework density 19.511803
#
# number of rings (size 3 to 8) (size 9 to 14) (size 15 to 20)
#    0.000    1.333    5.000    4.000    7.000    0.000 
#    0.000    3.333    0.000    0.000    0.000    0.000 
#    0.000    0.000    0.000    0.000    0.000    0.000 
#
# Total GULP energy -148692.279363 kJ/mol
# GULP energy per Si atom -12391.023280 kJ/mol
# Density = 1.946739 g / cm^3
# Si number density = 19.511803 Si / 1000 Ang^3
#
#
#
# Elastic Constant Matrix: (Units=GPa)
#
#
# Indices 1 2 3 4 5 6 
#
# 1 126.4493 51.7096 47.6909 -28.9281 14.9661 16.1014
# 2 51.7096 124.2527 71.1874 -22.2863 10.1294 28.6128
# 3 47.6909 71.1874 90.6820 -13.3547 18.3023 12.5250
# 4 -28.9281 -22.2863 -13.3547 32.9143 2.5528 4.4630
# 5 14.9661 10.1294 18.3023 2.5528 27.5836 -1.5950
# 6 16.1014 28.6128 12.5250 4.4630 -1.5950 53.6652
#
#
#
# Elastic Compliance Matrix: (Units=1/GPa)
#
#
# Indices 1 2 3 4 5 6 
#
# 1 0.012969 -0.000024 -0.003374 0.011051 -0.006054 -0.004190
# 2 -0.000024 0.018180 -0.011979 0.008453 0.000064 -0.007591
# 3 -0.003374 -0.011979 0.023716 -0.000956 -0.009322 0.001666
# 4 0.011051 0.008453 -0.000956 0.048113 -0.013613 -0.012005
# 5 -0.006054 0.000064 -0.009322 -0.013613 0.047336 0.006497
# 6 -0.004190 -0.007591 0.001666 -0.012005 0.006497 0.024741
#
#
# Mechanical properties :
#
#
# Convention : Reuss Voigt Hill
#
# Bulk Modulus (GPa) = 41.47270 75.84000 58.65635
# Shear Modulus (GPa) = 23.38153 34.21902 28.80028
#
# Velocity S-wave (km/s) = 3.46544 4.19234 3.84610
# Velocity P-wave (km/s) = 6.10850 7.89857 7.06049
#
# Compressibility (1/GPa) = 0.02411225
#
# Stress axis : x y z
#
# Youngs Moduli (GPa) = 77.10934 55.00585 42.16614
#
# Poissons Ratio (x) = 0.00130 0.14225
# Poissons Ratio (y) = 0.00183 0.50509
# Poissons Ratio (z) = 0.26014 0.65889
#
# Static dielectric constant tensor:
#      x y z
#    x 4.177960 0.519330 0.188710 
#    y 0.519330 4.183190 0.043200 
#    z 0.188710 0.043200 3.119410 
# 
# 
# High freq. dielectric constant tensor:
#      x y z
#    x 1.789790 0.013640 0.018280 
#    y 0.013640 1.777010 0.001690 
#    z 0.018280 0.001690 1.707540 
# 
# From -- ./inp_files/145008.got.cif
#   From: 2010.06.25/outbox.cif.g09.slc.cpg/sg2_73_cif.got.tgz:145008.got - 2010.06.27 13:26:56.
