data_PCOD8000016
_publ_section_title
;
Structure prediction by ZEFSAII (Michael W. Deem and Ramdas Pophale) SiO2 
 PCOD8000016
Probable space group: P 1
;
_chemical_formula_sum "Si O2"
_cell_formula_units_Z 8
_cell_length_a 7.325930
_cell_length_b 5.243710
_cell_length_c 13.298763
_cell_angle_alpha 111.250992
_cell_angle_beta 132.829517
_cell_angle_gamma 88.704839
_cell_volume 329.938639
_symmetry_space_group_name_H-M "P 1"
_symmetry_group_IT_number 1
_symmetry_cell_setting 'triclinic'
loop_
_space_group_symop_operation_xyz
x,y,z
loop_
_atom_site_type_symbol
_atom_site_label
_atom_site_fract_x
_atom_site_fract_y
_atom_site_fract_z
Si Si1 0.343040 0.420160 0.423230
Si Si2 0.770886 0.735826 0.489168
Si Si3 0.652091 0.476411 0.739755
Si Si4 0.855876 0.268425 0.104637
Si Si5 0.139629 0.049697 0.014196
Si Si6 0.070071 0.220788 0.802714
Si Si7 0.540725 0.609648 0.930893
Si Si8 0.580388 0.099777 0.329467
O O1 0.520747 0.693627 0.463465
O O2 0.417339 0.470243 0.575315
O O3 0.401071 0.134001 0.361831
O O4 0.032878 0.375321 0.286349
O O5 0.794918 0.418239 0.430167
O O6 0.728329 0.877251 0.387038
O O7 0.028454 0.944609 0.673608
O O8 0.532996 0.429598 0.799779
O O9 0.781279 0.234006 0.722927
O O10 0.888196 0.774038 0.864805
O O11 0.059608 0.267028 0.090478
O O12 0.719988 0.505755 0.061568
O O13 0.641963 0.952549 0.998938
O O14 0.390921 0.977794 0.144605
O O15 0.225031 0.196454 0.958818
O O16 0.245183 0.511431 0.851289
#
# Coordination Sequence:
#
# PCOD8000016 Si02
#       8
#     1   1   1   1   1   1   1   1
#     4   9  20  35  67  89 127 162 217 250 322 376
#     4  10  20  36  60  97 119 167 208 264 308 380
#     4  11  22  42  65  99 123 176 211 265 326 375
#     4  10  23  42  64  94 129 173 211 263 320 381
#     4  10  21  37  66  94 124 168 215 258 317 384
#     4  12  23  41  67  96 132 166 219 265 321 382
#     4  11  27  42  64  96 132 169 215 266 316 381
#     4   9  20  33  59  95 122 155 214 251 312 373
#
# _framework density 24.246934
#
# number of rings (size 3 to 8) (size 9 to 14) (size 15 to 20)
#    0.750    1.000    3.750    0.000    8.750    0.000 
#    0.000    2.500    0.000    0.000    0.000    0.000 
#    0.000    0.000    0.000    0.000    0.000    0.000 
#
# Total GULP energy -99156.266623 kJ/mol
# GULP energy per Si atom -12394.533328 kJ/mol
# Density = 2.419175 g / cm^3
# Si number density = 24.246934 Si / 1000 Ang^3
#
#
#
# Elastic Constant Matrix: (Units=GPa)
#
#
# Indices 1 2 3 4 5 6 
#
# 1 47.2940 12.6301 20.8652 -7.2484 -3.0683 20.2511
# 2 12.6301 99.6452 26.1015 -24.1250 -3.2906 17.7135
# 3 20.8652 26.1015 159.6643 -24.3509 -20.6994 20.6212
# 4 -7.2484 -24.1250 -24.3509 36.7571 8.2143 1.2812
# 5 -3.0683 -3.2906 -20.6994 8.2143 12.7489 -1.9138
# 6 20.2511 17.7135 20.6212 1.2812 -1.9138 31.4327
#
#
#
# Elastic Compliance Matrix: (Units=1/GPa)
#
#
# Indices 1 2 3 4 5 6 
#
# 1 0.031076 0.001852 -0.000595 0.007978 -0.001313 -0.021080
# 2 0.001852 0.014050 -0.000258 0.010819 -0.004769 -0.009673
# 3 -0.000595 -0.000258 0.009002 0.003255 0.011588 -0.004804
# 4 0.007978 0.010819 0.003255 0.043132 -0.020249 -0.016363
# 5 -0.001313 -0.004769 0.011588 -0.020249 0.109264 0.003409
# 6 -0.021080 -0.009673 -0.004804 -0.016363 0.003409 0.054873
#
#
# Mechanical properties :
#
#
# Convention : Reuss Voigt Hill
#
# Bulk Modulus (GPa) = 17.81657 47.31078 32.56368
# Shear Modulus (GPa) = 17.97874 32.65486 25.31680
#
# Velocity S-wave (km/s) = 2.72598 3.67381 3.23480
# Velocity P-wave (km/s) = 4.15594 6.12783 5.23556
#
# Compressibility (1/GPa) = 0.05612752
#
# Stress axis : x y z
#
# Youngs Moduli (GPa) = 32.17912 71.17568 111.08262
#
# Poissons Ratio (x) = -0.13185 0.06608
# Poissons Ratio (y) = -0.05961 0.02864
# Poissons Ratio (z) = 0.01914 0.01835
#
# Static dielectric constant tensor:
#      x y z
#    x 4.044620 0.138810 -0.192210 
#    y 0.138810 4.116610 -0.060980 
#    z -0.192210 -0.060980 4.449240 
# 
# 
# High freq. dielectric constant tensor:
#      x y z
#    x 1.916960 0.010780 -0.011840 
#    y 0.010780 1.955790 -0.004360 
#    z -0.011840 -0.004360 1.972450 
# 
# From -- ./inp_files/1910.got.cif
#   From: 2010.03.12/outbox.cif.g09.slc.cpg/sg1_1_cif.got.tgz:1910.got - 2010.03.29 11:57:58.
