data_PCOD8000800
_publ_section_title
;
Structure prediction by ZEFSAII (Michael W. Deem and Ramdas Pophale) SiO2 
 PCOD8000800
Probable space group: P -1
;
_chemical_formula_sum "Si O2"
_cell_formula_units_Z 16
_cell_length_a 20.712263
_cell_length_b 13.950014
_cell_length_c 5.246848
_cell_angle_alpha 107.744535
_cell_angle_beta 55.842176
_cell_angle_gamma 128.702146
_cell_volume 976.489592
_symmetry_space_group_name_H-M "P -1"
_symmetry_group_IT_number 2
_symmetry_cell_setting 'triclinic'
loop_
_space_group_symop_operation_xyz
x,y,z
-x,-y,-z
loop_
_atom_site_type_symbol
_atom_site_label
_atom_site_fract_x
_atom_site_fract_y
_atom_site_fract_z
Si Si1 0.988887 0.111914 0.634013
Si Si2 0.533098 0.242046 0.914530
Si Si3 0.932461 0.852284 0.011255
Si Si4 0.529392 0.581249 0.750709
Si Si5 0.428829 0.831989 0.721046
Si Si6 0.229241 0.038543 0.019746
Si Si7 0.381711 0.004555 0.815126
Si Si8 0.737554 0.812249 0.424266
O O1 0.051360 0.198377 0.804959
O O2 0.880615 0.066343 0.880845
O O3 0.000000 0.000000 0.500000
O O4 0.032653 0.189820 0.339401
O O5 0.526089 0.354673 0.070384
O O6 0.587812 0.233411 0.025262
O O7 0.593305 0.262191 0.539519
O O8 0.425658 0.116530 0.015434
O O9 0.822597 0.797968 0.166392
O O10 0.000000 0.000000 0.000000
O O11 0.500000 0.500000 0.500000
O O12 0.642656 0.678892 0.576681
O O13 0.500000 0.500000 0.000000
O O14 0.539828 0.951410 0.549678
O O15 0.361777 0.881108 0.888384
O O16 0.235065 0.107905 0.318093
O O17 0.283949 0.974263 0.890895
O O18 0.277085 0.128683 0.743969
#
# Coordination Sequence:
#
# PCOD8000800 Si02
#       8
#     2   2   2   2   2   2   2   2
#     4  10  16  27  40  65  94 120 157 182 219 289
#     4  10  18  34  49  61  87 127 155 198 251 269
#     4  10  16  29  44  64  88 120 164 182 228 293
#     4  12  25  37  48  69  96 129 178 217 232 265
#     4   9  18  31  48  67  90 117 164 196 236 292
#     4  12  19  27  47  70  95 127 163 185 233 292
#     4   9  20  27  48  69  94 118 164 189 236 295
#     4  12  20  32  48  63  92 134 166 194 238 278
#
# _framework density 16.385224999999998
#
# number of rings (size 3 to 8) (size 9 to 14) (size 15 to 20)
#    0.750    0.750    6.250    2.625    0.000    0.000 
#    0.000    0.000    0.000    0.000    0.000    0.000 
#    0.000    0.000    0.000   22.500    0.000    0.000 
#
# Total GULP energy -198290.096116 kJ/mol
# GULP energy per Si atom -12393.131007 kJ/mol
# Density = 1.634793 g / cm^3
# Si number density = 16.385225 Si / 1000 Ang^3
#
#
#
# Elastic Constant Matrix: (Units=GPa)
#
#
# Indices 1 2 3 4 5 6 
#
# 1 130.9651 36.2074 52.3711 -3.5241 3.7185 -9.7863
# 2 36.2074 42.8233 25.2102 2.1031 -3.6796 -10.4899
# 3 52.3711 25.2102 86.7949 -3.7907 24.0407 -5.5039
# 4 -3.5241 2.1031 -3.7907 25.5691 3.3208 -2.9864
# 5 3.7185 -3.6796 24.0407 3.3208 41.0399 -3.0216
# 6 -9.7863 -10.4899 -5.5039 -2.9864 -3.0216 17.1319
#
#
#
# Elastic Compliance Matrix: (Units=1/GPa)
#
#
# Indices 1 2 3 4 5 6 
#
# 1 0.011656 -0.006087 -0.005571 0.001256 0.001682 0.001657
# 2 -0.006087 0.040742 -0.010538 -0.005078 0.012213 0.019352
# 3 -0.005571 -0.010538 0.021708 0.004613 -0.013846 -0.004299
# 4 0.001256 -0.005078 0.004613 0.041814 -0.006267 0.005274
# 5 0.001682 0.012213 -0.013846 -0.006267 0.034590 0.008999
# 6 0.001657 0.019352 -0.004299 0.005274 0.008999 0.072292
#
#
# Mechanical properties :
#
#
# Convention : Reuss Voigt Hill
#
# Bulk Modulus (GPa) = 33.65549 54.24006 43.94778
# Shear Modulus (GPa) = 18.04409 26.53451 22.28930
#
# Velocity S-wave (km/s) = 3.32210 4.02856 3.69227
# Velocity P-wave (km/s) = 5.94137 7.40365 6.71244
#
# Compressibility (1/GPa) = 0.02971283
#
# Stress axis : x y z
#
# Youngs Moduli (GPa) = 85.79185 24.54497 46.06596
#
# Poissons Ratio (x) = 0.14940 0.25664
# Poissons Ratio (y) = 0.52220 0.48546
# Poissons Ratio (z) = 0.47796 0.25867
#
# Static dielectric constant tensor:
#      x y z
#    x 4.783170 0.481320 2.404450 
#    y 0.481320 2.742450 0.614910 
#    z 2.404450 0.614910 6.542560 
# 
# 
# High freq. dielectric constant tensor:
#      x y z
#    x 1.640990 0.002150 0.018460 
#    y 0.002150 1.552540 0.002920 
#    z 0.018460 0.002920 1.645330 
# 
# From -- ./inp_files/119010.got.cif
#   From: 2010.06.25/outbox.cif.g09.slc.cpg/sg2_60_cif.got.tgz:119010.got - 2010.06.27 13:26:56.
