data_PCOD8000780
_publ_section_title
;
Structure prediction by ZEFSAII (Michael W. Deem and Ramdas Pophale) SiO2 
 PCOD8000780
Probable space group: P -1
;
_chemical_formula_sum "Si O2"
_cell_formula_units_Z 16
_cell_length_a 10.770459
_cell_length_b 15.381045
_cell_length_c 7.527711
_cell_angle_alpha 90.310275
_cell_angle_beta 81.379184
_cell_angle_gamma 36.844069
_cell_volume 722.610375
_symmetry_space_group_name_H-M "P -1"
_symmetry_group_IT_number 2
_symmetry_cell_setting 'triclinic'
loop_
_space_group_symop_operation_xyz
x,y,z
-x,-y,-z
loop_
_atom_site_type_symbol
_atom_site_label
_atom_site_fract_x
_atom_site_fract_y
_atom_site_fract_z
Si Si1 0.147213 0.023541 0.627544
Si Si2 0.820069 0.515572 0.349128
Si Si3 0.889742 0.779789 0.204721
Si Si4 0.972345 0.952272 0.727134
Si Si5 0.536079 0.059661 0.659728
Si Si6 0.171581 0.462049 0.249575
Si Si7 0.925830 0.789233 0.799802
Si Si8 0.517407 0.748348 0.127593
O O1 0.038072 0.163028 0.762373
O O2 0.140792 0.935662 0.739220
O O3 0.003281 0.086891 0.485597
O O4 0.386624 0.918183 0.514433
O O5 0.752284 0.579762 0.563386
O O6 0.619475 0.632450 0.260590
O O7 0.005683 0.477528 0.244017
O O8 0.897130 0.372652 0.325102
O O9 0.660868 0.891373 0.359494
O O10 0.067292 0.613011 0.226986
O O11 0.848202 0.795005 0.004264
O O12 0.737589 0.122549 0.824724
O O13 0.016605 0.836329 0.817211
O O14 0.435204 0.177192 0.837027
O O15 0.733319 0.896100 0.699539
O O16 0.382218 0.330619 0.084950
#
# Coordination Sequence:
#
# PCOD8000780 Si02
#       8
#     2   2   2   2   2   2   2   2
#     4   9  20  38  63  81 118 156 203 254 293 347
#     4  11  21  37  59  89 125 161 195 246 304 363
#     4  12  20  35  61  94 120 156 196 250 303 363
#     4   9  21  43  59  83 117 161 204 251 291 349
#     4  10  21  38  59  91 121 154 195 253 306 353
#     4  11  22  34  60  91 126 157 198 240 308 365
#     4  10  21  36  60  87 126 156 196 244 304 353
#     4  10  19  40  60  84 124 159 196 243 303 352
#
# _framework density 22.141946999999998
#
# number of rings (size 3 to 8) (size 9 to 14) (size 15 to 20)
#    0.000    2.000    2.500    3.375    0.000    1.500 
#   11.250    0.625    0.000   12.750    0.000    0.000 
#    0.000    0.000    0.000    0.000    0.000    0.000 
#
# Total GULP energy -198317.692738 kJ/mol
# GULP energy per Si atom -12394.855796 kJ/mol
# Density = 2.209155 g / cm^3
# Si number density = 22.141947 Si / 1000 Ang^3
#
#
#
# Elastic Constant Matrix: (Units=GPa)
#
#
# Indices 1 2 3 4 5 6 
#
# 1 101.7696 26.1923 34.5940 7.5251 -7.8645 29.0672
# 2 26.1923 98.0812 35.5872 9.1304 7.7154 24.1227
# 3 34.5940 35.5872 101.8355 3.4442 -4.3095 -1.4232
# 4 7.5251 9.1304 3.4442 27.4330 5.6363 1.7278
# 5 -7.8645 7.7154 -4.3095 5.6363 17.9311 -2.6921
# 6 29.0672 24.1227 -1.4232 1.7278 -2.6921 29.0935
#
#
#
# Elastic Compliance Matrix: (Units=1/GPa)
#
#
# Indices 1 2 3 4 5 6 
#
# 1 0.017713 0.002836 -0.007001 -0.004343 0.003254 -0.019831
# 2 0.002836 0.018023 -0.007889 -0.002434 -0.010493 -0.018989
# 3 -0.007001 -0.007889 0.015407 0.000420 0.006121 0.014830
# 4 -0.004343 -0.002434 0.000420 0.040946 -0.013218 0.002723
# 5 0.003254 -0.010493 0.006121 -0.013218 0.069281 0.012945
# 6 -0.019831 -0.018989 0.014830 0.002723 0.012945 0.071691
#
#
# Mechanical properties :
#
#
# Convention : Reuss Voigt Hill
#
# Bulk Modulus (GPa) = 36.98870 54.93703 45.96286
# Shear Modulus (GPa) = 18.78435 28.57903 23.68169
#
# Velocity S-wave (km/s) = 2.91582 3.59656 3.27393
# Velocity P-wave (km/s) = 5.29883 6.48938 5.92409
#
# Compressibility (1/GPa) = 0.02703528
#
# Stress axis : x y z
#
# Youngs Moduli (GPa) = 56.45649 55.48495 64.90653
#
# Poissons Ratio (x) = -0.15734 0.45439
# Poissons Ratio (y) = -0.16010 0.51203
# Poissons Ratio (z) = 0.39523 0.43770
#
# Static dielectric constant tensor:
#      x y z
#    x 4.004600 0.392440 -0.101620 
#    y 0.392440 3.914690 0.008140 
#    z -0.101620 0.008140 4.093820 
# 
# 
# High freq. dielectric constant tensor:
#      x y z
#    x 1.847850 0.031700 0.006100 
#    y 0.031700 1.862130 0.006880 
#    z 0.006100 0.006880 1.879810 
# 
# From -- ./inp_files/267578.got.cif
#   From: 2010.06.25/outbox.cif.g09.slc.cpg/sg2_134_cif.got.tgz:267578.got - 2010.06.27 13:26:56.
