data_PCOD8000883
_publ_section_title
;
Structure prediction by ZEFSAII (Michael W. Deem and Ramdas Pophale) SiO2 
 PCOD8000883
Probable space group: P -1
;
_chemical_formula_sum "Si O2"
_cell_formula_units_Z 12
_cell_length_a 11.959076
_cell_length_b 9.069774
_cell_length_c 7.594361
_cell_angle_alpha 78.181294
_cell_angle_beta 38.656647
_cell_angle_gamma 79.180867
_cell_volume 503.117343
_symmetry_space_group_name_H-M "P -1"
_symmetry_group_IT_number 2
_symmetry_cell_setting 'triclinic'
loop_
_space_group_symop_operation_xyz
x,y,z
-x,-y,-z
loop_
_atom_site_type_symbol
_atom_site_label
_atom_site_fract_x
_atom_site_fract_y
_atom_site_fract_z
Si Si1 0.571275 0.332497 0.926159
Si Si2 0.535976 0.331348 0.563213
Si Si3 0.040813 0.673343 0.431472
Si Si4 0.248882 0.132646 0.414935
Si Si5 0.793681 0.857642 0.917221
Si Si6 0.305329 0.940558 0.719262
O O1 0.607973 0.315843 0.677161
O O2 0.748504 0.301388 0.833314
O O3 0.500000 0.500000 0.000000
O O4 0.425326 0.225201 0.212874
O O5 0.500000 0.500000 0.500000
O O6 0.679541 0.241637 0.279111
O O7 0.350571 0.248787 0.795802
O O8 0.000000 0.500000 0.500000
O O9 0.933374 0.759006 0.382705
O O10 0.965456 0.745538 0.692113
O O11 0.272037 0.062886 0.205558
O O12 0.228974 0.003966 0.612877
O O13 0.827901 0.996553 0.975455
O O14 0.500000 0.000000 0.500000
#
# Coordination Sequence:
#
# PCOD8000883 Si02
#       6
#     2   2   2   2   2   2
#     4  11  21  38  68  96 124 176 218 266 330 379
#     4  10  22  39  62  99 129 165 224 268 320 396
#     4  10  19  40  64  98 135 167 223 268 319 389
#     4   9  21  40  67  93 131 171 219 262 328 380
#     4   8  20  39  65  91 132 171 213 262 336 370
#     4  10  21  40  68  93 131 177 214 266 333 387
#
# _framework density 23.851292999999998
#
# number of rings (size 3 to 8) (size 9 to 14) (size 15 to 20)
#    1.000    1.333    1.667    0.000    4.667    6.000 
#    0.000    6.667    0.000    0.000    0.000    0.000 
#    0.000    0.000    0.000    0.000    0.000    0.000 
#
# Total GULP energy -148667.717051 kJ/mol
# GULP energy per Si atom -12388.976421 kJ/mol
# Density = 2.379701 g / cm^3
# Si number density = 23.851293 Si / 1000 Ang^3
#
#
#
# Elastic Constant Matrix: (Units=GPa)
#
#
# Indices 1 2 3 4 5 6 
#
# 1 109.6537 59.8817 48.9174 3.6622 -14.1204 -14.9761
# 2 59.8817 166.9335 46.0431 43.5725 11.0222 -3.4806
# 3 48.9174 46.0431 72.3527 32.5130 -8.7044 3.5890
# 4 3.6622 43.5725 32.5130 42.2009 4.5803 6.3593
# 5 -14.1204 11.0222 -8.7044 4.5803 51.0227 2.9617
# 6 -14.9761 -3.4806 3.5890 6.3593 2.9617 38.6863
#
#
#
# Elastic Compliance Matrix: (Units=1/GPa)
#
#
# Indices 1 2 3 4 5 6 
#
# 1 0.022498 -0.008024 -0.018964 0.019711 0.002589 0.006308
# 2 -0.008024 0.011631 0.004036 -0.014136 -0.002782 0.000102
# 3 -0.018964 0.004036 0.039393 -0.032445 0.003838 -0.005593
# 4 0.019711 -0.014136 -0.032445 0.061947 -0.002551 -0.000619
# 5 0.002589 -0.002782 0.003838 -0.002551 0.021850 -0.000857
# 6 0.006308 0.000102 -0.005593 -0.000619 -0.000857 0.028986
#
#
# Mechanical properties :
#
#
# Convention : Reuss Voigt Hill
#
# Bulk Modulus (GPa) = 36.20819 73.18049 54.69434
# Shear Modulus (GPa) = 20.71116 39.32184 30.01650
#
# Velocity S-wave (km/s) = 2.94997 4.06473 3.55136
# Velocity P-wave (km/s) = 5.17850 7.26485 6.30852
#
# Compressibility (1/GPa) = 0.02761806
#
# Stress axis : x y z
#
# Youngs Moduli (GPa) = 44.44815 85.97591 25.38541
#
# Poissons Ratio (x) = 0.68990 0.48140
# Poissons Ratio (y) = 0.35667 -0.10245
# Poissons Ratio (z) = 0.84289 -0.34699
#
# Static dielectric constant tensor:
#      x y z
#    x 4.458980 0.257930 0.258720 
#    y 0.257930 4.643930 0.436130 
#    z 0.258720 0.436130 3.890760 
# 
# 
# High freq. dielectric constant tensor:
#      x y z
#    x 1.938630 0.001320 0.000780 
#    y 0.001320 1.953690 0.018430 
#    z 0.000780 0.018430 1.931810 
# 
# From -- ./inp_files/231395.got.cif
#   From: 2010.06.25/outbox.cif.g09.slc.cpg/sg2_116_cif.got.tgz:231395.got - 2010.06.27 13:26:56.
