data_PCOD8000640
_publ_section_title
;
Structure prediction by ZEFSAII (Michael W. Deem and Ramdas Pophale) SiO2 
 PCOD8000640
Probable space group: P -1
;
_chemical_formula_sum "Si O2"
_cell_formula_units_Z 14
_cell_length_a 9.420751
_cell_length_b 16.062697
_cell_length_c 11.184500
_cell_angle_alpha 43.175955
_cell_angle_beta 47.075291
_cell_angle_gamma 78.833023
_cell_volume 675.374637
_symmetry_space_group_name_H-M "P -1"
_symmetry_group_IT_number 2
_symmetry_cell_setting 'triclinic'
loop_
_space_group_symop_operation_xyz
x,y,z
-x,-y,-z
loop_
_atom_site_type_symbol
_atom_site_label
_atom_site_fract_x
_atom_site_fract_y
_atom_site_fract_z
Si Si1 0.381089 0.355106 0.056229
Si Si2 0.105939 0.519844 0.288231
Si Si3 0.815448 0.847173 0.837904
Si Si4 0.476966 0.593344 0.591718
Si Si5 0.872613 0.631892 0.163576
Si Si6 0.112383 0.791363 0.388410
Si Si7 0.560613 0.876463 0.173720
O O1 0.379524 0.281816 0.008421
O O2 0.132386 0.237981 0.392339
O O3 0.608316 0.402280 0.956681
O O4 0.400872 0.506785 0.853263
O O5 0.000000 0.500000 0.500000
O O6 0.087856 0.632967 0.096130
O O7 0.948849 0.348323 0.508405
O O8 0.957011 0.788732 0.884449
O O9 0.662798 0.867471 0.997611
O O10 0.000000 0.000000 0.500000
O O11 0.701699 0.600987 0.405062
O O12 0.261374 0.506830 0.708758
O O13 0.547993 0.761358 0.396370
O O14 0.288661 0.824833 0.363608
O O15 0.259113 0.949963 0.061444
#
# Coordination Sequence:
#
# PCOD8000640 Si02
#       7
#     2   2   2   2   2   2   2
#     4  11  22  36  62  92 120 155 198 242 298 350
#     4  12  22  40  60  85 122 164 199 236 297 364
#     4  10  19  39  66  90 113 153 199 250 291 348
#     4   9  17  36  62  89 112 151 203 247 283 352
#     4   9  18  34  62  89 113 152 204 239 286 350
#     4  11  23  37  57  92 120 158 192 252 296 349
#     4  10  20  38  62  85 125 149 199 241 304 341
#
# _framework density 20.729237000000001
#
# number of rings (size 3 to 8) (size 9 to 14) (size 15 to 20)
#    0.000    1.714    4.286    2.143    0.000    0.571 
#    0.000    1.429    0.000    0.000    0.000    0.000 
#    0.000    0.000    0.000    0.000    0.000    0.000 
#
# Total GULP energy -173552.841114 kJ/mol
# GULP energy per Si atom -12396.631508 kJ/mol
# Density = 2.068206 g / cm^3
# Si number density = 20.729237 Si / 1000 Ang^3
#
#
#
# Elastic Constant Matrix: (Units=GPa)
#
#
# Indices 1 2 3 4 5 6 
#
# 1 135.6794 29.2369 59.8657 -17.6850 -10.2470 -27.2759
# 2 29.2369 54.2532 22.6280 -15.8408 -2.3922 -7.4036
# 3 59.8657 22.6280 113.9789 -21.1047 -7.6098 -17.1088
# 4 -17.6850 -15.8408 -21.1047 31.3676 -12.7573 2.6270
# 5 -10.2470 -2.3922 -7.6098 -12.7573 28.5771 -2.9553
# 6 -27.2759 -7.4036 -17.1088 2.6270 -2.9553 25.3500
#
#
#
# Elastic Compliance Matrix: (Units=1/GPa)
#
#
# Indices 1 2 3 4 5 6 
#
# 1 0.012800 -0.001877 -0.002903 0.006506 0.007753 0.011495
# 2 -0.001877 0.024637 0.000008 0.014370 0.008288 0.004658
# 3 -0.002903 0.000008 0.013573 0.010143 0.007711 0.005888
# 4 0.006506 0.014370 0.010143 0.062937 0.035958 0.015712
# 5 0.007753 0.008288 0.007711 0.035958 0.058544 0.019065
# 6 0.011495 0.004658 0.005888 0.015712 0.019065 0.057744
#
#
# Mechanical properties :
#
#
# Convention : Reuss Voigt Hill
#
# Bulk Modulus (GPa) = 24.11569 58.59699 41.35634
# Shear Modulus (GPa) = 19.71601 29.87102 24.79352
#
# Velocity S-wave (km/s) = 3.08737 3.80018 3.46217
# Velocity P-wave (km/s) = 4.93640 6.89814 5.99802
#
# Compressibility (1/GPa) = 0.04146678
#
# Stress axis : x y z
#
# Youngs Moduli (GPa) = 78.12600 40.58936 73.67459
#
# Poissons Ratio (x) = 0.07619 0.21384
# Poissons Ratio (y) = 0.14665 -0.00059
# Poissons Ratio (z) = 0.22677 -0.00033
#
# Static dielectric constant tensor:
#      x y z
#    x 3.675010 -0.192100 0.082100 
#    y -0.192100 3.741340 -0.252440 
#    z 0.082100 -0.252440 3.827760 
# 
# 
# High freq. dielectric constant tensor:
#      x y z
#    x 1.793620 -0.021920 0.007140 
#    y -0.021920 1.803300 -0.010900 
#    z 0.007140 -0.010900 1.807280 
# 
# From -- ./inp_files/181891.got.cif
#   From: 2010.06.25/outbox.cif.g09.slc.cpg/sg2_91_cif.got.tgz:181891.got - 2010.06.27 13:26:56.
