data_PCOD8000080
_publ_section_title
;
Structure prediction by ZEFSAII (Michael W. Deem and Ramdas Pophale) SiO2 
 PCOD8000080
Probable space group: P 1
;
_chemical_formula_sum "Si O2"
_cell_formula_units_Z 8
_cell_length_a 8.790288
_cell_length_b 9.262639
_cell_length_c 8.258182
_cell_angle_alpha 97.449148
_cell_angle_beta 71.687437
_cell_angle_gamma 45.664449
_cell_volume 391.566190
_symmetry_space_group_name_H-M "P 1"
_symmetry_group_IT_number 1
_symmetry_cell_setting 'triclinic'
loop_
_space_group_symop_operation_xyz
x,y,z
loop_
_atom_site_type_symbol
_atom_site_label
_atom_site_fract_x
_atom_site_fract_y
_atom_site_fract_z
Si Si1 0.564050 0.133850 0.399500
Si Si2 0.228675 0.902847 0.733498
Si Si3 0.860926 0.332787 0.694603
Si Si4 0.405176 0.495300 0.712938
Si Si5 0.195912 0.255111 0.313713
Si Si6 0.496514 0.767751 0.107094
Si Si7 0.100970 0.874675 0.099730
Si Si8 0.686337 0.719917 0.381302
O O1 0.413997 0.324101 0.622437
O O2 0.373777 0.257612 0.326892
O O3 0.667101 0.906758 0.395453
O O4 0.800399 0.070032 0.263483
O O5 0.285324 0.690722 0.644684
O O6 0.488284 0.811563 0.600865
O O7 0.151882 0.964166 0.959027
O O8 0.987087 0.130424 0.746929
O O9 0.685991 0.361277 0.639737
O O10 0.083956 0.250931 0.506401
O O11 0.706548 0.568364 0.875926
O O12 0.224428 0.633812 0.955769
O O13 0.979179 0.472422 0.298737
O O14 0.386430 0.004724 0.124762
O O15 0.258240 0.820482 0.196550
O O16 0.622441 0.682447 0.230590
#
# Coordination Sequence:
#
# PCOD8000080 Si02
#       8
#     1   1   1   1   1   1   1   1
#     4  11  23  41  62  93 135 162 199 266 318 367
#     4  10  21  41  67  93 118 168 215 250 305 377
#     4  11  20  41  67  95 122 161 221 256 302 375
#     4   9  22  40  65  87 129 161 210 257 308 364
#     4  11  23  42  60  95 134 162 207 259 314 374
#     4  10  22  38  69  91 124 163 213 261 301 369
#     4   9  22  43  61  95 125 158 212 256 312 367
#     4  11  23  42  67  95 123 169 213 255 316 365
#
# _framework density 20.430772000000001
#
# number of rings (size 3 to 8) (size 9 to 14) (size 15 to 20)
#    0.750    1.000    3.750    0.750    1.750    3.000 
#    4.500    0.000    0.000    0.000    0.000    0.000 
#    0.000    0.000    0.000    0.000    0.000    0.000 
#
# Total GULP energy -99140.357920 kJ/mol
# GULP energy per Si atom -12392.544740 kJ/mol
# Density = 2.038427 g / cm^3
# Si number density = 20.430772 Si / 1000 Ang^3
#
#
#
# Elastic Constant Matrix: (Units=GPa)
#
#
# Indices 1 2 3 4 5 6 
#
# 1 114.5948 49.9419 38.7680 12.4604 27.9664 -13.0105
# 2 49.9419 140.7586 32.2365 14.4908 19.1396 -16.1250
# 3 38.7680 32.2365 49.2000 9.2775 17.5017 1.1031
# 4 12.4604 14.4908 9.2775 30.8810 7.2080 -3.0128
# 5 27.9664 19.1396 17.5017 7.2080 34.6584 2.3606
# 6 -13.0105 -16.1250 1.1031 -3.0128 2.3606 26.8870
#
#
#
# Elastic Compliance Matrix: (Units=1/GPa)
#
#
# Indices 1 2 3 4 5 6 
#
# 1 0.014804 -0.001521 -0.008119 -0.000388 -0.007415 0.007192
# 2 -0.001521 0.009649 -0.004221 -0.001676 -0.001975 0.005209
# 3 -0.008119 -0.004221 0.032612 -0.003827 -0.006267 -0.007677
# 4 -0.000388 -0.001676 -0.003827 0.035859 -0.004516 0.003379
# 5 -0.007415 -0.001975 -0.006267 -0.004516 0.040616 -0.008588
# 6 0.007192 0.005209 -0.007677 0.003379 -0.008588 0.045245
#
#
# Mechanical properties :
#
#
# Convention : Reuss Voigt Hill
#
# Bulk Modulus (GPa) = 34.08123 60.71624 47.39873
# Shear Modulus (GPa) = 23.11726 30.72575 26.92151
#
# Velocity S-wave (km/s) = 3.36742 3.88222 3.63394
# Velocity P-wave (km/s) = 5.64242 7.06244 6.39198
#
# Compressibility (1/GPa) = 0.02934166
#
# Stress axis : x y z
#
# Youngs Moduli (GPa) = 67.54728 103.63967 30.66390
#
# Poissons Ratio (x) = 0.15765 0.24896
# Poissons Ratio (y) = 0.10275 0.12944
# Poissons Ratio (z) = 0.54842 0.43751
#
# Static dielectric constant tensor:
#      x y z
#    x 3.612050 -0.163580 0.055120 
#    y -0.163580 3.682000 0.205230 
#    z 0.055120 0.205230 3.610310 
# 
# 
# High freq. dielectric constant tensor:
#      x y z
#    x 1.792800 -0.015960 0.004860 
#    y -0.015960 1.794410 0.021090 
#    z 0.004860 0.021090 1.792360 
# 
# From -- ./inp_files/4094.got.cif
#   From: 2010.03.12/outbox.cif.g09.slc.cpg/sg1_3_cif.got.tgz:4094.got - 2010.03.29 11:57:58.
