data_PCOD8000216
_publ_section_title
;
Structure prediction by ZEFSAII (Michael W. Deem and Ramdas Pophale) SiO2 
 PCOD8000216
Probable space group: P 1
;
_chemical_formula_sum "Si O2"
_cell_formula_units_Z 8
_cell_length_a 5.146948
_cell_length_b 5.556744
_cell_length_c 14.154002
_cell_angle_alpha 126.328061
_cell_angle_beta 103.832115
_cell_angle_gamma 86.149573
_cell_volume 315.232919
_symmetry_space_group_name_H-M "P 1"
_symmetry_group_IT_number 1
_symmetry_cell_setting 'triclinic'
loop_
_space_group_symop_operation_xyz
x,y,z
loop_
_atom_site_type_symbol
_atom_site_label
_atom_site_fract_x
_atom_site_fract_y
_atom_site_fract_z
Si Si1 0.291220 0.345240 0.261340
Si Si2 0.392468 0.581770 0.522591
Si Si3 0.104621 0.127796 0.538175
Si Si4 0.206332 0.157790 0.937892
Si Si5 0.738685 0.897159 0.946255
Si Si6 0.504796 0.747118 0.080579
Si Si7 0.772793 0.668748 0.276924
Si Si8 0.852902 0.647807 0.709924
O O1 0.387241 0.355534 0.381262
O O2 0.481650 0.600189 0.283607
O O3 0.975142 0.404954 0.242085
O O4 0.347496 0.037707 0.146777
O O5 0.692206 0.694966 0.609695
O O6 0.279825 0.390844 0.558425
O O7 0.254623 0.879926 0.549876
O O8 0.950470 0.314781 0.644813
O O9 0.902008 0.969026 0.407430
O O10 0.512410 0.125070 0.983633
O O11 0.242059 0.503283 0.988907
O O12 0.023403 0.100890 0.003640
O O13 0.093241 0.922606 0.792733
O O14 0.688160 0.671695 0.799700
O O15 0.699421 0.722511 0.000882
O O16 0.720041 0.725866 0.176787
#
# Coordination Sequence:
#
# PCOD8000216 Si02
#       8
#     1   1   1   1   1   1   1   1
#     4  11  29  50  79 121 161 207 275 338 417 500
#     4  11  27  52  83 122 166 212 274 345 424 498
#     4  11  27  52  83 122 166 212 274 345 424 498
#     4  10  26  53  73 121 160 210 286 325 408 490
#     4  10  26  53  73 121 160 210 286 325 408 490
#     4  12  27  52  86 110 169 226 260 354 408 498
#     4  11  29  50  79 121 161 207 275 338 417 500
#     4  10  25  54  80 116 167 214 270 354 402 504
#
# _framework density 25.378062
#
# number of rings (size 3 to 8) (size 9 to 14) (size 15 to 20)
#    0.750    0.500    0.000    2.250   14.000    7.000 
#   13.500    2.500    0.000    0.000    0.000    0.000 
#    0.000    0.000    0.000    0.000    0.000    0.000 
#
# Total GULP energy -99131.823393 kJ/mol
# GULP energy per Si atom -12391.477924 kJ/mol
# Density = 2.532030 g / cm^3
# Si number density = 25.378062 Si / 1000 Ang^3
#
#
#
# Elastic Constant Matrix: (Units=GPa)
#
#
# Indices 1 2 3 4 5 6 
#
# 1 129.0001 43.8216 34.2795 6.6566 -5.4009 8.4156
# 2 43.8216 111.9408 46.9643 7.1928 3.7908 17.0137
# 3 34.2795 46.9643 122.0093 18.5145 -7.6497 -0.2229
# 4 6.6566 7.1928 18.5145 42.0490 6.2224 -0.2433
# 5 -5.4009 3.7908 -7.6497 6.2224 50.1440 -5.5402
# 6 8.4156 17.0137 -0.2229 -0.2433 -5.5402 36.2277
#
#
#
# Elastic Compliance Matrix: (Units=1/GPa)
#
#
# Indices 1 2 3 4 5 6 
#
# 1 0.009216 -0.002970 -0.001303 -0.000531 0.001018 -0.000602
# 2 -0.002970 0.012868 -0.004382 0.000560 -0.002670 -0.005785
# 3 -0.001303 -0.004382 0.011079 -0.004310 0.002727 0.002817
# 4 -0.000531 0.000560 -0.004310 0.026269 -0.004085 -0.000614
# 5 0.001018 -0.002670 0.002727 -0.004085 0.021654 0.004318
# 6 -0.000602 -0.005785 0.002817 -0.000614 0.004318 0.031133
#
#
# Mechanical properties :
#
#
# Convention : Reuss Voigt Hill
#
# Bulk Modulus (GPa) = 63.07549 68.12012 65.59781
# Shear Modulus (GPa) = 37.08845 41.54313 39.31579
#
# Velocity S-wave (km/s) = 3.82702 4.05034 3.94026
# Velocity P-wave (km/s) = 6.66607 6.98384 6.82680
#
# Compressibility (1/GPa) = 0.01585402
#
# Stress axis : x y z
#
# Youngs Moduli (GPa) = 108.50199 77.71231 90.26266
#
# Poissons Ratio (x) = 0.23082 0.11759
# Poissons Ratio (y) = 0.32228 0.39549
# Poissons Ratio (z) = 0.14135 0.34050
#
# Static dielectric constant tensor:
#      x y z
#    x 4.623360 0.036870 -0.060900 
#    y 0.036870 4.467490 -0.059060 
#    z -0.060900 -0.059060 4.765060 
# 
# 
# High freq. dielectric constant tensor:
#      x y z
#    x 2.016920 -0.005130 0.002490 
#    y -0.005130 2.002160 0.001830 
#    z 0.002490 0.001830 2.036180 
# 
# From -- ./inp_files/6975.got.cif
#   From: 2010.03.12/outbox.cif.g09.slc.cpg/sg1_4_cif.got.tgz:6975.got - 2010.03.29 11:57:58.
