data_PCOD8000681
_publ_section_title
;
Structure prediction by ZEFSAII (Michael W. Deem and Ramdas Pophale) SiO2 
 PCOD8000681
Probable space group: P -1
;
_chemical_formula_sum "Si O2"
_cell_formula_units_Z 16
_cell_length_a 11.732064
_cell_length_b 22.420508
_cell_length_c 9.460971
_cell_angle_alpha 48.323057
_cell_angle_beta 33.493079
_cell_angle_gamma 30.351436
_cell_volume 680.438364
_symmetry_space_group_name_H-M "P -1"
_symmetry_group_IT_number 2
_symmetry_cell_setting 'triclinic'
loop_
_space_group_symop_operation_xyz
x,y,z
-x,-y,-z
loop_
_atom_site_type_symbol
_atom_site_label
_atom_site_fract_x
_atom_site_fract_y
_atom_site_fract_z
Si Si1 0.179684 0.324378 0.120884
Si Si2 0.017883 0.162872 0.977305
Si Si3 0.837927 0.514256 0.949088
Si Si4 0.431895 0.317174 0.522021
Si Si5 0.091327 0.805240 0.535588
Si Si6 0.838692 0.295838 0.675422
Si Si7 0.364024 0.156166 0.855696
Si Si8 0.208782 0.938214 0.202470
O O1 0.262561 0.386829 0.997053
O O2 0.480117 0.182280 0.007985
O O3 0.982479 0.339799 0.424236
O O4 0.970305 0.398170 0.079889
O O5 0.682273 0.279392 0.212376
O O6 0.305599 0.115285 0.846569
O O7 0.030640 0.196750 0.756352
O O8 0.055671 0.056509 0.091999
O O9 0.107265 0.461077 0.639906
O O10 0.515501 0.585237 0.093648
O O11 0.578873 0.278888 0.588972
O O12 0.320550 0.259717 0.687503
O O13 0.146960 0.762101 0.387624
O O14 0.870640 0.805803 0.838627
O O15 0.962759 0.934704 0.461985
O O16 0.707041 0.055241 0.734609
#
# Coordination Sequence:
#
# PCOD8000681 Si02
#       8
#     2   2   2   2   2   2   2   2
#     4  11  22  41  70 101 118 166 221 272 316 364
#     4  11  28  40  62  98 140 168 205 257 330 391
#     4  11  21  42  68  94 125 166 219 273 309 369
#     4  10  22  44  66  93 126 173 219 259 311 377
#     4  10  19  39  67  94 123 158 224 262 306 370
#     4  12  24  41  63 102 130 167 209 267 326 379
#     4  10  21  43  65  93 126 174 214 258 310 382
#     4  11  21  43  68  96 126 170 215 265 315 379
#
# _framework density 23.514254999999999
#
# number of rings (size 3 to 8) (size 9 to 14) (size 15 to 20)
#    0.000    1.250    5.000    1.500    0.000   10.000 
#    0.000    1.250    0.000    0.000    0.000    0.000 
#    0.000    0.000    0.000    0.000    0.000    0.000 
#
# Total GULP energy -198254.992179 kJ/mol
# GULP energy per Si atom -12390.937011 kJ/mol
# Density = 2.346074 g / cm^3
# Si number density = 23.514255 Si / 1000 Ang^3
#
#
#
# Elastic Constant Matrix: (Units=GPa)
#
#
# Indices 1 2 3 4 5 6 
#
# 1 71.6477 18.2676 49.0716 -10.0610 -0.9994 5.1795
# 2 18.2676 70.0702 15.7831 -1.6916 14.0064 1.8052
# 3 49.0716 15.7831 74.9060 -7.7927 -4.0311 -3.5727
# 4 -10.0610 -1.6916 -7.7927 29.3568 2.2863 0.5059
# 5 -0.9994 14.0064 -4.0311 2.2863 32.2510 -1.8897
# 6 5.1795 1.8052 -3.5727 0.5059 -1.8897 25.7787
#
#
#
# Elastic Compliance Matrix: (Units=1/GPa)
#
#
# Indices 1 2 3 4 5 6 
#
# 1 0.028079 -0.002811 -0.017722 0.004970 -0.000949 -0.008068
# 2 -0.002811 0.017135 -0.002260 0.000066 -0.007905 -0.001529
# 3 -0.017722 -0.002260 0.026048 0.000259 0.004117 0.007626
# 4 0.004970 0.000066 0.000259 0.036067 -0.002508 -0.001859
# 5 -0.000949 -0.007905 0.004117 -0.002508 0.035335 0.003954
# 6 -0.008068 -0.001529 0.007626 -0.001859 0.003954 0.041903
#
#
# Mechanical properties :
#
#
# Convention : Reuss Voigt Hill
#
# Bulk Modulus (GPa) = 38.94673 42.54095 40.74384
# Shear Modulus (GPa) = 20.94581 26.37741 23.66161
#
# Velocity S-wave (km/s) = 2.98782 3.35291 3.17561
# Velocity P-wave (km/s) = 5.33870 5.75501 5.55076
#
# Compressibility (1/GPa) = 0.02567610
#
# Stress axis : x y z
#
# Youngs Moduli (GPa) = 35.61334 58.36148 38.39051
#
# Poissons Ratio (x) = 0.16406 0.68034
# Poissons Ratio (y) = 0.10011 0.08677
# Poissons Ratio (z) = 0.63113 0.13191
#
# Static dielectric constant tensor:
#      x y z
#    x 4.195400 0.120820 -0.384020 
#    y 0.120820 4.032340 0.091120 
#    z -0.384020 0.091120 4.348470 
# 
# 
# High freq. dielectric constant tensor:
#      x y z
#    x 1.914010 0.020120 -0.023110 
#    y 0.020120 1.916630 0.018330 
#    z -0.023110 0.018330 1.940770 
# 
# From -- ./inp_files/273522.got.cif
#   From: 2010.06.25/outbox.cif.g09.slc.cpg/sg2_137_cif.got.tgz:273522.got - 2010.06.27 13:26:56.
