data_PCOD8000775
_publ_section_title
;
Structure prediction by ZEFSAII (Michael W. Deem and Ramdas Pophale) SiO2 
 PCOD8000775
Probable space group: P -1
;
_chemical_formula_sum "Si O2"
_cell_formula_units_Z 14
_cell_length_a 18.339733
_cell_length_b 8.263873
_cell_length_c 21.224608
_cell_angle_alpha 138.296126
_cell_angle_beta 159.669438
_cell_angle_gamma 51.571889
_cell_volume 699.273984
_symmetry_space_group_name_H-M "P -1"
_symmetry_group_IT_number 2
_symmetry_cell_setting 'triclinic'
loop_
_space_group_symop_operation_xyz
x,y,z
-x,-y,-z
loop_
_atom_site_type_symbol
_atom_site_label
_atom_site_fract_x
_atom_site_fract_y
_atom_site_fract_z
Si Si1 0.023498 0.518123 0.836619
Si Si2 0.215371 0.067409 0.541493
Si Si3 0.712854 0.267091 0.007105
Si Si4 0.320449 0.266485 0.433358
Si Si5 0.817338 0.336014 0.853296
Si Si6 0.862205 0.671174 0.569565
Si Si7 0.923147 0.725226 0.390054
O O1 0.810482 0.612888 0.686578
O O2 0.220978 0.678206 0.996637
O O3 0.952851 0.220883 0.671485
O O4 0.113443 0.545023 0.987478
O O5 0.206435 0.179096 0.497897
O O6 0.159061 0.254402 0.600211
O O7 0.465438 0.063463 0.753170
O O8 0.891438 0.156376 0.153347
O O9 0.725016 0.532537 0.130655
O O10 0.576468 0.350059 0.642917
O O11 0.315853 0.375450 0.531911
O O12 0.196212 0.959267 0.243817
O O13 0.000000 0.500000 0.000000
O O14 0.873208 0.391342 0.475580
O O15 0.000000 0.000000 0.500000
#
# Coordination Sequence:
#
# PCOD8000775 Si02
#       7
#     2   2   2   2   2   2   2
#     4  11  23  39  62  88 120 157 191 241 296 350
#     4  12  20  37  62  87 121 158 198 237 288 341
#     4   9  22  38  59  84 121 158 192 241 286 344
#     4  10  22  44  60  86 123 151 192 247 294 349
#     4  11  24  40  65  89 115 151 198 244 296 354
#     4   9  21  37  61  86 118 154 197 242 284 347
#     4  10  19  40  59  85 124 157 195 242 287 340
#
# _framework density 20.020765999999998
#
# number of rings (size 3 to 8) (size 9 to 14) (size 15 to 20)
#    0.857    0.857    1.429    3.000    0.000    5.143 
#    0.000    2.143    0.000    0.000    0.000    0.000 
#    0.000    0.000    0.000    0.000    0.000    0.000 
#
# Total GULP energy -173551.947822 kJ/mol
# GULP energy per Si atom -12396.567702 kJ/mol
# Density = 1.997520 g / cm^3
# Si number density = 20.020766 Si / 1000 Ang^3
#
#
#
# Elastic Constant Matrix: (Units=GPa)
#
#
# Indices 1 2 3 4 5 6 
#
# 1 86.8377 -0.9934 35.4729 5.2004 -5.1610 -14.1502
# 2 -0.9934 64.5976 17.4542 -1.4917 3.1784 -10.9229
# 3 35.4729 17.4542 77.3259 2.9451 2.6277 -5.6159
# 4 5.2004 -1.4917 2.9451 17.9406 2.9251 -2.1605
# 5 -5.1610 3.1784 2.6277 2.9251 30.2557 -4.1635
# 6 -14.1502 -10.9229 -5.6159 -2.1605 -4.1635 30.9324
#
#
#
# Elastic Compliance Matrix: (Units=1/GPa)
#
#
# Indices 1 2 3 4 5 6 
#
# 1 0.016428 0.003363 -0.007775 -0.003010 0.004473 0.007683
# 2 0.003363 0.018212 -0.005216 0.002278 -0.000121 0.007165
# 3 -0.007775 -0.005216 0.017611 -0.000966 -0.002574 -0.002615
# 4 -0.003010 0.002278 -0.000966 0.058234 -0.005952 0.002518
# 5 0.004473 -0.000121 -0.002574 -0.005952 0.035437 0.005890
# 6 0.007683 0.007165 -0.002615 0.002518 0.005890 0.038867
#
#
# Mechanical properties :
#
#
# Convention : Reuss Voigt Hill
#
# Bulk Modulus (GPa) = 30.30758 36.95875 33.63317
# Shear Modulus (GPa) = 23.25127 27.61423 25.43275
#
# Velocity S-wave (km/s) = 3.41157 3.71789 3.56802
# Velocity P-wave (km/s) = 5.53979 6.07706 5.81463
#
# Compressibility (1/GPa) = 0.03299504
#
# Stress axis : x y z
#
# Youngs Moduli (GPa) = 60.87088 54.91009 56.78391
#
# Poissons Ratio (x) = -0.18466 0.44149
# Poissons Ratio (y) = -0.20470 0.29617
# Poissons Ratio (z) = 0.47326 0.28640
#
# Static dielectric constant tensor:
#      x y z
#    x 3.683120 -0.209480 -0.104420 
#    y -0.209480 3.603470 -0.034520 
#    z -0.104420 -0.034520 3.495470 
# 
# 
# High freq. dielectric constant tensor:
#      x y z
#    x 1.790790 -0.009600 -0.005800 
#    y -0.009600 1.778180 -0.003960 
#    z -0.005800 -0.003960 1.767760 
# 
# From -- ./inp_files/599652.got.cif
#   From: 2010.06.25/outbox.cif.g09.slc.cpg/sg2_300_cif.got.tgz:599652.got - 2010.06.27 13:26:56.
