data_PCOD8000032
_publ_section_title
;
Structure prediction by ZEFSAII (Michael W. Deem and Ramdas Pophale) SiO2 
 PCOD8000032
Probable space group: P 1
;
_chemical_formula_sum "Si O2"
_cell_formula_units_Z 8
_cell_length_a 9.530217
_cell_length_b 15.181639
_cell_length_c 11.555188
_cell_angle_alpha 152.829784
_cell_angle_beta 39.276455
_cell_angle_gamma 152.875549
_cell_volume 346.804476
_symmetry_space_group_name_H-M "P 1"
_symmetry_group_IT_number 1
_symmetry_cell_setting 'triclinic'
loop_
_space_group_symop_operation_xyz
x,y,z
loop_
_atom_site_type_symbol
_atom_site_label
_atom_site_fract_x
_atom_site_fract_y
_atom_site_fract_z
Si Si1 0.854580 0.419900 0.351700
Si Si2 0.684989 0.158991 0.469189
Si Si3 0.401003 0.299797 0.669958
Si Si4 0.933815 0.849943 0.286648
Si Si5 0.156370 0.554406 0.089948
Si Si6 0.294471 0.573742 0.440387
Si Si7 0.008275 0.296988 0.649136
Si Si8 0.397213 0.818001 0.889324
O O1 0.616836 0.430790 0.569261
O O2 0.937119 0.525455 0.290616
O O3 0.163438 0.603760 0.446571
O O4 0.687426 0.107028 0.095400
O O5 0.585035 0.314692 0.676430
O O6 0.722772 0.169916 0.596343
O O7 0.009974 0.293961 0.359442
O O8 0.426651 0.860270 0.235729
O O9 0.093035 0.992404 0.475779
O O10 0.313345 0.465232 0.949389
O O11 0.013760 0.071726 0.404948
O O12 0.567841 0.599691 0.251046
O O13 0.073720 0.739393 0.016052
O O14 0.955541 0.373028 0.894551
O O15 0.448881 0.816643 0.717395
O O16 0.331235 0.573656 0.711200
#
# Coordination Sequence:
#
# PCOD8000032 Si02
#       8
#     1   1   1   1   1   1   1   1
#     4  10  21  37  62  89 116 157 200 237 293 356
#     4  10  22  40  61  89 121 153 200 246 287 353
#     4   9  21  41  62  87 118 158 198 240 296 353
#     4  10  20  39  63  88 119 158 198 237 297 355
#     4  11  21  40  63  85 123 158 190 249 298 337
#     4  10  21  38  60  89 119 154 200 241 289 355
#     4  10  21  36  61  90 115 153 198 238 291 351
#     4  10  21  41  60  83 125 157 188 250 297 338
#
# _framework density 23.067751999999999
#
# number of rings (size 3 to 8) (size 9 to 14) (size 15 to 20)
#    0.000    2.000    0.000    4.500    0.000    6.000 
#    0.000   28.750    0.000    0.000    0.000    0.000 
#    0.000    0.000    0.000    0.000    0.000    0.000 
#
# Total GULP energy -99148.965760 kJ/mol
# GULP energy per Si atom -12393.620720 kJ/mol
# Density = 2.301525 g / cm^3
# Si number density = 23.067752 Si / 1000 Ang^3
#
#
#
# Elastic Constant Matrix: (Units=GPa)
#
#
# Indices 1 2 3 4 5 6 
#
# 1 119.5389 23.0485 15.8377 -5.8647 8.2255 -5.2377
# 2 23.0485 104.2056 9.3348 -9.4937 -7.0038 2.2173
# 3 15.8377 9.3348 47.0811 -6.8958 -1.2506 -5.5323
# 4 -5.8647 -9.4937 -6.8958 29.4451 -8.6751 -4.9022
# 5 8.2255 -7.0038 -1.2506 -8.6751 28.2199 -4.3159
# 6 -5.2377 2.2173 -5.5323 -4.9022 -4.3159 32.5827
#
#
#
# Elastic Compliance Matrix: (Units=1/GPa)
#
#
# Indices 1 2 3 4 5 6 
#
# 1 0.009387 -0.002099 -0.002803 -0.000348 -0.003385 0.000675
# 2 -0.002099 0.010818 -0.000684 0.004272 0.004589 0.000061
# 3 -0.002803 -0.000684 0.024129 0.007169 0.004746 0.005400
# 4 -0.000348 0.004272 0.007169 0.043327 0.016258 0.009543
# 5 -0.003385 0.004589 0.004746 0.016258 0.044028 0.008228
# 6 0.000675 0.000061 0.005400 0.009543 0.008228 0.034238
#
#
# Mechanical properties :
#
#
# Convention : Reuss Voigt Hill
#
# Bulk Modulus (GPa) = 30.15487 40.80752 35.48119
# Shear Modulus (GPa) = 26.57390 32.88983 29.73186
#
# Velocity S-wave (km/s) = 3.39778 3.78006 3.59401
# Velocity P-wave (km/s) = 5.33797 6.06470 5.71290
#
# Compressibility (1/GPa) = 0.03316214
#
# Stress axis : x y z
#
# Youngs Moduli (GPa) = 106.53088 92.43642 41.44337
#
# Poissons Ratio (x) = 0.19400 0.11617
# Poissons Ratio (y) = 0.22358 0.02836
# Poissons Ratio (z) = 0.29863 0.06325
#
# Static dielectric constant tensor:
#      x y z
#    x 4.261600 0.029610 0.189670 
#    y 0.029610 4.100060 0.020590 
#    z 0.189670 0.020590 3.929670 
# 
# 
# High freq. dielectric constant tensor:
#      x y z
#    x 1.912220 0.002360 0.025730 
#    y 0.002360 1.905950 0.005050 
#    z 0.025730 0.005050 1.888560 
# 
# From -- ./inp_files/4326.got.cif
#   From: 2010.03.12/outbox.cif.g09.slc.cpg/sg1_3_cif.got.tgz:4326.got - 2010.03.29 11:57:58.
