data_PCOD8000448
_publ_section_title
;
Structure prediction by ZEFSAII (Michael W. Deem and Ramdas Pophale) SiO2 
 PCOD8000448
Probable space group: P -1
;
_chemical_formula_sum "Si O2"
_cell_formula_units_Z 16
_cell_length_a 22.233466
_cell_length_b 8.916922
_cell_length_c 8.669085
_cell_angle_alpha 109.779458
_cell_angle_beta 30.257660
_cell_angle_gamma 114.977359
_cell_volume 783.724408
_symmetry_space_group_name_H-M "P -1"
_symmetry_group_IT_number 2
_symmetry_cell_setting 'triclinic'
loop_
_space_group_symop_operation_xyz
x,y,z
-x,-y,-z
loop_
_atom_site_type_symbol
_atom_site_label
_atom_site_fract_x
_atom_site_fract_y
_atom_site_fract_z
Si Si1 0.402825 0.583687 0.323210
Si Si2 0.951131 0.865078 0.695861
Si Si3 0.462846 0.511858 0.755731
Si Si4 0.865142 0.638538 0.251265
Si Si5 0.907523 0.268356 0.410191
Si Si6 0.814985 0.938683 0.319738
Si Si7 0.181809 0.428832 0.328304
Si Si8 0.474062 0.169751 0.085156
O O1 0.440485 0.579774 0.415436
O O2 0.261548 0.489125 0.569071
O O3 0.500000 0.500000 0.000000
O O4 0.441309 0.768420 0.233349
O O5 0.869158 0.700766 0.738834
O O6 0.061625 0.813126 0.526105
O O7 0.866523 0.931765 0.029003
O O8 0.000000 0.000000 0.500000
O O9 0.500000 0.500000 0.500000
O O10 0.481240 0.701237 0.830750
O O11 0.318787 0.418209 0.067832
O O12 0.875370 0.832962 0.266186
O O13 0.894516 0.615746 0.357545
O O14 0.971446 0.606800 0.893773
O O15 0.818167 0.389033 0.673944
O O16 0.843677 0.126096 0.379822
O O17 0.670240 0.849981 0.622940
O O18 0.500000 0.000000 0.000000
#
# Coordination Sequence:
#
# PCOD8000448 Si02
#       8
#     2   2   2   2   2   2   2   2
#     4  10  19  39  62  89 116 166 203 248 293 367
#     4  11  24  42  59  87 126 164 206 242 304 369
#     4  11  22  39  63  92 121 161 207 240 305 369
#     4  11  20  39  65  87 122 158 213 243 297 374
#     4  11  25  39  62  95 123 159 204 257 307 353
#     4  11  21  40  64  87 120 163 205 249 294 368
#     4  12  22  39  62  92 124 157 197 261 311 350
#     4  11  21  39  62  93 122 153 205 257 302 348
#
# _framework density 20.415338999999999
#
# number of rings (size 3 to 8) (size 9 to 14) (size 15 to 20)
#    0.000    1.000    5.000    5.250    1.750    0.000 
#    0.000    0.625    0.000    0.000    0.000    0.000 
#    0.000    0.000    0.000    0.000    0.000    0.000 
#
# Total GULP energy -198279.753527 kJ/mol
# GULP energy per Si atom -12392.484595 kJ/mol
# Density = 2.036887 g / cm^3
# Si number density = 20.415339 Si / 1000 Ang^3
#
#
#
# Elastic Constant Matrix: (Units=GPa)
#
#
# Indices 1 2 3 4 5 6 
#
# 1 119.5247 55.1933 27.4925 -0.5730 25.2530 11.0065
# 2 55.1933 133.9089 26.6132 -5.5189 14.0993 1.8975
# 3 27.4925 26.6132 63.6159 -17.6779 9.1125 6.8231
# 4 -0.5730 -5.5189 -17.6779 26.4718 -0.9748 0.8176
# 5 25.2530 14.0993 9.1125 -0.9748 34.8143 -8.6863
# 6 11.0065 1.8975 6.8231 0.8176 -8.6863 36.6422
#
#
#
# Elastic Compliance Matrix: (Units=1/GPa)
#
#
# Indices 1 2 3 4 5 6 
#
# 1 0.013144 -0.003964 -0.003004 -0.002703 -0.008500 -0.005138
# 2 -0.003964 0.009569 -0.002296 0.000338 -0.000118 0.001087
# 3 -0.003004 -0.002296 0.023121 0.014901 -0.003644 -0.004480
# 4 -0.002703 0.000338 0.014901 0.047786 -0.001593 -0.003424
# 5 -0.008500 -0.000118 -0.003644 -0.001593 0.038968 0.012511
# 6 -0.005138 0.001087 -0.004480 -0.003424 0.012511 0.032655
#
#
# Mechanical properties :
#
#
# Convention : Reuss Voigt Hill
#
# Bulk Modulus (GPa) = 36.62189 59.51640 48.06915
# Shear Modulus (GPa) = 25.92377 33.43569 29.67973
#
# Velocity S-wave (km/s) = 3.56732 4.05133 3.81700
# Velocity P-wave (km/s) = 5.91143 7.14846 6.55917
#
# Compressibility (1/GPa) = 0.02730607
#
# Stress axis : x y z
#
# Youngs Moduli (GPa) = 76.07940 104.50555 43.25021
#
# Poissons Ratio (x) = 0.41427 0.12994
# Poissons Ratio (y) = 0.30159 0.09928
# Poissons Ratio (z) = 0.22857 0.23990
#
# Static dielectric constant tensor:
#      x y z
#    x -16.310650 10.326880 -0.473100 
#    y 10.326880 -1.690160 0.065460 
#    z -0.473100 0.065460 3.603800 
# 
# 
# High freq. dielectric constant tensor:
#      x y z
#    x 1.810340 -0.002660 -0.003690 
#    y -0.002660 1.792080 -0.015500 
#    z -0.003690 -0.015500 1.793590 
# 
# From -- ./inp_files/240511.got.cif
#   From: 2010.06.25/outbox.cif.g09.slc.cpg/sg2_121_cif.got.tgz:240511.got - 2010.06.27 13:26:56.
