data_PCOD8000399
_publ_section_title
;
Structure prediction by ZEFSAII (Michael W. Deem and Ramdas Pophale) SiO2 
 PCOD8000399
Probable space group: P -1
;
_chemical_formula_sum "Si O2"
_cell_formula_units_Z 12
_cell_length_a 13.476015
_cell_length_b 18.084858
_cell_length_c 5.176591
_cell_angle_alpha 74.666913
_cell_angle_beta 100.622374
_cell_angle_gamma 157.252325
_cell_volume 464.429156
_symmetry_space_group_name_H-M "P -1"
_symmetry_group_IT_number 2
_symmetry_cell_setting 'triclinic'
loop_
_space_group_symop_operation_xyz
x,y,z
-x,-y,-z
loop_
_atom_site_type_symbol
_atom_site_label
_atom_site_fract_x
_atom_site_fract_y
_atom_site_fract_z
Si Si1 0.896120 0.760561 0.877948
Si Si2 0.179606 0.751245 0.291445
Si Si3 0.735766 0.093081 0.309421
Si Si4 0.664091 0.887745 0.900883
Si Si5 0.621173 0.317172 0.539654
Si Si6 0.570241 0.672905 0.798021
O O1 0.796793 0.774056 0.714857
O O2 0.103482 0.874031 0.665077
O O3 0.659699 0.537856 0.998226
O O4 0.048267 0.879068 0.113920
O O5 0.228401 0.850888 0.436428
O O6 0.929151 0.525208 0.450345
O O7 0.427056 0.866732 0.300959
O O8 0.143456 0.764803 0.980701
O O9 0.468527 0.775913 0.140621
O O10 0.535494 0.836364 0.629131
O O11 0.677472 0.804865 0.950612
O O12 0.542909 0.353427 0.461774
#
# Coordination Sequence:
#
# PCOD8000399 Si02
#       6
#     2   2   2   2   2   2
#     4  11  20  42  61  96 116 161 209 241 297 363
#     4  10  19  39  61  86 123 155 197 248 304 347
#     4  10  21  35  62  91 116 157 202 247 292 362
#     4  10  23  40  60  90 126 159 194 251 299 353
#     4  10  20  41  60  86 121 166 191 243 309 348
#     4   9  22  40  63  87 126 161 195 253 295 356
#
# _framework density 25.838170000000002
#
# number of rings (size 3 to 8) (size 9 to 14) (size 15 to 20)
#    1.000    1.000    1.667    2.500    0.000    2.000 
#    6.000    4.167    0.000    0.000    0.000    0.000 
#    0.000    0.000    0.000    0.000    0.000    0.000 
#
# Total GULP energy -148741.793718 kJ/mol
# GULP energy per Si atom -12395.149477 kJ/mol
# Density = 2.577936 g / cm^3
# Si number density = 25.838170 Si / 1000 Ang^3
#
#
#
# Elastic Constant Matrix: (Units=GPa)
#
#
# Indices 1 2 3 4 5 6 
#
# 1 124.7902 29.8377 32.0669 0.4129 -24.1281 31.7687
# 2 29.8377 69.5352 -9.4740 0.4306 -17.2724 20.2639
# 3 32.0669 -9.4740 112.3436 -7.4501 -3.6688 15.3347
# 4 0.4129 0.4306 -7.4501 34.7958 -2.1313 -11.0456
# 5 -24.1281 -17.2724 -3.6688 -2.1313 37.2684 -2.0055
# 6 31.7687 20.2639 15.3347 -11.0456 -2.0055 41.5295
#
#
#
# Elastic Compliance Matrix: (Units=1/GPa)
#
#
# Indices 1 2 3 4 5 6 
#
# 1 0.012397 -0.001676 -0.002545 -0.002877 0.006394 -0.008182
# 2 -0.001676 0.020692 0.003763 -0.002231 0.008188 -0.010402
# 3 -0.002545 0.003763 0.010523 0.001220 0.001019 -0.003401
# 4 -0.002877 -0.002231 0.001220 0.032702 -0.000286 0.011523
# 5 0.006394 0.008188 0.001019 -0.000286 0.034438 -0.007676
# 6 -0.008182 -0.010402 -0.003401 0.011523 -0.007676 0.039364
#
#
# Mechanical properties :
#
#
# Convention : Reuss Voigt Hill
#
# Bulk Modulus (GPa) = 23.42154 45.72558 34.57356
# Shear Modulus (GPa) = 30.25460 39.66797 34.96128
#
# Velocity S-wave (km/s) = 3.42559 3.92247 3.68242
# Velocity P-wave (km/s) = 4.97299 6.18464 5.61161
#
# Compressibility (1/GPa) = 0.04269575
#
# Stress axis : x y z
#
# Youngs Moduli (GPa) = 80.66554 48.32814 95.02640
#
# Poissons Ratio (x) = 0.08099 0.24184
# Poissons Ratio (y) = 0.13518 -0.35754
# Poissons Ratio (z) = 0.20529 -0.18184
#
# Static dielectric constant tensor:
#      x y z
#    x 4.885490 0.165870 -0.081700 
#    y 0.165870 4.795290 -0.005930 
#    z -0.081700 -0.005930 4.345990 
# 
# 
# High freq. dielectric constant tensor:
#      x y z
#    x 2.048870 -0.003890 -0.001350 
#    y -0.003890 2.046440 -0.006850 
#    z -0.001350 -0.006850 2.018830 
# 
# From -- ./inp_files/26777.got.cif
#   From: 2010.06.25/outbox.cif.g09.slc.cpg/sg2_14_cif.got.tgz:26777.got - 2010.06.27 13:26:56.
