data_PCOD8000689
_publ_section_title
;
Structure prediction by ZEFSAII (Michael W. Deem and Ramdas Pophale) SiO2 
 PCOD8000689
Probable space group: P -1
;
_chemical_formula_sum "Si O2"
_cell_formula_units_Z 14
_cell_length_a 13.867838
_cell_length_b 8.741465
_cell_length_c 12.291348
_cell_angle_alpha 56.756371
_cell_angle_beta 58.357502
_cell_angle_gamma 29.822805
_cell_volume 615.428306
_symmetry_space_group_name_H-M "P -1"
_symmetry_group_IT_number 2
_symmetry_cell_setting 'triclinic'
loop_
_space_group_symop_operation_xyz
x,y,z
-x,-y,-z
loop_
_atom_site_type_symbol
_atom_site_label
_atom_site_fract_x
_atom_site_fract_y
_atom_site_fract_z
Si Si1 0.606300 0.648580 0.861583
Si Si2 0.263133 0.861707 0.892848
Si Si3 0.117418 0.800081 0.312377
Si Si4 0.704581 0.211182 0.346340
Si Si5 0.596135 0.733636 0.235409
Si Si6 0.416710 0.276520 0.510339
Si Si7 0.012013 0.697583 0.930500
O O1 0.412202 0.828219 0.846640
O O2 0.778264 0.445401 0.751719
O O3 0.572101 0.896860 0.835181
O O4 0.651578 0.450456 0.009249
O O5 0.220559 0.922369 0.767585
O O6 0.060313 0.156453 0.962545
O O7 0.242194 0.611459 0.421569
O O8 0.114003 0.019956 0.193971
O O9 0.899639 0.005229 0.379969
O O10 0.544745 0.586742 0.306245
O O11 0.599154 0.170242 0.469146
O O12 0.662950 0.683442 0.340977
O O13 0.765671 0.539192 0.122785
O O14 0.500000 0.000000 0.500000
O O15 0.000000 0.500000 0.000000
#
# Coordination Sequence:
#
# PCOD8000689 Si02
#       7
#     2   2   2   2   2   2   2
#     4  10  19  39  67  96 129 177 217 258 330 395
#     4  10  20  39  68  93 134 176 210 266 333 385
#     4  10  23  42  68  99 131 171 220 264 329 386
#     4  11  25  42  67  99 130 168 219 276 323 387
#     4  11  23  40  65 100 132 170 225 270 317 386
#     4  12  24  46  72  89 131 181 218 270 327 380
#     4  10  21  37  67  99 133 167 218 265 322 395
#
# _framework density 22.748384999999999
#
# number of rings (size 3 to 8) (size 9 to 14) (size 15 to 20)
#    0.000    1.429    4.286    0.429    0.000    8.571 
#    0.000    2.857    0.000    0.000    0.000    0.000 
#    0.000    0.000    0.000    0.000    0.000    0.000 
#
# Total GULP energy -173533.342666 kJ/mol
# GULP energy per Si atom -12395.238762 kJ/mol
# Density = 2.269661 g / cm^3
# Si number density = 22.748385 Si / 1000 Ang^3
#
#
#
# Elastic Constant Matrix: (Units=GPa)
#
#
# Indices 1 2 3 4 5 6 
#
# 1 73.3718 34.6679 20.8263 1.3272 -20.7828 7.6953
# 2 34.6679 128.4459 26.4694 -2.9193 -17.3055 23.4621
# 3 20.8263 26.4694 61.7424 -1.8659 -2.7138 0.5878
# 4 1.3272 -2.9193 -1.8659 31.8615 7.0335 -3.5840
# 5 -20.7828 -17.3055 -2.7138 7.0335 35.1284 -4.7949
# 6 7.6953 23.4621 0.5878 -3.5840 -4.7949 42.1856
#
#
#
# Elastic Compliance Matrix: (Units=1/GPa)
#
#
# Indices 1 2 3 4 5 6 
#
# 1 0.019471 -0.002691 -0.005060 -0.003777 0.010406 -0.001123
# 2 -0.002691 0.010490 -0.003432 -0.000284 0.002683 -0.005015
# 3 -0.005060 -0.003432 0.019269 0.002014 -0.003277 0.002362
# 4 -0.003777 -0.000284 0.002014 0.033844 -0.008625 0.002714
# 5 0.010406 0.002683 -0.003277 -0.008625 0.037443 0.000179
# 6 -0.001123 -0.005015 0.002362 0.002714 0.000179 0.026916
#
#
# Mechanical properties :
#
#
# Convention : Reuss Voigt Hill
#
# Bulk Modulus (GPa) = 37.22662 47.49858 42.36260
# Shear Modulus (GPa) = 27.97132 33.94155 30.95644
#
# Velocity S-wave (km/s) = 3.51036 3.86689 3.69293
# Velocity P-wave (km/s) = 5.72977 6.39237 6.07012
#
# Compressibility (1/GPa) = 0.02686249
#
# Stress axis : x y z
#
# Youngs Moduli (GPa) = 51.35955 95.32855 51.89715
#
# Poissons Ratio (x) = 0.25655 0.26260
# Poissons Ratio (y) = 0.13822 0.17813
# Poissons Ratio (z) = 0.25988 0.32719
#
# Static dielectric constant tensor:
#      x y z
#    x 4.602640 0.456510 -0.817830 
#    y 0.456510 4.465570 -0.184630 
#    z -0.817830 -0.184630 4.696230 
# 
# 
# High freq. dielectric constant tensor:
#      x y z
#    x 1.868480 0.022150 -0.014170 
#    y 0.022150 1.906340 0.007350 
#    z -0.014170 0.007350 1.901370 
# 
# From -- ./inp_files/188310.got.cif
#   From: 2010.06.25/outbox.cif.g09.slc.cpg/sg2_95_cif.got.tgz:188310.got - 2010.06.27 13:26:56.
