data_PCOD8000353
_publ_section_title
;
Structure prediction by ZEFSAII (Michael W. Deem and Ramdas Pophale) SiO2 
 PCOD8000353
Probable space group: P -1
;
_chemical_formula_sum "Si O2"
_cell_formula_units_Z 16
_cell_length_a 27.726664
_cell_length_b 8.344886
_cell_length_c 11.110348
_cell_angle_alpha 42.513836
_cell_angle_beta 142.316429
_cell_angle_gamma 147.112634
_cell_volume 832.651214
_symmetry_space_group_name_H-M "P -1"
_symmetry_group_IT_number 2
_symmetry_cell_setting 'triclinic'
loop_
_space_group_symop_operation_xyz
x,y,z
-x,-y,-z
loop_
_atom_site_type_symbol
_atom_site_label
_atom_site_fract_x
_atom_site_fract_y
_atom_site_fract_z
Si Si1 0.161059 0.330859 0.488235
Si Si2 0.286175 0.140814 0.902283
Si Si3 0.778314 0.718741 0.845477
Si Si4 0.295761 0.913221 0.558693
Si Si5 0.658135 0.088944 0.073767
Si Si6 0.549955 0.165593 0.130281
Si Si7 0.001279 0.756704 0.919827
Si Si8 0.804570 0.453998 0.815803
O O1 0.185777 0.111219 0.700510
O O2 0.191334 0.577275 0.514931
O O3 0.227867 0.515978 0.397277
O O4 0.042933 0.140404 0.325585
O O5 0.378130 0.472691 0.946117
O O6 0.313606 0.071260 0.869221
O O7 0.261112 0.900294 0.086928
O O8 0.783877 0.621204 0.777804
O O9 0.714193 0.839639 0.646504
O O10 0.889201 0.965076 0.978323
O O11 0.724325 0.444376 0.983681
O O12 0.321304 0.962515 0.722771
O O13 0.382480 0.935133 0.641563
O O14 0.540808 0.938742 0.900773
O O15 0.500000 0.000000 0.000000
O O16 0.000000 0.500000 0.000000
O O17 0.924402 0.613613 0.961439
#
# Coordination Sequence:
#
# PCOD8000353 Si02
#       8
#     2   2   2   2   2   2   2   2
#     4   9  20  35  55  83 111 143 188 222 274 323
#     4  10  19  39  60  81 113 146 181 228 277 330
#     4  11  20  38  57  81 115 147 186 225 275 327
#     4  10  20  36  58  81 113 147 184 230 271 328
#     4  10  22  37  57  85 110 148 184 227 279 325
#     4   9  20  36  58  84 111 143 184 229 277 324
#     4  10  20  37  55  83 114 145 184 229 272 323
#     4   9  21  36  57  82 111 149 180 228 275 321
#
# _framework density 19.215727999999999
#
# number of rings (size 3 to 8) (size 9 to 14) (size 15 to 20)
#    0.750    1.500    1.250    1.500    0.000    6.500 
#    2.250    6.250    0.000   13.500    0.000    0.000 
#    0.000    0.000    0.000    0.000    0.000    0.000 
#
# Total GULP energy -198266.713404 kJ/mol
# GULP energy per Si atom -12391.669588 kJ/mol
# Density = 1.917199 g / cm^3
# Si number density = 19.215728 Si / 1000 Ang^3
#
#
#
# Elastic Constant Matrix: (Units=GPa)
#
#
# Indices 1 2 3 4 5 6 
#
# 1 25.2164 16.1487 13.5915 -3.5961 18.8618 -4.4386
# 2 16.1487 112.7497 33.0173 1.8204 15.7400 -3.4478
# 3 13.5915 33.0173 68.4088 3.5107 18.1219 -11.3174
# 4 -3.5961 1.8204 3.5107 25.5877 -5.3994 6.1423
# 5 18.8618 15.7400 18.1219 -5.3994 32.4598 -1.0163
# 6 -4.4386 -3.4478 -11.3174 6.1423 -1.0163 29.5582
#
#
#
# Elastic Compliance Matrix: (Units=1/GPa)
#
#
# Indices 1 2 3 4 5 6 
#
# 1 0.074985 -0.004668 -0.000317 0.000097 -0.040828 0.009170
# 2 -0.004668 0.010830 -0.004366 -0.000642 -0.000239 -0.000984
# 3 -0.000317 -0.004366 0.021375 -0.006979 -0.010520 0.008716
# 4 0.000097 -0.000642 -0.006979 0.045309 0.011319 -0.011759
# 5 -0.040828 -0.000239 -0.010520 0.011319 0.062078 -0.010404
# 6 0.009170 -0.000984 0.008716 -0.011759 -0.010404 0.040517
#
#
# Mechanical properties :
#
#
# Convention : Reuss Voigt Hill
#
# Bulk Modulus (GPa) = 11.30117 36.87666 24.08891
# Shear Modulus (GPa) = 16.48570 27.09561 21.79066
#
# Velocity S-wave (km/s) = 2.93222 3.75917 3.37115
# Velocity P-wave (km/s) = 4.16627 6.17044 5.26461
#
# Compressibility (1/GPa) = 0.08848645
#
# Stress axis : x y z
#
# Youngs Moduli (GPa) = 13.33603 92.33583 46.78311
#
# Poissons Ratio (x) = 0.43106 0.01484
# Poissons Ratio (y) = 0.06226 0.20427
# Poissons Ratio (z) = 0.00423 0.40316
#
# Static dielectric constant tensor:
#      x y z
#    x 3.535750 0.778110 0.403080 
#    y 0.778110 0.456810 -0.173360 
#    z 0.403080 -0.173360 3.492410 
# 
# 
# High freq. dielectric constant tensor:
#      x y z
#    x 1.751160 -0.015060 0.017480 
#    y -0.015060 1.742730 0.007310 
#    z 0.017480 0.007310 1.742190 
# 
# From -- ./inp_files/272035.got.cif
#   From: 2010.06.25/outbox.cif.g09.slc.cpg/sg2_137_cif.got.tgz:272035.got - 2010.06.27 13:26:56.
