data_PCOD8000688
_publ_section_title
;
Structure prediction by ZEFSAII (Michael W. Deem and Ramdas Pophale) SiO2 
 PCOD8000688
Probable space group: P -1
;
_chemical_formula_sum "Si O2"
_cell_formula_units_Z 16
_cell_length_a 10.495672
_cell_length_b 13.906535
_cell_length_c 8.721774
_cell_angle_alpha 46.200964
_cell_angle_beta 103.685877
_cell_angle_gamma 70.736411
_cell_volume 634.059686
_symmetry_space_group_name_H-M "P -1"
_symmetry_group_IT_number 2
_symmetry_cell_setting 'triclinic'
loop_
_space_group_symop_operation_xyz
x,y,z
-x,-y,-z
loop_
_atom_site_type_symbol
_atom_site_label
_atom_site_fract_x
_atom_site_fract_y
_atom_site_fract_z
Si Si1 0.540545 0.191414 0.090328
Si Si2 0.534418 0.297275 0.306679
Si Si3 0.907581 0.155290 0.660552
Si Si4 0.238870 0.775527 0.072998
Si Si5 0.197692 0.553570 0.470991
Si Si6 0.695596 0.785065 0.595273
Si Si7 0.026951 0.547947 0.145505
Si Si8 0.836635 0.305445 0.160018
O O1 0.589755 0.235464 0.212024
O O2 0.605943 0.994228 0.339401
O O3 0.619785 0.207620 0.942136
O O4 0.321847 0.356307 0.811912
O O5 0.710343 0.220768 0.539283
O O6 0.469298 0.204410 0.465459
O O7 0.375143 0.523356 0.029339
O O8 0.919358 0.284995 0.613057
O O9 0.954522 0.162780 0.490309
O O10 0.085004 0.929483 0.990310
O O11 0.319265 0.578461 0.382884
O O12 0.142523 0.810473 0.846376
O O13 0.054563 0.579592 0.290653
O O14 0.829534 0.674791 0.605723
O O15 0.810967 0.673961 0.909791
O O16 0.077902 0.616450 0.951387
#
# Coordination Sequence:
#
# PCOD8000688 Si02
#       8
#     2   2   2   2   2   2   2   2
#     4  12  23  42  68  99 134 179 227 268 329 404
#     4  11  23  39  68 101 135 171 224 276 321 401
#     4  12  22  40  68 104 134 169 223 281 340 391
#     4  11  24  39  66  98 136 175 215 280 337 396
#     4  11  25  43  67 103 138 168 213 290 353 378
#     4  10  23  44  71  97 130 184 232 264 317 402
#     4   9  22  45  72  98 133 172 228 279 327 392
#     4  10  19  39  67  96 127 174 220 276 326 388
#
# _framework density 25.234217000000001
#
# number of rings (size 3 to 8) (size 9 to 14) (size 15 to 20)
#    0.000    1.250    2.500    3.375    3.500    2.500 
#    0.000    0.625    0.000    0.000    0.000    0.000 
#    0.000    0.000    0.000    0.000    0.000    0.000 
#
# Total GULP energy -198358.016058 kJ/mol
# GULP energy per Si atom -12397.376004 kJ/mol
# Density = 2.517678 g / cm^3
# Si number density = 25.234217 Si / 1000 Ang^3
#
#
#
# Elastic Constant Matrix: (Units=GPa)
#
#
# Indices 1 2 3 4 5 6 
#
# 1 31.1645 23.7888 10.9288 0.1655 2.7496 1.5583
# 2 23.7888 172.3136 55.4436 -10.4736 3.0111 24.1493
# 3 10.9288 55.4436 120.1088 -14.1217 4.4779 19.2582
# 4 0.1655 -10.4736 -14.1217 43.4401 6.3894 -1.5296
# 5 2.7496 3.0111 4.4779 6.3894 24.4939 6.5316
# 6 1.5583 24.1493 19.2582 -1.5296 6.5316 32.8930
#
#
#
# Elastic Compliance Matrix: (Units=1/GPa)
#
#
# Indices 1 2 3 4 5 6 
#
# 1 0.036674 -0.005068 -0.001572 -0.001177 -0.003864 0.003616
# 2 -0.005068 0.007927 -0.002446 0.000842 0.000969 -0.004301
# 3 -0.001572 -0.002446 0.010620 0.002899 -0.001159 -0.003983
# 4 -0.001177 0.000842 0.002899 0.025237 -0.007175 0.000339
# 5 -0.003864 0.000969 -0.001159 -0.007175 0.045693 -0.009257
# 6 0.003616 -0.004301 -0.003983 0.000339 -0.009257 0.037574
#
#
# Mechanical properties :
#
#
# Convention : Reuss Voigt Hill
#
# Bulk Modulus (GPa) = 26.99007 55.98994 41.49000
# Shear Modulus (GPa) = 25.74045 35.72710 30.73378
#
# Velocity S-wave (km/s) = 3.19730 3.76682 3.49369
# Velocity P-wave (km/s) = 4.93451 6.41520 5.72295
#
# Compressibility (1/GPa) = 0.03705066
#
# Stress axis : x y z
#
# Youngs Moduli (GPa) = 27.26730 126.15181 94.15843
#
# Poissons Ratio (x) = 0.63936 0.14798
# Poissons Ratio (y) = 0.13820 0.23027
# Poissons Ratio (z) = 0.04285 0.30851
#
# Static dielectric constant tensor:
#      x y z
#    x 4.396320 -0.076510 -0.152090 
#    y -0.076510 4.693710 -0.005680 
#    z -0.152090 -0.005680 4.456210 
# 
# 
# High freq. dielectric constant tensor:
#      x y z
#    x 1.998230 -0.000250 -0.014630 
#    y -0.000250 2.022890 -0.000810 
#    z -0.014630 -0.000810 2.002440 
# 
# From -- ./inp_files/271856.got.cif
#   From: 2010.06.25/outbox.cif.g09.slc.cpg/sg2_136_cif.got.tgz:271856.got - 2010.06.27 13:26:56.
