data_PCOD8000824
_publ_section_title
;
Structure prediction by ZEFSAII (Michael W. Deem and Ramdas Pophale) SiO2 
 PCOD8000824
Probable space group: P -1
;
_chemical_formula_sum "Si O2"
_cell_formula_units_Z 16
_cell_length_a 13.356047
_cell_length_b 8.984843
_cell_length_c 7.938450
_cell_angle_alpha 106.584666
_cell_angle_beta 56.674452
_cell_angle_gamma 83.935903
_cell_volume 720.732943
_symmetry_space_group_name_H-M "P -1"
_symmetry_group_IT_number 2
_symmetry_cell_setting 'triclinic'
loop_
_space_group_symop_operation_xyz
x,y,z
-x,-y,-z
loop_
_atom_site_type_symbol
_atom_site_label
_atom_site_fract_x
_atom_site_fract_y
_atom_site_fract_z
Si Si1 0.921905 0.403988 0.134175
Si Si2 0.189967 0.890043 0.365791
Si Si3 0.314428 0.111207 0.156522
Si Si4 0.868275 0.777917 0.920495
Si Si5 0.303982 0.356508 0.747793
Si Si6 0.954273 0.058494 0.830645
Si Si7 0.391044 0.575005 0.990976
Si Si8 0.505423 0.794076 0.751551
O O1 0.774195 0.511642 0.281714
O O2 0.950979 0.223584 0.975285
O O3 0.000000 0.500000 0.000000
O O4 0.990698 0.363793 0.242549
O O5 0.112748 0.893101 0.269060
O O6 0.269874 0.015417 0.315798
O O7 0.281617 0.703809 0.243813
O O8 0.099120 0.941793 0.627703
O O9 0.387914 0.221548 0.209703
O O10 0.194408 0.233111 0.206330
O O11 0.405963 0.979205 0.899250
O O12 0.777487 0.755917 0.148307
O O13 0.884213 0.958817 0.978027
O O14 0.338767 0.441549 0.908515
O O15 0.432787 0.245928 0.503292
O O16 0.434952 0.665779 0.825168
O O17 0.500000 0.500000 0.000000
#
# Coordination Sequence:
#
# PCOD8000824 Si02
#       8
#     2   2   2   2   2   2   2   2
#     4  10  22  38  60  88 127 157 194 253 313 362
#     4   9  20  36  65  85 118 169 198 250 305 362
#     4   9  20  41  62  88 122 150 217 251 298 365
#     4  10  22  39  61  95 121 158 203 257 295 368
#     4  11  23  41  62  89 129 162 200 251 319 362
#     4  10  19  40  62  89 121 162 208 244 303 370
#     4  11  22  41  61  91 127 159 210 257 301 365
#     4  10  22  40  64  87 118 171 200 253 311 361
#
# _framework density 22.199624
#
# number of rings (size 3 to 8) (size 9 to 14) (size 15 to 20)
#    0.000    2.000    1.250    1.500    3.500    1.500 
#    2.250    1.250    0.000    0.000    0.000    0.000 
#    0.000    0.000    0.000    0.000    0.000    0.000 
#
# Total GULP energy -198282.160653 kJ/mol
# GULP energy per Si atom -12392.635041 kJ/mol
# Density = 2.214910 g / cm^3
# Si number density = 22.199624 Si / 1000 Ang^3
#
#
#
# Elastic Constant Matrix: (Units=GPa)
#
#
# Indices 1 2 3 4 5 6 
#
# 1 89.9580 46.0066 14.2736 6.2327 -15.7070 -1.2241
# 2 46.0066 86.5443 32.9743 2.1702 1.3507 2.6619
# 3 14.2736 32.9743 96.4738 3.7428 -15.5871 8.8520
# 4 6.2327 2.1702 3.7428 21.6616 -1.9556 -7.6587
# 5 -15.7070 1.3507 -15.5871 -1.9556 20.0321 -0.0888
# 6 -1.2241 2.6619 8.8520 -7.6587 -0.0888 39.5158
#
#
#
# Elastic Compliance Matrix: (Units=1/GPa)
#
#
# Indices 1 2 3 4 5 6 
#
# 1 0.021038 -0.013305 0.004982 -0.003784 0.020899 -0.000254
# 2 -0.013305 0.022183 -0.008697 0.001540 -0.018544 0.000298
# 3 0.004982 -0.008697 0.015665 -0.002959 0.016378 -0.003306
# 4 -0.003784 0.001540 -0.002959 0.051249 -0.000324 0.010374
# 5 0.020899 -0.018544 0.016378 -0.000324 0.080262 -0.001655
# 6 -0.000254 0.000298 -0.003306 0.010374 -0.001655 0.028026
#
#
# Mechanical properties :
#
#
# Convention : Reuss Voigt Hill
#
# Bulk Modulus (GPa) = 40.24794 51.05392 45.65093
# Shear Modulus (GPa) = 19.17575 28.22332 23.69954
#
# Velocity S-wave (km/s) = 2.94221 3.56946 3.27091
# Velocity P-wave (km/s) = 5.45083 6.32737 5.90538
#
# Compressibility (1/GPa) = 0.02484599
#
# Stress axis : x y z
#
# Youngs Moduli (GPa) = 47.53232 45.07947 63.83553
#
# Poissons Ratio (x) = 0.59980 -0.31802
# Poissons Ratio (y) = 0.63244 0.55516
# Poissons Ratio (z) = -0.23680 0.39204
#
# Static dielectric constant tensor:
#      x y z
#    x 4.380400 -0.132730 -0.385220 
#    y -0.132730 4.168940 0.044270 
#    z -0.385220 0.044270 3.847350 
# 
# 
# High freq. dielectric constant tensor:
#      x y z
#    x 1.890670 0.003550 -0.020760 
#    y 0.003550 1.876900 -0.001560 
#    z -0.020760 -0.001560 1.839100 
# 
# From -- ./inp_files/217339.got.cif
#   From: 2010.06.25/outbox.cif.g09.slc.cpg/sg2_109_cif.got.tgz:217339.got - 2010.06.27 13:26:56.
