data_PCOD8000737
_publ_section_title
;
Structure prediction by ZEFSAII (Michael W. Deem and Ramdas Pophale) SiO2 
 PCOD8000737
Probable space group: P -1
;
_chemical_formula_sum "Si O2"
_cell_formula_units_Z 16
_cell_length_a 9.594171
_cell_length_b 14.564062
_cell_length_c 14.288460
_cell_angle_alpha 39.079814
_cell_angle_beta 99.958248
_cell_angle_gamma 129.976533
_cell_volume 712.124341
_symmetry_space_group_name_H-M "P -1"
_symmetry_group_IT_number 2
_symmetry_cell_setting 'triclinic'
loop_
_space_group_symop_operation_xyz
x,y,z
-x,-y,-z
loop_
_atom_site_type_symbol
_atom_site_label
_atom_site_fract_x
_atom_site_fract_y
_atom_site_fract_z
Si Si1 0.144232 0.444762 0.683121
Si Si2 0.164552 0.993325 0.147276
Si Si3 0.502870 0.503835 0.726724
Si Si4 0.451732 0.981283 0.271687
Si Si5 0.933079 0.003400 0.262932
Si Si6 0.836797 0.290758 0.223631
Si Si7 0.871409 0.754584 0.719397
Si Si8 0.886674 0.276798 0.965991
O O1 0.339007 0.511447 0.711775
O O2 0.271769 0.695032 0.458256
O O3 0.046228 0.272964 0.719399
O O4 0.915178 0.293930 0.843675
O O5 0.303315 0.005909 0.226851
O O6 0.044221 0.017235 0.176697
O O7 0.330512 0.217874 0.909681
O O8 0.718939 0.719370 0.506865
O O9 0.602671 0.530206 0.818725
O O10 0.562976 0.057573 0.330309
O O11 0.650717 0.166099 0.064198
O O12 0.827627 0.068158 0.165594
O O13 0.140808 0.229254 0.183376
O O14 0.952115 0.229804 0.304562
O O15 0.000000 0.500000 0.000000
O O16 0.863818 0.424284 0.209061
O O17 0.000000 0.000000 0.500000
#
# Coordination Sequence:
#
# PCOD8000737 Si02
#       8
#     2   2   2   2   2   2   2   2
#     4  12  26  45  65  98 134 177 232 268 314 400
#     4  12  28  42  67 101 132 173 237 269 311 400
#     4  11  23  42  68  96 133 173 215 276 332 379
#     4  11  24  46  68  95 136 175 211 283 337 380
#     4  11  23  43  69 100 134 173 214 276 338 387
#     4  10  19  39  69  97 128 168 216 263 335 409
#     4  10  20  38  67 101 131 163 217 271 332 403
#     4  11  23  42  73  95 134 177 217 267 340 395
#
# _framework density 22.467984999999999
#
# number of rings (size 3 to 8) (size 9 to 14) (size 15 to 20)
#    0.000    1.000    5.000    3.000    0.000    7.000 
#    0.000    0.000    0.000    0.000    0.000    0.000 
#    0.000    0.000    0.000    0.000    0.000    0.000 
#
# Total GULP energy -198216.534352 kJ/mol
# GULP energy per Si atom -12388.533397 kJ/mol
# Density = 2.241685 g / cm^3
# Si number density = 22.467985 Si / 1000 Ang^3
#
#
#
# Elastic Constant Matrix: (Units=GPa)
#
#
# Indices 1 2 3 4 5 6 
#
# 1 81.1048 26.2032 30.6773 -2.6759 26.1826 -3.8310
# 2 26.2032 68.8581 26.1988 -5.1358 -1.9244 -17.8283
# 3 30.6773 26.1988 103.8969 -15.1849 18.1038 -1.1225
# 4 -2.6759 -5.1358 -15.1849 27.5310 -5.4249 4.9877
# 5 26.1826 -1.9244 18.1038 -5.4249 38.7771 1.2109
# 6 -3.8310 -17.8283 -1.1225 4.9877 1.2109 30.6343
#
#
#
# Elastic Compliance Matrix: (Units=1/GPa)
#
#
# Indices 1 2 3 4 5 6 
#
# 1 0.019604 -0.007517 -0.002075 -0.003030 -0.013034 -0.000991
# 2 -0.007517 0.022394 -0.004650 0.000377 0.008051 0.011543
# 3 -0.002075 -0.004650 0.012920 0.005878 -0.003936 -0.003294
# 4 -0.003030 0.000377 0.005878 0.041655 0.005365 -0.006938
# 5 -0.013034 0.008051 -0.003936 0.005365 0.037560 0.000553
# 6 -0.000991 0.011543 -0.003294 -0.006938 0.000553 0.040224
#
#
# Mechanical properties :
#
#
# Convention : Reuss Voigt Hill
#
# Bulk Modulus (GPa) = 37.83258 46.66869 42.25064
# Shear Modulus (GPa) = 23.62352 30.77385 27.19869
#
# Velocity S-wave (km/s) = 3.24609 3.70493 3.48307
# Velocity P-wave (km/s) = 5.56098 6.25446 5.91789
#
# Compressibility (1/GPa) = 0.02643224
#
# Stress axis : x y z
#
# Youngs Moduli (GPa) = 51.00888 44.65418 77.40133
#
# Poissons Ratio (x) = 0.33569 0.16063
# Poissons Ratio (y) = 0.38346 0.35994
# Poissons Ratio (z) = 0.10586 0.20766
#
# Static dielectric constant tensor:
#      x y z
#    x 3.077670 1.856000 -0.730100 
#    y 1.856000 -1.992970 2.545130 
#    z -0.730100 2.545130 2.767960 
# 
# 
# High freq. dielectric constant tensor:
#      x y z
#    x 1.884280 0.001060 0.025580 
#    y 0.001060 1.874680 -0.012120 
#    z 0.025580 -0.012120 1.891280 
# 
# From -- ./inp_files/505281.got.cif
#   From: 2010.06.25/outbox.cif.g09.slc.cpg/sg2_253_cif.got.tgz:505281.got - 2010.06.27 13:26:56.
