data_PCOD8000515
_publ_section_title
;
Structure prediction by ZEFSAII (Michael W. Deem and Ramdas Pophale) SiO2 
 PCOD8000515
Probable space group: P -1
;
_chemical_formula_sum "Si O2"
_cell_formula_units_Z 14
_cell_length_a 13.313276
_cell_length_b 11.745625
_cell_length_c 8.512917
_cell_angle_alpha 141.978137
_cell_angle_beta 125.530963
_cell_angle_gamma 52.175600
_cell_volume 634.396133
_symmetry_space_group_name_H-M "P -1"
_symmetry_group_IT_number 2
_symmetry_cell_setting 'triclinic'
loop_
_space_group_symop_operation_xyz
x,y,z
-x,-y,-z
loop_
_atom_site_type_symbol
_atom_site_label
_atom_site_fract_x
_atom_site_fract_y
_atom_site_fract_z
Si Si1 0.947130 0.774140 0.083407
Si Si2 0.706258 0.713556 0.957355
Si Si3 0.125193 0.390309 0.712019
Si Si4 0.330462 0.575177 0.624499
Si Si5 0.359239 0.280698 0.590720
Si Si6 0.523108 0.126423 0.875893
Si Si7 0.950282 0.180957 0.440880
O O1 0.036944 0.753343 0.296798
O O2 0.949772 0.960882 0.190061
O O3 0.798271 0.794965 0.017425
O O4 0.005039 0.590389 0.820802
O O5 0.639251 0.575964 0.655690
O O6 0.788065 0.590094 0.039904
O O7 0.588829 0.886337 0.116805
O O8 0.210049 0.354196 0.592631
O O9 0.072463 0.205297 0.481772
O O10 0.380365 0.457373 0.702726
O O11 0.176717 0.677899 0.601603
O O12 0.400005 0.736856 0.833790
O O13 0.462570 0.222679 0.761176
O O14 0.379779 0.090676 0.293383
#
# Coordination Sequence:
#
# PCOD8000515 Si02
#       7
#     2   2   2   2   2   2   2
#     4  10  19  39  63  91 124 156 194 244 305 360
#     4  10  20  40  66  89 120 155 200 254 297 343
#     4  10  19  42  63  86 125 161 194 240 301 367
#     4  12  22  39  63  96 119 151 206 255 294 348
#     4  10  25  43  62  83 123 169 196 241 304 355
#     4  10  24  45  60  86 122 162 204 243 297 363
#     4  10  21  35  63  97 120 153 198 248 303 352
#
# _framework density 22.068231999999998
#
# number of rings (size 3 to 8) (size 9 to 14) (size 15 to 20)
#    0.000    1.714    2.857    1.714    2.000    2.286 
#    2.571    5.714    0.000    0.000    0.000    0.000 
#    0.000    0.000    0.000    0.000    0.000    0.000 
#
# Total GULP energy -173585.967314 kJ/mol
# GULP energy per Si atom -12398.997665 kJ/mol
# Density = 2.201800 g / cm^3
# Si number density = 22.068232 Si / 1000 Ang^3
#
#
#
# Elastic Constant Matrix: (Units=GPa)
#
#
# Indices 1 2 3 4 5 6 
#
# 1 128.0968 27.7573 55.1305 26.7225 -15.6067 -11.4874
# 2 27.7573 74.1028 21.7947 13.9375 -3.2561 -1.7497
# 3 55.1305 21.7947 106.0307 23.4825 7.4991 -6.7650
# 4 26.7225 13.9375 23.4825 33.4492 -4.8526 6.5353
# 5 -15.6067 -3.2561 7.4991 -4.8526 29.9057 9.1678
# 6 -11.4874 -1.7497 -6.7650 6.5353 9.1678 13.8347
#
#
#
# Elastic Compliance Matrix: (Units=1/GPa)
#
#
# Indices 1 2 3 4 5 6 
#
# 1 0.013012 -0.001701 -0.004080 -0.008455 0.003008 0.010595
# 2 -0.001701 0.015398 -0.000906 -0.005110 -0.000730 0.002989
# 3 -0.004080 -0.000906 0.018031 -0.016145 -0.016736 0.024032
# 4 -0.008455 -0.005110 -0.016145 0.067940 0.031013 -0.068207
# 5 0.003008 -0.000730 -0.016736 0.031013 0.063274 -0.062358
# 6 0.010595 0.002989 0.024032 -0.068207 -0.062358 0.166751
#
#
# Mechanical properties :
#
#
# Convention : Reuss Voigt Hill
#
# Bulk Modulus (GPa) = 30.24234 57.51057 43.87645
# Shear Modulus (GPa) = 13.55730 29.00778 21.28254
#
# Velocity S-wave (km/s) = 2.48127 3.62948 3.10884
# Velocity P-wave (km/s) = 4.68430 6.60917 5.72817
#
# Compressibility (1/GPa) = 0.03306623
#
# Stress axis : x y z
#
# Youngs Moduli (GPa) = 76.85411 64.94210 55.45860
#
# Poissons Ratio (x) = 0.11048 0.22627
# Poissons Ratio (y) = 0.13075 0.05027
# Poissons Ratio (z) = 0.31356 0.05887
#
# Static dielectric constant tensor:
#      x y z
#    x 3.911720 -0.128270 -0.018350 
#    y -0.128270 3.862060 0.061970 
#    z -0.018350 0.061970 3.952400 
# 
# 
# High freq. dielectric constant tensor:
#      x y z
#    x 1.863010 -0.007710 0.003920 
#    y -0.007710 1.865440 -0.001660 
#    z 0.003920 -0.001660 1.862230 
# 
# From -- ./inp_files/88997.got.cif
#   From: 2010.06.25/outbox.cif.g09.slc.cpg/sg2_45_cif.got.tgz:88997.got - 2010.06.27 13:26:56.
