data_PCOD8000705
_publ_section_title
;
Structure prediction by ZEFSAII (Michael W. Deem and Ramdas Pophale) SiO2 
 PCOD8000705
Probable space group: P -1
;
_chemical_formula_sum "Si O2"
_cell_formula_units_Z 14
_cell_length_a 12.537523
_cell_length_b 18.273019
_cell_length_c 9.098245
_cell_angle_alpha 40.584697
_cell_angle_beta 128.299924
_cell_angle_gamma 149.285500
_cell_volume 689.163018
_symmetry_space_group_name_H-M "P -1"
_symmetry_group_IT_number 2
_symmetry_cell_setting 'triclinic'
loop_
_space_group_symop_operation_xyz
x,y,z
-x,-y,-z
loop_
_atom_site_type_symbol
_atom_site_label
_atom_site_fract_x
_atom_site_fract_y
_atom_site_fract_z
Si Si1 0.454354 0.011395 0.105476
Si Si2 0.751775 0.350355 0.014891
Si Si3 0.315847 0.443193 0.343816
Si Si4 0.930343 0.098842 0.150534
Si Si5 0.339030 0.482004 0.962940
Si Si6 0.082892 0.952799 0.442792
Si Si7 0.540804 0.201483 0.375892
O O1 0.663740 0.204165 0.048208
O O2 0.393431 0.866672 0.373436
O O3 0.500000 0.000000 0.000000
O O4 0.264357 0.980562 0.990488
O O5 0.648905 0.258144 0.224356
O O6 0.699709 0.442737 0.774839
O O7 0.000000 0.500000 0.000000
O O8 0.500000 0.500000 0.500000
O O9 0.098511 0.239254 0.486348
O O10 0.374582 0.488209 0.155811
O O11 0.862858 0.035999 0.357352
O O12 0.015080 0.039616 0.235978
O O13 0.106154 0.305777 0.980849
O O14 0.378300 0.636219 0.716866
O O15 0.500000 0.500000 0.000000
O O16 0.289002 0.054826 0.367906
#
# Coordination Sequence:
#
# PCOD8000705 Si02
#       7
#     2   2   2   2   2   2   2
#     4  12  25  42  67  98 126 166 229 268 313 388
#     4  11  26  47  63  89 138 177 207 265 338 387
#     4  10  22  40  65  90 124 168 219 260 316 383
#     4  10  21  38  64  96 130 162 211 271 315 370
#     4  10  21  40  62  93 129 165 209 264 325 373
#     4  10  19  39  68  91 126 172 209 263 327 374
#     4  11  23  42  66  92 129 175 214 261 333 390
#
# _framework density 20.314498
#
# number of rings (size 3 to 8) (size 9 to 14) (size 15 to 20)
#    0.000    1.429    2.857    2.143    4.000    1.714 
#    5.143    2.143    0.000    0.000    0.000    0.000 
#    0.000    0.000    0.000    0.000    0.000    0.000 
#
# Total GULP energy -173647.589569 kJ/mol
# GULP energy per Si atom -12403.399255 kJ/mol
# Density = 2.026826 g / cm^3
# Si number density = 20.314498 Si / 1000 Ang^3
#
#
#
# Elastic Constant Matrix: (Units=GPa)
#
#
# Indices 1 2 3 4 5 6 
#
# 1 114.2792 55.1397 52.8955 -5.2363 4.9154 10.1018
# 2 55.1397 135.7623 80.4022 -10.2529 5.8395 6.7436
# 3 52.8955 80.4022 127.5593 -8.8018 30.7868 7.8512
# 4 -5.2363 -10.2529 -8.8018 34.2102 4.0219 10.3962
# 5 4.9154 5.8395 30.7868 4.0219 34.1224 -5.8254
# 6 10.1018 6.7436 7.8512 10.3962 -5.8254 44.9579
#
#
#
# Elastic Compliance Matrix: (Units=1/GPa)
#
#
# Indices 1 2 3 4 5 6 
#
# 1 0.011718 -0.002702 -0.003408 0.000388 0.001544 -0.001522
# 2 -0.002702 0.013435 -0.008876 0.000335 0.006208 0.000869
# 3 -0.003408 -0.008876 0.019658 0.005354 -0.017177 -0.004800
# 4 0.000388 0.000335 0.005354 0.035288 -0.010921 -0.010648
# 5 0.001544 0.006208 -0.017177 -0.010921 0.046562 0.010280
# 6 -0.001522 0.000869 -0.004800 -0.010648 0.010280 0.027087
#
#
# Mechanical properties :
#
#
# Convention : Reuss Voigt Hill
#
# Bulk Modulus (GPa) = 67.39477 83.83061 75.61269
# Shear Modulus (GPa) = 26.50168 35.26899 30.88534
#
# Velocity S-wave (km/s) = 3.61580 4.17123 3.90341
# Velocity P-wave (km/s) = 7.11897 8.03461 7.59061
#
# Compressibility (1/GPa) = 0.01483795
#
# Stress axis : x y z
#
# Youngs Moduli (GPa) = 85.34124 74.42989 50.86982
#
# Poissons Ratio (x) = 0.20115 0.17335
# Poissons Ratio (y) = 0.23063 0.45154
# Poissons Ratio (z) = 0.29082 0.66067
#
# Static dielectric constant tensor:
#      x y z
#    x 5.187180 -0.237990 -0.061670 
#    y -0.237990 3.839640 -0.090490 
#    z -0.061670 -0.090490 3.847130 
# 
# 
# High freq. dielectric constant tensor:
#      x y z
#    x 1.801350 0.004440 0.017260 
#    y 0.004440 1.798840 -0.017760 
#    z 0.017260 -0.017760 1.795130 
# 
# From -- ./inp_files/176759.got.cif
#   From: 2010.06.25/outbox.cif.g09.slc.cpg/sg2_89_cif.got.tgz:176759.got - 2010.06.27 13:26:56.
