data_PCOD8000972
_publ_section_title
;
Structure prediction by ZEFSAII (Michael W. Deem and Ramdas Pophale) SiO2 
 PCOD8000972
Probable space group: P -1
;
_chemical_formula_sum "Si O2"
_cell_formula_units_Z 16
_cell_length_a 16.257944
_cell_length_b 8.908587
_cell_length_c 9.423738
_cell_angle_alpha 102.918430
_cell_angle_beta 46.674480
_cell_angle_gamma 73.716185
_cell_volume 765.535114
_symmetry_space_group_name_H-M "P -1"
_symmetry_group_IT_number 2
_symmetry_cell_setting 'triclinic'
loop_
_space_group_symop_operation_xyz
x,y,z
-x,-y,-z
loop_
_atom_site_type_symbol
_atom_site_label
_atom_site_fract_x
_atom_site_fract_y
_atom_site_fract_z
Si Si1 0.373157 0.008943 0.819812
Si Si2 0.671116 0.443906 0.931418
Si Si3 0.664597 0.241906 0.642529
Si Si4 0.881119 0.506619 0.062293
Si Si5 0.868286 0.558591 0.763906
Si Si6 0.643962 0.950329 0.473687
Si Si7 0.148983 0.797909 0.824170
Si Si8 0.361043 0.688001 0.776782
O O1 0.391626 0.953463 0.619240
O O2 0.494197 0.024386 0.736916
O O3 0.393647 0.827917 0.836390
O O4 0.220956 0.210269 0.072209
O O5 0.708441 0.264939 0.751267
O O6 0.775593 0.500440 0.786253
O O7 0.505536 0.623331 0.145446
O O8 0.696349 0.379877 0.050889
O O9 0.743008 0.297421 0.457310
O O10 0.717940 0.022384 0.498191
O O11 0.734669 0.719942 0.303024
O O12 0.872793 0.351928 0.118411
O O13 0.917120 0.462634 0.842820
O O14 0.000000 0.500000 0.000000
O O15 0.000000 0.500000 0.500000
O O16 0.229892 0.829082 0.854568
O O17 0.000000 0.000000 0.000000
O O18 0.500000 0.500000 0.500000
#
# Coordination Sequence:
#
# PCOD8000972 Si02
#       8
#     2   2   2   2   2   2   2   2
#     4  10  21  37  69 100 125 167 232 278 340 400
#     4  11  24  44  68  99 138 180 229 279 347 415
#     4  11  23  43  69  99 140 177 223 289 347 400
#     4  11  25  42  68  98 132 179 233 277 342 415
#     4  11  25  46  67  96 142 185 221 283 351 411
#     4  10  19  40  67  96 129 169 221 289 331 397
#     4  12  25  42  69 101 139 176 228 286 340 410
#     4  12  22  43  71 101 130 178 239 284 337 414
#
# _framework density 20.900414000000001
#
# number of rings (size 3 to 8) (size 9 to 14) (size 15 to 20)
#    0.000    1.000    5.000    1.500    5.250    0.000 
#    4.500    1.875    0.000    0.000    0.000    0.000 
#    0.000    0.000    0.000    0.000    0.000    0.000 
#
# Total GULP energy -198344.129557 kJ/mol
# GULP energy per Si atom -12396.508097 kJ/mol
# Density = 2.085284 g / cm^3
# Si number density = 20.900414 Si / 1000 Ang^3
#
#
#
# Elastic Constant Matrix: (Units=GPa)
#
#
# Indices 1 2 3 4 5 6 
#
# 1 113.2077 38.4854 54.3754 -5.1390 -3.6925 8.9024
# 2 38.4854 132.9059 55.4703 -7.1129 -4.5423 18.8192
# 3 54.3754 55.4703 121.5461 -19.6131 -6.7390 12.0291
# 4 -5.1390 -7.1129 -19.6131 30.0818 6.7550 -3.8301
# 5 -3.6925 -4.5423 -6.7390 6.7550 35.3712 0.4152
# 6 8.9024 18.8192 12.0291 -3.8301 0.4152 38.7862
#
#
#
# Elastic Compliance Matrix: (Units=1/GPa)
#
#
# Indices 1 2 3 4 5 6 
#
# 1 0.011555 -0.001348 -0.004720 -0.001612 0.000450 -0.000698
# 2 -0.001348 0.009917 -0.003686 -0.000872 0.000637 -0.003452
# 3 -0.004720 -0.003686 0.013186 0.006792 0.000255 -0.000549
# 4 -0.001612 -0.000872 0.006792 0.038971 -0.006459 0.002604
# 5 0.000450 0.000637 0.000255 -0.006459 0.029700 -0.001448
# 6 -0.000698 -0.003452 -0.000549 0.002604 -0.001448 0.028061
#
#
# Mechanical properties :
#
#
# Convention : Reuss Voigt Hill
#
# Bulk Modulus (GPa) = 66.01282 73.81352 69.91317
# Shear Modulus (GPa) = 32.06182 35.46975 33.76579
#
# Velocity S-wave (km/s) = 3.92092 4.12404 4.02376
# Velocity P-wave (km/s) = 7.22157 7.62039 7.42366
#
# Compressibility (1/GPa) = 0.01514857
#
# Stress axis : x y z
#
# Youngs Moduli (GPa) = 86.54106 100.83713 75.83849
#
# Poissons Ratio (x) = 0.13592 0.35798
# Poissons Ratio (y) = 0.11665 0.27958
# Poissons Ratio (z) = 0.40850 0.37173
#
# Static dielectric constant tensor:
#      x y z
#    x 3.982880 -0.273990 -0.215730 
#    y -0.273990 3.400110 0.008690 
#    z -0.215730 0.008690 3.892220 
# 
# 
# High freq. dielectric constant tensor:
#      x y z
#    x 1.819360 0.019330 -0.010160 
#    y 0.019330 1.822620 -0.003120 
#    z -0.010160 -0.003120 1.810510 
# 
# From -- ./inp_files/297972.got.cif
#   From: 2010.06.25/outbox.cif.g09.slc.cpg/sg2_149_cif.got.tgz:297972.got - 2010.06.27 13:26:56.
