data_PCOD8000593
_publ_section_title
;
Structure prediction by ZEFSAII (Michael W. Deem and Ramdas Pophale) SiO2 
 PCOD8000593
Probable space group: P -1
;
_chemical_formula_sum "Si O2"
_cell_formula_units_Z 16
_cell_length_a 27.178124
_cell_length_b 12.407824
_cell_length_c 8.864976
_cell_angle_alpha 149.243083
_cell_angle_beta 36.432713
_cell_angle_gamma 151.752942
_cell_volume 709.444023
_symmetry_space_group_name_H-M "P -1"
_symmetry_group_IT_number 2
_symmetry_cell_setting 'triclinic'
loop_
_space_group_symop_operation_xyz
x,y,z
-x,-y,-z
loop_
_atom_site_type_symbol
_atom_site_label
_atom_site_fract_x
_atom_site_fract_y
_atom_site_fract_z
Si Si1 0.274971 0.397388 0.028811
Si Si2 0.071842 0.017723 0.475447
Si Si3 0.602356 0.997695 0.613386
Si Si4 0.929875 0.751689 0.763189
Si Si5 0.344599 0.108199 0.342295
Si Si6 0.714969 0.806930 0.947419
Si Si7 0.799739 0.486285 0.036945
Si Si8 0.384940 0.489187 0.463578
O O1 0.151698 0.254510 0.148822
O O2 0.304098 0.410562 0.147774
O O3 0.356609 0.698657 0.123989
O O4 0.279923 0.186379 0.677129
O O5 0.161410 0.999528 0.173456
O O6 0.122394 0.306182 0.776559
O O7 0.000000 0.000000 0.500000
O O8 0.008035 0.779555 0.475473
O O9 0.586510 0.904810 0.716621
O O10 0.487906 0.801883 0.580959
O O11 0.688661 0.992883 0.306395
O O12 0.859876 0.500827 0.751705
O O13 0.000000 0.000000 0.000000
O O14 0.412503 0.330068 0.310468
O O15 0.263693 0.816909 0.110331
O O16 0.635496 0.632236 0.797812
O O17 0.717887 0.545000 0.264662
#
# Coordination Sequence:
#
# PCOD8000593 Si02
#       8
#     2   2   2   2   2   2   2   2
#     4  11  22  42  64  89 133 162 208 263 301 374
#     4  10  20  39  68  92 124 162 207 256 312 369
#     4  11  24  41  65  92 125 171 209 253 316 362
#     4  10  19  39  65  88 126 162 200 261 313 361
#     4  11  22  40  64  93 129 159 210 255 312 364
#     4  10  24  41  63  91 127 166 207 259 306 378
#     4  10  22  40  65  95 126 162 204 257 313 370
#     4  11  23  41  64  93 130 163 207 259 309 375
#
# _framework density 22.552873000000002
#
# number of rings (size 3 to 8) (size 9 to 14) (size 15 to 20)
#    0.000    1.500    3.750    0.750    0.000    6.500 
#    0.000    4.375    2.750    0.000    0.000    0.000 
#    0.000    0.000    0.000    0.000    0.000    0.000 
#
# Total GULP energy -198252.918779 kJ/mol
# GULP energy per Si atom -12390.807424 kJ/mol
# Density = 2.250154 g / cm^3
# Si number density = 22.552873 Si / 1000 Ang^3
#
#
#
# Elastic Constant Matrix: (Units=GPa)
#
#
# Indices 1 2 3 4 5 6 
#
# 1 95.1482 27.0629 21.0106 -7.6933 15.1080 -5.8191
# 2 27.0629 75.3071 25.3268 -4.9939 -0.8100 2.3037
# 3 21.0106 25.3268 61.4642 5.5157 10.3724 -3.5543
# 4 -7.6933 -4.9939 5.5157 32.6305 -4.7220 -1.8105
# 5 15.1080 -0.8100 10.3724 -4.7220 26.1198 2.0229
# 6 -5.8191 2.3037 -3.5543 -1.8105 2.0229 35.4257
#
#
#
# Elastic Compliance Matrix: (Units=1/GPa)
#
#
# Indices 1 2 3 4 5 6 
#
# 1 0.013592 -0.004373 -0.001632 0.001925 -0.007223 0.002864
# 2 -0.004373 0.017795 -0.007521 0.003816 0.006978 -0.002834
# 3 -0.001632 -0.007521 0.022274 -0.006531 -0.009521 0.002666
# 4 0.001925 0.003816 -0.006531 0.033939 0.007679 0.000709
# 5 -0.007223 0.006978 -0.009521 0.007679 0.048233 -0.004957
# 6 0.002864 -0.002834 0.002666 0.000709 -0.004957 0.029470
#
#
# Mechanical properties :
#
#
# Convention : Reuss Voigt Hill
#
# Bulk Modulus (GPa) = 37.58448 42.08003 39.83225
# Shear Modulus (GPa) = 24.84788 29.40315 27.12552
#
# Velocity S-wave (km/s) = 3.32288 3.61466 3.47183
# Velocity P-wave (km/s) = 5.60565 6.00998 5.81133
#
# Compressibility (1/GPa) = 0.02660673
#
# Stress axis : x y z
#
# Youngs Moduli (GPa) = 73.57303 56.19592 44.89554
#
# Poissons Ratio (x) = 0.24575 0.07329
# Poissons Ratio (y) = 0.32175 0.33768
# Poissons Ratio (z) = 0.12010 0.42267
#
# Static dielectric constant tensor:
#      x y z
#    x 4.364620 -0.188840 0.188560 
#    y -0.188840 4.559670 -0.172470 
#    z 0.188560 -0.172470 3.894340 
# 
# 
# High freq. dielectric constant tensor:
#      x y z
#    x 1.899150 0.006120 0.021740 
#    y 0.006120 1.893100 -0.009920 
#    z 0.021740 -0.009920 1.868310 
# 
# From -- ./inp_files/107068.got.cif
#   From: 2010.06.25/outbox.cif.g09.slc.cpg/sg2_54_cif.got.tgz:107068.got - 2010.06.27 13:26:56.
