data_PCOD8000532
_publ_section_title
;
Structure prediction by ZEFSAII (Michael W. Deem and Ramdas Pophale) SiO2 
 PCOD8000532
Probable space group: P -1
;
_chemical_formula_sum "Si O2"
_cell_formula_units_Z 14
_cell_length_a 9.045849
_cell_length_b 9.495142
_cell_length_c 25.347346
_cell_angle_alpha 26.554417
_cell_angle_beta 49.705990
_cell_angle_gamma 45.688036
_cell_volume 694.801653
_symmetry_space_group_name_H-M "P -1"
_symmetry_group_IT_number 2
_symmetry_cell_setting 'triclinic'
loop_
_space_group_symop_operation_xyz
x,y,z
-x,-y,-z
loop_
_atom_site_type_symbol
_atom_site_label
_atom_site_fract_x
_atom_site_fract_y
_atom_site_fract_z
Si Si1 0.141547 0.697348 0.033102
Si Si2 0.958618 0.332113 0.119106
Si Si3 0.651868 0.279989 0.743710
Si Si4 0.586422 0.172629 0.624371
Si Si5 0.469307 0.909812 0.835081
Si Si6 0.439290 0.780047 0.714896
Si Si7 0.772466 0.537379 0.527566
O O1 0.986621 0.544412 0.091759
O O2 0.323855 0.414817 0.118560
O O3 0.261816 0.827130 0.916975
O O4 0.000000 0.000000 0.000000
O O5 0.729016 0.312727 0.180143
O O6 0.118423 0.954049 0.214497
O O7 0.000000 0.500000 0.000000
O O8 0.551387 0.471020 0.755367
O O9 0.656891 0.532194 0.610995
O O10 0.515535 0.061533 0.828766
O O11 0.500000 0.500000 0.500000
O O12 0.782547 0.214070 0.596268
O O13 0.426396 0.169925 0.709104
O O14 0.612264 0.847153 0.690818
O O15 0.337159 0.110445 0.593135
O O16 0.000000 0.500000 0.500000
#
# Coordination Sequence:
#
# PCOD8000532 Si02
#       7
#     2   2   2   2   2   2   2
#     4  10  20  35  57  82 106 147 194 227 270 329
#     4  11  23  36  55  83 118 151 186 233 281 328
#     4  10  21  37  59  85 110 151 192 228 283 338
#     4   9  20  36  59  83 114 150 179 227 290 330
#     4   9  19  37  56  78 115 146 182 234 275 325
#     4  11  21  37  61  84 115 149 186 233 283 335
#     4  10  19  39  64  82 113 148 187 235 281 335
#
# _framework density 20.149636000000001
#
# number of rings (size 3 to 8) (size 9 to 14) (size 15 to 20)
#    0.000    2.000    1.429    2.143    0.000    1.714 
#    0.000    0.714    3.143    0.000    0.000    0.000 
#    0.000    0.000    0.000    0.000    0.000    0.000 
#
# Total GULP energy -173465.324574 kJ/mol
# GULP energy per Si atom -12390.380327 kJ/mol
# Density = 2.010377 g / cm^3
# Si number density = 20.149636 Si / 1000 Ang^3
#
#
#
# Elastic Constant Matrix: (Units=GPa)
#
#
# Indices 1 2 3 4 5 6 
#
# 1 100.4841 50.2873 30.5895 -2.9994 -18.2625 9.7999
# 2 50.2873 123.2377 42.7724 -12.1450 -9.2766 17.6502
# 3 30.5895 42.7724 113.5159 17.6549 -3.9063 6.2750
# 4 -2.9994 -12.1450 17.6549 29.7440 7.3289 -6.0463
# 5 -18.2625 -9.2766 -3.9063 7.3289 32.2696 4.9460
# 6 9.7999 17.6502 6.2750 -6.0463 4.9460 24.9883
#
#
#
# Elastic Compliance Matrix: (Units=1/GPa)
#
#
# Indices 1 2 3 4 5 6 
#
# 1 0.014351 -0.004422 -0.001317 -0.002401 0.007898 -0.004318
# 2 -0.004422 0.012705 -0.004347 0.006428 -0.000137 -0.004565
# 3 -0.001317 -0.004347 0.012663 -0.010526 0.002327 -0.002600
# 4 -0.002401 0.006428 -0.010526 0.048407 -0.013848 0.013498
# 5 0.007898 -0.000137 0.002327 -0.013848 0.041158 -0.015082
# 6 -0.004318 -0.004565 -0.002600 0.013498 -0.015082 0.051841
#
#
# Mechanical properties :
#
#
# Convention : Reuss Voigt Hill
#
# Bulk Modulus (GPa) = 51.16343 64.94844 58.05593
# Shear Modulus (GPa) = 24.06002 31.63960 27.84981
#
# Velocity S-wave (km/s) = 3.45928 3.96691 3.72176
# Velocity P-wave (km/s) = 6.43446 7.29965 6.88067
#
# Compressibility (1/GPa) = 0.01954521
#
# Stress axis : x y z
#
# Youngs Moduli (GPa) = 69.68247 78.70979 78.96835
#
# Poissons Ratio (x) = 0.34809 0.10400
# Poissons Ratio (y) = 0.30817 0.34331
# Poissons Ratio (z) = 0.09177 0.34219
#
# Static dielectric constant tensor:
#      x y z
#    x 3.988480 0.305760 -0.313210 
#    y 0.305760 3.298290 0.178840 
#    z -0.313210 0.178840 3.701630 
# 
# 
# High freq. dielectric constant tensor:
#      x y z
#    x 1.796280 0.019340 -0.013200 
#    y 0.019340 1.751330 0.011730 
#    z -0.013200 0.011730 1.807080 
# 
# From -- ./inp_files/36844.got.cif
#   From: 2010.06.25/outbox.cif.g09.slc.cpg/sg2_19_cif.got.tgz:36844.got - 2010.06.27 13:26:56.
