data_PCOD8000894
_publ_section_title
;
Structure prediction by ZEFSAII (Michael W. Deem and Ramdas Pophale) SiO2 
 PCOD8000894
Probable space group: P -1
;
_chemical_formula_sum "Si O2"
_cell_formula_units_Z 16
_cell_length_a 11.428528
_cell_length_b 8.593992
_cell_length_c 13.976797
_cell_angle_alpha 129.462900
_cell_angle_beta 133.971024
_cell_angle_gamma 71.646821
_cell_volume 742.739852
_symmetry_space_group_name_H-M "P -1"
_symmetry_group_IT_number 2
_symmetry_cell_setting 'triclinic'
loop_
_space_group_symop_operation_xyz
x,y,z
-x,-y,-z
loop_
_atom_site_type_symbol
_atom_site_label
_atom_site_fract_x
_atom_site_fract_y
_atom_site_fract_z
Si Si1 0.712849 0.174230 0.930417
Si Si2 0.104451 0.878274 0.444508
Si Si3 0.590219 0.610001 0.454775
Si Si4 0.391363 0.200616 0.649994
Si Si5 0.312845 0.282258 0.242660
Si Si6 0.996615 0.522062 0.891738
Si Si7 0.227752 0.559718 0.749260
Si Si8 0.154018 0.627576 0.533550
O O1 0.532677 0.129960 0.762542
O O2 0.758559 0.961648 0.909640
O O3 0.845993 0.299734 0.980414
O O4 0.700674 0.298025 0.067395
O O5 0.223645 0.795426 0.556543
O O6 0.997558 0.691868 0.244590
O O7 0.220107 0.028850 0.494810
O O8 0.000000 0.000000 0.500000
O O9 0.552397 0.773050 0.419181
O O10 0.449771 0.392762 0.285130
O O11 0.591636 0.707429 0.597742
O O12 0.774520 0.575630 0.522919
O O13 0.361033 0.420553 0.753580
O O14 0.167320 0.406388 0.207730
O O15 0.000000 0.500000 0.000000
O O16 0.208594 0.702472 0.701538
O O17 0.044917 0.420552 0.613549
#
# Coordination Sequence:
#
# PCOD8000894 Si02
#       8
#     2   2   2   2   2   2   2   2
#     4  12  24  42  66 100 132 173 219 275 340 395
#     4  12  23  43  68 101 130 178 223 271 328 408
#     4  10  22  42  65  92 130 175 223 273 314 399
#     4  11  24  40  68  97 132 174 223 270 335 391
#     4  11  24  43  66  90 133 174 222 269 334 389
#     4  12  27  45  65  99 144 170 219 282 340 393
#     4  10  21  40  65  94 132 169 218 278 326 392
#     4  10  19  40  65  90 126 174 217 269 323 388
#
# _framework density 21.541861999999998
#
# number of rings (size 3 to 8) (size 9 to 14) (size 15 to 20)
#    0.000    1.000    3.750    2.250    3.500    1.500 
#    0.000    6.875    0.000    0.000    0.000    0.000 
#    0.000    0.000    0.000    0.000    0.000    0.000 
#
# Total GULP energy -198331.710791 kJ/mol
# GULP energy per Si atom -12395.731924 kJ/mol
# Density = 2.149283 g / cm^3
# Si number density = 21.541862 Si / 1000 Ang^3
#
#
#
# Elastic Constant Matrix: (Units=GPa)
#
#
# Indices 1 2 3 4 5 6 
#
# 1 90.4357 36.1103 34.7498 6.5072 -0.1533 20.9411
# 2 36.1103 103.4378 44.6692 7.4927 -11.1686 16.6531
# 3 34.7498 44.6692 70.5936 -0.7523 -0.7767 10.4946
# 4 6.5072 7.4927 -0.7523 30.5070 5.6120 4.8682
# 5 -0.1533 -11.1686 -0.7767 5.6120 35.6167 -3.3306
# 6 20.9411 16.6531 10.4946 4.8682 -3.3306 49.7985
#
#
#
# Elastic Compliance Matrix: (Units=1/GPa)
#
#
# Indices 1 2 3 4 5 6 
#
# 1 0.015184 -0.002179 -0.005478 -0.001990 -0.000832 -0.004364
# 2 -0.002179 0.015083 -0.008213 -0.004103 0.005032 -0.001659
# 3 -0.005478 -0.008213 0.022106 0.004282 -0.002812 -0.000215
# 4 -0.001990 -0.004103 0.004282 0.036060 -0.007136 -0.002696
# 5 -0.000832 0.005032 -0.002812 -0.007136 0.030904 0.002024
# 6 -0.004364 -0.001659 -0.000215 -0.002696 0.002024 0.022915
#
#
# Mechanical properties :
#
#
# Convention : Reuss Voigt Hill
#
# Bulk Modulus (GPa) = 48.46361 55.05840 51.76100
# Shear Modulus (GPa) = 27.64448 33.11364 30.37906
#
# Velocity S-wave (km/s) = 3.58619 3.92494 3.75938
# Velocity P-wave (km/s) = 6.30031 6.79371 6.55166
#
# Compressibility (1/GPa) = 0.02063404
#
# Stress axis : x y z
#
# Youngs Moduli (GPa) = 65.85704 66.30108 45.23734
#
# Poissons Ratio (x) = 0.14444 0.24780
# Poissons Ratio (y) = 0.14347 0.37154
# Poissons Ratio (z) = 0.36074 0.54454
#
# Static dielectric constant tensor:
#      x y z
#    x 4.069780 0.248440 -0.046910 
#    y 0.248440 4.134190 -0.052660 
#    z -0.046910 -0.052660 3.695570 
# 
# 
# High freq. dielectric constant tensor:
#      x y z
#    x 1.860330 0.010480 -0.002140 
#    y 0.010480 1.857320 -0.008420 
#    z -0.002140 -0.008420 1.821470 
# 
# From -- ./inp_files/262340.got.cif
#   From: 2010.06.25/outbox.cif.g09.slc.cpg/sg2_132_cif.got.tgz:262340.got - 2010.06.27 13:26:56.
