data_PCOD8000554
_publ_section_title
;
Structure prediction by ZEFSAII (Michael W. Deem and Ramdas Pophale) SiO2 
 PCOD8000554
Probable space group: P -1
;
_chemical_formula_sum "Si O2"
_cell_formula_units_Z 16
_cell_length_a 15.132292
_cell_length_b 21.399167
_cell_length_c 11.617676
_cell_angle_alpha 22.973544
_cell_angle_beta 39.596497
_cell_angle_gamma 29.267944
_cell_volume 707.307992
_symmetry_space_group_name_H-M "P -1"
_symmetry_group_IT_number 2
_symmetry_cell_setting 'triclinic'
loop_
_space_group_symop_operation_xyz
x,y,z
-x,-y,-z
loop_
_atom_site_type_symbol
_atom_site_label
_atom_site_fract_x
_atom_site_fract_y
_atom_site_fract_z
Si Si1 0.709840 0.141682 0.191128
Si Si2 0.239175 0.869258 0.420439
Si Si3 0.651418 0.653600 0.666756
Si Si4 0.193053 0.552601 0.918919
Si Si5 0.479115 0.899906 0.991474
Si Si6 0.140307 0.287080 0.149833
Si Si7 0.139146 0.788414 0.883835
Si Si8 0.530448 0.307020 0.854731
O O1 0.527068 0.300050 0.181673
O O2 0.859450 0.140972 0.107270
O O3 0.770792 0.910355 0.519488
O O4 0.676979 0.217362 0.963604
O O5 0.256744 0.684328 0.657243
O O6 0.420408 0.837711 0.266007
O O7 0.225029 0.856276 0.594249
O O8 0.064973 0.093374 0.159065
O O9 0.790475 0.570394 0.775909
O O10 0.745771 0.464405 0.800236
O O11 0.604889 0.860920 0.309420
O O12 0.335403 0.382753 0.966766
O O13 0.981446 0.711906 0.824904
O O14 0.395349 0.878018 0.998337
O O15 0.700290 0.735504 0.037798
O O16 0.000000 0.500000 0.000000
O O17 0.500000 0.500000 0.500000
#
# Coordination Sequence:
#
# PCOD8000554 Si02
#       8
#     2   2   2   2   2   2   2   2
#     4  10  22  39  67  96 123 175 222 256 317 406
#     4  10  21  39  69  92 127 172 216 273 312 388
#     4   9  22  37  64  92 127 171 212 270 316 381
#     4  10  19  39  64  90 128 176 209 247 332 392
#     4  11  23  40  62 100 132 162 216 270 333 367
#     4  11  22  37  64  98 133 169 213 264 324 396
#     4  10  20  42  68  90 123 176 231 252 320 387
#     4  11  22  39  66  95 133 167 209 271 330 385
#
# _framework density 22.620979999999999
#
# number of rings (size 3 to 8) (size 9 to 14) (size 15 to 20)
#    0.000    1.750    3.750    0.375    1.750    2.000 
#    0.000    6.250    0.000    0.000    0.000    0.000 
#    0.000    0.000    0.000    0.000    0.000    0.000 
#
# Total GULP energy -198369.209525 kJ/mol
# GULP energy per Si atom -12398.075595 kJ/mol
# Density = 2.256949 g / cm^3
# Si number density = 22.620980 Si / 1000 Ang^3
#
#
#
# Elastic Constant Matrix: (Units=GPa)
#
#
# Indices 1 2 3 4 5 6 
#
# 1 87.1220 18.0634 38.7755 6.5356 11.3359 -5.6622
# 2 18.0634 88.4028 43.1672 -4.8887 -5.5235 -7.0982
# 3 38.7755 43.1672 85.2260 -5.5914 -5.3860 -9.3992
# 4 6.5356 -4.8887 -5.5914 42.9861 1.5682 -5.7780
# 5 11.3359 -5.5235 -5.3860 1.5682 32.6427 -5.1906
# 6 -5.6622 -7.0982 -9.3992 -5.7780 -5.1906 30.6414
#
#
#
# Elastic Compliance Matrix: (Units=1/GPa)
#
#
# Indices 1 2 3 4 5 6 
#
# 1 0.016213 -0.000067 -0.008166 -0.003462 -0.007041 -0.001370
# 2 -0.000067 0.015185 -0.007306 0.000959 0.001614 0.001718
# 3 -0.008166 -0.007306 0.020230 0.003458 0.005501 0.004588
# 4 -0.003462 0.000959 0.003458 0.025048 0.001629 0.005642
# 5 -0.007041 0.001614 0.005501 0.001629 0.035303 0.007048
# 6 -0.001370 0.001718 0.004588 0.005642 0.007048 0.036446
#
#
# Mechanical properties :
#
#
# Convention : Reuss Voigt Hill
#
# Bulk Modulus (GPa) = 48.66181 51.19589 49.92885
# Shear Modulus (GPa) = 26.83086 31.97035 29.40060
#
# Velocity S-wave (km/s) = 3.44772 3.76347 3.60905
# Velocity P-wave (km/s) = 6.11617 6.44718 6.28386
#
# Compressibility (1/GPa) = 0.02055000
#
# Stress axis : x y z
#
# Youngs Moduli (GPa) = 61.67828 65.85388 49.43159
#
# Poissons Ratio (x) = 0.00440 0.40365
# Poissons Ratio (y) = 0.00412 0.36117
# Poissons Ratio (z) = 0.50366 0.48116
#
# Static dielectric constant tensor:
#      x y z
#    x 4.317140 -0.120120 0.227530 
#    y -0.120120 4.078680 -0.251570 
#    z 0.227530 -0.251570 3.968460 
# 
# 
# High freq. dielectric constant tensor:
#      x y z
#    x 1.888100 0.005270 0.002100 
#    y 0.005270 1.881540 -0.023680 
#    z 0.002100 -0.023680 1.879030 
# 
# From -- ./inp_files/467308.got.cif
#   From: 2010.06.25/outbox.cif.g09.slc.cpg/sg2_234_cif.got.tgz:467308.got - 2010.06.27 13:26:56.
