data_PCOD8000787
_publ_section_title
;
Structure prediction by ZEFSAII (Michael W. Deem and Ramdas Pophale) SiO2 
 PCOD8000787
Probable space group: P -1
;
_chemical_formula_sum "Si O2"
_cell_formula_units_Z 16
_cell_length_a 16.511744
_cell_length_b 8.513646
_cell_length_c 11.330818
_cell_angle_alpha 104.074369
_cell_angle_beta 34.714775
_cell_angle_gamma 118.806584
_cell_volume 756.619515
_symmetry_space_group_name_H-M "P -1"
_symmetry_group_IT_number 2
_symmetry_cell_setting 'triclinic'
loop_
_space_group_symop_operation_xyz
x,y,z
-x,-y,-z
loop_
_atom_site_type_symbol
_atom_site_label
_atom_site_fract_x
_atom_site_fract_y
_atom_site_fract_z
Si Si1 0.222037 0.559998 0.560665
Si Si2 0.881320 0.007809 0.739684
Si Si3 0.627230 0.492329 0.185336
Si Si4 0.220786 0.822400 0.803361
Si Si5 0.860823 0.347171 0.878908
Si Si6 0.465470 0.372038 0.905619
Si Si7 0.922151 0.829232 0.234450
Si Si8 0.330851 0.198705 0.636797
O O1 0.259404 0.696250 0.650153
O O2 0.378443 0.659633 0.302759
O O3 0.210305 0.367916 0.583603
O O4 0.050577 0.514038 0.697595
O O5 0.861109 0.187705 0.766447
O O6 0.961872 0.024297 0.775976
O O7 0.000000 0.000000 0.500000
O O8 0.702582 0.823746 0.912879
O O9 0.540258 0.518358 0.181920
O O10 0.498938 0.319433 0.387160
O O11 0.708566 0.678426 0.203171
O O12 0.763772 0.445438 0.962973
O O13 0.348758 0.042293 0.660407
O O14 0.233413 0.763971 0.909876
O O15 0.036391 0.789331 0.002034
O O16 0.500000 0.500000 0.000000
O O17 0.822273 0.903186 0.291329
#
# Coordination Sequence:
#
# PCOD8000787 Si02
#       8
#     2   2   2   2   2   2   2   2
#     4  10  20  38  64  91 128 170 212 262 320 378
#     4  10  23  43  70  93 123 173 219 265 318 386
#     4  11  24  40  63  97 135 169 213 266 325 377
#     4  10  20  33  62  92 130 169 211 253 324 381
#     4  10  22  41  63  94 133 169 214 264 318 384
#     4  12  25  45  68  92 126 174 220 263 322 381
#     4  10  19  40  60  95 132 173 208 263 324 383
#     4  11  22  36  62  99 139 167 210 269 322 383
#
# _framework density 21.146692999999999
#
# number of rings (size 3 to 8) (size 9 to 14) (size 15 to 20)
#    0.000    1.750    1.250    6.375    3.500    1.500 
#    0.000    4.375    0.000    0.000    0.000    0.000 
#    0.000    0.000    0.000    0.000    0.000    0.000 
#
# Total GULP energy -198341.272717 kJ/mol
# GULP energy per Si atom -12396.329545 kJ/mol
# Density = 2.109856 g / cm^3
# Si number density = 21.146693 Si / 1000 Ang^3
#
#
#
# Elastic Constant Matrix: (Units=GPa)
#
#
# Indices 1 2 3 4 5 6 
#
# 1 68.6678 18.9642 23.3163 4.0927 -11.1610 14.9160
# 2 18.9642 90.8755 41.5214 0.3587 -3.6357 23.3019
# 3 23.3163 41.5214 127.3222 9.3331 3.9484 15.8667
# 4 4.0927 0.3587 9.3331 43.5148 -0.5513 3.5534
# 5 -11.1610 -3.6357 3.9484 -0.5513 19.0500 6.8412
# 6 14.9160 23.3019 15.8667 3.5534 6.8412 28.4205
#
#
#
# Elastic Compliance Matrix: (Units=1/GPa)
#
#
# Indices 1 2 3 4 5 6 
#
# 1 0.021723 0.001732 -0.003196 0.000157 0.019370 -0.015719
# 2 0.001732 0.016985 -0.004444 0.002025 0.010687 -0.015180
# 3 -0.003196 -0.004444 0.010044 -0.001985 -0.005305 0.001239
# 4 0.000157 0.002025 -0.001985 0.023771 0.003145 -0.004364
# 5 0.019370 0.010687 -0.005305 0.003145 0.079850 -0.035581
# 6 -0.015719 -0.015180 0.001239 -0.004364 -0.035581 0.064300
#
#
# Mechanical properties :
#
#
# Convention : Reuss Voigt Hill
#
# Bulk Modulus (GPa) = 27.07439 50.49657 38.78548
# Shear Modulus (GPa) = 20.76385 31.73463 26.24924
#
# Velocity S-wave (km/s) = 3.13692 3.87808 3.52702
# Velocity P-wave (km/s) = 5.09424 6.63202 5.91333
#
# Compressibility (1/GPa) = 0.03693527
#
# Stress axis : x y z
#
# Youngs Moduli (GPa) = 46.03379 58.87470 99.55727
#
# Poissons Ratio (x) = -0.10197 0.31821
# Poissons Ratio (y) = -0.07973 0.44248
# Poissons Ratio (z) = 0.14714 0.26167
#
# Static dielectric constant tensor:
#      x y z
#    x 3.656220 0.041230 -0.118230 
#    y 0.041230 3.865830 -0.012800 
#    z -0.118230 -0.012800 4.016230 
# 
# 
# High freq. dielectric constant tensor:
#      x y z
#    x 1.801780 0.005320 -0.014640 
#    y 0.005320 1.826760 -0.003030 
#    z -0.014640 -0.003030 1.841560 
# 
# From -- ./inp_files/176062.got.cif
#   From: 2010.06.25/outbox.cif.g09.slc.cpg/sg2_89_cif.got.tgz:176062.got - 2010.06.27 13:26:56.
