data_PCOD8000307
_publ_section_title
;
Structure prediction by ZEFSAII (Michael W. Deem and Ramdas Pophale) SiO2 
 PCOD8000307
Probable space group: P -1
;
_chemical_formula_sum "Si O2"
_cell_formula_units_Z 12
_cell_length_a 9.600160
_cell_length_b 10.098929
_cell_length_c 14.106764
_cell_angle_alpha 135.047438
_cell_angle_beta 142.541334
_cell_angle_gamma 43.634321
_cell_volume 544.320855
_symmetry_space_group_name_H-M "P -1"
_symmetry_group_IT_number 2
_symmetry_cell_setting 'triclinic'
loop_
_space_group_symop_operation_xyz
x,y,z
-x,-y,-z
loop_
_atom_site_type_symbol
_atom_site_label
_atom_site_fract_x
_atom_site_fract_y
_atom_site_fract_z
Si Si1 0.602294 0.946923 0.374237
Si Si2 0.044982 0.074953 0.164388
Si Si3 0.373549 0.792594 0.650139
Si Si4 0.018246 0.058428 0.743656
Si Si5 0.758685 0.506829 0.172416
Si Si6 0.873994 0.425477 0.729066
O O1 0.766170 0.026585 0.569292
O O2 0.717982 0.705010 0.311889
O O3 0.331975 0.023843 0.312390
O O4 0.583866 0.036132 0.303342
O O5 0.938316 0.967832 0.133224
O O6 0.904124 0.315602 0.219881
O O7 0.000000 0.000000 0.000000
O O8 0.630769 0.613658 0.723033
O O9 0.188016 0.708882 0.453557
O O10 0.250685 0.893052 0.732736
O O11 0.983724 0.285589 0.809445
O O12 0.920103 0.497147 0.160539
O O13 0.500000 0.500000 0.000000
#
# Coordination Sequence:
#
# PCOD8000307 Si02
#       6
#     2   2   2   2   2   2
#     4  11  21  42  69  98 131 170 216 268 328 386
#     4  12  27  44  61  95 139 177 214 265 332 388
#     4  10  19  38  71  99 130 164 215 278 320 378
#     4  11  23  41  70 101 126 167 225 275 314 384
#     4  12  23  41  68  90 134 180 207 259 335 391
#     4  10  20  39  68 100 129 168 216 266 330 382
#
# _framework density 22.045819999999999
#
# number of rings (size 3 to 8) (size 9 to 14) (size 15 to 20)
#    0.000    1.000    6.667    1.500    0.000    2.000 
#    0.000    4.167    0.000    0.000    0.000    0.000 
#    0.000    0.000    0.000    0.000    0.000    0.000 
#
# Total GULP energy -148866.038293 kJ/mol
# GULP energy per Si atom -12405.503191 kJ/mol
# Density = 2.199564 g / cm^3
# Si number density = 22.045820 Si / 1000 Ang^3
#
#
#
# Elastic Constant Matrix: (Units=GPa)
#
#
# Indices 1 2 3 4 5 6 
#
# 1 150.1606 62.4874 23.7744 -19.2849 3.7812 16.5049
# 2 62.4874 169.7021 14.8085 -5.3108 -1.8712 5.4044
# 3 23.7744 14.8085 28.2720 -0.7785 6.3998 5.4117
# 4 -19.2849 -5.3108 -0.7785 17.8606 0.6238 3.7982
# 5 3.7812 -1.8712 6.3998 0.6238 36.3898 -4.2259
# 6 16.5049 5.4044 5.4117 3.7982 -4.2259 43.6647
#
#
#
# Elastic Compliance Matrix: (Units=1/GPa)
#
#
# Indices 1 2 3 4 5 6 
#
# 1 0.010810 -0.002958 -0.006269 0.011402 -0.000834 -0.004015
# 2 -0.002958 0.007072 -0.001619 -0.001339 0.001056 0.000662
# 3 -0.006269 -0.001619 0.043652 -0.004415 -0.007402 -0.003172
# 4 0.011402 -0.001339 -0.004415 0.069926 -0.002832 -0.009953
# 5 -0.000834 0.001056 -0.007402 -0.002832 0.029459 0.004200
# 6 -0.004015 0.000662 -0.003172 -0.009953 0.004200 0.026003
#
#
# Mechanical properties :
#
#
# Convention : Reuss Voigt Hill
#
# Bulk Modulus (GPa) = 25.10015 61.14171 43.12093
# Shear Modulus (GPa) = 22.53326 36.05396 29.29361
#
# Velocity S-wave (km/s) = 3.20051 4.04841 3.64917
# Velocity P-wave (km/s) = 5.00678 7.04606 6.11207
#
# Compressibility (1/GPa) = 0.03984040
#
# Stress axis : x y z
#
# Youngs Moduli (GPa) = 92.50969 141.40796 22.90848
#
# Poissons Ratio (x) = 0.41825 0.14362
# Poissons Ratio (y) = 0.27362 0.03710
# Poissons Ratio (z) = 0.57997 0.22900
#
# Static dielectric constant tensor:
#      x y z
#    x 3.978230 0.026350 0.326290 
#    y 0.026350 4.558850 0.111500 
#    z 0.326290 0.111500 3.663160 
# 
# 
# High freq. dielectric constant tensor:
#      x y z
#    x 1.869950 -0.006130 0.025030 
#    y -0.006130 1.886460 0.003530 
#    z 0.025030 0.003530 1.841750 
# 
# From -- ./inp_files/144997.got.cif
#   From: 2010.06.25/outbox.cif.g09.slc.cpg/sg2_73_cif.got.tgz:144997.got - 2010.06.27 13:26:56.
