data_PCOD8000873
_publ_section_title
;
Structure prediction by ZEFSAII (Michael W. Deem and Ramdas Pophale) SiO2 
 PCOD8000873
Probable space group: P -1
;
_chemical_formula_sum "Si O2"
_cell_formula_units_Z 14
_cell_length_a 16.946459
_cell_length_b 24.447333
_cell_length_c 13.739101
_cell_angle_alpha 25.765783
_cell_angle_beta 145.060792
_cell_angle_gamma 163.117884
_cell_volume 677.594056
_symmetry_space_group_name_H-M "P -1"
_symmetry_group_IT_number 2
_symmetry_cell_setting 'triclinic'
loop_
_space_group_symop_operation_xyz
x,y,z
-x,-y,-z
loop_
_atom_site_type_symbol
_atom_site_label
_atom_site_fract_x
_atom_site_fract_y
_atom_site_fract_z
Si Si1 0.792149 0.196221 0.031863
Si Si2 0.197556 0.007550 0.105475
Si Si3 0.291973 0.204511 0.088832
Si Si4 0.127876 0.230323 0.298853
Si Si5 0.700644 0.558072 0.659114
Si Si6 0.700451 0.022561 0.432515
Si Si7 0.269358 0.789139 0.522828
O O1 0.030868 0.497807 0.783350
O O2 0.703854 0.086348 0.227643
O O3 0.927710 0.184688 0.132635
O O4 0.500000 0.000000 0.000000
O O5 0.208495 0.041795 0.177294
O O6 0.109141 0.793352 0.334728
O O7 0.517294 0.290824 0.934915
O O8 0.979634 0.923510 0.961899
O O9 0.374466 0.187246 0.295071
O O10 0.553675 0.504587 0.846747
O O11 0.145880 0.249334 0.403356
O O12 0.000000 0.000000 0.500000
O O13 0.500000 0.500000 0.500000
O O14 0.963028 0.710142 0.615657
O O15 0.454941 0.899231 0.440278
O O16 0.500000 0.000000 0.500000
#
# Coordination Sequence:
#
# PCOD8000873 Si02
#       7
#     2   2   2   2   2   2   2
#     4  11  27  47  64  94 137 179 221 276 333 399
#     4  10  21  36  63  99 132 165 212 270 333 392
#     4  10  19  40  64  93 130 169 211 275 326 386
#     4  10  22  42  66  91 132 177 220 270 330 396
#     4  10  20  39  65  99 132 163 221 279 332 384
#     4  11  22  43  67  92 136 175 211 275 338 384
#     4  12  23  43  68 101 134 172 222 271 335 406
#
# _framework density 20.661338000000001
#
# number of rings (size 3 to 8) (size 9 to 14) (size 15 to 20)
#    0.000    1.429    4.286    1.714    2.000    2.857 
#    2.571    2.857    0.000    0.000    0.000    0.000 
#    0.000    0.000    0.000    0.000    0.000    0.000 
#
# Total GULP energy -173434.984212 kJ/mol
# GULP energy per Si atom -12388.213158 kJ/mol
# Density = 2.061431 g / cm^3
# Si number density = 20.661338 Si / 1000 Ang^3
#
#
#
# Elastic Constant Matrix: (Units=GPa)
#
#
# Indices 1 2 3 4 5 6 
#
# 1 77.7562 44.8893 74.6698 -8.0762 4.7458 16.3639
# 2 44.8893 121.3758 56.3253 2.6129 8.2126 11.6877
# 3 74.6698 56.3253 157.0313 -3.3225 13.0938 -0.3834
# 4 -8.0762 2.6129 -3.3225 38.6357 4.2101 2.2833
# 5 4.7458 8.2126 13.0938 4.2101 45.5986 -0.8207
# 6 16.3639 11.6877 -0.3834 2.2833 -0.8207 26.0766
#
#
#
# Elastic Compliance Matrix: (Units=1/GPa)
#
#
# Indices 1 2 3 4 5 6 
#
# 1 0.034727 -0.004073 -0.014975 0.007439 0.000358 -0.020827
# 2 -0.004073 0.010968 -0.001961 -0.001530 -0.000888 -0.002283
# 3 -0.014975 -0.001961 0.014323 -0.002197 -0.001807 0.010623
# 4 0.007439 -0.001530 -0.002197 0.028020 -0.002573 -0.006549
# 5 0.000358 -0.000888 -0.001807 -0.002573 0.022829 0.001091
# 6 -0.020827 -0.002283 0.010623 -0.006549 0.001091 0.053205
#
#
# Mechanical properties :
#
#
# Convention : Reuss Voigt Hill
#
# Bulk Modulus (GPa) = 55.55963 78.65914 67.10939
# Shear Modulus (GPa) = 23.57486 34.08076 28.82781
#
# Velocity S-wave (km/s) = 3.38155 4.06580 3.73936
# Velocity P-wave (km/s) = 6.49581 7.75850 7.15506
#
# Compressibility (1/GPa) = 0.01799868
#
# Stress axis : x y z
#
# Youngs Moduli (GPa) = 28.79634 91.17258 69.81902
#
# Poissons Ratio (x) = 0.37131 1.04556
# Poissons Ratio (y) = 0.11728 0.13695
# Poissons Ratio (z) = 0.43123 0.17883
#
# Static dielectric constant tensor:
#      x y z
#    x 10.270580 3.965700 11.856980 
#    y 3.965700 5.773620 6.621690 
#    z 11.856980 6.621690 26.311400 
# 
# 
# High freq. dielectric constant tensor:
#      x y z
#    x 1.787100 0.040560 -0.011620 
#    y 0.040560 1.800850 0.005220 
#    z -0.011620 0.005220 1.831650 
# 
# From -- ./inp_files/457643.got.cif
#   From: 2010.06.25/outbox.cif.g09.slc.cpg/sg2_229_cif.got.tgz:457643.got - 2010.06.27 13:26:56.
