data_PCOD8000960
_publ_section_title
;
Structure prediction by ZEFSAII (Michael W. Deem and Ramdas Pophale) SiO2 
 PCOD8000960
Probable space group: P -1
;
_chemical_formula_sum "Si O2"
_cell_formula_units_Z 16
_cell_length_a 14.947559
_cell_length_b 5.563148
_cell_length_c 14.325544
_cell_angle_alpha 114.718923
_cell_angle_beta 140.016558
_cell_angle_gamma 58.387948
_cell_volume 651.576905
_symmetry_space_group_name_H-M "P -1"
_symmetry_group_IT_number 2
_symmetry_cell_setting 'triclinic'
loop_
_space_group_symop_operation_xyz
x,y,z
-x,-y,-z
loop_
_atom_site_type_symbol
_atom_site_label
_atom_site_fract_x
_atom_site_fract_y
_atom_site_fract_z
Si Si1 0.880390 0.263754 0.188523
Si Si2 0.029841 0.669054 0.182556
Si Si3 0.687731 0.526783 0.715565
Si Si4 0.723777 0.322631 0.256005
Si Si5 0.725532 0.588911 0.956095
Si Si6 0.421404 0.014599 0.790669
Si Si7 0.864510 0.497488 0.565975
Si Si8 0.622286 0.079606 0.463069
O O1 0.819560 0.166153 0.218385
O O2 0.988418 0.431622 0.330435
O O3 0.735982 0.429376 0.036667
O O4 0.974948 0.993681 0.158237
O O5 0.149824 0.454286 0.173342
O O6 0.104602 0.682732 0.344859
O O7 0.891099 0.571943 0.065163
O O8 0.679771 0.443402 0.804893
O O9 0.684322 0.283883 0.603315
O O10 0.554417 0.824410 0.637283
O O11 0.630203 0.127658 0.184053
O O12 0.836655 0.323975 0.428785
O O13 0.630095 0.644498 0.198891
O O14 0.601502 0.901219 0.917923
O O15 0.361081 0.897341 0.632112
O O16 0.714385 0.761062 0.513099
#
# Coordination Sequence:
#
# PCOD8000960 Si02
#       8
#     2   2   2   2   2   2   2   2
#     4  11  25  42  63  94 134 176 216 269 323 403
#     4  11  23  40  64  92 134 173 220 268 324 399
#     4  10  19  40  67  91 130 170 218 271 336 386
#     4  11  25  42  73  98 132 175 219 276 342 381
#     4  10  25  43  62  93 132 174 225 268 324 393
#     4  10  24  45  69 102 131 171 223 279 328 395
#     4  10  22  42  64  98 131 164 217 279 329 396
#     4   9  19  40  67  98 128 163 218 277 333 391
#
# _framework density 24.555816
#
# number of rings (size 3 to 8) (size 9 to 14) (size 15 to 20)
#    0.000    1.750    1.250    1.500    7.000    2.500 
#    2.250    2.500    0.000    0.000    0.000    0.000 
#    0.000    0.000    0.000    0.000    0.000    0.000 
#
# Total GULP energy -198228.013101 kJ/mol
# GULP energy per Si atom -12389.250819 kJ/mol
# Density = 2.449993 g / cm^3
# Si number density = 24.555816 Si / 1000 Ang^3
#
#
#
# Elastic Constant Matrix: (Units=GPa)
#
#
# Indices 1 2 3 4 5 6 
#
# 1 87.5911 19.3466 17.6332 -3.2797 6.6313 -8.0891
# 2 19.3466 76.3836 23.1073 -20.8166 -1.1623 1.0390
# 3 17.6332 23.1073 80.5191 -25.2178 0.3030 -8.8349
# 4 -3.2797 -20.8166 -25.2178 28.3165 -1.9744 2.2634
# 5 6.6313 -1.1623 0.3030 -1.9744 28.3004 -2.6500
# 6 -8.0891 1.0390 -8.8349 2.2634 -2.6500 34.8213
#
#
#
# Elastic Compliance Matrix: (Units=1/GPa)
#
#
# Indices 1 2 3 4 5 6 
#
# 1 0.013116 -0.003673 -0.002827 -0.004122 -0.003251 0.002460
# 2 -0.003673 0.017632 -0.000656 0.012283 0.002245 -0.002173
# 3 -0.002827 -0.000656 0.018409 0.015458 0.001813 0.003167
# 4 -0.004122 0.012283 0.015458 0.058064 0.005283 -0.000774
# 5 -0.003251 0.002245 0.001813 0.005283 0.036734 0.002090
# 6 0.002460 -0.002173 0.003167 -0.000774 0.002090 0.030367
#
#
# Mechanical properties :
#
#
# Convention : Reuss Voigt Hill
#
# Bulk Modulus (GPa) = 28.69887 40.51868 34.60878
# Shear Modulus (GPa) = 24.96901 30.58141 27.77521
#
# Velocity S-wave (km/s) = 3.19223 3.53283 3.36684
# Velocity P-wave (km/s) = 5.02988 5.76000 5.40728
#
# Compressibility (1/GPa) = 0.03484457
#
# Stress axis : x y z
#
# Youngs Moduli (GPa) = 76.24231 56.71644 54.32223
#
# Poissons Ratio (x) = 0.20833 0.15358
# Poissons Ratio (y) = 0.28005 0.03561
# Poissons Ratio (z) = 0.21555 0.03718
#
# Static dielectric constant tensor:
#      x y z
#    x 4.478900 -0.197340 -0.133950 
#    y -0.197340 4.165500 -0.455490 
#    z -0.133950 -0.455490 4.821870 
# 
# 
# High freq. dielectric constant tensor:
#      x y z
#    x 1.974110 -0.023970 -0.005560 
#    y -0.023970 1.952100 -0.021850 
#    z -0.005560 -0.021850 1.995640 
# 
# From -- ./inp_files/371430.got.cif
#   From: 2010.06.25/outbox.cif.g09.slc.cpg/sg2_186_cif.got.tgz:371430.got - 2010.06.27 13:26:56.
