data_PCOD8000462
_publ_section_title
;
Structure prediction by ZEFSAII (Michael W. Deem and Ramdas Pophale) SiO2 
 PCOD8000462
Probable space group: P -1
;
_chemical_formula_sum "Si O2"
_cell_formula_units_Z 16
_cell_length_a 18.809668
_cell_length_b 14.285486
_cell_length_c 6.767881
_cell_angle_alpha 116.423082
_cell_angle_beta 41.535129
_cell_angle_gamma 139.125737
_cell_volume 757.800911
_symmetry_space_group_name_H-M "P -1"
_symmetry_group_IT_number 2
_symmetry_cell_setting 'triclinic'
loop_
_space_group_symop_operation_xyz
x,y,z
-x,-y,-z
loop_
_atom_site_type_symbol
_atom_site_label
_atom_site_fract_x
_atom_site_fract_y
_atom_site_fract_z
Si Si1 0.317262 0.139845 0.610753
Si Si2 0.768198 0.392867 0.364644
Si Si3 0.171683 0.906371 0.376374
Si Si4 0.578547 0.853993 0.189562
Si Si5 0.572110 0.652440 0.770330
Si Si6 0.271641 0.404346 0.379372
Si Si7 0.016733 0.579575 0.345684
Si Si8 0.069681 0.115886 0.296185
O O1 0.414281 0.153749 0.596799
O O2 0.423586 0.291761 0.402283
O O3 0.263151 0.999026 0.472291
O O4 0.182565 0.121268 0.944459
O O5 0.592476 0.231795 0.605234
O O6 0.767575 0.507746 0.376385
O O7 0.853073 0.461956 0.464656
O O8 0.853354 0.373950 0.024919
O O9 0.070322 0.732051 0.442694
O O10 0.063006 0.932070 0.611279
O O11 0.293569 0.978070 0.007875
O O12 0.626352 0.774308 0.932763
O O13 0.685793 0.633156 0.548524
O O14 0.403173 0.497114 0.026042
O O15 0.133269 0.261894 0.411360
O O16 0.000000 0.500000 0.500000
O O17 0.000000 0.000000 0.500000
#
# Coordination Sequence:
#
# PCOD8000462 Si02
#       8
#     2   2   2   2   2   2   2   2
#     4  11  22  38  64  96 132 170 209 255 315 389
#     4  10  24  45  68  89 123 170 211 270 321 363
#     4  11  24  42  64  94 131 170 210 265 318 373
#     4  10  21  43  66  93 129 165 213 261 315 388
#     4   9  20  37  59  97 132 165 210 255 314 387
#     4  10  19  39  62  90 132 167 206 264 316 374
#     4  11  26  46  67  96 123 160 223 269 317 382
#     4  12  21  37  62  93 132 169 208 252 310 388
#
# _framework density 21.113726
#
# number of rings (size 3 to 8) (size 9 to 14) (size 15 to 20)
#    0.000    1.500    3.750    1.125    0.000    8.000 
#    0.000    1.250    0.000    0.000    0.000    0.000 
#    0.000    0.000    0.000    0.000    0.000    0.000 
#
# Total GULP energy -198325.691071 kJ/mol
# GULP energy per Si atom -12395.355692 kJ/mol
# Density = 2.106567 g / cm^3
# Si number density = 21.113726 Si / 1000 Ang^3
#
#
#
# Elastic Constant Matrix: (Units=GPa)
#
#
# Indices 1 2 3 4 5 6 
#
# 1 118.0431 43.0012 33.8167 -11.9579 5.1743 5.4456
# 2 43.0012 86.0145 29.8221 -15.2205 7.7574 1.4476
# 3 33.8167 29.8221 62.6111 -10.7040 2.2170 0.2607
# 4 -11.9579 -15.2205 -10.7040 32.3426 -4.6765 -4.5792
# 5 5.1743 7.7574 2.2170 -4.6765 37.8924 -3.8416
# 6 5.4456 1.4476 0.2607 -4.5792 -3.8416 27.6458
#
#
#
# Elastic Compliance Matrix: (Units=1/GPa)
#
#
# Indices 1 2 3 4 5 6 
#
# 1 0.011278 -0.004052 -0.004035 0.000562 -0.000604 -0.001962
# 2 -0.004052 0.016228 -0.004730 0.004361 -0.001908 0.000450
# 3 -0.004035 -0.004730 0.020977 0.003575 0.000891 0.001561
# 4 0.000562 0.004361 0.003575 0.035782 0.003855 0.006090
# 5 -0.000604 -0.001908 0.000891 0.003855 0.027764 0.004707
# 6 -0.001962 0.000450 0.001561 0.006090 0.004707 0.038183
#
#
# Mechanical properties :
#
#
# Convention : Reuss Voigt Hill
#
# Bulk Modulus (GPa) = 43.76706 53.32762 48.54734
# Shear Modulus (GPa) = 27.25370 30.24471 28.74921
#
# Velocity S-wave (km/s) = 3.59667 3.78890 3.69404
# Velocity P-wave (km/s) = 6.16622 6.66732 6.42166
#
# Compressibility (1/GPa) = 0.02284824
#
# Stress axis : x y z
#
# Youngs Moduli (GPa) = 88.67203 61.62310 47.67131
#
# Poissons Ratio (x) = 0.24969 0.19238
# Poissons Ratio (y) = 0.35929 0.22547
# Poissons Ratio (z) = 0.35783 0.29145
#
# Static dielectric constant tensor:
#      x y z
#    x 3.859060 0.006460 -0.021110 
#    y 0.006460 3.824840 -0.228220 
#    z -0.021110 -0.228220 3.563270 
# 
# 
# High freq. dielectric constant tensor:
#      x y z
#    x 1.824660 0.006610 -0.002510 
#    y 0.006610 1.835940 -0.009040 
#    z -0.002510 -0.009040 1.815320 
# 
# From -- ./inp_files/98567.got.cif
#   From: 2010.06.25/outbox.cif.g09.slc.cpg/sg2_50_cif.got.tgz:98567.got - 2010.06.27 13:26:56.
