data_PCOD8000029
_publ_section_title
;
Structure prediction by ZEFSAII (Michael W. Deem and Ramdas Pophale) SiO2 
 PCOD8000029
Probable space group: P 1
;
_chemical_formula_sum "Si O2"
_cell_formula_units_Z 8
_cell_length_a 14.449571
_cell_length_b 13.068184
_cell_length_c 8.201962
_cell_angle_alpha 147.632193
_cell_angle_beta 145.928158
_cell_angle_gamma 28.478930
_cell_volume 372.299652
_symmetry_space_group_name_H-M "P 1"
_symmetry_group_IT_number 1
_symmetry_cell_setting 'triclinic'
loop_
_space_group_symop_operation_xyz
x,y,z
loop_
_atom_site_type_symbol
_atom_site_label
_atom_site_fract_x
_atom_site_fract_y
_atom_site_fract_z
Si Si1 0.789510 0.958000 0.264660
Si Si2 0.807358 0.961536 0.685027
Si Si3 0.985193 0.440071 0.303769
Si Si4 0.611755 0.479432 0.646107
Si Si5 0.483367 0.862939 0.736545
Si Si6 0.232825 0.698077 0.613207
Si Si7 0.364036 0.221520 0.336524
Si Si8 0.113599 0.056507 0.213227
O O1 0.798487 0.959625 0.474732
O O2 0.027441 0.797835 0.338317
O O3 0.664646 0.220023 0.355990
O O4 0.666893 0.849777 0.892517
O O5 0.932107 0.699578 0.593724
O O6 0.569406 0.121863 0.611514
O O7 0.929952 0.069800 0.057150
O O8 0.187581 0.268062 0.259457
O O9 0.026579 0.321439 0.382730
O O10 0.798503 0.459591 0.974859
O O11 0.570614 0.597956 0.567352
O O12 0.409275 0.651614 0.690397
O O13 0.298459 0.959636 0.474778
O O14 0.405989 0.031862 0.008183
O O15 0.298411 0.459769 0.474736
O O16 0.190955 0.887590 0.941565
#
# Coordination Sequence:
#
# PCOD8000029 Si02
#       8
#     1   1   1   1   1   1   1   1
#     4  10  20  39  62  89 124 156 210 246 293 368
#     4  10  20  39  62  89 124 156 210 246 293 368
#     4  12  21  39  70  89 117 168 212 241 298 372
#     4  12  21  39  70  89 117 168 212 241 298 372
#     4  11  24  41  62  94 129 155 200 263 309 347
#     4  11  20  40  68  88 119 166 208 245 296 371
#     4  11  20  40  68  88 119 166 208 245 296 371
#     4  11  24  41  62  94 129 155 200 263 309 347
#
# _framework density 21.488067999999998
#
# number of rings (size 3 to 8) (size 9 to 14) (size 15 to 20)
#    0.000    1.000   10.000    0.750    0.000    1.000 
#    0.000    6.250    0.000    0.000    0.000    0.000 
#    0.000    0.000    0.000    0.000    0.000    0.000 
#
# Total GULP energy -99191.132054 kJ/mol
# GULP energy per Si atom -12398.891507 kJ/mol
# Density = 2.143916 g / cm^3
# Si number density = 21.488068 Si / 1000 Ang^3
#
#
#
# Elastic Constant Matrix: (Units=GPa)
#
#
# Indices 1 2 3 4 5 6 
#
# 1 77.9102 51.7556 55.1169 -13.4813 42.6954 -3.2447
# 2 51.7556 175.7145 58.8969 -8.7162 20.2567 28.5871
# 3 55.1169 58.8969 130.6569 -35.4215 40.7970 9.0278
# 4 -13.4813 -8.7162 -35.4215 48.0143 -5.1464 13.0865
# 5 42.6954 20.2567 40.7970 -5.1464 35.2046 -7.4453
# 6 -3.2447 28.5871 9.0278 13.0865 -7.4453 50.9344
#
#
#
# Elastic Compliance Matrix: (Units=1/GPa)
#
#
# Indices 1 2 3 4 5 6 
#
# 1 0.049564 -0.007896 0.004933 0.010970 -0.060733 -0.004981
# 2 -0.007896 0.008692 -0.002696 -0.000897 0.006790 -0.003680
# 3 0.004933 -0.002696 0.020445 0.015686 -0.027927 -0.009908
# 4 0.010970 -0.000897 0.015686 0.036349 -0.028853 -0.015134
# 5 -0.060733 0.006790 -0.027927 -0.028853 0.131350 0.023883
# 6 -0.004981 -0.003680 -0.009908 -0.015134 0.023883 0.030517
#
#
# Mechanical properties :
#
#
# Convention : Reuss Voigt Hill
#
# Bulk Modulus (GPa) = 14.84074 79.53560 47.18817
# Shear Modulus (GPa) = 16.09284 41.39813 28.74549
#
# Velocity S-wave (km/s) = 2.73961 4.39403 3.66148
# Velocity P-wave (km/s) = 4.11446 7.92701 6.31531
#
# Compressibility (1/GPa) = 0.06738206
#
# Stress axis : x y z
#
# Youngs Moduli (GPa) = 20.17593 115.04693 48.91129
#
# Poissons Ratio (x) = 0.90844 -0.24128
# Poissons Ratio (y) = 0.15931 0.13188
# Poissons Ratio (z) = -0.09953 0.31021
#
# Static dielectric constant tensor:
#      x y z
#    x 3.914920 -0.037170 0.571120 
#    y -0.037170 4.760700 -0.286830 
#    z 0.571120 -0.286830 3.292370 
# 
# 
# High freq. dielectric constant tensor:
#      x y z
#    x 1.819720 0.008240 0.050310 
#    y 0.008240 1.867670 -0.006890 
#    z 0.050310 -0.006890 1.833130 
# 
# From -- ./inp_files/4203.got.cif
#   From: 2010.03.12/outbox.cif.g09.slc.cpg/sg1_3_cif.got.tgz:4203.got - 2010.03.29 11:57:58.
