data_PCOD8000970
_publ_section_title
;
Structure prediction by ZEFSAII (Michael W. Deem and Ramdas Pophale) SiO2 
 PCOD8000970
Probable space group: P -1
;
_chemical_formula_sum "Si O2"
_cell_formula_units_Z 16
_cell_length_a 23.036529
_cell_length_b 17.321560
_cell_length_c 14.669909
_cell_angle_alpha 146.183763
_cell_angle_beta 159.301238
_cell_angle_gamma 22.545879
_cell_volume 769.239768
_symmetry_space_group_name_H-M "P -1"
_symmetry_group_IT_number 2
_symmetry_cell_setting 'triclinic'
loop_
_space_group_symop_operation_xyz
x,y,z
-x,-y,-z
loop_
_atom_site_type_symbol
_atom_site_label
_atom_site_fract_x
_atom_site_fract_y
_atom_site_fract_z
Si Si1 0.340795 0.202699 0.407709
Si Si2 0.255048 0.564680 0.708587
Si Si3 0.192031 0.557826 0.141335
Si Si4 0.786115 0.954228 0.310779
Si Si5 0.517755 0.399755 0.297562
Si Si6 0.313301 0.917867 0.356043
Si Si7 0.802535 0.322471 0.063489
Si Si8 0.524791 0.866330 0.799448
O O1 0.294420 0.378934 0.560705
O O2 0.483709 0.133041 0.455209
O O3 0.500000 0.000000 0.500000
O O4 0.098158 0.262638 0.096018
O O5 0.160387 0.625264 0.733934
O O6 0.078158 0.749110 0.553253
O O7 0.500000 0.500000 0.000000
O O8 0.286409 0.554696 0.179024
O O9 0.312151 0.572517 0.412966
O O10 0.271022 0.349399 0.059444
O O11 0.704904 0.155564 0.353510
O O12 0.696210 0.969186 0.294341
O O13 0.660401 0.924141 0.026215
O O14 0.406409 0.468881 0.099636
O O15 0.421424 0.842391 0.541609
O O16 0.271589 0.789116 0.132334
O O17 0.057151 0.164250 0.224898
#
# Coordination Sequence:
#
# PCOD8000970 Si02
#       8
#     2   2   2   2   2   2   2   2
#     4  12  27  44  65 100 136 175 218 278 339 391
#     4  12  25  45  66  95 137 179 215 270 340 398
#     4  10  21  40  65  94 135 169 221 267 331 387
#     4  10  22  40  67  96 130 172 218 266 335 391
#     4  10  22  39  69  99 128 172 223 276 317 389
#     4  11  23  41  69  98 134 173 225 272 328 393
#     4  11  23  42  70 101 130 175 229 269 325 398
#     4  10  19  40  67  95 123 175 221 267 321 395
#
# _framework density 20.799757
#
# number of rings (size 3 to 8) (size 9 to 14) (size 15 to 20)
#    0.000    1.250    5.000    0.750    1.750    1.500 
#    2.250    2.500    0.000    0.000    0.000    0.000 
#    0.000    0.000    0.000    0.000    0.000    0.000 
#
# Total GULP energy -198321.300082 kJ/mol
# GULP energy per Si atom -12395.081255 kJ/mol
# Density = 2.075242 g / cm^3
# Si number density = 20.799757 Si / 1000 Ang^3
#
#
#
# Elastic Constant Matrix: (Units=GPa)
#
#
# Indices 1 2 3 4 5 6 
#
# 1 59.4357 33.3312 34.1472 -5.6160 0.1753 3.8186
# 2 33.3312 114.6851 45.6278 -10.6396 0.6344 12.2140
# 3 34.1472 45.6278 109.9657 -12.9490 12.5448 -1.1260
# 4 -5.6160 -10.6396 -12.9490 37.4990 -2.9043 -4.6984
# 5 0.1753 0.6344 12.5448 -2.9043 39.4763 -4.6689
# 6 3.8186 12.2140 -1.1260 -4.6984 -4.6689 24.2669
#
#
#
# Elastic Compliance Matrix: (Units=1/GPa)
#
#
# Indices 1 2 3 4 5 6 
#
# 1 0.022370 -0.004217 -0.005354 0.000261 0.001535 -0.001300
# 2 -0.004217 0.012062 -0.003696 0.000881 0.000434 -0.005325
# 3 -0.005354 -0.003696 0.013047 0.002783 -0.003483 0.003177
# 4 0.000261 0.000881 0.002783 0.028761 0.001875 0.005574
# 5 0.001535 0.000434 -0.003483 0.001875 0.027150 0.004965
# 6 -0.001300 -0.005325 0.003177 0.005574 0.004965 0.046275
#
#
# Mechanical properties :
#
#
# Convention : Reuss Voigt Hill
#
# Bulk Modulus (GPa) = 47.74418 56.69987 52.22203
# Shear Modulus (GPa) = 27.29553 31.64713 29.47133
#
# Velocity S-wave (km/s) = 3.62650 3.90489 3.76827
# Velocity P-wave (km/s) = 6.36705 6.90289 6.64038
#
# Compressibility (1/GPa) = 0.02094496
#
# Stress axis : x y z
#
# Youngs Moduli (GPa) = 44.70356 82.90609 76.64344
#
# Poissons Ratio (x) = 0.34961 0.41038
# Poissons Ratio (y) = 0.18851 0.28325
# Poissons Ratio (z) = 0.23936 0.30639
#
# Static dielectric constant tensor:
#      x y z
#    x 3.423380 -0.006330 -0.105250 
#    y -0.006330 3.691020 0.013130 
#    z -0.105250 0.013130 3.844280 
# 
# 
# High freq. dielectric constant tensor:
#      x y z
#    x 1.791290 0.002670 -0.001410 
#    y 0.002670 1.817080 -0.004600 
#    z -0.001410 -0.004600 1.828880 
# 
# From -- ./inp_files/467007.got.cif
#   From: 2010.06.25/outbox.cif.g09.slc.cpg/sg2_234_cif.got.tgz:467007.got - 2010.06.27 13:26:56.
