data_PCOD8000556
_publ_section_title
;
Structure prediction by ZEFSAII (Michael W. Deem and Ramdas Pophale) SiO2 
 PCOD8000556
Probable space group: P -1
;
_chemical_formula_sum "Si O2"
_cell_formula_units_Z 16
_cell_length_a 13.257709
_cell_length_b 8.874386
_cell_length_c 11.970707
_cell_angle_alpha 52.400492
_cell_angle_beta 47.510028
_cell_angle_gamma 69.099874
_cell_volume 819.131622
_symmetry_space_group_name_H-M "P -1"
_symmetry_group_IT_number 2
_symmetry_cell_setting 'triclinic'
loop_
_space_group_symop_operation_xyz
x,y,z
-x,-y,-z
loop_
_atom_site_type_symbol
_atom_site_label
_atom_site_fract_x
_atom_site_fract_y
_atom_site_fract_z
Si Si1 0.151620 0.298339 0.485749
Si Si2 0.849391 0.218527 0.972607
Si Si3 0.573022 0.519595 0.554551
Si Si4 0.604198 0.753137 0.824207
Si Si5 0.144807 0.723141 0.316753
Si Si6 0.591224 0.401172 0.144150
Si Si7 0.837231 0.797488 0.243737
Si Si8 0.379862 0.893509 0.208688
O O1 0.264488 0.318795 0.298654
O O2 0.152888 0.506283 0.449986
O O3 0.177859 0.158881 0.632053
O O4 0.008765 0.224306 0.567434
O O5 0.824397 0.272016 0.839656
O O6 0.009378 0.266688 0.868167
O O7 0.747587 0.341416 0.066187
O O8 0.810306 0.991865 0.114095
O O9 0.500000 0.500000 0.500000
O O10 0.485175 0.623758 0.667314
O O11 0.720373 0.634177 0.368198
O O12 0.588088 0.309586 0.681093
O O13 0.479983 0.738768 0.834696
O O14 0.641253 0.972750 0.730031
O O15 0.576596 0.618347 0.014818
O O16 0.245601 0.873635 0.240272
O O17 0.500000 0.000000 0.000000
#
# Coordination Sequence:
#
# PCOD8000556 Si02
#       8
#     2   2   2   2   2   2   2   2
#     4  10  19  39  64  91 120 165 210 261 306 369
#     4  10  22  38  70  92 120 170 211 258 303 376
#     4  12  27  43  62  91 133 169 203 259 322 374
#     4  11  22  36  65  95 126 159 212 267 308 363
#     4  10  20  37  65  90 123 166 211 252 317 368
#     4  11  22  41  64  94 124 164 217 257 308 374
#     4  10  22  42  61  94 128 161 212 252 315 374
#     4  12  24  39  59  92 128 164 207 261 313 371
#
# _framework density 19.532879999999999
#
# number of rings (size 3 to 8) (size 9 to 14) (size 15 to 20)
#    0.000    1.250    5.000    0.750    3.500    2.000 
#    0.000    0.625    0.000    0.000    0.000    0.000 
#    0.000    0.000    0.000    0.000    0.000    0.000 
#
# Total GULP energy -198353.895164 kJ/mol
# GULP energy per Si atom -12397.118448 kJ/mol
# Density = 1.948842 g / cm^3
# Si number density = 19.532880 Si / 1000 Ang^3
#
#
#
# Elastic Constant Matrix: (Units=GPa)
#
#
# Indices 1 2 3 4 5 6 
#
# 1 109.9156 42.1030 49.1376 0.3571 -23.8327 2.0691
# 2 42.1030 66.6567 23.6020 -3.7879 -13.4597 -2.1529
# 3 49.1376 23.6020 103.3157 -5.5714 -20.4978 -4.4929
# 4 0.3571 -3.7879 -5.5714 31.3073 0.5751 -2.8535
# 5 -23.8327 -13.4597 -20.4978 0.5751 35.9991 -6.0325
# 6 2.0691 -2.1529 -4.4929 -2.8535 -6.0325 23.3948
#
#
#
# Elastic Compliance Matrix: (Units=1/GPa)
#
#
# Indices 1 2 3 4 5 6 
#
# 1 0.014924 -0.007054 -0.004870 -0.002158 0.004153 -0.002097
# 2 -0.007054 0.020542 -0.000360 0.002773 0.003373 0.003653
# 3 -0.004870 -0.000360 0.013418 0.002727 0.005009 0.004599
# 4 -0.002158 0.002773 0.002727 0.033253 0.001538 0.005422
# 5 0.004153 0.003373 0.005009 0.001538 0.036371 0.010471
# 6 -0.002097 0.003653 0.004599 0.005422 0.010471 0.047511
#
#
# Mechanical properties :
#
#
# Convention : Reuss Voigt Hill
#
# Bulk Modulus (GPa) = 41.12535 56.61925 48.87230
# Shear Modulus (GPa) = 25.16449 29.14327 27.15388
#
# Velocity S-wave (km/s) = 3.59320 3.86685 3.73253
# Velocity P-wave (km/s) = 6.18991 6.99902 6.60686
#
# Compressibility (1/GPa) = 0.02431590
#
# Stress axis : x y z
#
# Youngs Moduli (GPa) = 67.00616 48.68074 74.52483
#
# Poissons Ratio (x) = 0.34339 0.36294
# Poissons Ratio (y) = 0.47265 0.02684
# Poissons Ratio (z) = 0.32633 0.01754
#
# Static dielectric constant tensor:
#      x y z
#    x 3.685190 -0.190520 0.015240 
#    y -0.190520 3.220910 0.144540 
#    z 0.015240 0.144540 3.774750 
# 
# 
# High freq. dielectric constant tensor:
#      x y z
#    x 1.760980 -0.014830 -0.007490 
#    y -0.014830 1.735350 -0.000930 
#    z -0.007490 -0.000930 1.779210 
# 
# From -- ./inp_files/182510.got.cif
#   From: 2010.06.25/outbox.cif.g09.slc.cpg/sg2_92_cif.got.tgz:182510.got - 2010.06.27 13:26:56.
