data_PCOD8000517
_publ_section_title
;
Structure prediction by ZEFSAII (Michael W. Deem and Ramdas Pophale) SiO2 
 PCOD8000517
Probable space group: P -1
;
_chemical_formula_sum "Si O2"
_cell_formula_units_Z 10
_cell_length_a 9.828775
_cell_length_b 9.482777
_cell_length_c 10.624539
_cell_angle_alpha 43.163977
_cell_angle_beta 40.315163
_cell_angle_gamma 60.343262
_cell_volume 434.051873
_symmetry_space_group_name_H-M "P -1"
_symmetry_group_IT_number 2
_symmetry_cell_setting 'triclinic'
loop_
_space_group_symop_operation_xyz
x,y,z
-x,-y,-z
loop_
_atom_site_type_symbol
_atom_site_label
_atom_site_fract_x
_atom_site_fract_y
_atom_site_fract_z
Si Si1 0.116098 0.303797 0.308786
Si Si2 0.945747 0.243312 0.967040
Si Si3 0.206881 0.198084 0.588754
Si Si4 0.586268 0.704874 0.379985
Si Si5 0.320312 0.961098 0.254879
O O1 0.219802 0.298839 0.377028
O O2 0.869034 0.208320 0.552892
O O3 0.236762 0.175881 0.208126
O O4 0.141298 0.539391 0.086593
O O5 0.779335 0.051705 0.262043
O O6 0.983300 0.222584 0.802199
O O7 0.172667 0.230820 0.884378
O O8 0.397795 0.317079 0.464009
O O9 0.500000 0.500000 0.500000
O O10 0.429595 0.874890 0.355926
O O11 0.500000 0.000000 0.000000
#
# Coordination Sequence:
#
# PCOD8000517 Si02
#       5
#     2   2   2   2   2
#     4  11  22  42  67  93 127 177 214 259 330 383
#     4   9  19  38  66  94 126 172 210 260 322 384
#     4   9  20  38  67  91 131 168 215 259 322 386
#     4  10  19  39  63  91 129 167 207 268 321 368
#     4  11  24  41  63  96 132 163 219 277 314 381
#
# _framework density 23.038722
#
# number of rings (size 3 to 8) (size 9 to 14) (size 15 to 20)
#    1.200    0.800    2.000    1.800    0.000    0.800 
#    3.600    4.000    0.000    0.000    0.000    0.000 
#    0.000    0.000    0.000    0.000    0.000    0.000 
#
# Total GULP energy -123908.905876 kJ/mol
# GULP energy per Si atom -12390.890588 kJ/mol
# Density = 2.298628 g / cm^3
# Si number density = 23.038722 Si / 1000 Ang^3
#
#
#
# Elastic Constant Matrix: (Units=GPa)
#
#
# Indices 1 2 3 4 5 6 
#
# 1 138.8183 41.6324 24.4775 -5.2199 -23.2162 7.1890
# 2 41.6324 145.1094 42.1155 -27.7486 -10.6832 -14.4368
# 3 24.4775 42.1155 55.8421 -2.0124 -15.6543 5.1573
# 4 -5.2199 -27.7486 -2.0124 37.3145 8.5856 -0.5527
# 5 -23.2162 -10.6832 -15.6543 8.5856 18.1598 -9.9182
# 6 7.1890 -14.4368 5.1573 -0.5527 -9.9182 32.9466
#
#
#
# Elastic Compliance Matrix: (Units=1/GPa)
#
#
# Indices 1 2 3 4 5 6 
#
# 1 0.010137 -0.003112 0.001941 -0.004269 0.015154 0.000611
# 2 -0.003112 0.012883 -0.010508 0.010285 -0.007029 0.006025
# 3 0.001941 -0.010508 0.033081 -0.012699 0.030075 -0.001366
# 4 -0.004269 0.010285 -0.012699 0.039992 -0.029727 -0.000852
# 5 0.015154 -0.007029 0.030075 -0.029727 0.124408 0.025858
# 6 0.000611 0.006025 -0.001366 -0.000852 0.025858 0.040843
#
#
# Mechanical properties :
#
#
# Convention : Reuss Voigt Hill
#
# Bulk Modulus (GPa) = 30.54027 61.80230 46.17129
# Shear Modulus (GPa) = 16.91386 33.12046 25.01716
#
# Velocity S-wave (km/s) = 2.71246 3.79568 3.29884
# Velocity P-wave (km/s) = 4.80570 6.78920 5.88167
#
# Compressibility (1/GPa) = 0.03274365
#
# Stress axis : x y z
#
# Youngs Moduli (GPa) = 98.65059 77.62431 30.22844
#
# Poissons Ratio (x) = 0.24153 -0.05868
# Poissons Ratio (y) = 0.30696 0.31765
# Poissons Ratio (z) = -0.19152 0.81571
#
# Static dielectric constant tensor:
#      x y z
#    x 4.470180 -0.187330 -0.208730 
#    y -0.187330 4.192290 -0.182420 
#    z -0.208730 -0.182420 3.651150 
# 
# 
# High freq. dielectric constant tensor:
#      x y z
#    x 1.907940 -0.000110 -0.013910 
#    y -0.000110 1.917540 -0.012500 
#    z -0.013910 -0.012500 1.872720 
# 
# From -- ./inp_files/155958.got.cif
#   From: 2010.06.25/outbox.cif.g09.slc.cpg/sg2_78_cif.got.tgz:155958.got - 2010.06.27 13:26:56.
