data_PCOD8000736
_publ_section_title
;
Structure prediction by ZEFSAII (Michael W. Deem and Ramdas Pophale) SiO2 
 PCOD8000736
Probable space group: P -1
;
_chemical_formula_sum "Si O2"
_cell_formula_units_Z 12
_cell_length_a 7.080574
_cell_length_b 8.466688
_cell_length_c 18.513952
_cell_angle_alpha 135.719648
_cell_angle_beta 121.269413
_cell_angle_gamma 88.612206
_cell_volume 538.531099
_symmetry_space_group_name_H-M "P -1"
_symmetry_group_IT_number 2
_symmetry_cell_setting 'triclinic'
loop_
_space_group_symop_operation_xyz
x,y,z
-x,-y,-z
loop_
_atom_site_type_symbol
_atom_site_label
_atom_site_fract_x
_atom_site_fract_y
_atom_site_fract_z
Si Si1 0.695386 0.454435 0.354693
Si Si2 0.907364 0.325598 0.726801
Si Si3 0.781446 0.475655 0.894065
Si Si4 0.509529 0.268940 0.512420
Si Si5 0.532207 0.287840 0.105975
Si Si6 0.699403 0.144527 0.378055
O O1 0.503788 0.487978 0.379773
O O2 0.568613 0.367490 0.222769
O O3 0.698401 0.211064 0.314745
O O4 0.995037 0.740705 0.501813
O O5 0.883813 0.505116 0.842174
O O6 0.736808 0.273695 0.604580
O O7 0.219474 0.483924 0.819400
O O8 0.789247 0.022856 0.636947
O O9 0.726796 0.713984 0.972824
O O10 0.491599 0.181663 0.751189
O O11 0.000000 0.500000 0.000000
O O12 0.607382 0.308200 0.461661
O O13 0.500000 0.000000 0.000000
#
# Coordination Sequence:
#
# PCOD8000736 Si02
#       6
#     2   2   2   2   2   2
#     4  11  22  41  67  98 134 168 215 275 331 384
#     4  10  22  40  67  98 125 173 220 274 325 389
#     4  11  26  47  67  94 133 181 223 269 324 392
#     4  10  19  39  69  96 128 164 222 272 325 388
#     4  12  27  44  67  97 136 178 219 269 329 394
#     4  10  23  41  66 101 128 167 220 275 326 385
#
# _framework density 22.282836
#
# number of rings (size 3 to 8) (size 9 to 14) (size 15 to 20)
#    0.000    1.333    3.333    1.500    2.333    4.000 
#   12.000    0.000    0.000    0.000    0.000    0.000 
#    0.000    0.000    0.000    0.000    0.000    0.000 
#
# Total GULP energy -148749.371822 kJ/mol
# GULP energy per Si atom -12395.780985 kJ/mol
# Density = 2.223212 g / cm^3
# Si number density = 22.282836 Si / 1000 Ang^3
#
#
#
# Elastic Constant Matrix: (Units=GPa)
#
#
# Indices 1 2 3 4 5 6 
#
# 1 113.2573 45.0334 34.1298 -4.5068 -8.4926 -9.1873
# 2 45.0334 86.7426 27.5025 -17.0236 -0.9473 -5.5658
# 3 34.1298 27.5025 58.5862 -8.7375 -2.4377 -11.6587
# 4 -4.5068 -17.0236 -8.7375 20.1447 -8.6082 -4.3365
# 5 -8.4926 -0.9473 -2.4377 -8.6082 26.2414 3.0097
# 6 -9.1873 -5.5658 -11.6587 -4.3365 3.0097 43.3637
#
#
#
# Elastic Compliance Matrix: (Units=1/GPa)
#
#
# Indices 1 2 3 4 5 6 
#
# 1 0.012618 -0.005480 -0.005089 -0.002947 0.002430 0.000138
# 2 -0.005480 0.018288 -0.002701 0.014840 0.003307 0.001715
# 3 -0.005089 -0.002701 0.023984 0.009476 0.002931 0.005768
# 4 -0.002947 0.014840 0.009476 0.078483 0.025068 0.009937
# 5 0.002430 0.003307 0.002931 0.025068 0.047401 0.000944
# 6 0.000138 0.001715 0.005768 0.009937 0.000944 0.025789
#
#
# Mechanical properties :
#
#
# Convention : Reuss Voigt Hill
#
# Bulk Modulus (GPa) = 35.27232 52.43528 43.85380
# Shear Modulus (GPa) = 20.61390 28.07797 24.34593
#
# Velocity S-wave (km/s) = 3.04485 3.55360 3.30902
# Velocity P-wave (km/s) = 5.31274 6.35769 5.85856
#
# Compressibility (1/GPa) = 0.02835084
#
# Stress axis : x y z
#
# Youngs Moduli (GPa) = 79.24954 54.67969 41.69395
#
# Poissons Ratio (x) = 0.29967 0.21219
# Poissons Ratio (y) = 0.43432 0.11260
# Poissons Ratio (z) = 0.40331 0.14766
#
# Static dielectric constant tensor:
#      x y z
#    x 4.176950 0.141560 -0.049470 
#    y 0.141560 3.867130 -0.039680 
#    z -0.049470 -0.039680 3.820900 
# 
# 
# High freq. dielectric constant tensor:
#      x y z
#    x 1.892780 0.009780 -0.004190 
#    y 0.009780 1.876430 -0.007910 
#    z -0.004190 -0.007910 1.853770 
# 
# From -- ./inp_files/20992.got.cif
#   From: 2010.06.25/outbox.cif.g09.slc.cpg/sg2_11_cif.got.tgz:20992.got - 2010.06.27 13:26:56.
