data_PCOD8000417
_publ_section_title
;
Structure prediction by ZEFSAII (Michael W. Deem and Ramdas Pophale) SiO2 
 PCOD8000417
Probable space group: P -1
;
_chemical_formula_sum "Si O2"
_cell_formula_units_Z 14
_cell_length_a 8.596084
_cell_length_b 21.455679
_cell_length_c 5.162551
_cell_angle_alpha 63.146307
_cell_angle_beta 60.214555
_cell_angle_gamma 55.493499
_cell_volume 661.389378
_symmetry_space_group_name_H-M "P -1"
_symmetry_group_IT_number 2
_symmetry_cell_setting 'triclinic'
loop_
_space_group_symop_operation_xyz
x,y,z
-x,-y,-z
loop_
_atom_site_type_symbol
_atom_site_label
_atom_site_fract_x
_atom_site_fract_y
_atom_site_fract_z
Si Si1 0.471077 0.110652 0.719573
Si Si2 0.601633 0.449715 0.755806
Si Si3 0.551059 0.677493 0.848044
Si Si4 0.794973 0.966339 0.995820
Si Si5 0.012185 0.449701 0.339042
Si Si6 0.460561 0.777311 0.240044
Si Si7 0.220880 0.906415 0.871980
O O1 0.283611 0.099579 0.787073
O O2 0.410126 0.174095 0.883443
O O3 0.568064 0.142253 0.357594
O O4 0.658293 0.026777 0.782123
O O5 0.500000 0.500000 0.500000
O O6 0.836126 0.423970 0.571433
O O7 0.500000 0.500000 0.000000
O O8 0.570283 0.372661 0.920459
O O9 0.438962 0.734670 0.595508
O O10 0.781220 0.627423 0.678033
O O11 0.557070 0.717070 0.041355
O O12 0.786990 0.011055 0.186391
O O13 0.031010 0.921939 0.815927
O O14 0.000000 0.500000 0.500000
O O15 0.000000 0.500000 0.000000
O O16 0.242055 0.846544 0.203637
#
# Coordination Sequence:
#
# PCOD8000417 Si02
#       7
#     2   2   2   2   2   2   2
#     4  10  19  39  61  92 127 165 221 265 328 369
#     4  12  23  43  72 101 125 165 214 273 321 379
#     4  12  24  44  66  94 138 168 216 258 336 382
#     4   9  20  34  66  96 115 168 220 282 309 372
#     4  12  23  43  72 101 125 165 214 273 321 379
#     4  11  24  42  64  88 137 182 202 266 323 406
#     4  10  19  39  61  92 127 165 221 265 328 369
#
# _framework density 21.167560999999999
#
# number of rings (size 3 to 8) (size 9 to 14) (size 15 to 20)
#    0.000    1.143    4.286    2.571    0.000    0.000 
#    2.571    2.857    0.000    0.000    0.000    0.000 
#    0.000    0.000    0.000    0.000    0.000    0.000 
#
# Total GULP energy -173448.254117 kJ/mol
# GULP energy per Si atom -12389.161008 kJ/mol
# Density = 2.111938 g / cm^3
# Si number density = 21.167561 Si / 1000 Ang^3
#
#
#
# Elastic Constant Matrix: (Units=GPa)
#
#
# Indices 1 2 3 4 5 6 
#
# 1 160.4551 61.0290 63.4543 -2.2339 -24.0411 20.8037
# 2 61.0290 105.1947 46.4448 -1.6247 -7.8197 33.2885
# 3 63.4543 46.4448 117.5609 -3.6634 -0.9517 17.6958
# 4 -2.2339 -1.6247 -3.6634 38.5589 -0.6753 8.2285
# 5 -24.0411 -7.8197 -0.9517 -0.6753 47.5663 3.3328
# 6 20.8037 33.2885 17.6958 8.2285 3.3328 21.2476
#
#
#
# Elastic Compliance Matrix: (Units=1/GPa)
#
#
# Indices 1 2 3 4 5 6 
#
# 1 0.009874 -0.002544 -0.003692 0.000996 0.004775 -0.003743
# 2 -0.002544 0.024891 -0.002254 0.009117 0.005626 -0.039042
# 3 -0.003692 -0.002254 0.011874 0.001433 -0.001767 -0.003021
# 4 0.000996 0.009117 0.001433 0.032984 0.004598 -0.029948
# 5 0.004775 0.005626 -0.001767 0.004598 0.025640 -0.017820
# 6 -0.003743 -0.039042 -0.003021 -0.029948 -0.017820 0.128804
#
#
# Mechanical properties :
#
#
# Convention : Reuss Voigt Hill
#
# Bulk Modulus (GPa) = 33.71514 80.56301 57.13907
# Shear Modulus (GPa) = 19.16190 35.62673 27.39431
#
# Velocity S-wave (km/s) = 3.01200 4.10699 3.60135
# Velocity P-wave (km/s) = 5.29703 7.78666 6.65923
#
# Compressibility (1/GPa) = 0.02966027
#
# Stress axis : x y z
#
# Youngs Moduli (GPa) = 101.27221 40.17524 84.21417
#
# Poissons Ratio (x) = 0.10221 0.31089
# Poissons Ratio (y) = 0.25764 0.18983
# Poissons Ratio (z) = 0.37386 0.09056
#
# Static dielectric constant tensor:
#      x y z
#    x 3.994560 0.097610 0.089220 
#    y 0.097610 3.918350 -0.102520 
#    z 0.089220 -0.102520 3.876310 
# 
# 
# High freq. dielectric constant tensor:
#      x y z
#    x 1.835030 0.014010 0.015610 
#    y 0.014010 1.826500 -0.006050 
#    z 0.015610 -0.006050 1.829440 
# 
# From -- ./inp_files/52345.got.cif
#   From: 2010.06.25/outbox.cif.g09.slc.cpg/sg2_27_cif.got.tgz:52345.got - 2010.06.27 13:26:56.
