data_PCOD8000900
_publ_section_title
;
Structure prediction by ZEFSAII (Michael W. Deem and Ramdas Pophale) SiO2 
 PCOD8000900
Probable space group: P -1
;
_chemical_formula_sum "Si O2"
_cell_formula_units_Z 14
_cell_length_a 8.155485
_cell_length_b 16.640923
_cell_length_c 13.728679
_cell_angle_alpha 24.264343
_cell_angle_beta 72.012059
_cell_angle_gamma 82.948982
_cell_volume 665.446884
_symmetry_space_group_name_H-M "P -1"
_symmetry_group_IT_number 2
_symmetry_cell_setting 'triclinic'
loop_
_space_group_symop_operation_xyz
x,y,z
-x,-y,-z
loop_
_atom_site_type_symbol
_atom_site_label
_atom_site_fract_x
_atom_site_fract_y
_atom_site_fract_z
Si Si1 0.531910 0.449042 0.658833
Si Si2 0.463765 0.989248 0.812347
Si Si3 0.159460 0.158061 0.727268
Si Si4 0.736600 0.437282 0.291971
Si Si5 0.498516 0.146021 0.251573
Si Si6 0.121993 0.435932 0.259875
Si Si7 0.689778 0.597281 0.921822
O O1 0.500000 0.500000 0.500000
O O2 0.715825 0.638291 0.457081
O O3 0.352417 0.419038 0.793038
O O4 0.564471 0.231989 0.887189
O O5 0.530249 0.991238 0.687631
O O6 0.271969 0.025437 0.810135
O O7 0.625968 0.187896 0.618122
O O8 0.075873 0.243511 0.557919
O O9 0.000000 0.000000 0.000000
O O10 0.952799 0.514699 0.199431
O O11 0.708635 0.445184 0.171618
O O12 0.315558 0.198416 0.246391
O O13 0.500000 0.000000 0.500000
O O14 0.688305 0.362934 0.966973
O O15 0.138941 0.346754 0.247551
O O16 0.500000 0.500000 0.000000
#
# Coordination Sequence:
#
# PCOD8000900 Si02
#       7
#     2   2   2   2   2   2   2
#     4  11  25  44  66  94 128 173 221 263 317 389
#     4  11  22  44  66  91 130 172 215 259 325 384
#     4  11  26  44  67  96 129 170 219 267 323 378
#     4  11  24  42  66  98 134 166 211 270 326 377
#     4  11  20  39  67  95 125 174 214 257 323 388
#     4  11  23  42  63  99 136 163 214 276 316 382
#     4  10  19  40  65  91 132 167 210 259 317 389
#
# _framework density 21.038492000000002
#
# number of rings (size 3 to 8) (size 9 to 14) (size 15 to 20)
#    0.000    1.143    2.857    5.571    4.000    2.857 
#    2.571    1.429    0.000    0.000    0.000    0.000 
#    0.000    0.000    0.000    0.000    0.000    0.000 
#
# Total GULP energy -173575.723359 kJ/mol
# GULP energy per Si atom -12398.265954 kJ/mol
# Density = 2.099061 g / cm^3
# Si number density = 21.038492 Si / 1000 Ang^3
#
#
#
# Elastic Constant Matrix: (Units=GPa)
#
#
# Indices 1 2 3 4 5 6 
#
# 1 86.4149 13.3213 21.4803 3.0141 15.1662 -4.2775
# 2 13.3213 86.3056 20.9809 9.8734 9.5590 1.9889
# 3 21.4803 20.9809 107.2284 10.4080 27.5093 -0.8050
# 4 3.0141 9.8734 10.4080 43.5669 0.5751 11.6143
# 5 15.1662 9.5590 27.5093 0.5751 35.3802 10.8400
# 6 -4.2775 1.9889 -0.8050 11.6143 10.8400 31.4540
#
#
#
# Elastic Compliance Matrix: (Units=1/GPa)
#
#
# Indices 1 2 3 4 5 6 
#
# 1 0.013296 -0.001116 -0.000630 -0.001674 -0.006307 0.004655
# 2 -0.001116 0.012614 -0.001501 -0.002562 -0.001909 0.000616
# 3 -0.000630 -0.001501 0.013048 -0.004106 -0.011150 0.005702
# 4 -0.001674 -0.002562 -0.004106 0.028090 0.008247 -0.013385
# 5 -0.006307 -0.001909 -0.011150 0.008247 0.046137 -0.019968
# 6 0.004655 0.000616 0.005702 -0.013385 -0.019968 0.044356
#
#
# Mechanical properties :
#
#
# Convention : Reuss Voigt Hill
#
# Bulk Modulus (GPa) = 30.80373 43.50154 37.15263
# Shear Modulus (GPa) = 28.59469 37.02463 32.80966
#
# Velocity S-wave (km/s) = 3.69068 4.19961 3.95334
# Velocity P-wave (km/s) = 5.73017 6.65114 6.20776
#
# Compressibility (1/GPa) = 0.03246360
#
# Stress axis : x y z
#
# Youngs Moduli (GPa) = 75.20806 79.27450 76.64265
#
# Poissons Ratio (x) = 0.08850 0.04825
# Poissons Ratio (y) = 0.08396 0.11508
# Poissons Ratio (z) = 0.04735 0.11903
#
# Static dielectric constant tensor:
#      x y z
#    x 3.776850 -0.184890 0.134610 
#    y -0.184890 4.355440 -0.289740 
#    z 0.134610 -0.289740 4.205910 
# 
# 
# High freq. dielectric constant tensor:
#      x y z
#    x 1.815110 -0.008920 0.023670 
#    y -0.008920 1.838300 0.006220 
#    z 0.023670 0.006220 1.821910 
# 
# From -- ./inp_files/100453.got.cif
#   From: 2010.06.25/outbox.cif.g09.slc.cpg/sg2_51_cif.got.tgz:100453.got - 2010.06.27 13:26:56.
