data_PCOD8000812
_publ_section_title
;
Structure prediction by ZEFSAII (Michael W. Deem and Ramdas Pophale) SiO2 
 PCOD8000812
Probable space group: P -1
;
_chemical_formula_sum "Si O2"
_cell_formula_units_Z 14
_cell_length_a 11.920567
_cell_length_b 11.091973
_cell_length_c 13.713688
_cell_angle_alpha 146.363881
_cell_angle_beta 106.042546
_cell_angle_gamma 96.910624
_cell_volume 726.682967
_symmetry_space_group_name_H-M "P -1"
_symmetry_group_IT_number 2
_symmetry_cell_setting 'triclinic'
loop_
_space_group_symop_operation_xyz
x,y,z
-x,-y,-z
loop_
_atom_site_type_symbol
_atom_site_label
_atom_site_fract_x
_atom_site_fract_y
_atom_site_fract_z
Si Si1 0.487954 0.828723 0.178546
Si Si2 0.932962 0.119937 0.848411
Si Si3 0.345473 0.369056 0.998589
Si Si4 0.169914 0.138761 0.163274
Si Si5 0.717123 0.471579 0.719817
Si Si6 0.790175 0.270458 0.038481
Si Si7 0.000545 0.073886 0.439677
O O1 0.544642 0.702920 0.038564
O O2 0.632764 0.136832 0.465116
O O3 0.386156 0.610857 0.095973
O O4 0.383466 0.858551 0.107500
O O5 0.831926 0.827373 0.696109
O O6 0.859132 0.269673 0.949334
O O7 0.923648 0.030657 0.674992
O O8 0.109520 0.354534 0.085449
O O9 0.169113 0.078627 0.743202
O O10 0.370456 0.484646 0.192591
O O11 0.290700 0.422571 0.317821
O O12 0.205139 0.922387 0.011762
O O13 0.000000 0.000000 0.000000
O O14 0.895997 0.587778 0.322515
O O15 0.000000 0.000000 0.500000
#
# Coordination Sequence:
#
# PCOD8000812 Si02
#       7
#     2   2   2   2   2   2   2
#     4  11  22  38  56  84 123 149 187 234 285 343
#     4   8  20  38  58  85 111 144 194 233 283 327
#     4  10  23  39  55  88 116 152 193 227 286 344
#     4   8  18  40  59  84 114 142 198 235 275 340
#     4  10  19  40  62  80 113 159 186 232 286 336
#     4  10  21  38  58  88 113 149 189 235 286 331
#     4  11  20  38  61  86 116 146 191 241 280 336
#
# _framework density 19.265622
#
# number of rings (size 3 to 8) (size 9 to 14) (size 15 to 20)
#    0.857    1.429    1.429    1.286    0.000    2.286 
#    5.143    2.857    0.000    0.000    0.000    0.000 
#    0.000    0.000    0.000    0.000    0.000    0.000 
#
# Total GULP energy -173441.818827 kJ/mol
# GULP energy per Si atom -12388.701345 kJ/mol
# Density = 1.922177 g / cm^3
# Si number density = 19.265622 Si / 1000 Ang^3
#
#
#
# Elastic Constant Matrix: (Units=GPa)
#
#
# Indices 1 2 3 4 5 6 
#
# 1 97.7719 26.9331 26.6766 -0.7931 -8.9171 -4.8198
# 2 26.9331 57.6201 26.1736 -6.2313 -2.3826 1.0225
# 3 26.6766 26.1736 79.4785 6.3136 -14.2613 6.2227
# 4 -0.7931 -6.2313 6.3136 16.8377 2.1363 -4.8523
# 5 -8.9171 -2.3826 -14.2613 2.1363 19.6643 -1.8413
# 6 -4.8198 1.0225 6.2227 -4.8523 -1.8413 38.1578
#
#
#
# Elastic Compliance Matrix: (Units=1/GPa)
#
#
# Indices 1 2 3 4 5 6 
#
# 1 0.012591 -0.004843 -0.002095 -0.000263 0.003839 0.002214
# 2 -0.004843 0.024902 -0.009067 0.013751 -0.007098 0.001606
# 3 -0.002095 -0.009067 0.020194 -0.014045 0.013707 -0.004439
# 4 -0.000263 0.013751 -0.014045 0.074800 -0.015769 0.010640
# 5 0.003839 -0.007098 0.013707 -0.015769 0.063341 -0.000509
# 6 0.002214 0.001606 -0.004439 0.010640 -0.000509 0.028496
#
#
# Mechanical properties :
#
#
# Convention : Reuss Voigt Hill
#
# Bulk Modulus (GPa) = 38.94393 43.82635 41.38514
# Shear Modulus (GPa) = 18.87562 25.27111 22.07336
#
# Velocity S-wave (km/s) = 3.13350 3.62570 3.38855
# Velocity P-wave (km/s) = 5.77493 6.35023 6.06940
#
# Compressibility (1/GPa) = 0.02567794
#
# Stress axis : x y z
#
# Youngs Moduli (GPa) = 79.42468 40.15682 49.52001
#
# Poissons Ratio (x) = 0.19446 0.10373
# Poissons Ratio (y) = 0.38462 0.44900
# Poissons Ratio (z) = 0.16637 0.36411
#
# Static dielectric constant tensor:
#      x y z
#    x 3.653920 0.215480 -0.107980 
#    y 0.215480 3.630600 0.107820 
#    z -0.107980 0.107820 3.472840 
# 
# 
# High freq. dielectric constant tensor:
#      x y z
#    x 1.757690 0.005140 -0.002410 
#    y 0.005140 1.737450 0.007790 
#    z -0.002410 0.007790 1.733610 
# 
# From -- ./inp_files/272306.got.cif
#   From: 2010.06.25/outbox.cif.g09.slc.cpg/sg2_137_cif.got.tgz:272306.got - 2010.06.27 13:26:56.
