data_PCOD8000107
_publ_section_title
;
Structure prediction by ZEFSAII (Michael W. Deem and Ramdas Pophale) SiO2 
 PCOD8000107
Probable space group: P 1
;
_chemical_formula_sum "Si O2"
_cell_formula_units_Z 8
_cell_length_a 5.202731
_cell_length_b 13.661621
_cell_length_c 7.772593
_cell_angle_alpha 52.510839
_cell_angle_beta 88.587429
_cell_angle_gamma 75.671207
_cell_volume 418.981071
_symmetry_space_group_name_H-M "P 1"
_symmetry_group_IT_number 1
_symmetry_cell_setting 'triclinic'
loop_
_space_group_symop_operation_xyz
x,y,z
loop_
_atom_site_type_symbol
_atom_site_label
_atom_site_fract_x
_atom_site_fract_y
_atom_site_fract_z
Si Si1 0.867660 0.722690 0.748900
Si Si2 0.894164 0.010663 0.418448
Si Si3 0.520718 0.218381 0.405304
Si Si4 0.070182 0.929272 0.145015
Si Si5 0.266474 0.501790 0.144201
Si Si6 0.715608 0.593517 0.192840
Si Si7 0.670256 0.760812 0.344952
Si Si8 0.077996 0.103996 0.636456
O O1 0.763950 0.690928 0.599824
O O2 0.866381 0.869298 0.596431
O O3 0.674056 0.704110 0.926872
O O4 0.165029 0.619714 0.882923
O O5 0.613383 0.123326 0.340339
O O6 0.114979 0.026617 0.536022
O O7 0.979467 0.026471 0.204268
O O8 0.397330 0.366446 0.188127
O O9 0.779316 0.205904 0.537284
O O10 0.303768 0.176310 0.568825
O O11 0.356265 0.832525 0.292256
O O12 0.848125 0.855337 0.190389
O O13 0.110287 0.005260 0.896230
O O14 0.481057 0.526826 0.247636
O O15 0.009721 0.490503 0.271337
O O16 0.706350 0.651747 0.318810
#
# Coordination Sequence:
#
# PCOD8000107 Si02
#       8
#     1   1   1   1   1   1   1   1
#     4   9  23  36  63  90 123 152 199 244 306 352
#     4   9  23  36  63  90 123 152 199 244 306 352
#     4  10  22  40  64  83 122 163 203 242 301 355
#     4  11  23  36  60  95 127 151 199 252 306 360
#     4  10  22  40  64  83 122 163 203 242 301 355
#     4  10  22  37  63  83 124 158 201 242 303 348
#     4  11  23  36  60  95 127 151 199 252 306 360
#     4  10  22  37  63  83 124 158 201 242 303 348
#
# _framework density 19.093941000000001
#
# number of rings (size 3 to 8) (size 9 to 14) (size 15 to 20)
#    1.500    0.500    0.000    3.000   10.500    0.000 
#    0.000    1.250    5.500    0.000    0.000    0.000 
#    0.000    0.000    0.000    0.000    0.000    0.000 
#
# Total GULP energy -99120.743982 kJ/mol
# GULP energy per Si atom -12390.092998 kJ/mol
# Density = 1.905048 g / cm^3
# Si number density = 19.093941 Si / 1000 Ang^3
#
#
#
# Elastic Constant Matrix: (Units=GPa)
#
#
# Indices 1 2 3 4 5 6 
#
# 1 117.0523 39.0630 13.9003 -3.2328 10.6625 -6.3562
# 2 39.0630 126.5738 55.0476 -4.7187 19.2484 -7.8521
# 3 13.9003 55.0476 39.5688 -0.5852 15.5682 3.6424
# 4 -3.2328 -4.7187 -0.5852 33.0882 -3.4843 7.3269
# 5 10.6625 19.2484 15.5682 -3.4843 23.6788 -2.5996
# 6 -6.3562 -7.8521 3.6424 7.3269 -2.5996 19.5858
#
#
#
# Elastic Compliance Matrix: (Units=1/GPa)
#
#
# Indices 1 2 3 4 5 6 
#
# 1 0.009788 -0.003865 0.003178 -0.000020 -0.003291 0.000606
# 2 -0.003865 0.026686 -0.040995 -0.000432 0.008959 0.018419
# 3 0.003178 -0.040995 0.099709 0.000951 -0.037841 -0.039325
# 4 -0.000020 -0.000432 0.000951 0.033258 0.003271 -0.012364
# 5 -0.003291 0.008959 -0.037841 0.003271 0.063635 0.016783
# 6 0.000606 0.018419 -0.039325 -0.012364 0.016783 0.072804
#
#
# Mechanical properties :
#
#
# Convention : Reuss Voigt Hill
#
# Bulk Modulus (GPa) = 18.93241 55.46852 37.20046
# Shear Modulus (GPa) = 12.28950 26.94949 19.61949
#
# Velocity S-wave (km/s) = 2.53975 3.76096 3.20898
# Velocity P-wave (km/s) = 4.30550 6.92626 5.76673
#
# Compressibility (1/GPa) = 0.05281949
#
# Stress axis : x y z
#
# Youngs Moduli (GPa) = 102.16623 37.47234 10.02914
#
# Poissons Ratio (x) = 0.14485 -0.03187
# Poissons Ratio (y) = 0.39492 0.41114
# Poissons Ratio (z) = -0.32467 1.53616
#
# Static dielectric constant tensor:
#      x y z
#    x 3.620730 -0.004830 0.049360 
#    y -0.004830 3.457560 0.070530 
#    z 0.049360 0.070530 3.258280 
# 
# 
# High freq. dielectric constant tensor:
#      x y z
#    x 1.756210 -0.000370 0.003630 
#    y -0.000370 1.733180 0.001110 
#    z 0.003630 0.001110 1.717620 
# 
# From -- ./inp_files/3253.got.cif
#   From: 2010.03.12/outbox.cif.g09.slc.cpg/sg1_2_cif.got.tgz:3253.got - 2010.03.29 11:57:58.
