data_PCOD8000236
_publ_section_title
;
Structure prediction by ZEFSAII (Michael W. Deem and Ramdas Pophale) SiO2 
 PCOD8000236
Probable space group: P 1
;
_chemical_formula_sum "Si O2"
_cell_formula_units_Z 8
_cell_length_a 6.614810
_cell_length_b 12.269320
_cell_length_c 11.365156
_cell_angle_alpha 36.016942
_cell_angle_beta 44.913969
_cell_angle_gamma 45.549615
_cell_volume 364.444836
_symmetry_space_group_name_H-M "P 1"
_symmetry_group_IT_number 1
_symmetry_cell_setting 'triclinic'
loop_
_space_group_symop_operation_xyz
x,y,z
loop_
_atom_site_type_symbol
_atom_site_label
_atom_site_fract_x
_atom_site_fract_y
_atom_site_fract_z
Si Si1 0.109650 0.562250 0.315330
Si Si2 0.725618 0.568638 0.674707
Si Si3 0.084540 0.563220 0.042633
Si Si4 0.097971 0.180339 0.251369
Si Si5 0.477516 0.131959 0.534898
Si Si6 0.099398 0.194520 0.972985
Si Si7 0.462920 0.855096 0.976447
Si Si8 0.599206 0.994206 0.364699
O O1 0.086761 0.590093 0.159676
O O2 0.323704 0.350905 0.447493
O O3 0.790109 0.577408 0.498548
O O4 0.251287 0.715718 0.185932
O O5 0.747158 0.772302 0.538924
O O6 0.399901 0.552723 0.858407
O O7 0.001013 0.397747 0.765741
O O8 0.021984 0.363242 0.210869
O O9 0.814141 0.737991 0.948158
O O10 0.152993 0.245810 0.040047
O O11 0.834748 0.083315 0.443193
O O12 0.390101 0.009670 0.323110
O O13 0.383939 0.969350 0.786634
O O14 0.389843 0.111146 0.454352
O O15 0.838190 0.100134 0.141746
O O16 0.394306 0.027683 0.951505
#
# Coordination Sequence:
#
# PCOD8000236 Si02
#       8
#     1   1   1   1   1   1   1   1
#     4  12  25  48  73  99 144 184 233 288 342 415
#     4  12  25  48  73 102 139 189 231 284 351 407
#     4  12  26  47  71 106 141 182 233 288 346 413
#     4  11  23  44  69 101 144 177 229 292 343 410
#     4  11  23  43  71  99 137 186 228 286 348 407
#     4  11  25  44  68 101 140 180 231 285 341 413
#     4  12  26  46  70 104 140 181 233 288 347 410
#     4  11  23  44  69  98 139 183 230 283 346 409
#
# _framework density 21.951195999999999
#
# number of rings (size 3 to 8) (size 9 to 14) (size 15 to 20)
#    0.000    0.500    6.250    2.250    3.500    0.000 
#    4.500    0.000    0.000    0.000    0.000    0.000 
#    0.000    0.000    0.000    0.000    0.000    0.000 
#
# Total GULP energy -99150.297543 kJ/mol
# GULP energy per Si atom -12393.787193 kJ/mol
# Density = 2.190123 g / cm^3
# Si number density = 21.951196 Si / 1000 Ang^3
#
#
#
# Elastic Constant Matrix: (Units=GPa)
#
#
# Indices 1 2 3 4 5 6 
#
# 1 92.4320 34.0567 32.8672 0.0777 9.2439 1.1525
# 2 34.0567 124.0152 46.3005 -9.9504 6.4164 1.9285
# 3 32.8672 46.3005 113.5220 -0.5781 11.9289 -5.4092
# 4 0.0777 -9.9504 -0.5781 55.7267 -2.6640 5.3255
# 5 9.2439 6.4164 11.9289 -2.6640 11.4350 -7.4023
# 6 1.1525 1.9285 -5.4092 5.3255 -7.4023 28.3442
#
#
#
# Elastic Compliance Matrix: (Units=1/GPa)
#
#
# Indices 1 2 3 4 5 6 
#
# 1 0.013438 -0.002433 -0.002048 -0.000630 -0.009544 -0.003146
# 2 -0.002433 0.010256 -0.003459 0.001932 -0.000938 -0.001867
# 3 -0.002048 -0.003459 0.011728 -0.000949 -0.008531 0.000507
# 4 -0.000630 0.001932 -0.000949 0.018708 0.002783 -0.003075
# 5 -0.009544 -0.000938 -0.008531 0.002783 0.125327 0.031031
# 6 -0.003146 -0.001867 0.000507 -0.003075 0.031031 0.044314
#
#
# Mechanical properties :
#
#
# Convention : Reuss Voigt Hill
#
# Bulk Modulus (GPa) = 51.17503 61.82424 56.49964
# Shear Modulus (GPa) = 20.31149 33.55083 26.93116
#
# Velocity S-wave (km/s) = 3.04518 3.91375 3.50646
# Velocity P-wave (km/s) = 5.97728 6.97487 6.49526
#
# Compressibility (1/GPa) = 0.01954078
#
# Stress axis : x y z
#
# Youngs Moduli (GPa) = 74.41618 97.50644 85.26293
#
# Poissons Ratio (x) = 0.23727 0.17465
# Poissons Ratio (y) = 0.18108 0.29492
# Poissons Ratio (z) = 0.15243 0.33727
#
# Static dielectric constant tensor:
#      x y z
#    x 3.725430 0.097300 0.130430 
#    y 0.097300 4.402040 0.030210 
#    z 0.130430 0.030210 4.022330 
# 
# 
# High freq. dielectric constant tensor:
#      x y z
#    x 1.843340 0.003770 0.011230 
#    y 0.003770 1.882790 -0.006980 
#    z 0.011230 -0.006980 1.872590 
# 
# From -- ./inp_files/2343.got.cif
#   From: 2010.03.12/outbox.cif.g09.slc.cpg/sg1_2_cif.got.tgz:2343.got - 2010.03.29 11:57:58.
