data_PCOD8000222
_publ_section_title
;
Structure prediction by ZEFSAII (Michael W. Deem and Ramdas Pophale) SiO2 
 PCOD8000222
Probable space group: P 1
;
_chemical_formula_sum "Si O2"
_cell_formula_units_Z 8
_cell_length_a 5.594631
_cell_length_b 13.241337
_cell_length_c 11.125328
_cell_angle_alpha 34.061592
_cell_angle_beta 125.508262
_cell_angle_gamma 133.725587
_cell_volume 333.513239
_symmetry_space_group_name_H-M "P 1"
_symmetry_group_IT_number 1
_symmetry_cell_setting 'triclinic'
loop_
_space_group_symop_operation_xyz
x,y,z
loop_
_atom_site_type_symbol
_atom_site_label
_atom_site_fract_x
_atom_site_fract_y
_atom_site_fract_z
Si Si1 0.599170 0.675310 0.262810
Si Si2 0.222287 0.782478 0.669000
Si Si3 0.563373 0.431950 0.868862
Si Si4 0.683865 0.571432 0.030228
Si Si5 0.306596 0.298758 0.395426
Si Si6 0.306957 0.678588 0.436432
Si Si7 0.599531 0.055146 0.303807
Si Si8 0.342778 0.921955 0.830376
O O1 0.315102 0.472572 0.315689
O O2 0.453064 0.676948 0.349622
O O3 0.953059 0.676944 0.349625
O O4 0.645259 0.877325 0.002144
O O5 0.242854 0.895834 0.687306
O O6 0.862430 0.602044 0.711212
O O7 0.322089 0.947637 0.430332
O O8 0.453103 0.676972 0.849588
O O9 0.260888 0.476579 0.697098
O O10 0.663307 0.458059 0.011948
O O11 0.502779 0.203809 0.048936
O O12 0.584025 0.406282 0.268881
O O13 0.043729 0.751855 0.988034
O O14 0.953065 0.176947 0.349622
O O15 0.403367 0.150096 0.650295
O O16 0.591019 0.881327 0.383549
#
# Coordination Sequence:
#
# PCOD8000222 Si02
#       8
#     1   1   1   1   1   1   1   1
#     4  12  29  50  71 106 156 200 243 301 370 442
#     4  11  20  42  72 110 149 176 238 319 369 419
#     4  11  24  43  72 106 148 194 241 306 368 433
#     4  11  20  42  72 110 149 176 238 319 369 419
#     4  12  24  45  80 111 138 193 251 304 369 439
#     4  12  29  50  71 106 156 200 243 301 370 442
#     4  12  24  45  80 111 138 193 251 304 369 439
#     4  11  24  43  72 106 148 194 241 306 368 433
#
# _framework density 23.987055999999999
#
# number of rings (size 3 to 8) (size 9 to 14) (size 15 to 20)
#    0.000    0.500    5.000    3.750    0.000    4.000 
#    0.000    0.000    0.000    0.000    0.000    0.000 
#    0.000    0.000    0.000    0.000    0.000    0.000 
#
# Total GULP energy -99162.724160 kJ/mol
# GULP energy per Si atom -12395.340520 kJ/mol
# Density = 2.393246 g / cm^3
# Si number density = 23.987056 Si / 1000 Ang^3
#
#
#
# Elastic Constant Matrix: (Units=GPa)
#
#
# Indices 1 2 3 4 5 6 
#
# 1 123.5066 42.1360 58.4790 0.5504 -9.2656 0.4750
# 2 42.1360 100.8169 42.5859 0.7947 -3.7536 -12.8495
# 3 58.4790 42.5859 211.3602 -12.6085 15.9150 -0.9085
# 4 0.5504 0.7947 -12.6085 33.0043 3.0233 4.0863
# 5 -9.2656 -3.7536 15.9150 3.0233 61.1945 2.0103
# 6 0.4750 -12.8495 -0.9085 4.0863 2.0103 37.4795
#
#
#
# Elastic Compliance Matrix: (Units=1/GPa)
#
#
# Indices 1 2 3 4 5 6 
#
# 1 0.010625 -0.003488 -0.002467 -0.001059 0.002134 -0.001389
# 2 -0.003488 0.012708 -0.001714 -0.001516 0.000624 0.004491
# 3 -0.002467 -0.001714 0.006080 0.002676 -0.002173 -0.000584
# 4 -0.001059 -0.001516 0.002676 0.032068 -0.002409 -0.003808
# 5 0.002134 0.000624 -0.002173 -0.002409 0.017405 -0.000537
# 6 -0.001389 0.004491 -0.000584 -0.003808 -0.000537 0.028668
#
#
# Mechanical properties :
#
#
# Convention : Reuss Voigt Hill
#
# Bulk Modulus (GPa) = 71.04146 80.23172 75.63659
# Shear Modulus (GPa) = 39.19040 45.83452 42.51246
#
# Velocity S-wave (km/s) = 4.04643 4.37601 4.21445
# Velocity P-wave (km/s) = 7.17721 7.68461 7.43524
#
# Compressibility (1/GPa) = 0.01407629
#
# Stress axis : x y z
#
# Youngs Moduli (GPa) = 94.11904 78.68940 164.47932
#
# Poissons Ratio (x) = 0.27446 0.40573
# Poissons Ratio (y) = 0.32827 0.28186
# Poissons Ratio (z) = 0.23217 0.13484
#
# Static dielectric constant tensor:
#      x y z
#    x 5.217890 -0.487100 0.102360 
#    y -0.487100 5.181360 0.063650 
#    z 0.102360 0.063650 4.717390 
# 
# 
# High freq. dielectric constant tensor:
#      x y z
#    x 1.958600 -0.002190 0.016010 
#    y -0.002190 1.932160 -0.000510 
#    z 0.016010 -0.000510 1.969320 
# 
# From -- ./inp_files/2488.got.cif
#   From: 2010.03.12/outbox.cif.g09.slc.cpg/sg1_2_cif.got.tgz:2488.got - 2010.03.29 11:57:58.
