data_PCOD8000251
_publ_section_title
;
Structure prediction by ZEFSAII (Michael W. Deem and Ramdas Pophale) SiO2 
 PCOD8000251
Probable space group: P 1
;
_chemical_formula_sum "Si O2"
_cell_formula_units_Z 8
_cell_length_a 11.882957
_cell_length_b 9.760897
_cell_length_c 14.553139
_cell_angle_alpha 145.594320
_cell_angle_beta 152.296566
_cell_angle_gamma 26.146268
_cell_volume 342.006321
_symmetry_space_group_name_H-M "P 1"
_symmetry_group_IT_number 1
_symmetry_cell_setting 'triclinic'
loop_
_space_group_symop_operation_xyz
x,y,z
loop_
_atom_site_type_symbol
_atom_site_label
_atom_site_fract_x
_atom_site_fract_y
_atom_site_fract_z
Si Si1 0.943090 0.689960 0.667740
Si Si2 0.282676 0.703197 0.454430
Si Si3 0.300032 0.197895 0.796989
Si Si4 0.930745 0.575527 0.246069
Si Si5 0.208452 0.195582 0.423712
Si Si6 0.196414 0.032017 0.990326
Si Si7 0.974343 0.845179 0.118810
Si Si8 0.957693 0.301264 0.769483
O O1 0.032921 0.542339 0.753372
O O2 0.033057 0.431827 0.513716
O O3 0.581436 0.998726 0.580389
O O4 0.161051 0.781116 0.858648
O O5 0.634230 0.381685 0.548289
O O6 0.072128 0.743962 0.410422
O O7 0.123239 0.701370 0.246377
O O8 0.327735 0.962255 0.612699
O O9 0.217922 0.075279 0.756779
O O10 0.607104 0.157189 0.024047
O O11 0.561898 0.854169 0.145257
O O12 0.068591 0.402986 0.346642
O O13 0.021379 0.321620 0.093864
O O14 0.157345 0.937044 0.246324
O O15 0.031574 0.155758 0.841637
O O16 0.972971 0.585271 0.926000
#
# Coordination Sequence:
#
# PCOD8000251 Si02
#       8
#     1   1   1   1   1   1   1   1
#     4  12  27  47  71 104 145 183 237 291 350 416
#     4  11  24  46  69 104 142 181 239 284 353 415
#     4  11  26  42  73 103 142 187 228 296 347 416
#     4  12  27  46  74 102 142 189 233 292 349 419
#     4  12  27  46  74 102 142 189 233 292 349 419
#     4  12  27  47  71 104 145 183 237 291 350 416
#     4  11  24  46  69 104 142 181 239 284 353 415
#     4  11  26  42  73 103 142 187 228 296 347 416
#
# _framework density 23.391379000000001
#
# number of rings (size 3 to 8) (size 9 to 14) (size 15 to 20)
#    0.000    0.500    2.500    4.500   10.500    2.000 
#    0.000    0.000    0.000    0.000    0.000    0.000 
#    0.000    0.000    0.000    0.000    0.000    0.000 
#
# Total GULP energy -99148.222380 kJ/mol
# GULP energy per Si atom -12393.527797 kJ/mol
# Density = 2.333814 g / cm^3
# Si number density = 23.391379 Si / 1000 Ang^3
#
#
#
# Elastic Constant Matrix: (Units=GPa)
#
#
# Indices 1 2 3 4 5 6 
#
# 1 98.8204 18.4363 28.4141 -16.0540 0.9088 17.0293
# 2 18.4363 77.8895 28.4954 -24.5314 -6.4606 10.4553
# 3 28.4141 28.4954 112.0037 -21.2608 11.3623 11.8906
# 4 -16.0540 -24.5314 -21.2608 54.8894 9.2568 3.4046
# 5 0.9088 -6.4606 11.3623 9.2568 49.0995 -4.6927
# 6 17.0293 10.4553 11.8906 3.4046 -4.6927 44.1955
#
#
#
# Elastic Compliance Matrix: (Units=1/GPa)
#
#
# Indices 1 2 3 4 5 6 
#
# 1 0.011983 -0.000785 -0.001749 0.002889 -0.000874 -0.004276
# 2 -0.000785 0.016439 -0.002625 0.006075 0.001333 -0.003207
# 3 -0.001749 -0.002625 0.011354 0.003511 -0.003835 -0.002438
# 4 0.002889 0.006075 0.003511 0.024388 -0.005231 -0.005929
# 5 -0.000874 0.001333 -0.003835 -0.005231 0.022803 0.003877
# 6 -0.004276 -0.003207 -0.002438 -0.005929 0.003877 0.026557
#
#
# Mechanical properties :
#
#
# Convention : Reuss Voigt Hill
#
# Bulk Modulus (GPa) = 33.94648 48.82279 41.38464
# Shear Modulus (GPa) = 37.40759 43.86139 40.63449
#
# Velocity S-wave (km/s) = 4.00334 4.33495 4.17244
# Velocity P-wave (km/s) = 5.99274 6.78035 6.39868
#
# Compressibility (1/GPa) = 0.02945813
#
# Stress axis : x y z
#
# Youngs Moduli (GPa) = 83.45107 60.83063 88.07285
#
# Poissons Ratio (x) = 0.04775 0.15406
# Poissons Ratio (y) = 0.06551 0.23118
# Poissons Ratio (z) = 0.14598 0.15967
#
# Static dielectric constant tensor:
#      x y z
#    x 4.265670 0.039580 0.076210 
#    y 0.039580 4.266040 -0.018800 
#    z 0.076210 -0.018800 4.305430 
# 
# 
# High freq. dielectric constant tensor:
#      x y z
#    x 1.935580 0.010270 0.004020 
#    y 0.010270 1.930710 -0.003660 
#    z 0.004020 -0.003660 1.943080 
# 
# From -- ./inp_files/653.got.cif
#   From: 2010.03.12/outbox.cif.g09.slc.cpg/sg1_1_cif.got.tgz:653.got - 2010.03.29 11:57:58.
