data_PCOD8000231
_publ_section_title
;
Structure prediction by ZEFSAII (Michael W. Deem and Ramdas Pophale) SiO2 
 PCOD8000231
Probable space group: P 1
;
_chemical_formula_sum "Si O2"
_cell_formula_units_Z 8
_cell_length_a 5.433238
_cell_length_b 5.433236
_cell_length_c 13.801459
_cell_angle_alpha 118.619460
_cell_angle_beta 113.639837
_cell_angle_gamma 83.243335
_cell_volume 326.223913
_symmetry_space_group_name_H-M "P 1"
_symmetry_group_IT_number 1
_symmetry_cell_setting 'triclinic'
loop_
_space_group_symop_operation_xyz
x,y,z
loop_
_atom_site_type_symbol
_atom_site_label
_atom_site_fract_x
_atom_site_fract_y
_atom_site_fract_z
Si Si1 0.903510 0.879790 0.343550
Si Si2 0.363812 0.186019 0.056573
Si Si3 0.988815 0.674570 0.113349
Si Si4 0.528949 0.310054 0.905427
Si Si5 0.108634 0.640309 0.826372
Si Si6 0.415144 0.142001 0.264496
Si Si7 0.510967 0.728126 0.723643
Si Si8 0.196784 0.487583 0.446280
O O1 0.914425 0.672190 0.214847
O O2 0.991607 0.713771 0.421599
O O3 0.592639 0.944494 0.319675
O O4 0.063583 0.189611 0.410651
O O5 0.200649 0.454631 0.084959
O O6 0.540783 0.186903 0.184470
O O7 0.567952 0.207127 0.002495
O O8 0.158435 0.908630 0.955074
O O9 0.118082 0.986866 0.167427
O O10 0.733902 0.595748 0.985454
O O11 0.221082 0.377189 0.850248
O O12 0.600690 0.063731 0.797747
O O13 0.284261 0.666173 0.759273
O O14 0.786518 0.572310 0.748319
O O15 0.384183 0.429104 0.372177
O O16 0.385339 0.639327 0.584962
#
# Coordination Sequence:
#
# PCOD8000231 Si02
#       8
#     1   1   1   1   1   1   1   1
#     4  11  26  47  75 108 150 199 250 316 386 450
#     4  11  22  42  69 108 144 194 243 315 383 462
#     4  11  22  42  69 108 144 194 243 315 383 462
#     4  11  26  44  74 106 153 193 252 314 389 459
#     4  11  26  47  75 108 150 199 250 316 386 450
#     4  11  26  44  74 106 153 193 252 314 389 459
#     4  11  28  49  74 111 148 201 260 316 377 459
#     4  11  28  49  74 111 148 201 260 316 377 459
#
# _framework density 24.523033000000002
#
# number of rings (size 3 to 8) (size 9 to 14) (size 15 to 20)
#    0.000    1.000    2.500    2.250   10.500    0.000 
#    0.000    0.000    0.000    0.000    0.000    0.000 
#    0.000    0.000    0.000    0.000    0.000    0.000 
#
# Total GULP energy -99152.085440 kJ/mol
# GULP energy per Si atom -12394.010680 kJ/mol
# Density = 2.446722 g / cm^3
# Si number density = 24.523033 Si / 1000 Ang^3
#
#
#
# Elastic Constant Matrix: (Units=GPa)
#
#
# Indices 1 2 3 4 5 6 
#
# 1 91.9276 23.0617 54.6513 -3.2046 3.7602 -18.4657
# 2 23.0617 105.3260 58.0224 -8.2497 3.0304 -17.3038
# 3 54.6513 58.0224 192.7675 -1.1815 -1.8575 -10.2265
# 4 -3.2046 -8.2497 -1.1815 34.1543 -3.6988 7.1986
# 5 3.7602 3.0304 -1.8575 -3.6988 32.8013 -6.6200
# 6 -18.4657 -17.3038 -10.2265 7.1986 -6.6200 33.4019
#
#
#
# Elastic Compliance Matrix: (Units=1/GPa)
#
#
# Indices 1 2 3 4 5 6 
#
# 1 0.014491 0.000012 -0.003757 -0.000262 -0.000528 0.006819
# 2 0.000012 0.012347 -0.003448 0.001810 -0.000138 0.004929
# 3 -0.003757 -0.003448 0.007222 -0.000558 0.000819 -0.001369
# 4 -0.000262 0.001810 -0.000558 0.031100 0.002199 -0.005645
# 5 -0.000528 -0.000138 0.000819 0.002199 0.032016 0.005758
# 6 0.006819 0.004929 -0.001369 -0.005645 0.005758 0.038200
#
#
# Mechanical properties :
#
#
# Convention : Reuss Voigt Hill
#
# Bulk Modulus (GPa) = 50.83074 73.49912 62.16493
# Shear Modulus (GPa) = 31.98532 37.02390 34.50461
#
# Velocity S-wave (km/s) = 3.61542 3.88978 3.75511
# Velocity P-wave (km/s) = 6.18071 7.08593 6.64874
#
# Compressibility (1/GPa) = 0.01967314
#
# Stress axis : x y z
#
# Youngs Moduli (GPa) = 69.00963 80.99062 138.45721
#
# Poissons Ratio (x) = -0.00094 0.52014
# Poissons Ratio (y) = -0.00080 0.47746
# Poissons Ratio (z) = 0.25925 0.27929
#
# Static dielectric constant tensor:
#      x y z
#    x 4.333940 -0.085240 -0.046470 
#    y -0.085240 4.360680 0.042540 
#    z -0.046470 0.042540 4.590740 
# 
# 
# High freq. dielectric constant tensor:
#      x y z
#    x 1.969030 -0.012760 -0.003400 
#    y -0.012760 1.973270 0.003390 
#    z -0.003400 0.003390 1.975250 
# 
# From -- ./inp_files/407.got.cif
#   From: 2010.03.12/outbox.cif.g09.slc.cpg/sg1_1_cif.got.tgz:407.got - 2010.03.29 11:57:58.
