data_PCOD8000439
_publ_section_title
;
Structure prediction by ZEFSAII (Michael W. Deem and Ramdas Pophale) SiO2 
 PCOD8000439
Probable space group: P -1
;
_chemical_formula_sum "Si O2"
_cell_formula_units_Z 16
_cell_length_a 8.901554
_cell_length_b 9.727798
_cell_length_c 15.157424
_cell_angle_alpha 66.336914
_cell_angle_beta 66.004986
_cell_angle_gamma 44.192324
_cell_volume 823.336705
_symmetry_space_group_name_H-M "P -1"
_symmetry_group_IT_number 2
_symmetry_cell_setting 'triclinic'
loop_
_space_group_symop_operation_xyz
x,y,z
-x,-y,-z
loop_
_atom_site_type_symbol
_atom_site_label
_atom_site_fract_x
_atom_site_fract_y
_atom_site_fract_z
Si Si1 0.155277 0.909045 0.619615
Si Si2 0.640251 0.089303 0.269191
Si Si3 0.172028 0.289716 0.293027
Si Si4 0.264143 0.285784 0.732989
Si Si5 0.276690 0.899336 0.404115
Si Si6 0.786641 0.810251 0.892757
Si Si7 0.413568 0.257498 0.889133
Si Si8 0.238638 0.665671 0.818900
O O1 0.251110 0.984197 0.639806
O O2 0.290395 0.821608 0.518700
O O3 0.194171 0.726846 0.709129
O O4 0.894212 0.093217 0.617111
O O5 0.377295 0.251256 0.298220
O O6 0.709665 0.207573 0.176917
O O7 0.725704 0.897570 0.241887
O O8 0.215362 0.255852 0.187089
O O9 0.950866 0.513119 0.312067
O O10 0.162138 0.131574 0.379365
O O11 0.480914 0.240620 0.658026
O O12 0.246515 0.315945 0.834730
O O13 0.025209 0.711480 0.897288
O O14 0.650314 0.047447 0.864848
O O15 0.680358 0.749989 0.995803
O O16 0.434615 0.426425 0.845866
#
# Coordination Sequence:
#
# PCOD8000439 Si02
#       8
#     2   2   2   2   2   2   2   2
#     4   9  19  39  63  82 123 150 190 245 291 326
#     4   9  22  39  56  85 126 148 187 243 294 339
#     4  11  20  38  58  84 123 157 190 236 290 346
#     4  11  21  37  62  87 117 158 192 238 287 347
#     4  10  19  39  62  87 113 155 198 241 274 350
#     4  11  21  37  64  86 111 150 204 240 279 345
#     4  11  21  36  66  86 107 153 203 238 284 342
#     4  10  20  40  59  84 114 155 187 246 281 341
#
# _framework density 19.433119000000001
#
# number of rings (size 3 to 8) (size 9 to 14) (size 15 to 20)
#    0.750    1.000    5.000    0.375    0.000    3.000 
#    0.000   10.625    0.000    0.000    0.000    0.000 
#    0.000    0.000    0.000    0.000    0.000    0.000 
#
# Total GULP energy -198295.430543 kJ/mol
# GULP energy per Si atom -12393.464409 kJ/mol
# Density = 1.938889 g / cm^3
# Si number density = 19.433119 Si / 1000 Ang^3
#
#
#
# Elastic Constant Matrix: (Units=GPa)
#
#
# Indices 1 2 3 4 5 6 
#
# 1 115.5103 38.0715 15.4126 9.1991 -1.3844 -4.2462
# 2 38.0715 115.0940 25.6006 -8.1961 -7.3827 -12.1375
# 3 15.4126 25.6006 66.1209 2.2761 -4.4486 0.6568
# 4 9.1991 -8.1961 2.2761 18.8715 -2.0420 2.0510
# 5 -1.3844 -7.3827 -4.4486 -2.0420 14.9871 -1.5896
# 6 -4.2462 -12.1375 0.6568 2.0510 -1.5896 21.1720
#
#
#
# Elastic Compliance Matrix: (Units=1/GPa)
#
#
# Indices 1 2 3 4 5 6 
#
# 1 0.010613 -0.003909 -0.000864 -0.007043 -0.002115 0.000438
# 2 -0.003909 0.012444 -0.003809 0.007784 0.006355 0.006191
# 3 -0.000864 -0.003809 0.017086 -0.002761 0.002481 -0.002433
# 4 -0.007043 0.007784 -0.002761 0.061497 0.010528 -0.002031
# 5 -0.002115 0.006355 0.002481 0.010528 0.072634 0.007576
# 6 0.000438 0.006191 -0.002433 -0.002031 0.007576 0.051710
#
#
# Mechanical properties :
#
#
# Convention : Reuss Voigt Hill
#
# Bulk Modulus (GPa) = 43.52012 50.54384 47.03198
# Shear Modulus (GPa) = 19.93564 25.51550 22.72557
#
# Velocity S-wave (km/s) = 3.20638 3.62745 3.42340
# Velocity P-wave (km/s) = 6.01259 6.60380 6.31512
#
# Compressibility (1/GPa) = 0.02297788
#
# Stress axis : x y z
#
# Youngs Moduli (GPa) = 94.22647 80.36165 58.52733
#
# Poissons Ratio (x) = 0.31416 0.05059
# Poissons Ratio (y) = 0.36837 0.22291
# Poissons Ratio (z) = 0.08145 0.30606
#
# Static dielectric constant tensor:
#      x y z
#    x 3.592660 -0.130410 0.001080 
#    y -0.130410 3.504200 -0.171150 
#    z 0.001080 -0.171150 3.407450 
# 
# 
# High freq. dielectric constant tensor:
#      x y z
#    x 1.751470 -0.011130 -0.004690 
#    y -0.011130 1.747140 -0.012760 
#    z -0.004690 -0.012760 1.746550 
# 
# From -- ./inp_files/492487.got.cif
#   From: 2010.06.25/outbox.cif.g09.slc.cpg/sg2_247_cif.got.tgz:492487.got - 2010.06.27 13:26:56.
