data_PCOD8000966
_publ_section_title
;
Structure prediction by ZEFSAII (Michael W. Deem and Ramdas Pophale) SiO2 
 PCOD8000966
Probable space group: P -1
;
_chemical_formula_sum "Si O2"
_cell_formula_units_Z 16
_cell_length_a 16.908851
_cell_length_b 20.098837
_cell_length_c 11.266613
_cell_angle_alpha 21.915214
_cell_angle_beta 32.542302
_cell_angle_gamma 32.870291
_cell_volume 736.165990
_symmetry_space_group_name_H-M "P -1"
_symmetry_group_IT_number 2
_symmetry_cell_setting 'triclinic'
loop_
_space_group_symop_operation_xyz
x,y,z
-x,-y,-z
loop_
_atom_site_type_symbol
_atom_site_label
_atom_site_fract_x
_atom_site_fract_y
_atom_site_fract_z
Si Si1 0.614180 0.390223 0.388354
Si Si2 0.168543 0.105755 0.840409
Si Si3 0.856149 0.073348 0.206263
Si Si4 0.930658 0.293916 0.539955
Si Si5 0.094897 0.486879 0.174708
Si Si6 0.896355 0.862910 0.874608
Si Si7 0.657716 0.288511 0.757902
Si Si8 0.349646 0.932943 0.311827
O O1 0.584470 0.299228 0.700533
O O2 0.478335 0.575690 0.216638
O O3 0.637098 0.250007 0.481524
O O4 0.765169 0.439012 0.160762
O O5 0.171546 0.297608 0.461597
O O6 0.211406 0.089710 0.951354
O O7 0.994563 0.092956 0.081652
O O8 0.289521 0.931793 0.908133
O O9 0.698843 0.105576 0.428471
O O10 0.831582 0.226185 0.879826
O O11 0.911772 0.867259 0.420433
O O12 0.813399 0.353972 0.477270
O O13 0.992153 0.461515 0.233653
O O14 0.988418 0.646146 0.129078
O O15 0.785509 0.892842 0.852153
O O16 0.000000 0.000000 0.500000
O O17 0.500000 0.000000 0.000000
#
# Coordination Sequence:
#
# PCOD8000966 Si02
#       8
#     2   2   2   2   2   2   2   2
#     4  11  24  43  61  98 131 171 213 268 325 382
#     4  10  19  40  67  93 124 168 216 265 316 382
#     4   9  19  41  67  94 130 165 214 272 312 383
#     4   9  21  40  67  96 125 171 215 262 322 373
#     4  11  23  37  66  98 123 164 218 267 318 382
#     4  12  21  41  66  91 125 170 215 265 324 377
#     4  10  22  42  66  88 137 173 214 261 317 390
#     4  12  26  42  65  95 133 171 216 269 329 383
#
# _framework density 21.734228999999999
#
# number of rings (size 3 to 8) (size 9 to 14) (size 15 to 20)
#    0.000    1.500    3.750    1.125    3.500    4.000 
#    2.250    0.625    0.000    0.000    0.000    0.000 
#    0.000    0.000    0.000    0.000    0.000    0.000 
#
# Total GULP energy -198219.028815 kJ/mol
# GULP energy per Si atom -12388.689301 kJ/mol
# Density = 2.168476 g / cm^3
# Si number density = 21.734229 Si / 1000 Ang^3
#
#
#
# Elastic Constant Matrix: (Units=GPa)
#
#
# Indices 1 2 3 4 5 6 
#
# 1 74.4785 30.5840 26.7572 -6.3373 -12.9802 0.6527
# 2 30.5840 130.6577 48.6019 -16.6367 -4.4405 1.1479
# 3 26.7572 48.6019 72.9745 -11.6097 -15.7628 6.7555
# 4 -6.3373 -16.6367 -11.6097 40.4809 -2.2840 1.0507
# 5 -12.9802 -4.4405 -15.7628 -2.2840 31.4793 -1.2162
# 6 0.6527 1.1479 6.7555 1.0507 -1.2162 36.3938
#
#
#
# Elastic Compliance Matrix: (Units=1/GPa)
#
#
# Indices 1 2 3 4 5 6 
#
# 1 0.016516 -0.002344 -0.003339 0.000927 0.004896 0.000534
# 2 -0.002344 0.010848 -0.006683 0.002007 -0.002606 0.000795
# 3 -0.003339 -0.006683 0.022240 0.003709 0.008944 -0.003666
# 4 0.000927 0.002007 0.003709 0.027023 0.004429 -0.001400
# 5 0.004896 -0.002606 0.008944 0.004429 0.038198 -0.000517
# 6 0.000534 0.000795 -0.003666 -0.001400 -0.000517 0.028146
#
#
# Mechanical properties :
#
#
# Convention : Reuss Voigt Hill
#
# Bulk Modulus (GPa) = 40.20580 54.44412 47.32496
# Shear Modulus (GPa) = 28.40995 33.14862 30.77929
#
# Velocity S-wave (km/s) = 3.61938 3.90959 3.76728
# Velocity P-wave (km/s) = 6.00046 6.74420 6.38317
#
# Compressibility (1/GPa) = 0.02487203
#
# Stress axis : x y z
#
# Youngs Moduli (GPa) = 60.54591 92.18151 44.96414
#
# Poissons Ratio (x) = 0.21610 0.15014
# Poissons Ratio (y) = 0.14194 0.30048
# Poissons Ratio (z) = 0.20218 0.61602
#
# Static dielectric constant tensor:
#      x y z
#    x 4.012790 0.004140 -0.014500 
#    y 0.004140 4.373710 -0.162560 
#    z -0.014500 -0.162560 3.689670 
# 
# 
# High freq. dielectric constant tensor:
#      x y z
#    x 1.855520 0.007730 -0.000740 
#    y 0.007730 1.851110 -0.019020 
#    z -0.000740 -0.019020 1.830310 
# 
# From -- ./inp_files/467003.got.cif
#   From: 2010.06.25/outbox.cif.g09.slc.cpg/sg2_234_cif.got.tgz:467003.got - 2010.06.27 13:26:56.
