data_PCOD8000456
_publ_section_title
;
Structure prediction by ZEFSAII (Michael W. Deem and Ramdas Pophale) SiO2 
 PCOD8000456
Probable space group: P -1
;
_chemical_formula_sum "Si O2"
_cell_formula_units_Z 16
_cell_length_a 11.772825
_cell_length_b 18.335577
_cell_length_c 8.833534
_cell_angle_alpha 59.791488
_cell_angle_beta 94.353588
_cell_angle_gamma 43.644619
_cell_volume 767.845546
_symmetry_space_group_name_H-M "P -1"
_symmetry_group_IT_number 2
_symmetry_cell_setting 'triclinic'
loop_
_space_group_symop_operation_xyz
x,y,z
-x,-y,-z
loop_
_atom_site_type_symbol
_atom_site_label
_atom_site_fract_x
_atom_site_fract_y
_atom_site_fract_z
Si Si1 0.321710 0.356132 0.648747
Si Si2 0.848290 0.853029 0.847302
Si Si3 0.880411 0.171034 0.984782
Si Si4 0.735173 0.495979 0.934695
Si Si5 0.439259 0.227728 0.252967
Si Si6 0.328637 0.773284 0.374551
Si Si7 0.473742 0.356705 0.936315
Si Si8 0.801722 0.710252 0.095473
O O1 0.561662 0.219896 0.718326
O O2 0.299317 0.440641 0.692716
O O3 0.338195 0.250147 0.828601
O O4 0.091720 0.513703 0.350968
O O5 0.027261 0.794128 0.025343
O O6 0.629108 0.049682 0.552815
O O7 0.735404 0.853337 0.942251
O O8 0.002226 0.708034 0.879416
O O9 0.758217 0.243233 0.731548
O O10 0.687926 0.277668 0.986527
O O11 0.099982 0.960289 0.247473
O O12 0.723869 0.606527 0.824395
O O13 0.523175 0.604279 0.684217
O O14 0.682813 0.494364 0.101824
O O15 0.584512 0.197151 0.186874
O O16 0.262967 0.282315 0.084393
#
# Coordination Sequence:
#
# PCOD8000456 Si02
#       8
#     2   2   2   2   2   2   2   2
#     4   9  18  39  64  84 120 161 208 243 297 367
#     4  12  22  36  62  95 123 157 204 246 302 358
#     4  10  21  37  66  86 124 159 196 254 300 361
#     4  10  21  38  61  91 120 161 199 244 304 354
#     4   9  21  40  60  87 127 156 202 249 291 361
#     4  10  19  39  62  90 115 161 202 242 307 356
#     4   8  19  40  62  87 120 166 194 244 309 350
#     4  10  20  37  63  85 121 168 193 254 303 344
#
# _framework density 20.837524999999999
#
# number of rings (size 3 to 8) (size 9 to 14) (size 15 to 20)
#    0.750    1.500    2.500    0.375    0.000    3.500 
#    0.000    0.625    8.250    0.000    0.000    0.000 
#    0.000    0.000    0.000    0.000    0.000    0.000 
#
# Total GULP energy -198266.427416 kJ/mol
# GULP energy per Si atom -12391.651713 kJ/mol
# Density = 2.079010 g / cm^3
# Si number density = 20.837525 Si / 1000 Ang^3
#
#
#
# Elastic Constant Matrix: (Units=GPa)
#
#
# Indices 1 2 3 4 5 6 
#
# 1 106.0217 32.7350 34.3601 15.1702 13.6701 22.1771
# 2 32.7350 83.1950 13.3336 5.4300 1.2279 3.7993
# 3 34.3601 13.3336 59.5401 15.6279 12.6861 14.8357
# 4 15.1702 5.4300 15.6279 25.9108 5.1642 1.7156
# 5 13.6701 1.2279 12.6861 5.1642 23.2193 -1.6354
# 6 22.1771 3.7993 14.8357 1.7156 -1.6354 26.2855
#
#
#
# Elastic Compliance Matrix: (Units=1/GPa)
#
#
# Indices 1 2 3 4 5 6 
#
# 1 0.015688 -0.004872 -0.002349 -0.004500 -0.007496 -0.011379
# 2 -0.004872 0.014032 -0.001942 0.000185 0.003384 0.003377
# 3 -0.002349 -0.001942 0.027429 -0.011522 -0.011868 -0.013205
# 4 -0.004500 0.000185 -0.011522 0.047915 -0.001224 0.007069
# 5 -0.007496 0.003384 -0.011868 -0.001224 0.055188 0.016047
# 6 -0.011379 0.003377 -0.013205 0.007069 0.016047 0.055146
#
#
# Mechanical properties :
#
#
# Convention : Reuss Voigt Hill
#
# Bulk Modulus (GPa) = 25.75767 45.51270 35.63519
# Shear Modulus (GPa) = 20.27036 26.30500 23.28768
#
# Velocity S-wave (km/s) = 3.12233 3.55686 3.34666
# Velocity P-wave (km/s) = 5.03851 6.22555 5.66322
#
# Compressibility (1/GPa) = 0.03882338
#
# Stress axis : x y z
#
# Youngs Moduli (GPa) = 63.74215 71.26535 36.45786
#
# Poissons Ratio (x) = 0.34724 0.08563
# Poissons Ratio (y) = 0.31058 0.07079
# Poissons Ratio (z) = 0.14972 0.13837
#
# Static dielectric constant tensor:
#      x y z
#    x 3.885850 0.082270 0.129420 
#    y 0.082270 3.637540 0.304160 
#    z 0.129420 0.304160 3.605550 
# 
# 
# High freq. dielectric constant tensor:
#      x y z
#    x 1.817880 0.005250 0.014280 
#    y 0.005250 1.795800 0.024100 
#    z 0.014280 0.024100 1.804290 
# 
# From -- ./inp_files/279222.got.cif
#   From: 2010.06.25/outbox.cif.g09.slc.cpg/sg2_140_cif.got.tgz:279222.got - 2010.06.27 13:26:56.
