data_PCOD8000845
_publ_section_title
;
Structure prediction by ZEFSAII (Michael W. Deem and Ramdas Pophale) SiO2 
 PCOD8000845
Probable space group: P -1
;
_chemical_formula_sum "Si O2"
_cell_formula_units_Z 16
_cell_length_a 5.327700
_cell_length_b 14.913089
_cell_length_c 11.614811
_cell_angle_alpha 119.653803
_cell_angle_beta 77.548325
_cell_angle_gamma 80.764314
_cell_volume 743.274041
_symmetry_space_group_name_H-M "P -1"
_symmetry_group_IT_number 2
_symmetry_cell_setting 'triclinic'
loop_
_space_group_symop_operation_xyz
x,y,z
-x,-y,-z
loop_
_atom_site_type_symbol
_atom_site_label
_atom_site_fract_x
_atom_site_fract_y
_atom_site_fract_z
Si Si1 0.466970 0.619097 0.279237
Si Si2 0.201157 0.077406 0.002959
Si Si3 0.768669 0.000317 0.814516
Si Si4 0.877107 0.703367 0.736211
Si Si5 0.000494 0.780747 0.535696
Si Si6 0.406727 0.614352 0.781134
Si Si7 0.140311 0.795736 0.090809
Si Si8 0.945956 0.698887 0.256401
O O1 0.543870 0.510635 0.276719
O O2 0.739326 0.632522 0.205535
O O3 0.321588 0.722378 0.442214
O O4 0.253122 0.617262 0.196709
O O5 0.272412 0.179507 0.119606
O O6 0.072863 0.023970 0.089280
O O7 0.477073 0.990275 0.872833
O O8 0.018943 0.127428 0.945352
O O9 0.708295 0.117698 0.829728
O O10 0.934238 0.907694 0.651498
O O11 0.915699 0.714994 0.604183
O O12 0.686903 0.627216 0.716990
O O13 0.169181 0.650587 0.733789
O O14 0.840706 0.770417 0.427474
O O15 0.329078 0.681794 0.950838
O O16 0.949912 0.776175 0.197346
#
# Coordination Sequence:
#
# PCOD8000845 Si02
#       8
#     2   2   2   2   2   2   2   2
#     4  10  24  45  59  93 124 169 210 250 310 361
#     4   9  20  36  61  96 126 154 202 255 322 360
#     4  10  19  40  63  93 123 162 198 261 311 368
#     4  10  21  38  65  97 125 157 201 263 313 370
#     4   9  24  41  62  91 131 166 206 246 311 373
#     4  11  23  39  67  96 122 157 210 263 315 358
#     4  11  23  38  66  92 126 158 212 256 308 369
#     4  10  25  43  63  88 127 170 211 247 303 369
#
# _framework density 21.52638
#
# number of rings (size 3 to 8) (size 9 to 14) (size 15 to 20)
#    0.750    1.250    1.250    1.125    3.500    3.500 
#    0.000    1.250    0.000    0.000    0.000    0.000 
#    0.000    0.000    0.000    0.000    0.000    0.000 
#
# Total GULP energy -198219.898132 kJ/mol
# GULP energy per Si atom -12388.743633 kJ/mol
# Density = 2.147739 g / cm^3
# Si number density = 21.526380 Si / 1000 Ang^3
#
#
#
# Elastic Constant Matrix: (Units=GPa)
#
#
# Indices 1 2 3 4 5 6 
#
# 1 108.0578 34.1870 20.6201 -8.8140 -11.2679 14.5275
# 2 34.1870 93.2949 33.7467 -15.0244 -15.9686 27.2349
# 3 20.6201 33.7467 64.1269 1.1540 -9.9887 7.1178
# 4 -8.8140 -15.0244 1.1540 32.5579 -2.6245 -13.8324
# 5 -11.2679 -15.9686 -9.9887 -2.6245 16.9052 0.6546
# 6 14.5275 27.2349 7.1178 -13.8324 0.6546 31.2928
#
#
#
# Elastic Compliance Matrix: (Units=1/GPa)
#
#
# Indices 1 2 3 4 5 6 
#
# 1 0.011118 -0.001412 -0.001685 0.001601 0.005444 -0.002955
# 2 -0.001412 0.021720 -0.006778 0.004920 0.016911 -0.014885
# 3 -0.001685 -0.006778 0.020350 -0.003884 0.003885 0.000255
# 4 0.001601 0.004920 -0.003884 0.039953 0.009106 0.013328
# 5 0.005444 0.016911 0.003885 0.009106 0.083079 -0.015841
# 6 -0.002955 -0.014885 0.000255 0.013328 -0.015841 0.052448
#
#
# Mechanical properties :
#
#
# Convention : Reuss Voigt Hill
#
# Bulk Modulus (GPa) = 29.90661 49.17635 39.54148
# Shear Modulus (GPa) = 19.26307 27.94624 23.60466
#
# Velocity S-wave (km/s) = 2.99466 3.60701 3.31501
# Velocity P-wave (km/s) = 5.08729 6.34363 5.74988
#
# Compressibility (1/GPa) = 0.03343743
#
# Stress axis : x y z
#
# Youngs Moduli (GPa) = 89.94234 46.04003 49.14076
#
# Poissons Ratio (x) = 0.06503 0.08278
# Poissons Ratio (y) = 0.12704 0.33309
# Poissons Ratio (z) = 0.15152 0.31208
#
# Static dielectric constant tensor:
#      x y z
#    x 3.797820 0.021220 0.045110 
#    y 0.021220 3.988450 0.112270 
#    z 0.045110 0.112270 3.773350 
# 
# 
# High freq. dielectric constant tensor:
#      x y z
#    x 1.840420 0.001970 -0.000870 
#    y 0.001970 1.855840 -0.003150 
#    z -0.000870 -0.003150 1.828660 
# 
# From -- ./inp_files/93426.got.cif
#   From: 2010.06.25/outbox.cif.g09.slc.cpg/sg2_47_cif.got.tgz:93426.got - 2010.06.27 13:26:56.
