data_PCOD8000726
_publ_section_title
;
Structure prediction by ZEFSAII (Michael W. Deem and Ramdas Pophale) SiO2 
 PCOD8000726
Probable space group: P -1
;
_chemical_formula_sum "Si O2"
_cell_formula_units_Z 16
_cell_length_a 13.135261
_cell_length_b 11.152187
_cell_length_c 15.301182
_cell_angle_alpha 115.089120
_cell_angle_beta 43.072236
_cell_angle_gamma 146.777476
_cell_volume 726.327552
_symmetry_space_group_name_H-M "P -1"
_symmetry_group_IT_number 2
_symmetry_cell_setting 'triclinic'
loop_
_space_group_symop_operation_xyz
x,y,z
-x,-y,-z
loop_
_atom_site_type_symbol
_atom_site_label
_atom_site_fract_x
_atom_site_fract_y
_atom_site_fract_z
Si Si1 0.455476 0.958363 0.172282
Si Si2 0.139771 0.511396 0.124408
Si Si3 0.944426 0.586484 0.142190
Si Si4 0.410408 0.553459 0.392445
Si Si5 0.526686 0.364977 0.199622
Si Si6 0.970254 0.166850 0.688539
Si Si7 0.904547 0.282264 0.515002
Si Si8 0.263422 0.931906 0.628000
O O1 0.354971 0.740470 0.130062
O O2 0.290607 0.937087 0.209264
O O3 0.380511 0.919294 0.309596
O O4 0.795825 0.235751 0.034518
O O5 0.950490 0.478503 0.180825
O O6 0.947089 0.264656 0.223135
O O7 0.312624 0.549090 0.962906
O O8 0.973904 0.753473 0.221009
O O9 0.650456 0.366858 0.202856
O O10 0.582953 0.561156 0.246450
O O11 0.274542 0.409630 0.526175
O O12 0.144264 0.390398 0.451316
O O13 0.623615 0.836128 0.354359
O O14 0.183153 0.090168 0.313796
O O15 0.869034 0.167192 0.415845
O O16 0.000000 0.500000 0.500000
O O17 0.500000 0.000000 0.500000
#
# Coordination Sequence:
#
# PCOD8000726 Si02
#       8
#     2   2   2   2   2   2   2   2
#     4  10  19  39  68  99 127 159 225 276 323 380
#     4  11  22  41  66  99 135 170 216 273 319 389
#     4  11  22  39  68 101 128 168 221 271 332 379
#     4  11  27  44  63  98 134 175 222 262 329 397
#     4  12  25  41  65  97 136 178 213 267 332 389
#     4  10  21  42  64  91 136 170 215 275 316 385
#     4  11  22  43  70  95 122 173 217 273 328 376
#     4  12  24  43  70  98 131 167 224 277 319 388
#
# _framework density 22.028627
#
# number of rings (size 3 to 8) (size 9 to 14) (size 15 to 20)
#    0.000    1.000    5.000    3.000    1.750    5.000 
#    0.000    0.625    0.000    0.000    0.000    0.000 
#    0.000    0.000    0.000    0.000    0.000    0.000 
#
# Total GULP energy -198359.695526 kJ/mol
# GULP energy per Si atom -12397.480970 kJ/mol
# Density = 2.197849 g / cm^3
# Si number density = 22.028627 Si / 1000 Ang^3
#
#
#
# Elastic Constant Matrix: (Units=GPa)
#
#
# Indices 1 2 3 4 5 6 
#
# 1 39.5018 21.5173 39.7093 9.6004 19.5303 1.1522
# 2 21.5173 128.4207 51.3153 7.2878 12.7069 -6.8660
# 3 39.7093 51.3153 117.6151 0.4273 26.0120 -4.8165
# 4 9.6004 7.2878 0.4273 38.4169 -5.7610 -1.7041
# 5 19.5303 12.7069 26.0120 -5.7610 33.3268 5.7463
# 6 1.1522 -6.8660 -4.8165 -1.7041 5.7463 34.2481
#
#
#
# Elastic Compliance Matrix: (Units=1/GPa)
#
#
# Indices 1 2 3 4 5 6 
#
# 1 0.055007 -0.000722 -0.012694 -0.017230 -0.024953 -0.000451
# 2 -0.000722 0.009652 -0.003695 -0.001681 -0.000924 0.001511
# 3 -0.012694 -0.003695 0.015101 0.003398 -0.002773 0.002444
# 4 -0.017230 -0.001681 0.003398 0.032678 0.013728 0.000043
# 5 -0.024953 -0.000924 -0.002773 0.013728 0.050826 -0.007581
# 6 -0.000451 0.001511 0.002444 0.000043 -0.007581 0.031135
#
#
# Mechanical properties :
#
#
# Convention : Reuss Voigt Hill
#
# Bulk Modulus (GPa) = 21.95922 56.73569 39.34745
# Shear Modulus (GPa) = 20.50875 32.73142 26.62008
#
# Velocity S-wave (km/s) = 3.05455 3.85886 3.48002
# Velocity P-wave (km/s) = 4.73608 6.75765 5.83508
#
# Compressibility (1/GPa) = 0.04553896
#
# Stress axis : x y z
#
# Youngs Moduli (GPa) = 18.17964 103.60561 66.21979
#
# Poissons Ratio (x) = 0.07476 0.84058
# Poissons Ratio (y) = 0.01312 0.24469
# Poissons Ratio (z) = 0.23077 0.38284
#
# Static dielectric constant tensor:
#      x y z
#    x 5.426490 0.938460 2.547590 
#    y 0.938460 4.873010 1.283150 
#    z 2.547590 1.283150 7.686710 
# 
# 
# High freq. dielectric constant tensor:
#      x y z
#    x 1.835700 0.014320 0.012080 
#    y 0.014320 1.891300 0.009870 
#    z 0.012080 0.009870 1.867420 
# 
# From -- ./inp_files/471743.got.cif
#   From: 2010.06.25/outbox.cif.g09.slc.cpg/sg2_236_cif.got.tgz:471743.got - 2010.06.27 13:26:56.
