data_PCOD8000563
_publ_section_title
;
Structure prediction by ZEFSAII (Michael W. Deem and Ramdas Pophale) SiO2 
 PCOD8000563
Probable space group: P -1
;
_chemical_formula_sum "Si O2"
_cell_formula_units_Z 16
_cell_length_a 6.131458
_cell_length_b 15.570904
_cell_length_c 17.705342
_cell_angle_alpha 152.863720
_cell_angle_beta 61.331679
_cell_angle_gamma 125.307697
_cell_volume 626.450333
_symmetry_space_group_name_H-M "P -1"
_symmetry_group_IT_number 2
_symmetry_cell_setting 'triclinic'
loop_
_space_group_symop_operation_xyz
x,y,z
-x,-y,-z
loop_
_atom_site_type_symbol
_atom_site_label
_atom_site_fract_x
_atom_site_fract_y
_atom_site_fract_z
Si Si1 0.685389 0.362865 0.195820
Si Si2 0.423944 0.914449 0.135193
Si Si3 0.854626 0.106589 0.320503
Si Si4 0.534292 0.698204 0.417857
Si Si5 0.875621 0.624759 0.064905
Si Si6 0.095887 0.976113 0.583189
Si Si7 0.432771 0.268257 0.315594
Si Si8 0.273453 0.616633 0.246453
O O1 0.581985 0.545083 0.348336
O O2 0.612580 0.254175 0.203828
O O3 0.000194 0.453543 0.198354
O O4 0.519211 0.194160 0.031819
O O5 0.120557 0.800148 0.121662
O O6 0.627138 0.912077 0.166471
O O7 0.488782 0.149605 0.285238
O O8 0.731422 0.277394 0.488381
O O9 0.943255 0.059145 0.349292
O O10 0.113940 0.174936 0.276842
O O11 0.801883 0.908449 0.539792
O O12 0.495873 0.625640 0.279833
O O13 0.748401 0.770471 0.248949
O O14 0.000000 0.500000 0.000000
O O15 0.682705 0.475918 0.915351
O O16 0.257121 0.842532 0.416109
O O17 0.500000 0.500000 0.500000
#
# Coordination Sequence:
#
# PCOD8000563 Si02
#       8
#     2   2   2   2   2   2   2   2
#     4  10  23  37  60  94 130 167 210 263 316 381
#     4  11  24  42  62  90 133 165 213 267 320 379
#     4  11  21  37  66  87 126 174 207 262 321 372
#     4  10  19  39  64  91 125 173 212 256 322 375
#     4  11  23  44  70  95 128 170 216 269 326 385
#     4  10  20  41  65  90 131 167 212 268 318 378
#     4  12  23  38  61  93 125 170 217 258 312 386
#     4   9  22  40  67  94 131 172 210 268 322 379
#
# _framework density 25.540731999999998
#
# number of rings (size 3 to 8) (size 9 to 14) (size 15 to 20)
#    0.000    1.500    2.500    3.375    1.750    4.000 
#    0.000    1.250    0.000    0.000    0.000    0.000 
#    0.000    0.000    0.000    0.000    0.000    0.000 
#
# Total GULP energy -198235.087357 kJ/mol
# GULP energy per Si atom -12389.692960 kJ/mol
# Density = 2.548260 g / cm^3
# Si number density = 25.540732 Si / 1000 Ang^3
#
#
#
# Elastic Constant Matrix: (Units=GPa)
#
#
# Indices 1 2 3 4 5 6 
#
# 1 67.5015 2.5060 29.8867 -3.9595 26.5628 -20.2191
# 2 2.5060 81.7347 31.1756 -7.4478 0.2005 -8.7262
# 3 29.8867 31.1756 162.4302 -1.5637 19.8938 -10.7033
# 4 -3.9595 -7.4478 -1.5637 39.8187 -7.4801 -0.0956
# 5 26.5628 0.2005 19.8938 -7.4801 57.1251 -7.5910
# 6 -20.2191 -8.7262 -10.7033 -0.0956 -7.5910 32.0490
#
#
#
# Elastic Compliance Matrix: (Units=1/GPa)
#
#
# Indices 1 2 3 4 5 6 
#
# 1 0.022737 0.001750 -0.002750 0.001028 -0.007887 0.012037
# 2 0.001750 0.013971 -0.002827 0.002886 0.001061 0.004224
# 3 -0.002750 -0.002827 0.007346 -0.000782 -0.001424 -0.000391
# 4 0.001028 0.002886 -0.000782 0.026391 0.003517 0.002085
# 5 -0.007887 0.001061 -0.001424 0.003517 0.022138 0.000092
# 6 0.012037 0.004224 -0.000391 0.002085 0.000092 0.039843
#
#
# Mechanical properties :
#
#
# Convention : Reuss Voigt Hill
#
# Bulk Modulus (GPa) = 27.47375 48.75587 38.11481
# Shear Modulus (GPa) = 32.84866 42.33844 37.59355
#
# Velocity S-wave (km/s) = 3.59015 4.07588 3.84070
# Velocity P-wave (km/s) = 5.28827 6.42505 5.88418
#
# Compressibility (1/GPa) = 0.03639838
#
# Stress axis : x y z
#
# Youngs Moduli (GPa) = 43.98204 71.57840 136.12327
#
# Poissons Ratio (x) = -0.12527 0.37439
# Poissons Ratio (y) = -0.07697 0.38486
# Poissons Ratio (z) = 0.12097 0.20237
#
# Static dielectric constant tensor:
#      x y z
#    x 4.085420 -1.188230 0.590130 
#    y -1.188230 2.600410 0.722390 
#    z 0.590130 0.722390 5.059350 
# 
# 
# High freq. dielectric constant tensor:
#      x y z
#    x 2.020400 0.004630 0.008100 
#    y 0.004630 2.013100 -0.009580 
#    z 0.008100 -0.009580 2.041290 
# 
# From -- ./inp_files/116221.got.cif
#   From: 2010.06.25/outbox.cif.g09.slc.cpg/sg2_59_cif.got.tgz:116221.got - 2010.06.27 13:26:56.
