data_PCOD8000284
_publ_section_title
;
Structure prediction by ZEFSAII (Michael W. Deem and Ramdas Pophale) SiO2 
 PCOD8000284
Probable space group: P 1
;
_chemical_formula_sum "Si O2"
_cell_formula_units_Z 8
_cell_length_a 10.177984
_cell_length_b 12.552482
_cell_length_c 8.790856
_cell_angle_alpha 98.848863
_cell_angle_beta 50.278911
_cell_angle_gamma 139.385879
_cell_volume 421.651387
_symmetry_space_group_name_H-M "P 1"
_symmetry_group_IT_number 1
_symmetry_cell_setting 'triclinic'
loop_
_space_group_symop_operation_xyz
x,y,z
loop_
_atom_site_type_symbol
_atom_site_label
_atom_site_fract_x
_atom_site_fract_y
_atom_site_fract_z
Si Si1 0.566750 0.770500 0.966640
Si Si2 0.211535 0.706447 0.444567
Si Si3 0.449085 0.950708 0.584088
Si Si4 0.654695 0.149597 0.093383
Si Si5 0.172959 0.376706 0.988987
Si Si6 0.301825 0.088238 0.569815
Si Si7 0.689882 0.476299 0.551150
Si Si8 0.397005 0.898623 0.967288
O O1 0.342535 0.666130 0.264104
O O2 0.436385 0.595781 0.933461
O O3 0.540659 0.859397 0.895014
O O4 0.953687 0.963031 0.777973
O O5 0.249519 0.737443 0.606656
O O6 0.823445 0.515432 0.629470
O O7 0.471279 0.940744 0.243534
O O8 0.254898 0.951872 0.669112
O O9 0.408370 0.919772 0.785471
O O10 0.854076 0.172817 0.290594
O O11 0.451556 0.143534 0.302633
O O12 0.037652 0.361234 0.931204
O O13 0.637689 0.125594 0.917309
O O14 0.369229 0.378577 0.788856
O O15 0.577698 0.309552 0.505918
O O16 0.005140 0.702113 0.272974
#
# Coordination Sequence:
#
# PCOD8000284 Si02
#       8
#     1   1   1   1   1   1   1   1
#     4  10  18  34  56  77 102 143 179 205 252 323
#     4   8  16  31  50  73 102 137 169 204 254 314
#     4  10  20  35  54  81 108 131 170 226 264 294
#     4   8  16  31  50  73 102 137 169 204 254 314
#     4  10  18  34  56  77 102 143 179 205 252 323
#     4  10  18  34  56  77 102 143 179 205 252 323
#     4  10  18  34  56  77 102 143 179 205 252 323
#     4  10  20  35  54  81 108 131 170 226 264 294
#
# _framework density 18.973020000000002
#
# number of rings (size 3 to 8) (size 9 to 14) (size 15 to 20)
#    0.000    3.000    0.000    7.500    0.000    0.000 
#    0.000   15.000    0.000    0.000    0.000    0.000 
#    0.000    0.000    0.000    0.000    0.000    0.000 
#
# Total GULP energy -99111.455943 kJ/mol
# GULP energy per Si atom -12388.931993 kJ/mol
# Density = 1.892984 g / cm^3
# Si number density = 18.973020 Si / 1000 Ang^3
#
#
#
# Elastic Constant Matrix: (Units=GPa)
#
#
# Indices 1 2 3 4 5 6 
#
# 1 69.2236 20.3504 50.1330 13.1040 -5.6008 21.8410
# 2 20.3504 122.3849 21.9829 27.0815 12.0880 27.7710
# 3 50.1330 21.9829 89.0594 14.3820 -12.4534 18.6946
# 4 13.1040 27.0815 14.3820 39.5061 9.9903 -0.2266
# 5 -5.6008 12.0880 -12.4534 9.9903 32.9684 8.9505
# 6 21.8410 27.7710 18.6946 -0.2266 8.9505 33.9216
#
#
#
# Elastic Compliance Matrix: (Units=1/GPa)
#
#
# Indices 1 2 3 4 5 6 
#
# 1 0.029398 0.002164 -0.011124 -0.009114 0.007252 -0.016544
# 2 0.002164 0.012623 0.000257 -0.010121 0.002309 -0.012546
# 3 -0.011124 0.000257 0.021666 -0.007062 0.010456 -0.007794
# 4 -0.009114 -0.010121 -0.007062 0.043024 -0.019949 0.023597
# 5 0.007252 0.002309 0.010456 -0.019949 0.047496 -0.024988
# 6 -0.016544 -0.012546 -0.007794 0.023597 -0.024988 0.061450
#
#
# Mechanical properties :
#
#
# Convention : Reuss Voigt Hill
#
# Bulk Modulus (GPa) = 21.60741 51.73340 36.67040
# Shear Modulus (GPa) = 20.12157 33.82598 26.97378
#
# Velocity S-wave (km/s) = 3.26012 4.22696 3.77462
# Velocity P-wave (km/s) = 5.05810 7.15185 6.19408
#
# Compressibility (1/GPa) = 0.04628042
#
# Stress axis : x y z
#
# Youngs Moduli (GPa) = 34.01618 79.21841 46.15595
#
# Poissons Ratio (x) = -0.17145 0.51345
# Poissons Ratio (y) = -0.07362 -0.01185
# Poissons Ratio (z) = 0.37840 -0.02034
#
# Static dielectric constant tensor:
#      x y z
#    x 3.219500 0.473530 -0.079840 
#    y 0.473530 4.285200 0.489170 
#    z -0.079840 0.489170 3.401640 
# 
# 
# High freq. dielectric constant tensor:
#      x y z
#    x 1.698520 0.025480 -0.029620 
#    y 0.025480 1.768840 0.023800 
#    z -0.029620 0.023800 1.720230 
# 
# From -- ./inp_files/3624.got.cif
#   From: 2010.03.12/outbox.cif.g09.slc.cpg/sg1_2_cif.got.tgz:3624.got - 2010.03.29 11:57:58.
