data_PCOD8000025
_publ_section_title
;
Structure prediction by ZEFSAII (Michael W. Deem and Ramdas Pophale) SiO2 
 PCOD8000025
Probable space group: P 1
;
_chemical_formula_sum "Si O2"
_cell_formula_units_Z 8
_cell_length_a 10.081054
_cell_length_b 7.619611
_cell_length_c 7.615764
_cell_angle_alpha 120.460949
_cell_angle_beta 112.401148
_cell_angle_gamma 67.654616
_cell_volume 453.183697
_symmetry_space_group_name_H-M "P 1"
_symmetry_group_IT_number 1
_symmetry_cell_setting 'triclinic'
loop_
_space_group_symop_operation_xyz
x,y,z
loop_
_atom_site_type_symbol
_atom_site_label
_atom_site_fract_x
_atom_site_fract_y
_atom_site_fract_z
Si Si1 0.547850 0.778400 0.489470
Si Si2 0.877092 0.590806 0.678113
Si Si3 0.856174 0.584020 0.048170
Si Si4 0.381370 0.620325 0.629192
Si Si5 0.567176 0.149075 0.482301
Si Si6 0.528523 0.770100 0.091146
Si Si7 0.042251 0.731461 0.519939
Si Si8 0.895095 0.193220 0.669623
O O1 0.712685 0.659173 0.557645
O O2 0.433005 0.749028 0.563626
O O3 0.507226 0.685617 0.234514
O O4 0.539837 0.027401 0.586081
O O5 0.992710 0.664690 0.649821
O O6 0.917244 0.336119 0.585384
O O7 0.884533 0.687532 0.927101
O O8 0.683292 0.645361 0.028999
O O9 0.948528 0.655960 0.283374
O O10 0.900381 0.330044 0.919111
O O11 0.473010 0.383012 0.552977
O O12 0.211624 0.621318 0.518204
O O13 0.400640 0.730960 0.879530
O O14 0.739690 0.132790 0.544618
O O15 0.523501 0.019339 0.228124
O O16 0.022534 0.981654 0.630876
#
# Coordination Sequence:
#
# PCOD8000025 Si02
#       8
#     1   1   1   1   1   1   1   1
#     4  10  20  38  64  90 115 152 211 235 280 377
#     4  10  20  38  64  90 115 152 211 235 280 377
#     4  10  20  38  64  90 115 152 211 235 280 377
#     4  12  24  42  60  87 129 156 186 261 301 323
#     4  10  20  38  64  90 115 152 211 235 280 377
#     4  10  20  38  64  90 115 152 211 235 280 377
#     4  12  24  42  60  87 129 156 186 261 301 323
#     4  10  20  38  64  90 115 152 211 235 280 377
#
# _framework density 17.652885999999999
#
# number of rings (size 3 to 8) (size 9 to 14) (size 15 to 20)
#    1.500    0.000    7.500    0.000    0.000    3.000 
#    4.500    3.750    0.000    0.000    0.000    0.000 
#    0.000    0.000    0.000    0.000    0.000    0.000 
#
# Total GULP energy -99124.541601 kJ/mol
# GULP energy per Si atom -12390.567700 kJ/mol
# Density = 1.761271 g / cm^3
# Si number density = 17.652886 Si / 1000 Ang^3
#
#
#
# Elastic Constant Matrix: (Units=GPa)
#
#
# Indices 1 2 3 4 5 6 
#
# 1 55.3505 9.9405 -7.2773 -11.2743 5.1587 -10.8675
# 2 9.9405 57.0592 35.5251 -11.1357 3.0808 6.5008
# 3 -7.2773 35.5251 67.4921 16.7670 -5.7210 -2.1741
# 4 -11.2743 -11.1357 16.7670 20.2347 5.2483 -0.6833
# 5 5.1587 3.0808 -5.7210 5.2483 17.2824 3.4674
# 6 -10.8675 6.5008 -2.1741 -0.6833 3.4674 12.1553
#
#
#
# Elastic Compliance Matrix: (Units=1/GPa)
#
#
# Indices 1 2 3 4 5 6 
#
# 1 0.033482 -0.024835 0.019720 -0.008117 -0.006216 0.048060
# 2 -0.024835 -0.363768 0.376049 -0.616542 0.363668 0.101209
# 3 0.019720 0.376049 -0.366545 0.610448 -0.356988 -0.112898
# 4 -0.008117 -0.616542 0.610448 -0.936611 0.554529 0.220831
# 5 -0.006216 0.363668 -0.356988 0.554529 -0.259862 -0.158605
# 6 0.048060 0.101209 -0.112898 0.220831 -0.158605 0.108573
#
#
# Mechanical properties :
#
#
# Convention : Reuss Voigt Hill
#
# Bulk Modulus (GPa) = 22.20377 28.47539 25.33958
# Shear Modulus (GPa) = -1.99077 19.38203 8.69563
#
# Velocity S-wave (km/s) = -1.06310 3.31713 2.22184
# Velocity P-wave (km/s) = 3.33142 5.55310 4.57904
#
# Compressibility (1/GPa) = 0.04503740
#
# Stress axis : x y z
#
# Youngs Moduli (GPa) = 29.86714 -2.74901 -2.72818
#
# Poissons Ratio (x) = -0.06827 0.05380
# Poissons Ratio (y) = 0.74174 1.02593
# Poissons Ratio (z) = -0.58897 1.03376
#
# Static dielectric constant tensor:
#      x y z
#    x 3.192570 0.147410 -0.073320 
#    y 0.147410 3.380850 -0.048670 
#    z -0.073320 -0.048670 3.286570 
# 
# 
# High freq. dielectric constant tensor:
#      x y z
#    x 1.670830 0.004870 -0.002510 
#    y 0.004870 1.679770 0.000280 
#    z -0.002510 0.000280 1.679940 
# 
# From -- ./inp_files/4010.got.cif
#   From: 2010.03.12/outbox.cif.g09.slc.cpg/sg1_3_cif.got.tgz:4010.got - 2010.03.29 11:57:58.
