data_PCOD8000907
_publ_section_title
;
Structure prediction by ZEFSAII (Michael W. Deem and Ramdas Pophale) SiO2 
 PCOD8000907
Probable space group: P -1
;
_chemical_formula_sum "Si O2"
_cell_formula_units_Z 16
_cell_length_a 14.590850
_cell_length_b 14.459823
_cell_length_c 10.968523
_cell_angle_alpha 119.951211
_cell_angle_beta 138.530323
_cell_angle_gamma 29.843562
_cell_volume 678.233112
_symmetry_space_group_name_H-M "P -1"
_symmetry_group_IT_number 2
_symmetry_cell_setting 'triclinic'
loop_
_space_group_symop_operation_xyz
x,y,z
-x,-y,-z
loop_
_atom_site_type_symbol
_atom_site_label
_atom_site_fract_x
_atom_site_fract_y
_atom_site_fract_z
Si Si1 0.318471 0.169302 0.758100
Si Si2 0.270477 0.279928 0.053701
Si Si3 0.504279 0.405300 0.074037
Si Si4 0.181828 0.744369 0.262138
Si Si5 0.059496 0.745609 0.686417
Si Si6 0.247034 0.878106 0.244791
Si Si7 0.550956 0.308844 0.326251
Si Si8 0.605847 0.138734 0.857393
O O1 0.375143 0.223743 0.750420
O O2 0.070891 0.268989 0.519078
O O3 0.589940 0.917132 0.877713
O O4 0.217135 0.288290 0.863120
O O5 0.492010 0.226953 0.251562
O O6 0.000000 0.500000 0.000000
O O7 0.689304 0.388163 0.238803
O O8 0.543202 0.319078 0.181330
O O9 0.187224 0.635782 0.876345
O O10 0.618897 0.252178 0.984341
O O11 0.356099 0.698070 0.303428
O O12 0.322816 0.540227 0.304189
O O13 0.168940 0.830823 0.426782
O O14 0.894188 0.898594 0.025269
O O15 0.838921 0.984455 0.642205
O O16 0.443459 0.816767 0.309498
O O17 0.000000 0.000000 0.000000
#
# Coordination Sequence:
#
# PCOD8000907 Si02
#       8
#     2   2   2   2   2   2   2   2
#     4  11  26  47  69 101 143 180 231 278 347 412
#     4  11  25  47  70  98 144 186 221 282 347 412
#     4  11  23  40  67  94 134 175 226 284 333 394
#     4  10  22  38  67 100 129 169 233 282 337 406
#     4  11  24  42  65 102 134 181 225 285 342 405
#     4  10  19  40  65  95 133 171 223 280 339 398
#     4  11  23  41  66  98 130 176 229 281 338 410
#     4  11  22  42  67  96 132 179 219 285 336 405
#
# _framework density 23.590710000000001
#
# number of rings (size 3 to 8) (size 9 to 14) (size 15 to 20)
#    0.000    1.250    3.750    3.000    1.750    5.500 
#    2.250    0.000    0.000    0.000    0.000    0.000 
#    0.000    0.000    0.000    0.000    0.000    0.000 
#
# Total GULP energy -198210.742772 kJ/mol
# GULP energy per Si atom -12388.171423 kJ/mol
# Density = 2.353702 g / cm^3
# Si number density = 23.590710 Si / 1000 Ang^3
#
#
#
# Elastic Constant Matrix: (Units=GPa)
#
#
# Indices 1 2 3 4 5 6 
#
# 1 117.8050 22.7030 36.5777 5.0993 3.4259 4.6408
# 2 22.7030 68.9515 14.6353 14.8807 5.1968 -9.0787
# 3 36.5777 14.6353 92.9366 20.5392 13.1263 -8.7045
# 4 5.0993 14.8807 20.5392 30.0930 6.9196 -0.7689
# 5 3.4259 5.1968 13.1263 6.9196 29.6448 1.7091
# 6 4.6408 -9.0787 -8.7045 -0.7689 1.7091 33.0973
#
#
#
# Elastic Compliance Matrix: (Units=1/GPa)
#
#
# Indices 1 2 3 4 5 6 
#
# 1 0.010674 -0.003712 -0.004768 0.002941 0.001058 -0.003755
# 2 -0.003712 0.018215 0.001291 -0.008738 -0.001627 0.005737
# 3 -0.004768 0.001291 0.015636 -0.009283 -0.004730 0.005163
# 4 0.002941 -0.008738 -0.009283 0.044399 -0.004832 -0.003970
# 5 0.001058 -0.001627 -0.004730 -0.004832 0.037341 -0.003879
# 6 -0.003755 0.005737 0.005163 -0.003970 -0.003879 0.033780
#
#
# Mechanical properties :
#
#
# Convention : Reuss Voigt Hill
#
# Bulk Modulus (GPa) = 33.16944 47.50280 40.33612
# Shear Modulus (GPa) = 27.10432 32.28550 29.69491
#
# Velocity S-wave (km/s) = 3.39328 3.70343 3.55174
# Velocity P-wave (km/s) = 5.42617 6.20219 5.82711
#
# Compressibility (1/GPa) = 0.03014824
#
# Stress axis : x y z
#
# Youngs Moduli (GPa) = 93.68489 54.89992 63.95299
#
# Poissons Ratio (x) = 0.20376 0.30492
# Poissons Ratio (y) = 0.34771 -0.08254
# Poissons Ratio (z) = 0.44667 -0.07086
#
# Static dielectric constant tensor:
#      x y z
#    x 4.465900 0.065440 -0.310850 
#    y 0.065440 4.314100 0.141950 
#    z -0.310850 0.141950 4.242340 
# 
# 
# High freq. dielectric constant tensor:
#      x y z
#    x 1.935650 0.015040 -0.018960 
#    y 0.015040 1.933800 0.014530 
#    z -0.018960 0.014530 1.920520 
# 
# From -- ./inp_files/455832.got.cif
#   From: 2010.06.25/outbox.cif.g09.slc.cpg/sg2_228_cif.got.tgz:455832.got - 2010.06.27 13:26:56.
