data_PCOD8000402
_publ_section_title
;
Structure prediction by ZEFSAII (Michael W. Deem and Ramdas Pophale) SiO2 
 PCOD8000402
Probable space group: P -1
;
_chemical_formula_sum "Si O2"
_cell_formula_units_Z 14
_cell_length_a 12.405498
_cell_length_b 18.737769
_cell_length_c 15.299716
_cell_angle_alpha 150.887026
_cell_angle_beta 152.505417
_cell_angle_gamma 25.253903
_cell_volume 652.848756
_symmetry_space_group_name_H-M "P -1"
_symmetry_group_IT_number 2
_symmetry_cell_setting 'triclinic'
loop_
_space_group_symop_operation_xyz
x,y,z
-x,-y,-z
loop_
_atom_site_type_symbol
_atom_site_label
_atom_site_fract_x
_atom_site_fract_y
_atom_site_fract_z
Si Si1 0.238682 0.172011 0.240588
Si Si2 0.995291 0.326769 0.419843
Si Si3 0.559482 0.290323 0.523005
Si Si4 0.755865 0.490409 0.129970
Si Si5 0.830761 0.461583 0.955222
Si Si6 0.536341 0.659678 0.691796
Si Si7 0.679833 0.189719 0.127212
O O1 0.542839 0.145973 0.413949
O O2 0.084667 0.274746 0.328525
O O3 0.044826 0.298181 0.155521
O O4 0.286116 0.982897 0.072670
O O5 0.694619 0.516468 0.415759
O O6 0.953260 0.185002 0.285504
O O7 0.233475 0.342243 0.654007
O O8 0.535177 0.259342 0.370047
O O9 0.840283 0.288400 0.741014
O O10 0.696487 0.510515 0.006796
O O11 0.500000 0.500000 0.000000
O O12 0.143465 0.415397 0.131123
O O13 0.626410 0.634353 0.932795
O O14 0.500000 0.500000 0.500000
O O15 0.320109 0.813058 0.769760
#
# Coordination Sequence:
#
# PCOD8000402 Si02
#       7
#     2   2   2   2   2   2   2
#     4  11  22  41  60  93 130 154 200 265 314 348
#     4  10  19  39  61  87 123 164 202 244 304 372
#     4  10  21  39  66  90 118 165 206 249 302 363
#     4  11  20  37  65  91 121 164 211 247 298 376
#     4  11  21  40  65  92 114 164 219 239 299 377
#     4  12  21  42  66  90 122 163 214 246 297 376
#     4  11  24  38  64  91 123 164 200 261 311 351
#
# _framework density 21.444476000000002
#
# number of rings (size 3 to 8) (size 9 to 14) (size 15 to 20)
#    0.000    1.143    5.714    5.143    0.000    0.571 
#    0.000    7.857    0.000    0.000    0.000    0.000 
#    0.000    0.000    0.000    0.000    0.000    0.000 
#
# Total GULP energy -173541.326316 kJ/mol
# GULP energy per Si atom -12395.809023 kJ/mol
# Density = 2.139567 g / cm^3
# Si number density = 21.444476 Si / 1000 Ang^3
#
#
#
# Elastic Constant Matrix: (Units=GPa)
#
#
# Indices 1 2 3 4 5 6 
#
# 1 154.3705 11.4541 54.8383 -0.8114 -2.2454 10.3252
# 2 11.4541 17.5216 31.9074 6.2689 4.6856 3.9845
# 3 54.8383 31.9074 170.0253 -1.1208 26.6389 9.8381
# 4 -0.8114 6.2689 -1.1208 27.6641 3.1651 7.4790
# 5 -2.2454 4.6856 26.6389 3.1651 55.1346 0.8369
# 6 10.3252 3.9845 9.8381 7.4790 0.8369 13.4084
#
#
#
# Elastic Compliance Matrix: (Units=1/GPa)
#
#
# Indices 1 2 3 4 5 6 
#
# 1 0.007702 -0.000631 -0.002300 0.001447 0.001471 -0.004955
# 2 -0.000631 0.100236 -0.018906 -0.022984 0.001951 -0.002730
# 3 -0.002300 -0.018906 0.011090 0.006208 -0.004141 -0.003952
# 4 0.001447 -0.022984 0.006208 0.049069 -0.003410 -0.025997
# 5 0.001471 0.001951 -0.004141 -0.003410 0.020198 0.001967
# 6 -0.004955 -0.002730 -0.003952 -0.025997 0.001967 0.096485
#
#
# Mechanical properties :
#
#
# Convention : Reuss Voigt Hill
#
# Bulk Modulus (GPa) = 13.27072 59.81299 36.54186
# Shear Modulus (GPa) = 14.14138 35.48928 24.81533
#
# Velocity S-wave (km/s) = 2.57075 4.07251 3.40544
# Velocity P-wave (km/s) = 3.87472 7.07576 5.70438
#
# Compressibility (1/GPa) = 0.07535386
#
# Stress axis : x y z
#
# Youngs Moduli (GPa) = 129.83319 9.97641 90.17336
#
# Poissons Ratio (x) = 0.00629 0.20739
# Poissons Ratio (y) = 0.08192 1.70485
# Poissons Ratio (z) = 0.29861 0.18862
#
# Static dielectric constant tensor:
#      x y z
#    x 4.389240 0.068440 0.231620 
#    y 0.068440 3.325540 -0.221810 
#    z 0.231620 -0.221810 5.013120 
# 
# 
# High freq. dielectric constant tensor:
#      x y z
#    x 1.872170 0.003050 0.010580 
#    y 0.003050 1.774150 -0.000350 
#    z 0.010580 -0.000350 1.870800 
# 
# From -- ./inp_files/236219.got.cif
#   From: 2010.06.25/outbox.cif.g09.slc.cpg/sg2_119_cif.got.tgz:236219.got - 2010.06.27 13:26:56.
