data_PCOD8000268
_publ_section_title
;
Structure prediction by ZEFSAII (Michael W. Deem and Ramdas Pophale) SiO2 
 PCOD8000268
Probable space group: P 1
;
_chemical_formula_sum "Si O2"
_cell_formula_units_Z 8
_cell_length_a 12.273501
_cell_length_b 9.969787
_cell_length_c 12.673503
_cell_angle_alpha 141.323455
_cell_angle_beta 157.135249
_cell_angle_gamma 36.318677
_cell_volume 351.919183
_symmetry_space_group_name_H-M "P 1"
_symmetry_group_IT_number 1
_symmetry_cell_setting 'triclinic'
loop_
_space_group_symop_operation_xyz
x,y,z
loop_
_atom_site_type_symbol
_atom_site_label
_atom_site_fract_x
_atom_site_fract_y
_atom_site_fract_z
Si Si1 0.225380 0.170260 0.236480
Si Si2 0.404627 0.043408 0.693648
Si Si3 0.729392 0.982695 0.732203
Si Si4 0.973649 0.472566 0.693852
Si Si5 0.341114 0.955689 0.980422
Si Si6 0.389342 0.388324 0.195705
Si Si7 0.982644 0.790870 0.190709
Si Si8 0.982563 0.710406 0.377795
O O1 0.148939 0.441113 0.347205
O O2 0.550367 0.065007 0.514657
O O3 0.217774 0.093206 0.061735
O O4 0.000097 0.076710 0.039757
O O5 0.201208 0.286775 0.707593
O O6 0.540893 0.086436 0.732362
O O7 0.173939 0.920557 0.383356
O O8 0.655148 0.880344 0.898066
O O9 0.827773 0.707804 0.645265
O O10 0.723017 0.392811 0.479198
O O11 0.184236 0.522736 0.999301
O O12 0.404395 0.127586 0.057757
O O13 0.125516 0.836194 0.665633
O O14 0.653718 0.749780 0.154154
O O15 0.194589 0.522486 0.204512
O O16 0.950519 0.839456 0.316170
#
# Coordination Sequence:
#
# PCOD8000268 Si02
#       8
#     1   1   1   1   1   1   1   1
#     4  12  28  48  70 100 140 192 242 290 338 410
#     4  12  25  43  71 104 140 180 228 287 352 420
#     4  12  26  46  70  98 142 190 240 284 342 408
#     4  12  25  43  71 104 140 180 228 287 352 420
#     4  12  26  46  74 105 140 182 233 292 356 419
#     4  12  22  44  72 106 143 177 221 292 363 420
#     4  12  22  44  72 106 143 177 221 292 363 420
#     4  12  26  46  74 105 140 182 233 292 356 419
#
# _framework density 22.732491
#
# number of rings (size 3 to 8) (size 9 to 14) (size 15 to 20)
#    0.000    0.000    3.750    7.500    0.000    3.000 
#    0.000    0.000    0.000    0.000    0.000    0.000 
#    0.000    0.000    0.000    0.000    0.000    0.000 
#
# Total GULP energy -99176.445855 kJ/mol
# GULP energy per Si atom -12397.055732 kJ/mol
# Density = 2.268075 g / cm^3
# Si number density = 22.732491 Si / 1000 Ang^3
#
#
#
# Elastic Constant Matrix: (Units=GPa)
#
#
# Indices 1 2 3 4 5 6 
#
# 1 86.0576 43.8268 19.7685 3.2199 -4.2213 -14.4019
# 2 43.8268 132.2342 20.7446 -2.4199 -11.2141 -21.5497
# 3 19.7685 20.7446 93.6425 -2.3514 -11.5493 -7.7931
# 4 3.2199 -2.4199 -2.3514 35.0215 -1.8380 5.7765
# 5 -4.2213 -11.2141 -11.5493 -1.8380 42.5825 3.1748
# 6 -14.4019 -21.5497 -7.7931 5.7765 3.1748 41.6481
#
#
#
# Elastic Compliance Matrix: (Units=1/GPa)
#
#
# Indices 1 2 3 4 5 6 
#
# 1 0.014774 -0.004182 -0.002071 -0.002294 -0.000515 0.002915
# 2 -0.004182 0.009757 -0.000781 0.000561 0.001725 0.003247
# 3 -0.002071 -0.000781 0.011713 0.000947 0.002752 0.000730
# 4 -0.002294 0.000561 0.000947 0.029718 0.001802 -0.004585
# 5 -0.000515 0.001725 0.002752 0.001802 0.024779 -0.000909
# 6 0.002915 0.003247 0.000730 -0.004585 -0.000909 0.027540
#
#
# Mechanical properties :
#
#
# Convention : Reuss Voigt Hill
#
# Bulk Modulus (GPa) = 45.09667 53.40156 49.24911
# Shear Modulus (GPa) = 35.78006 39.02338 37.40172
#
# Velocity S-wave (km/s) = 3.97162 4.14772 4.06063
# Velocity P-wave (km/s) = 6.39631 6.81766 6.61034
#
# Compressibility (1/GPa) = 0.02217459
#
# Stress axis : x y z
#
# Youngs Moduli (GPa) = 67.68555 102.49305 85.37382
#
# Poissons Ratio (x) = 0.42867 0.17680
# Poissons Ratio (y) = 0.28309 0.06672
# Poissons Ratio (z) = 0.14017 0.08009
#
# Static dielectric constant tensor:
#      x y z
#    x 3.903120 -0.014940 0.081420 
#    y -0.014940 3.954900 -0.154170 
#    z 0.081420 -0.154170 4.126660 
# 
# 
# High freq. dielectric constant tensor:
#      x y z
#    x 1.896250 -0.016920 0.001470 
#    y -0.016920 1.912520 -0.003200 
#    z 0.001470 -0.003200 1.908910 
# 
# From -- ./inp_files/7318.got.cif
#   From: 2010.03.12/outbox.cif.g09.slc.cpg/sg1_4_cif.got.tgz:7318.got - 2010.03.29 11:57:58.
