data_PCOD8000863
_publ_section_title
;
Structure prediction by ZEFSAII (Michael W. Deem and Ramdas Pophale) SiO2 
 PCOD8000863
Probable space group: P -1
;
_chemical_formula_sum "Si O2"
_cell_formula_units_Z 16
_cell_length_a 12.675422
_cell_length_b 11.810675
_cell_length_c 13.464624
_cell_angle_alpha 100.382022
_cell_angle_beta 145.526492
_cell_angle_gamma 106.087833
_cell_volume 723.365560
_symmetry_space_group_name_H-M "P -1"
_symmetry_group_IT_number 2
_symmetry_cell_setting 'triclinic'
loop_
_space_group_symop_operation_xyz
x,y,z
-x,-y,-z
loop_
_atom_site_type_symbol
_atom_site_label
_atom_site_fract_x
_atom_site_fract_y
_atom_site_fract_z
Si Si1 0.198180 0.292553 0.231657
Si Si2 0.891887 0.869215 0.664223
Si Si3 0.220005 0.507296 0.563317
Si Si4 0.671612 0.465589 0.939396
Si Si5 0.838947 0.780366 0.030031
Si Si6 0.077882 0.398748 0.643622
Si Si7 0.473796 0.008505 0.097857
Si Si8 0.853271 0.298713 0.073029
O O1 0.500000 0.500000 0.500000
O O2 0.202143 0.200543 0.307352
O O3 0.146797 0.202414 0.074699
O O4 0.928067 0.254881 0.029392
O O5 0.657377 0.707152 0.379246
O O6 0.209030 0.969832 0.903546
O O7 0.910902 0.019436 0.696836
O O8 0.546140 0.701316 0.831990
O O9 0.202492 0.420231 0.635874
O O10 0.981082 0.492980 0.386699
O O11 0.123799 0.393048 0.371938
O O12 0.841680 0.646293 0.040299
O O13 0.682726 0.509505 0.070765
O O14 0.841920 0.425786 0.050003
O O15 0.776396 0.196785 0.404338
O O16 0.427613 0.871502 0.107340
O O17 0.500000 0.000000 0.000000
#
# Coordination Sequence:
#
# PCOD8000863 Si02
#       8
#     2   2   2   2   2   2   2   2
#     4  11  21  43  72  94 123 175 222 267 321 387
#     4  11  25  45  67 100 129 167 225 271 316 390
#     4  10  19  40  64  90 127 173 221 254 308 394
#     4  11  26  42  62  98 143 165 206 274 338 379
#     4  12  23  43  68  95 127 175 219 266 326 386
#     4  10  22  39  64  96 128 175 211 263 322 377
#     4  11  21  41  71  95 126 176 229 261 308 394
#     4  10  22  40  66  95 134 167 215 269 325 383
#
# _framework density 22.118829999999999
#
# number of rings (size 3 to 8) (size 9 to 14) (size 15 to 20)
#    0.000    1.250    5.000    1.125    1.750    1.000 
#    0.000    1.875    0.000    0.000    0.000    0.000 
#    0.000    0.000    0.000    0.000    0.000    0.000 
#
# Total GULP energy -198255.067178 kJ/mol
# GULP energy per Si atom -12390.941699 kJ/mol
# Density = 2.206849 g / cm^3
# Si number density = 22.118830 Si / 1000 Ang^3
#
#
#
# Elastic Constant Matrix: (Units=GPa)
#
#
# Indices 1 2 3 4 5 6 
#
# 1 86.7927 46.9343 37.4108 2.0500 0.0072 23.5453
# 2 46.9343 130.2558 59.3949 15.2382 -10.2770 6.0737
# 3 37.4108 59.3949 116.7322 6.9932 -21.3953 9.3275
# 4 2.0500 15.2382 6.9932 39.9284 0.6285 0.0015
# 5 0.0072 -10.2770 -21.3953 0.6285 17.2499 1.5566
# 6 23.5453 6.0737 9.3275 0.0015 1.5566 31.8192
#
#
#
# Elastic Compliance Matrix: (Units=1/GPa)
#
#
# Indices 1 2 3 4 5 6 
#
# 1 0.019255 -0.005389 -0.003897 0.001862 -0.007062 -0.011732
# 2 -0.005389 0.011870 -0.003940 -0.003596 0.002068 0.002776
# 3 -0.003897 -0.003940 0.015042 -0.001190 0.016497 -0.001580
# 4 0.001862 -0.003596 -0.001190 0.026602 -0.004578 -0.000120
# 5 -0.007062 0.002068 0.016497 -0.004578 0.080188 -0.003927
# 6 -0.011732 0.002776 -0.001580 -0.000120 -0.003927 0.040234
#
#
# Mechanical properties :
#
#
# Convention : Reuss Voigt Hill
#
# Bulk Modulus (GPa) = 50.72555 69.02895 59.87725
# Shear Modulus (GPa) = 22.10293 30.46888 26.28591
#
# Velocity S-wave (km/s) = 3.16457 3.71551 3.45105
# Velocity P-wave (km/s) = 6.02791 7.04859 6.55814
#
# Compressibility (1/GPa) = 0.01971393
#
# Stress axis : x y z
#
# Youngs Moduli (GPa) = 51.93487 84.24715 66.48268
#
# Poissons Ratio (x) = 0.45399 0.25911
# Poissons Ratio (y) = 0.27987 0.26193
# Poissons Ratio (z) = 0.20241 0.33192
#
# Static dielectric constant tensor:
#      x y z
#    x 4.095680 0.206740 -0.237380 
#    y 0.206740 4.236400 0.156050 
#    z -0.237380 0.156050 3.964120 
# 
# 
# High freq. dielectric constant tensor:
#      x y z
#    x 1.871190 0.002220 -0.013230 
#    y 0.002220 1.875080 0.013090 
#    z -0.013230 0.013090 1.859050 
# 
# From -- ./inp_files/428489.got.cif
#   From: 2010.06.25/outbox.cif.g09.slc.cpg/sg2_215_cif.got.tgz:428489.got - 2010.06.27 13:26:56.
