data_PCOD8000079
_publ_section_title
;
Structure prediction by ZEFSAII (Michael W. Deem and Ramdas Pophale) SiO2 
 PCOD8000079
Probable space group: P 1
;
_chemical_formula_sum "Si O2"
_cell_formula_units_Z 8
_cell_length_a 9.125928
_cell_length_b 13.710434
_cell_length_c 11.498976
_cell_angle_alpha 30.802891
_cell_angle_beta 149.682253
_cell_angle_gamma 142.078980
_cell_volume 365.612456
_symmetry_space_group_name_H-M "P 1"
_symmetry_group_IT_number 1
_symmetry_cell_setting 'triclinic'
loop_
_space_group_symop_operation_xyz
x,y,z
loop_
_atom_site_type_symbol
_atom_site_label
_atom_site_fract_x
_atom_site_fract_y
_atom_site_fract_z
Si Si1 0.642160 0.183130 0.634060
Si Si2 0.761885 0.199004 0.446013
Si Si3 0.353246 0.488979 0.243781
Si Si4 0.534368 0.657871 0.445964
Si Si5 0.245459 0.963722 0.055687
Si Si6 0.168670 0.812588 0.649271
Si Si7 0.718934 0.334258 0.040473
Si Si8 0.125728 0.947840 0.243740
O O1 0.786833 0.277613 0.515170
O O2 0.580497 0.353632 0.500124
O O3 0.339366 0.030939 0.561929
O O4 0.879063 0.078064 0.967968
O O5 0.794570 0.366191 0.198049
O O6 0.443837 0.073377 0.344949
O O7 0.008612 0.068827 0.721774
O O8 0.443814 0.573443 0.344855
O O9 0.021204 0.366615 0.141438
O O10 0.372561 0.662425 0.985585
O O11 0.866417 0.780228 0.548332
O O12 0.307112 0.793211 0.189632
O O13 0.515036 0.484407 0.704154
O O14 0.548266 0.115899 0.127847
O O15 0.100752 0.869246 0.174543
O O16 0.092975 0.780656 0.491657
#
# Coordination Sequence:
#
# PCOD8000079 Si02
#       8
#     1   1   1   1   1   1   1   1
#     4  10  21  41  63  85 119 155 193 243 292 344
#     4   9  20  39  63  87 113 154 199 241 291 341
#     4  11  24  38  59  91 121 154 194 238 292 350
#     4  11  24  38  59  91 121 154 194 238 292 350
#     4  10  21  41  63  85 119 155 193 243 292 344
#     4  10  22  40  60  88 119 153 196 239 292 349
#     4  10  22  40  60  88 119 153 196 239 292 349
#     4   9  20  39  63  87 113 154 199 241 291 341
#
# _framework density 21.881091000000001
#
# number of rings (size 3 to 8) (size 9 to 14) (size 15 to 20)
#    0.000    2.000    0.000    2.250    0.000   13.000 
#    0.000   17.500    0.000    0.000    0.000    0.000 
#    0.000    0.000    0.000    0.000    0.000    0.000 
#
# Total GULP energy -99185.812421 kJ/mol
# GULP energy per Si atom -12398.226553 kJ/mol
# Density = 2.183129 g / cm^3
# Si number density = 21.881091 Si / 1000 Ang^3
#
#
#
# Elastic Constant Matrix: (Units=GPa)
#
#
# Indices 1 2 3 4 5 6 
#
# 1 134.0665 39.5554 93.8330 -23.8702 -5.4522 -17.3505
# 2 39.5554 48.6405 39.8465 -8.6787 7.3767 -14.6918
# 3 93.8330 39.8465 161.4458 -3.5811 -12.2025 -17.3122
# 4 -23.8702 -8.6787 -3.5811 29.5863 3.6227 -0.0766
# 5 -5.4522 7.3767 -12.2025 3.6227 59.0462 -5.1631
# 6 -17.3505 -14.6918 -17.3122 -0.0766 -5.1631 27.3331
#
#
#
# Elastic Compliance Matrix: (Units=1/GPa)
#
#
# Indices 1 2 3 4 5 6 
#
# 1 0.016828 -0.003872 -0.008208 0.011464 -0.000063 0.003422
# 2 -0.003872 0.033085 -0.004930 0.006617 -0.004928 0.011291
# 3 -0.008208 -0.004930 0.012292 -0.006930 0.002863 0.000446
# 4 0.011464 0.006617 -0.006930 0.044584 -0.003418 0.005924
# 5 -0.000063 -0.004928 0.002863 -0.003418 0.018576 0.002623
# 6 0.003422 0.011291 0.000446 0.005924 0.002623 0.045622
#
#
# Mechanical properties :
#
#
# Convention : Reuss Voigt Hill
#
# Bulk Modulus (GPa) = 35.48129 76.73583 56.10856
# Shear Modulus (GPa) = 23.32057 34.58764 28.95411
#
# Velocity S-wave (km/s) = 3.26818 3.98013 3.64159
# Velocity P-wave (km/s) = 5.52196 7.50117 6.58633
#
# Compressibility (1/GPa) = 0.02818387
#
# Stress axis : x y z
#
# Youngs Moduli (GPa) = 59.42572 30.22513 81.35319
#
# Poissons Ratio (x) = 0.11702 0.66777
# Poissons Ratio (y) = 0.23008 0.40111
# Poissons Ratio (z) = 0.48778 0.14902
#
# Static dielectric constant tensor:
#      x y z
#    x 4.524120 0.317910 -0.475600 
#    y 0.317910 3.677850 0.153830 
#    z -0.475600 0.153830 4.198290 
# 
# 
# High freq. dielectric constant tensor:
#      x y z
#    x 1.865210 0.021900 -0.014670 
#    y 0.021900 1.838780 0.021050 
#    z -0.014670 0.021050 1.869730 
# 
# From -- ./inp_files/1500.got.cif
#   From: 2010.03.12/outbox.cif.g09.slc.cpg/sg1_1_cif.got.tgz:1500.got - 2010.03.29 11:57:58.
