data_PCOD8000162
_publ_section_title
;
Structure prediction by ZEFSAII (Michael W. Deem and Ramdas Pophale) SiO2 
 PCOD8000162
Probable space group: P 1
;
_chemical_formula_sum "Si O2"
_cell_formula_units_Z 8
_cell_length_a 7.209812
_cell_length_b 14.386356
_cell_length_c 5.196383
_cell_angle_alpha 86.098046
_cell_angle_beta 115.009538
_cell_angle_gamma 131.818117
_cell_volume 345.295097
_symmetry_space_group_name_H-M "P 1"
_symmetry_group_IT_number 1
_symmetry_cell_setting 'triclinic'
loop_
_space_group_symop_operation_xyz
x,y,z
loop_
_atom_site_type_symbol
_atom_site_label
_atom_site_fract_x
_atom_site_fract_y
_atom_site_fract_z
Si Si1 0.172650 0.592980 0.033560
Si Si2 0.301191 0.906165 0.617708
Si Si3 0.682911 0.665215 0.097995
Si Si4 0.145126 0.166821 0.916792
Si Si5 0.002398 0.208518 0.333506
Si Si6 0.567532 0.427728 0.863614
Si Si7 0.408066 0.055326 0.152913
Si Si8 0.418699 0.745380 0.667511
O O1 0.393573 0.576715 0.125624
O O2 0.286667 0.689757 0.320239
O O3 0.172481 0.654188 0.760842
O O4 0.840555 0.456153 0.910151
O O5 0.516071 0.885147 0.719678
O O6 0.973068 0.766497 0.411301
O O7 0.393978 0.011063 0.440509
O O8 0.309893 0.949067 0.902565
O O9 0.679667 0.565962 0.971673
O O10 0.672609 0.751096 0.876261
O O11 0.436557 0.324765 0.041097
O O12 0.981424 0.119673 0.555448
O O13 0.208037 0.080710 0.028898
O O14 0.951173 0.147308 0.035602
O O15 0.736644 0.192019 0.246504
O O16 0.314200 0.358995 0.512191
#
# Coordination Sequence:
#
# PCOD8000162 Si02
#       8
#     1   1   1   1   1   1   1   1
#     4  10  23  42  69 101 143 174 223 274 350 419
#     4  12  26  45  74 101 143 182 233 288 336 423
#     4  10  26  44  72 106 138 184 220 284 367 398
#     4  10  25  46  69 105 136 179 239 281 337 412
#     4  10  25  46  70 101 140 182 231 286 341 399
#     4  10  24  45  74 104 143 174 233 288 345 423
#     4  12  27  47  73  99 140 189 235 282 345 399
#     4  10  24  43  65 101 141 176 226 271 345 415
#
# _framework density 23.168589999999998
#
# number of rings (size 3 to 8) (size 9 to 14) (size 15 to 20)
#    1.500    0.000    1.250    2.250    3.500    7.000 
#    0.000    0.000    0.000    0.000    0.000    0.000 
#    0.000    0.000    0.000    0.000    0.000    0.000 
#
# Total GULP energy -99115.485565 kJ/mol
# GULP energy per Si atom -12389.435696 kJ/mol
# Density = 2.311586 g / cm^3
# Si number density = 23.168590 Si / 1000 Ang^3
#
#
#
# Elastic Constant Matrix: (Units=GPa)
#
#
# Indices 1 2 3 4 5 6 
#
# 1 79.6901 -1.1097 6.0451 -4.7807 -5.9275 2.2048
# 2 -1.1097 38.9344 -1.4276 -13.1741 -8.2929 -14.6901
# 3 6.0451 -1.4276 77.2415 -0.5108 -12.8449 7.5608
# 4 -4.7807 -13.1741 -0.5108 39.7293 9.9064 0.5447
# 5 -5.9275 -8.2929 -12.8449 9.9064 33.7482 -5.8052
# 6 2.2048 -14.6901 7.5608 0.5447 -5.8052 39.3905
#
#
#
# Elastic Compliance Matrix: (Units=1/GPa)
#
#
# Indices 1 2 3 4 5 6 
#
# 1 0.012845 0.001316 -0.000669 0.001494 0.001914 0.000161
# 2 0.001316 0.036522 0.000722 0.009805 0.009117 0.014616
# 3 -0.000669 0.000722 0.014063 -0.000993 0.005433 -0.001578
# 4 0.001494 0.009805 -0.000993 0.030080 -0.006115 0.002446
# 5 0.001914 0.009117 0.005433 -0.006115 0.037421 0.007849
# 6 0.000161 0.014616 -0.001578 0.002446 0.007849 0.032255
#
#
# Mechanical properties :
#
#
# Convention : Reuss Voigt Hill
#
# Bulk Modulus (GPa) = 15.11264 22.54240 18.82752
# Shear Modulus (GPa) = 27.39670 35.39750 31.39710
#
# Velocity S-wave (km/s) = 3.44247 3.91298 3.68524
# Velocity P-wave (km/s) = 4.72630 5.49236 5.12367
#
# Compressibility (1/GPa) = 0.06616978
#
# Stress axis : x y z
#
# Youngs Moduli (GPa) = 77.85017 27.38052 71.10634
#
# Poissons Ratio (x) = -0.03603 0.04754
# Poissons Ratio (y) = -0.10243 -0.05136
# Poissons Ratio (z) = 0.05205 -0.01978
#
# Static dielectric constant tensor:
#      x y z
#    x 4.262640 0.172140 0.150750 
#    y 0.172140 3.828550 -0.064790 
#    z 0.150750 -0.064790 4.049650 
# 
# 
# High freq. dielectric constant tensor:
#      x y z
#    x 1.924810 0.012460 0.004950 
#    y 0.012460 1.894060 -0.006710 
#    z 0.004950 -0.006710 1.916670 
# 
# From -- ./inp_files/1850.got.cif
#   From: 2010.03.12/outbox.cif.g09.slc.cpg/sg1_1_cif.got.tgz:1850.got - 2010.03.29 11:57:58.
