data_PCOD8000876
_publ_section_title
;
Structure prediction by ZEFSAII (Michael W. Deem and Ramdas Pophale) SiO2 
 PCOD8000876
Probable space group: P -1
;
_chemical_formula_sum "Si O2"
_cell_formula_units_Z 14
_cell_length_a 9.357953
_cell_length_b 26.742012
_cell_length_c 7.629713
_cell_angle_alpha 137.704240
_cell_angle_beta 127.995648
_cell_angle_gamma 27.329918
_cell_volume 584.567624
_symmetry_space_group_name_H-M "P -1"
_symmetry_group_IT_number 2
_symmetry_cell_setting 'triclinic'
loop_
_space_group_symop_operation_xyz
x,y,z
-x,-y,-z
loop_
_atom_site_type_symbol
_atom_site_label
_atom_site_fract_x
_atom_site_fract_y
_atom_site_fract_z
Si Si1 0.934781 0.218694 0.449840
Si Si2 0.783760 0.083435 0.716013
Si Si3 0.711011 0.042613 0.984506
Si Si4 0.376766 0.346988 0.185865
Si Si5 0.306161 0.176344 0.369898
Si Si6 0.186703 0.563809 0.487927
Si Si7 0.102895 0.301072 0.020388
O O1 0.564634 0.322215 0.426917
O O2 0.056051 0.196550 0.284677
O O3 0.952677 0.284171 0.756587
O O4 0.148096 0.078418 0.314080
O O5 0.494536 0.124172 0.563401
O O6 0.650214 0.211776 0.937610
O O7 0.000000 0.000000 0.500000
O O8 0.996210 0.001172 0.841840
O O9 0.516887 0.084218 0.122384
O O10 0.477127 0.161592 0.980694
O O11 0.220504 0.463310 0.251340
O O12 0.106178 0.380102 0.131084
O O13 0.110200 0.317802 0.552515
O O14 0.500000 0.500000 0.500000
O O15 0.109872 0.621807 0.770916
#
# Coordination Sequence:
#
# PCOD8000876 Si02
#       7
#     2   2   2   2   2   2   2
#     4  11  21  39  66  97 131 171 211 264 324 383
#     4   9  19  38  63  98 129 166 210 262 317 386
#     4   9  21  38  65  95 134 170 208 262 322 390
#     4  11  23  42  66  95 134 170 213 269 320 376
#     4  10  19  40  64  94 130 169 216 261 317 378
#     4  11  24  45  67  92 128 173 223 268 318 385
#     4  11  24  44  65  97 132 170 214 270 324 381
#
# _framework density 23.949325000000002
#
# number of rings (size 3 to 8) (size 9 to 14) (size 15 to 20)
#    0.000    1.714    2.857    1.286    0.000    3.429 
#    2.571    2.857    0.000    0.000    0.000    0.000 
#    0.000    0.000    0.000    0.000    0.000    0.000 
#
# Total GULP energy -173496.536387 kJ/mol
# GULP energy per Si atom -12392.609742 kJ/mol
# Density = 2.389482 g / cm^3
# Si number density = 23.949325 Si / 1000 Ang^3
#
#
#
# Elastic Constant Matrix: (Units=GPa)
#
#
# Indices 1 2 3 4 5 6 
#
# 1 85.7325 19.2413 38.5912 6.7164 15.4964 -2.3829
# 2 19.2413 74.1658 34.9402 6.7826 -3.8433 3.3436
# 3 38.5912 34.9402 102.5433 -7.2813 14.9705 -5.8549
# 4 6.7164 6.7826 -7.2813 41.6089 3.4852 4.4451
# 5 15.4964 -3.8433 14.9705 3.4852 30.5819 5.4065
# 6 -2.3829 3.3436 -5.8549 4.4451 5.4065 37.3131
#
#
#
# Elastic Compliance Matrix: (Units=1/GPa)
#
#
# Indices 1 2 3 4 5 6 
#
# 1 0.015398 -0.002127 -0.004285 -0.002567 -0.005975 0.001673
# 2 -0.002127 0.018341 -0.007112 -0.004179 0.007968 -0.003552
# 3 -0.004285 -0.007112 0.015395 0.004814 -0.007387 0.003276
# 4 -0.002567 -0.004179 0.004814 0.026501 -0.004324 -0.001565
# 5 -0.005975 0.007968 -0.007387 -0.004324 0.042226 -0.007858
# 6 0.001673 -0.003552 0.003276 -0.001565 -0.007858 0.029064
#
#
# Mechanical properties :
#
#
# Convention : Reuss Voigt Hill
#
# Bulk Modulus (GPa) = 45.27456 49.77631 47.52544
# Shear Modulus (GPa) = 27.57360 33.21206 30.39283
#
# Velocity S-wave (km/s) = 3.39681 3.72797 3.56623
# Velocity P-wave (km/s) = 5.85916 6.27371 6.06998
#
# Compressibility (1/GPa) = 0.02208746
#
# Stress axis : x y z
#
# Youngs Moduli (GPa) = 64.94449 54.52372 64.95654
#
# Poissons Ratio (x) = 0.11595 0.27831
# Poissons Ratio (y) = 0.13811 0.46196
# Poissons Ratio (z) = 0.27826 0.38776
#
# Static dielectric constant tensor:
#      x y z
#    x 4.387420 -0.265020 -0.007930 
#    y -0.265020 5.077840 -0.128830 
#    z -0.007930 -0.128830 4.375960 
# 
# 
# High freq. dielectric constant tensor:
#      x y z
#    x 1.957530 -0.014990 -0.004870 
#    y -0.014990 1.955820 0.006220 
#    z -0.004870 0.006220 1.946300 
# 
# From -- ./inp_files/227598.got.cif
#   From: 2010.06.25/outbox.cif.g09.slc.cpg/sg2_114_cif.got.tgz:227598.got - 2010.06.27 13:26:56.
