data_PCOD8000022
_publ_section_title
;
Structure prediction by ZEFSAII (Michael W. Deem and Ramdas Pophale) SiO2 
 PCOD8000022
Probable space group: P 1
;
_chemical_formula_sum "Si O2"
_cell_formula_units_Z 8
_cell_length_a 7.429162
_cell_length_b 7.257583
_cell_length_c 9.066747
_cell_angle_alpha 86.874933
_cell_angle_beta 48.195001
_cell_angle_gamma 59.828722
_cell_volume 283.626731
_symmetry_space_group_name_H-M "P 1"
_symmetry_group_IT_number 1
_symmetry_cell_setting 'triclinic'
loop_
_space_group_symop_operation_xyz
x,y,z
loop_
_atom_site_type_symbol
_atom_site_label
_atom_site_fract_x
_atom_site_fract_y
_atom_site_fract_z
Si Si1 0.167860 0.039140 0.882040
Si Si2 0.418557 0.606133 0.583288
Si Si3 0.112860 0.249481 0.193159
Si Si4 0.312680 0.921944 0.386782
Si Si5 0.015781 0.657353 0.039841
Si Si6 0.464761 0.303731 0.228981
Si Si7 0.367682 0.711604 0.075662
Si Si8 0.061984 0.354951 0.685533
O O1 0.146275 0.254779 0.811775
O O2 0.421268 0.797170 0.668057
O O3 0.262117 0.023672 0.006282
O O4 0.831321 0.102847 0.047421
O O5 0.334263 0.706306 0.457048
O O6 0.168379 0.582633 0.793414
O O7 0.761983 0.359612 0.418081
O O8 0.316887 0.193731 0.231157
O O9 0.109494 0.434241 0.088640
O O10 0.059274 0.163913 0.600765
O O11 0.218423 0.937412 0.262541
O O12 0.649220 0.858233 0.221401
O O13 0.163650 0.767356 0.037668
O O14 0.312163 0.378452 0.475408
O O15 0.371056 0.526840 0.180177
O O16 0.718559 0.601474 0.850738
#
# Coordination Sequence:
#
# PCOD8000022 Si02
#       8
#     1   1   1   1   1   1   1   1
#     4  10  22  38  56  82 112 142 182 226 268 322
#     4  10  20  38  58  80 112 144 180 226 270 320
#     4  10  22  38  56  82 112 142 182 226 268 322
#     4  10  22  38  56  82 112 142 182 226 268 322
#     4  10  20  38  58  80 112 144 180 226 270 320
#     4  10  20  38  58  80 112 144 180 226 270 320
#     4  10  22  38  56  82 112 142 182 226 268 322
#     4  10  20  38  58  80 112 144 180 226 270 320
#
# _framework density 28.206085999999999
#
# number of rings (size 3 to 8) (size 9 to 14) (size 15 to 20)
#    0.000    2.000    0.000    4.500    0.000    5.000 
#    0.000   22.500    0.000    0.000    0.000    0.000 
#    0.000    0.000    0.000    0.000    0.000    0.000 
#
# Total GULP energy -99262.928087 kJ/mol
# GULP energy per Si atom -12407.866011 kJ/mol
# Density = 2.814189 g / cm^3
# Si number density = 28.206086 Si / 1000 Ang^3
#
#
#
# Elastic Constant Matrix: (Units=GPa)
#
#
# Indices 1 2 3 4 5 6 
#
# 1 80.3874 24.3046 51.9841 -19.0037 12.4865 -15.2487
# 2 24.3046 97.4026 31.1022 -14.6294 -15.5208 -12.5781
# 3 51.9841 31.1022 172.5985 -15.1244 1.3036 -16.1034
# 4 -19.0037 -14.6294 -15.1244 62.9349 -4.9873 -0.7951
# 5 12.4865 -15.5208 1.3036 -4.9873 48.2213 -18.7583
# 6 -15.2487 -12.5781 -16.1034 -0.7951 -18.7583 47.2441
#
#
#
# Elastic Compliance Matrix: (Units=1/GPa)
#
#
# Indices 1 2 3 4 5 6 
#
# 1 0.018034 -0.003090 -0.004383 0.003339 -0.004512 0.001769
# 2 -0.003090 0.013617 -0.000840 0.002700 0.007585 0.005399
# 3 -0.004383 -0.000840 0.007419 0.000380 0.001244 0.001391
# 4 0.003339 0.002700 0.000380 0.017915 0.003209 0.003502
# 5 -0.004512 0.007585 0.001244 0.003209 0.029627 0.012804
# 6 0.001769 0.005399 0.001391 0.003502 0.012804 0.028792
#
#
# Mechanical properties :
#
#
# Convention : Reuss Voigt Hill
#
# Bulk Modulus (GPa) = 44.55472 62.79670 53.67571
# Shear Modulus (GPa) = 35.83932 47.87991 41.85961
#
# Velocity S-wave (km/s) = 3.56845 4.12455 3.85653
# Velocity P-wave (km/s) = 5.72790 6.70778 6.23712
#
# Compressibility (1/GPa) = 0.02244431
#
# Stress axis : x y z
#
# Youngs Moduli (GPa) = 55.45075 73.43636 134.78814
#
# Poissons Ratio (x) = 0.22688 0.59080
# Poissons Ratio (y) = 0.17132 0.11326
# Poissons Ratio (z) = 0.24305 0.06171
#
# Static dielectric constant tensor:
#      x y z
#    x 5.113990 0.083100 0.567260 
#    y 0.083100 5.848310 -0.399830 
#    z 0.567260 -0.399830 5.377200 
# 
# 
# High freq. dielectric constant tensor:
#      x y z
#    x 2.126580 0.009320 0.036120 
#    y 0.009320 2.223950 -0.025620 
#    z 0.036120 -0.025620 2.158490 
# 
# From -- ./inp_files/4304.got.cif
#   From: 2010.03.12/outbox.cif.g09.slc.cpg/sg1_3_cif.got.tgz:4304.got - 2010.03.29 11:57:58.
