data_PCOD8000460
_publ_section_title
;
Structure prediction by ZEFSAII (Michael W. Deem and Ramdas Pophale) SiO2 
 PCOD8000460
Probable space group: P -1
;
_chemical_formula_sum "Si O2"
_cell_formula_units_Z 14
_cell_length_a 21.007335
_cell_length_b 11.639988
_cell_length_c 8.053317
_cell_angle_alpha 142.486324
_cell_angle_beta 145.022630
_cell_angle_gamma 42.294376
_cell_volume 664.313756
_symmetry_space_group_name_H-M "P -1"
_symmetry_group_IT_number 2
_symmetry_cell_setting 'triclinic'
loop_
_space_group_symop_operation_xyz
x,y,z
-x,-y,-z
loop_
_atom_site_type_symbol
_atom_site_label
_atom_site_fract_x
_atom_site_fract_y
_atom_site_fract_z
Si Si1 0.326615 0.631592 0.397774
Si Si2 0.450300 0.523429 0.102667
Si Si3 0.308005 0.905399 0.384397
Si Si4 0.293010 0.321033 0.713143
Si Si5 0.074625 0.865637 0.732263
Si Si6 0.954829 0.525298 0.745908
Si Si7 0.115571 0.770468 0.331729
O O1 0.448739 0.509374 0.584487
O O2 0.342282 0.820055 0.544515
O O3 0.243113 0.707298 0.460344
O O4 0.276685 0.489319 0.010268
O O5 0.371751 0.743547 0.202528
O O6 0.500000 0.500000 0.000000
O O7 0.378032 0.364016 0.801818
O O8 0.342823 0.107574 0.657670
O O9 0.170269 0.946811 0.121779
O O10 0.171766 0.326655 0.371344
O O11 0.051283 0.684374 0.578781
O O12 0.123018 0.787794 0.565391
O O13 0.952791 0.021473 0.647447
O O14 0.000000 0.500000 0.000000
O O15 0.046387 0.613674 0.945117
#
# Coordination Sequence:
#
# PCOD8000460 Si02
#       7
#     2   2   2   2   2   2   2
#     4  11  25  41  62  95 130 166 203 261 315 372
#     4  11  25  45  69  91 122 163 213 266 310 367
#     4  11  22  42  65  91 129 165 209 253 316 372
#     4  11  23  43  65  93 128 167 209 255 316 371
#     4  10  19  39  62  90 122 170 206 259 303 366
#     4  10  20  37  63  92 124 168 205 255 306 364
#     4  10  22  37  62  93 127 162 215 250 312 367
#
# _framework density 21.074379
#
# number of rings (size 3 to 8) (size 9 to 14) (size 15 to 20)
#    0.000    1.429    4.286    2.571    2.000    5.143 
#    0.000    1.429    0.000    0.000    0.000    0.000 
#    0.000    0.000    0.000    0.000    0.000    0.000 
#
# Total GULP energy -173573.547616 kJ/mol
# GULP energy per Si atom -12398.110544 kJ/mol
# Density = 2.102641 g / cm^3
# Si number density = 21.074379 Si / 1000 Ang^3
#
#
#
# Elastic Constant Matrix: (Units=GPa)
#
#
# Indices 1 2 3 4 5 6 
#
# 1 70.4722 24.4161 15.4745 11.6623 12.1392 6.8984
# 2 24.4161 116.3858 28.4399 15.0087 12.8916 19.8654
# 3 15.4745 28.4399 61.4093 -6.4427 8.8362 11.8467
# 4 11.6623 15.0087 -6.4427 46.4845 10.0960 8.6841
# 5 12.1392 12.8916 8.8362 10.0960 27.6283 -0.3918
# 6 6.8984 19.8654 11.8467 8.6841 -0.3918 28.7743
#
#
#
# Elastic Compliance Matrix: (Units=1/GPa)
#
#
# Indices 1 2 3 4 5 6 
#
# 1 0.016792 -0.001804 -0.002893 -0.002895 -0.004564 -0.000778
# 2 -0.001804 0.011324 -0.003618 -0.002148 -0.002624 -0.005283
# 3 -0.002893 -0.003618 0.022228 0.008139 -0.007244 -0.008515
# 4 -0.002895 -0.002148 0.008139 0.028243 -0.010789 -0.009844
# 5 -0.004564 -0.002624 -0.007244 -0.010789 0.045823 0.009768
# 6 -0.000778 -0.005283 -0.008515 -0.009844 0.009768 0.045197
#
#
# Mechanical properties :
#
#
# Convention : Reuss Voigt Hill
#
# Bulk Modulus (GPa) = 29.66228 42.76983 36.21606
# Shear Modulus (GPa) = 25.31976 32.57320 28.94648
#
# Velocity S-wave (km/s) = 3.46995 3.93572 3.71015
# Velocity P-wave (km/s) = 5.49178 6.40249 5.96454
#
# Compressibility (1/GPa) = 0.03371285
#
# Stress axis : x y z
#
# Youngs Moduli (GPa) = 59.55355 88.30604 44.98870
#
# Poissons Ratio (x) = 0.15933 0.13014
# Poissons Ratio (y) = 0.10745 0.16279
# Poissons Ratio (z) = 0.17227 0.31954
#
# Static dielectric constant tensor:
#      x y z
#    x 3.615320 0.264700 0.240620 
#    y 0.264700 4.028110 0.026830 
#    z 0.240620 0.026830 3.919420 
# 
# 
# High freq. dielectric constant tensor:
#      x y z
#    x 1.805800 0.014800 0.012800 
#    y 0.014800 1.840520 -0.010820 
#    z 0.012800 -0.010820 1.823150 
# 
# From -- ./inp_files/251413.got.cif
#   From: 2010.06.25/outbox.cif.g09.slc.cpg/sg2_126_cif.got.tgz:251413.got - 2010.06.27 13:26:56.
