data_PCOD8000011
_publ_section_title
;
Structure prediction by ZEFSAII (Michael W. Deem and Ramdas Pophale) SiO2 
 PCOD8000011
Probable space group: P 1
;
_chemical_formula_sum "Si O2"
_cell_formula_units_Z 8
_cell_length_a 9.263668
_cell_length_b 13.459811
_cell_length_c 11.390910
_cell_angle_alpha 147.070053
_cell_angle_beta 142.630844
_cell_angle_gamma 29.564704
_cell_volume 369.711075
_symmetry_space_group_name_H-M "P 1"
_symmetry_group_IT_number 1
_symmetry_cell_setting 'triclinic'
loop_
_space_group_symop_operation_xyz
x,y,z
loop_
_atom_site_type_symbol
_atom_site_label
_atom_site_fract_x
_atom_site_fract_y
_atom_site_fract_z
Si Si1 0.198570 0.301890 0.584690
Si Si2 0.974724 0.253826 0.758158
Si Si3 0.714389 0.441457 0.235035
Si Si4 0.154762 0.959308 0.363266
Si Si5 0.843911 0.130509 0.795898
Si Si6 0.427132 0.665670 0.664403
Si Si7 0.296629 0.465277 0.167918
Si Si8 0.877670 0.735999 0.967223
O O1 0.545872 0.147707 0.620276
O O2 0.995107 0.412761 0.447423
O O3 0.129350 0.144980 0.448599
O O4 0.124397 0.503667 0.823341
O O5 0.872829 0.214839 0.774294
O O6 0.677213 0.480605 0.732632
O O7 0.115466 0.033304 0.546785
O O8 0.234415 0.282571 0.975167
O O9 0.474033 0.708228 0.306623
O O10 0.578699 0.357736 0.155526
O O11 0.843082 0.282092 0.046101
O O12 0.885680 0.943852 0.135403
O O13 0.124398 0.861665 0.732096
O O14 0.360062 0.540721 0.403816
O O15 0.552097 0.791701 0.804161
O O16 0.998700 0.687020 0.131325
#
# Coordination Sequence:
#
# PCOD8000011 Si02
#       8
#     1   1   1   1   1   1   1   1
#     4  12  24  47  67 101 143 178 232 280 336 412
#     4  11  25  43  69 105 136 181 231 278 348 408
#     4  11  24  43  69 102 136 183 228 279 346 404
#     4  11  22  46  77  99 133 186 232 284 334 407
#     4  12  27  43  64 104 149 171 222 294 342 403
#     4  11  24  45  71 102 137 182 227 287 342 399
#     4  10  19  44  72  94 136 174 235 278 319 416
#     4  10  21  43  71 103 132 173 241 278 321 419
#
# _framework density 21.638518999999999
#
# number of rings (size 3 to 8) (size 9 to 14) (size 15 to 20)
#    0.000    1.000    6.250    1.500    0.000    9.000 
#    2.250    0.000    0.000    0.000    0.000    0.000 
#    0.000    0.000    0.000    0.000    0.000    0.000 
#
# Total GULP energy -99207.075510 kJ/mol
# GULP energy per Si atom -12400.884439 kJ/mol
# Density = 2.158927 g / cm^3
# Si number density = 21.638519 Si / 1000 Ang^3
#
#
#
# Elastic Constant Matrix: (Units=GPa)
#
#
# Indices 1 2 3 4 5 6 
#
# 1 76.9255 10.0751 40.7581 9.3348 -0.0070 -5.8082
# 2 10.0751 61.2302 46.2230 -9.7803 -14.5699 -23.2304
# 3 40.7581 46.2230 150.5782 2.3753 8.1834 -3.8325
# 4 9.3348 -9.7803 2.3753 37.4171 -4.7557 -0.4108
# 5 -0.0070 -14.5699 8.1834 -4.7557 42.3375 -0.5312
# 6 -5.8082 -23.2304 -3.8325 -0.4108 -0.5312 36.0815
#
#
#
# Elastic Compliance Matrix: (Units=1/GPa)
#
#
# Indices 1 2 3 4 5 6 
#
# 1 0.015947 0.002461 -0.005021 -0.002779 0.001553 0.003610
# 2 0.002461 0.045863 -0.015387 0.015315 0.020839 0.028771
# 3 -0.005021 -0.015387 0.013017 -0.004776 -0.008468 -0.009511
# 4 -0.002779 0.015315 -0.004776 0.033104 0.010030 0.009430
# 5 0.001553 0.020839 -0.008468 0.010030 0.033723 0.013378
# 6 0.003610 0.028771 -0.009511 0.009430 0.013378 0.046114
#
#
# Mechanical properties :
#
#
# Convention : Reuss Voigt Hill
#
# Bulk Modulus (GPa) = 25.68394 53.64959 39.66677
# Shear Modulus (GPa) = 21.12936 35.94573 28.53754
#
# Velocity S-wave (km/s) = 3.12824 4.08019 3.63551
# Velocity P-wave (km/s) = 4.99431 6.85891 5.99949
#
# Compressibility (1/GPa) = 0.03893483
#
# Stress axis : x y z
#
# Youngs Moduli (GPa) = 62.70604 21.80422 76.82391
#
# Poissons Ratio (x) = -0.05367 0.38572
# Poissons Ratio (y) = -0.15434 1.18206
# Poissons Ratio (z) = 0.31484 0.33549
#
# Static dielectric constant tensor:
#      x y z
#    x 3.821910 -0.132690 0.124740 
#    y -0.132690 3.948990 -0.121500 
#    z 0.124740 -0.121500 4.217530 
# 
# 
# High freq. dielectric constant tensor:
#      x y z
#    x 1.835520 -0.002620 0.008170 
#    y -0.002620 1.854110 -0.011570 
#    z 0.008170 -0.011570 1.867750 
# 
# From -- ./inp_files/4221.got.cif
#   From: 2010.03.12/outbox.cif.g09.slc.cpg/sg1_3_cif.got.tgz:4221.got - 2010.03.29 11:57:58.
