data_PCOD8000874
_publ_section_title
;
Structure prediction by ZEFSAII (Michael W. Deem and Ramdas Pophale) SiO2 
 PCOD8000874
Probable space group: P -1
;
_chemical_formula_sum "Si O2"
_cell_formula_units_Z 16
_cell_length_a 14.280656
_cell_length_b 10.015799
_cell_length_c 12.090572
_cell_angle_alpha 66.174656
_cell_angle_beta 66.719413
_cell_angle_gamma 123.756668
_cell_volume 762.516898
_symmetry_space_group_name_H-M "P -1"
_symmetry_group_IT_number 2
_symmetry_cell_setting 'triclinic'
loop_
_space_group_symop_operation_xyz
x,y,z
-x,-y,-z
loop_
_atom_site_type_symbol
_atom_site_label
_atom_site_fract_x
_atom_site_fract_y
_atom_site_fract_z
Si Si1 0.519053 0.352328 0.555698
Si Si2 0.113186 0.425062 0.024875
Si Si3 0.803128 0.148702 0.825568
Si Si4 0.045360 0.348915 0.447271
Si Si5 0.207547 0.022958 0.522605
Si Si6 0.881779 0.260870 0.995581
Si Si7 0.467910 0.792370 0.613307
Si Si8 0.624045 0.464704 0.715241
O O1 0.500000 0.500000 0.500000
O O2 0.623590 0.405618 0.383368
O O3 0.624507 0.438643 0.591549
O O4 0.304590 0.027154 0.759320
O O5 0.064150 0.425955 0.924931
O O6 0.133402 0.582353 0.049751
O O7 0.317033 0.591067 0.854243
O O8 0.949204 0.123430 0.258982
O O9 0.830203 0.351490 0.716761
O O10 0.914576 0.185204 0.673189
O O11 0.896375 0.223467 0.875800
O O12 0.574947 0.833246 0.037132
O O13 0.196670 0.401202 0.359599
O O14 0.898816 0.149718 0.481916
O O15 0.329357 0.030523 0.501695
O O16 0.351046 0.334288 0.335372
O O17 0.500000 0.000000 0.500000
#
# Coordination Sequence:
#
# PCOD8000874 Si02
#       8
#     2   2   2   2   2   2   2   2
#     4  11  21  42  64  97 140 168 214 280 340 393
#     4  11  21  38  66  98 131 174 219 270 337 397
#     4  10  24  43  67 101 129 173 230 281 323 398
#     4  11  25  44  70  95 131 181 231 268 329 403
#     4  12  25  46  64 100 140 171 224 282 329 405
#     4  10  19  40  64  93 137 166 215 280 327 396
#     4  12  24  38  68 101 132 180 221 273 337 401
#     4  11  25  44  69  93 138 180 216 279 346 388
#
# _framework density 20.983139999999999
#
# number of rings (size 3 to 8) (size 9 to 14) (size 15 to 20)
#    0.000    1.000    5.000    1.500    1.750    3.500 
#    0.000    1.250    0.000    0.000    0.000    0.000 
#    0.000    0.000    0.000    0.000    0.000    0.000 
#
# Total GULP energy -198427.202049 kJ/mol
# GULP energy per Si atom -12401.700128 kJ/mol
# Density = 2.093538 g / cm^3
# Si number density = 20.983140 Si / 1000 Ang^3
#
#
#
# Elastic Constant Matrix: (Units=GPa)
#
#
# Indices 1 2 3 4 5 6 
#
# 1 88.4232 44.2984 36.4247 -2.2334 -5.0323 2.6796
# 2 44.2984 114.4667 53.8307 1.7891 -2.7308 2.3977
# 3 36.4247 53.8307 128.2235 12.1506 -9.7892 6.7495
# 4 -2.2334 1.7891 12.1506 38.5727 -2.9573 4.7570
# 5 -5.0323 -2.7308 -9.7892 -2.9573 24.4829 -1.8857
# 6 2.6796 2.3977 6.7495 4.7570 -1.8857 30.7525
#
#
#
# Elastic Compliance Matrix: (Units=1/GPa)
#
#
# Indices 1 2 3 4 5 6 
#
# 1 0.014723 -0.004607 -0.002267 0.001995 0.001799 -0.000624
# 2 -0.004607 0.012369 -0.004009 0.000312 -0.001117 0.000200
# 3 -0.002267 -0.004009 0.010691 -0.002941 0.002913 -0.001203
# 4 0.001995 0.000312 -0.002941 0.027584 0.002318 -0.003677
# 5 0.001799 -0.001117 0.002913 0.002318 0.042654 0.001548
# 6 -0.000624 0.000200 -0.001203 -0.003677 0.001548 0.033484
#
#
# Mechanical properties :
#
#
# Convention : Reuss Voigt Hill
#
# Bulk Modulus (GPa) = 62.43971 66.69122 64.56547
# Shear Modulus (GPa) = 29.65438 31.86560 30.75999
#
# Velocity S-wave (km/s) = 3.76340 3.90119 3.83291
# Velocity P-wave (km/s) = 6.97896 7.22112 7.10107
#
# Compressibility (1/GPa) = 0.01601545
#
# Stress axis : x y z
#
# Youngs Moduli (GPa) = 67.92216 80.84906 93.53997
#
# Poissons Ratio (x) = 0.37244 0.21208
# Poissons Ratio (y) = 0.31289 0.37504
# Poissons Ratio (z) = 0.15400 0.32416
#
# Static dielectric constant tensor:
#      x y z
#    x 3.585990 0.095710 0.037820 
#    y 0.095710 3.880430 0.045530 
#    z 0.037820 0.045530 3.910830 
# 
# 
# High freq. dielectric constant tensor:
#      x y z
#    x 1.806590 0.008000 0.005100 
#    y 0.008000 1.828000 -0.002410 
#    z 0.005100 -0.002410 1.832200 
# 
# From -- ./inp_files/272147.got.cif
#   From: 2010.06.25/outbox.cif.g09.slc.cpg/sg2_137_cif.got.tgz:272147.got - 2010.06.27 13:26:56.
