data_PCOD8000905
_publ_section_title
;
Structure prediction by ZEFSAII (Michael W. Deem and Ramdas Pophale) SiO2 
 PCOD8000905
Probable space group: P -1
;
_chemical_formula_sum "Si O2"
_cell_formula_units_Z 14
_cell_length_a 12.034735
_cell_length_b 28.302588
_cell_length_c 12.332780
_cell_angle_alpha 18.191385
_cell_angle_beta 141.946191
_cell_angle_gamma 149.570233
_cell_volume 650.711703
_symmetry_space_group_name_H-M "P -1"
_symmetry_group_IT_number 2
_symmetry_cell_setting 'triclinic'
loop_
_space_group_symop_operation_xyz
x,y,z
-x,-y,-z
loop_
_atom_site_type_symbol
_atom_site_label
_atom_site_fract_x
_atom_site_fract_y
_atom_site_fract_z
Si Si1 0.909568 0.025785 0.093248
Si Si2 0.940340 0.093457 0.338476
Si Si3 0.632228 0.957667 0.769421
Si Si4 0.440466 0.867068 0.056522
Si Si5 0.118281 0.277374 0.398678
Si Si6 0.682782 0.653606 0.386874
Si Si7 0.267041 0.470994 0.871213
O O1 0.678866 0.988461 0.041275
O O2 0.829824 0.871910 0.270448
O O3 0.054142 0.994585 0.353228
O O4 0.073356 0.241019 0.711929
O O5 0.699367 0.046990 0.225692
O O6 0.000000 0.000000 0.500000
O O7 0.123659 0.318472 0.998921
O O8 0.500000 0.000000 0.500000
O O9 0.497793 0.874789 0.958279
O O10 0.638627 0.806621 0.037592
O O11 0.877337 0.156478 0.535839
O O12 0.294232 0.656674 0.450482
O O13 0.300028 0.417598 0.325570
O O14 0.138363 0.399495 0.044573
O O15 0.500000 0.500000 0.500000
O O16 0.500000 0.500000 0.000000
#
# Coordination Sequence:
#
# PCOD8000905 Si02
#       7
#     2   2   2   2   2   2   2
#     4  10  20  42  65  94 130 179 222 260 333 403
#     4  11  26  42  65 100 136 168 222 284 336 391
#     4  11  21  39  69  95 125 176 225 257 323 414
#     4  12  21  42  75  92 130 181 228 265 326 401
#     4  10  19  40  65  93 134 171 217 263 324 405
#     4  11  21  38  66  97 133 170 211 282 334 374
#     4  11  21  41  68  98 130 175 225 267 321 402
#
# _framework density 21.514904000000001
#
# number of rings (size 3 to 8) (size 9 to 14) (size 15 to 20)
#    0.000    1.143    5.714    3.857    0.000    2.857 
#    0.000    0.714    0.000    0.000    0.000    0.000 
#    0.000    0.000    0.000    0.000    0.000    0.000 
#
# Total GULP energy -173465.081106 kJ/mol
# GULP energy per Si atom -12390.362936 kJ/mol
# Density = 2.146594 g / cm^3
# Si number density = 21.514904 Si / 1000 Ang^3
#
#
#
# Elastic Constant Matrix: (Units=GPa)
#
#
# Indices 1 2 3 4 5 6 
#
# 1 101.0509 59.2707 59.6070 -3.5519 -5.8460 4.9705
# 2 59.2707 136.0679 58.6618 6.6042 3.1614 0.1949
# 3 59.6070 58.6618 101.6454 8.7180 -21.9301 -1.2287
# 4 -3.5519 6.6042 8.7180 35.2400 7.5336 8.4498
# 5 -5.8460 3.1614 -21.9301 7.5336 31.2929 7.0853
# 6 4.9705 0.1949 -1.2287 8.4498 7.0853 42.1181
#
#
#
# Elastic Compliance Matrix: (Units=1/GPa)
#
#
# Indices 1 2 3 4 5 6 
#
# 1 0.018139 -0.003862 -0.009883 0.006594 -0.004043 -0.003054
# 2 -0.003862 0.011677 -0.005790 -0.000128 -0.006224 0.001305
# 3 -0.009883 -0.005790 0.023565 -0.009671 0.017378 0.000897
# 4 0.006594 -0.000128 -0.009671 0.035636 -0.012738 -0.006066
# 5 -0.004043 -0.006224 0.017378 -0.012738 0.048099 -0.004523
# 6 -0.003054 0.001305 0.000897 -0.006066 -0.004523 0.026101
#
#
# Mechanical properties :
#
#
# Convention : Reuss Voigt Hill
#
# Bulk Modulus (GPa) = 69.87951 77.09370 73.48660
# Shear Modulus (GPa) = 24.14796 32.47850 28.31323
#
# Velocity S-wave (km/s) = 3.35383 3.88955 3.63158
# Velocity P-wave (km/s) = 6.89548 7.48879 7.19825
#
# Compressibility (1/GPa) = 0.01431035
#
# Stress axis : x y z
#
# Youngs Moduli (GPa) = 55.12945 85.63963 42.43613
#
# Poissons Ratio (x) = 0.33077 0.41939
# Poissons Ratio (y) = 0.21293 0.24571
# Poissons Ratio (z) = 0.54484 0.49586
#
# Static dielectric constant tensor:
#      x y z
#    x 3.666610 0.304350 -0.196340 
#    y 0.304350 4.365250 0.128700 
#    z -0.196340 0.128700 3.762500 
# 
# 
# High freq. dielectric constant tensor:
#      x y z
#    x 1.831010 0.008570 -0.025900 
#    y 0.008570 1.861210 0.021460 
#    z -0.025900 0.021460 1.826470 
# 
# From -- ./inp_files/279940.got.cif
#   From: 2010.06.25/outbox.cif.g09.slc.cpg/sg2_140_cif.got.tgz:279940.got - 2010.06.27 13:26:56.
