data_PCOD8000584
_publ_section_title
;
Structure prediction by ZEFSAII (Michael W. Deem and Ramdas Pophale) SiO2 
 PCOD8000584
Probable space group: P -1
;
_chemical_formula_sum "Si O2"
_cell_formula_units_Z 14
_cell_length_a 17.549669
_cell_length_b 20.308229
_cell_length_c 9.130716
_cell_angle_alpha 141.690399
_cell_angle_beta 47.482788
_cell_angle_gamma 160.842068
_cell_volume 626.884587
_symmetry_space_group_name_H-M "P -1"
_symmetry_group_IT_number 2
_symmetry_cell_setting 'triclinic'
loop_
_space_group_symop_operation_xyz
x,y,z
-x,-y,-z
loop_
_atom_site_type_symbol
_atom_site_label
_atom_site_fract_x
_atom_site_fract_y
_atom_site_fract_z
Si Si1 0.747253 0.230720 0.992511
Si Si2 0.975166 0.673312 0.030208
Si Si3 0.898450 0.655220 0.779364
Si Si4 0.231372 0.390029 0.575846
Si Si5 0.058426 0.717967 0.407055
Si Si6 0.427289 0.249600 0.495573
Si Si7 0.041367 0.046789 0.700184
O O1 0.820159 0.418024 0.181879
O O2 0.968760 0.389354 0.081906
O O3 0.719984 0.134107 0.709457
O O4 0.500000 0.000000 0.000000
O O5 0.753912 0.527171 0.148391
O O6 0.227320 0.973939 0.241523
O O7 0.890967 0.583619 0.815276
O O8 0.640713 0.402636 0.588663
O O9 0.106644 0.793481 0.646491
O O10 0.960874 0.835781 0.037315
O O11 0.476270 0.621589 0.564725
O O12 0.005329 0.231037 0.501621
O O13 0.169691 0.210595 0.382762
O O14 0.303437 0.233726 0.713107
O O15 0.000000 0.000000 0.500000
#
# Coordination Sequence:
#
# PCOD8000584 Si02
#       7
#     2   2   2   2   2   2   2
#     4  10  19  39  65  84 117 156 192 244 306 351
#     4  10  21  40  61  88 125 152 195 254 290 347
#     4  11  21  40  60  89 124 154 203 245 286 355
#     4   9  19  38  60  83 121 160 195 240 296 343
#     4   9  21  36  59  89 115 153 198 243 294 352
#     4  10  21  38  61  85 121 164 199 234 298 346
#     4  11  21  39  60  88 124 158 198 246 288 346
#
# _framework density 22.332661000000002
#
# number of rings (size 3 to 8) (size 9 to 14) (size 15 to 20)
#    0.000    2.000    2.857    2.143    0.000    3.429 
#    0.000   12.143    0.000    0.000    0.000    0.000 
#    0.000    0.000    0.000    0.000    0.000    0.000 
#
# Total GULP energy -173496.133654 kJ/mol
# GULP energy per Si atom -12392.580975 kJ/mol
# Density = 2.228183 g / cm^3
# Si number density = 22.332661 Si / 1000 Ang^3
#
#
#
# Elastic Constant Matrix: (Units=GPa)
#
#
# Indices 1 2 3 4 5 6 
#
# 1 88.9598 8.3023 25.7343 -3.5820 11.9546 -17.8844
# 2 8.3023 106.4584 33.6713 -24.1855 6.2253 -19.4557
# 3 25.7343 33.6713 97.7575 -33.5257 12.8948 -4.5723
# 4 -3.5820 -24.1855 -33.5257 43.3924 -9.1888 1.9281
# 5 11.9546 6.2253 12.8948 -9.1888 38.0998 -7.6691
# 6 -17.8844 -19.4557 -4.5723 1.9281 -7.6691 32.1441
#
#
#
# Elastic Compliance Matrix: (Units=1/GPa)
#
#
# Indices 1 2 3 4 5 6 
#
# 1 0.014091 0.001262 -0.004264 -0.002230 -0.002191 0.007608
# 2 0.001262 0.012687 -0.002809 0.004920 0.001277 0.007991
# 3 -0.004264 -0.002809 0.015882 0.010117 -0.001708 -0.002828
# 4 -0.002230 0.004920 0.010117 0.034427 0.005251 0.002364
# 5 -0.002191 0.001277 -0.001708 0.005251 0.029799 0.006106
# 6 0.007608 0.007991 -0.002828 0.002364 0.006106 0.041092
#
#
# Mechanical properties :
#
#
# Convention : Reuss Voigt Hill
#
# Bulk Modulus (GPa) = 32.21970 47.62126 39.92048
# Shear Modulus (GPa) = 29.42094 37.75845 33.58969
#
# Velocity S-wave (km/s) = 3.63353 4.11631 3.88243
# Velocity P-wave (km/s) = 5.66232 6.63037 6.16538
#
# Compressibility (1/GPa) = 0.03103692
#
# Stress axis : x y z
#
# Youngs Moduli (GPa) = 70.96788 78.82085 62.96415
#
# Poissons Ratio (x) = -0.09944 0.26847
# Poissons Ratio (y) = -0.08953 0.17688
# Poissons Ratio (z) = 0.30260 0.22143
#
# Static dielectric constant tensor:
#      x y z
#    x 4.356690 -0.183900 -0.130190 
#    y -0.183900 4.286770 -0.682400 
#    z -0.130190 -0.682400 4.210850 
# 
# 
# High freq. dielectric constant tensor:
#      x y z
#    x 1.885530 -0.023550 -0.016420 
#    y -0.023550 1.876280 -0.037040 
#    z -0.016420 -0.037040 1.855210 
# 
# From -- ./inp_files/216014.got.cif
#   From: 2010.06.25/outbox.cif.g09.slc.cpg/sg2_109_cif.got.tgz:216014.got - 2010.06.27 13:26:56.
