data_PCOD8000908
_publ_section_title
;
Structure prediction by ZEFSAII (Michael W. Deem and Ramdas Pophale) SiO2 
 PCOD8000908
Probable space group: P -1
;
_chemical_formula_sum "Si O2"
_cell_formula_units_Z 16
_cell_length_a 8.848081
_cell_length_b 10.988999
_cell_length_c 10.366538
_cell_angle_alpha 132.773369
_cell_angle_beta 114.194458
_cell_angle_gamma 82.662203
_cell_volume 657.600122
_symmetry_space_group_name_H-M "P -1"
_symmetry_group_IT_number 2
_symmetry_cell_setting 'triclinic'
loop_
_space_group_symop_operation_xyz
x,y,z
-x,-y,-z
loop_
_atom_site_type_symbol
_atom_site_label
_atom_site_fract_x
_atom_site_fract_y
_atom_site_fract_z
Si Si1 0.436788 0.890943 0.211210
Si Si2 0.590008 0.122464 0.228860
Si Si3 0.970136 0.349869 0.725522
Si Si4 0.818927 0.648397 0.950043
Si Si5 0.760223 0.050870 0.575933
Si Si6 0.065516 0.972655 0.752943
Si Si7 0.093703 0.364985 0.495917
Si Si8 0.568864 0.384443 0.212063
O O1 0.280342 0.880065 0.246110
O O2 0.470596 0.072045 0.276611
O O3 0.607872 0.899868 0.362594
O O4 0.403553 0.733377 0.985345
O O5 0.603518 0.310548 0.312261
O O6 0.773667 0.084289 0.295672
O O7 0.500000 0.000000 0.000000
O O8 0.913309 0.527917 0.816440
O O9 0.800162 0.212954 0.611007
O O10 0.038692 0.315297 0.586888
O O11 0.120725 0.352874 0.882113
O O12 0.616694 0.578213 0.828848
O O13 0.868344 0.834595 0.032664
O O14 0.928816 0.977844 0.595352
O O15 0.975289 0.828702 0.726002
O O16 0.295991 0.434938 0.615489
O O17 0.000000 0.500000 0.500000
#
# Coordination Sequence:
#
# PCOD8000908 Si02
#       8
#     2   2   2   2   2   2   2   2
#     4  10  22  41  67 102 136 175 223 284 331 403
#     4  10  19  40  65  96 132 177 222 278 319 405
#     4  10  25  45  69  97 145 167 223 289 336 393
#     4  10  23  45  72  99 128 184 224 277 343 392
#     4  10  24  42  69 102 136 175 225 280 345 388
#     4  11  22  43  69  98 135 177 228 269 336 402
#     4  12  27  44  66 102 140 179 221 279 333 399
#     4  11  24  41  68  99 136 180 228 267 342 397
#
# _framework density 24.330897
#
# number of rings (size 3 to 8) (size 9 to 14) (size 15 to 20)
#    0.000    1.500    3.750    0.750    7.000    4.000 
#    2.250    3.750    0.000    0.000    0.000    0.000 
#    0.000    0.000    0.000    0.000    0.000    0.000 
#
# Total GULP energy -198225.287211 kJ/mol
# GULP energy per Si atom -12389.080451 kJ/mol
# Density = 2.427552 g / cm^3
# Si number density = 24.330897 Si / 1000 Ang^3
#
#
#
# Elastic Constant Matrix: (Units=GPa)
#
#
# Indices 1 2 3 4 5 6 
#
# 1 103.8058 57.6807 35.1454 2.3260 31.2298 8.9990
# 2 57.6807 125.2954 23.3505 29.9113 14.0383 3.2818
# 3 35.1454 23.3505 56.9795 14.4253 34.0731 2.0168
# 4 2.3260 29.9113 14.4253 41.8074 12.0280 9.8057
# 5 31.2298 14.0383 34.0731 12.0280 39.8997 -1.1575
# 6 8.9990 3.2818 2.0168 9.8057 -1.1575 43.9362
#
#
#
# Elastic Compliance Matrix: (Units=1/GPa)
#
#
# Indices 1 2 3 4 5 6 
#
# 1 0.021127 -0.010469 -0.003389 0.013111 -0.014106 -0.006687
# 2 -0.010469 0.015181 -0.001505 -0.013113 0.008214 0.004222
# 3 -0.003389 -0.001505 0.038131 -0.003525 -0.028345 -0.000904
# 4 0.013111 -0.013113 -0.003525 0.040764 -0.015247 -0.011044
# 5 -0.014106 0.008214 -0.028345 -0.015247 0.062265 0.008620
# 6 -0.006687 0.004222 -0.000904 -0.011044 0.008620 0.026548
#
#
# Mechanical properties :
#
#
# Convention : Reuss Voigt Hill
#
# Bulk Modulus (GPa) = 22.87633 57.60376 40.24004
# Shear Modulus (GPa) = 20.05501 36.45559 28.25530
#
# Velocity S-wave (km/s) = 2.87411 3.87502 3.41147
# Velocity P-wave (km/s) = 4.52068 6.61420 5.66499
#
# Compressibility (1/GPa) = 0.04371330
#
# Stress axis : x y z
#
# Youngs Moduli (GPa) = 47.33172 65.87381 26.22507
#
# Poissons Ratio (x) = 0.68963 0.08887
# Poissons Ratio (y) = 0.49551 0.03948
# Poissons Ratio (z) = 0.16040 0.09916
#
# Static dielectric constant tensor:
#      x y z
#    x 4.027450 0.760450 -0.204250 
#    y 0.760450 4.025410 1.289290 
#    z -0.204250 1.289290 3.331330 
# 
# 
# High freq. dielectric constant tensor:
#      x y z
#    x 1.951700 0.003580 0.029380 
#    y 0.003580 1.971250 0.002650 
#    z 0.029380 0.002650 1.968100 
# 
# From -- ./inp_files/391467.got.cif
#   From: 2010.06.25/outbox.cif.g09.slc.cpg/sg2_196_cif.got.tgz:391467.got - 2010.06.27 13:26:56.
