data_PCOD8000085
_publ_section_title
;
Structure prediction by ZEFSAII (Michael W. Deem and Ramdas Pophale) SiO2 
 PCOD8000085
Probable space group: P 1
;
_chemical_formula_sum "Si O2"
_cell_formula_units_Z 8
_cell_length_a 5.445907
_cell_length_b 5.117951
_cell_length_c 16.053568
_cell_angle_alpha 52.134040
_cell_angle_beta 119.877077
_cell_angle_gamma 98.496370
_cell_volume 298.014739
_symmetry_space_group_name_H-M "P 1"
_symmetry_group_IT_number 1
_symmetry_cell_setting 'triclinic'
loop_
_space_group_symop_operation_xyz
x,y,z
loop_
_atom_site_type_symbol
_atom_site_label
_atom_site_fract_x
_atom_site_fract_y
_atom_site_fract_z
Si Si1 0.268690 0.133620 0.677650
Si Si2 0.822391 0.678120 0.432050
Si Si3 0.285841 0.267047 0.154435
Si Si4 0.090615 0.061823 0.988298
Si Si5 0.291860 0.843993 0.570374
Si Si6 0.477070 0.991735 0.917644
Si Si7 0.856190 0.359040 0.192910
Si Si8 0.210215 0.549756 0.359263
O O1 0.431813 0.456541 0.637730
O O2 0.309191 0.962644 0.808720
O O3 0.930546 0.295245 0.564737
O O4 0.378186 0.846274 0.682518
O O5 0.470593 0.750644 0.345065
O O6 0.940989 0.916300 0.474206
O O7 0.010823 0.696893 0.375567
O O8 0.644302 0.159511 0.249113
O O9 0.078420 0.107201 0.215315
O O10 0.172848 0.654993 0.088953
O O11 0.214847 0.224027 0.055769
O O12 0.235622 0.184768 0.905930
O O13 0.738604 0.182901 0.907151
O O14 0.386828 0.156243 0.479711
O O15 0.607072 0.613663 0.048288
O O16 0.019898 0.569004 0.239174
#
# Coordination Sequence:
#
# PCOD8000085 Si02
#       8
#     1   1   1   1   1   1   1   1
#     4   9  21  43  69  96 132 176 219 281 329 393
#     4   9  23  41  70  96 134 174 229 276 331 388
#     4  10  21  42  58  91 130 173 212 256 318 390
#     4  10  22  39  63  87 134 169 214 259 313 394
#     4   9  22  45  66 100 128 178 225 279 327 390
#     4  10  22  42  65 101 132 172 217 266 334 398
#     4  10  22  40  69  97 136 171 215 269 333 401
#     4  11  21  46  68 102 132 179 221 280 333 396
#
# _framework density 26.844308000000002
#
# number of rings (size 3 to 8) (size 9 to 14) (size 15 to 20)
#    0.750    1.500    0.000    1.500    0.000    8.000 
#   13.500    1.250    0.000    0.000    0.000    0.000 
#    0.000    0.000    0.000    0.000    0.000    0.000 
#
# Total GULP energy -99106.501802 kJ/mol
# GULP energy per Si atom -12388.312725 kJ/mol
# Density = 2.678321 g / cm^3
# Si number density = 26.844308 Si / 1000 Ang^3
#
#
#
# Elastic Constant Matrix: (Units=GPa)
#
#
# Indices 1 2 3 4 5 6 
#
# 1 207.6088 54.2157 72.2672 28.9451 -7.9982 15.6370
# 2 54.2157 122.7255 45.6713 40.8602 -12.0690 -3.1869
# 3 72.2672 45.6713 170.1788 38.6605 -19.3696 3.0234
# 4 28.9451 40.8602 38.6605 52.1127 -6.4169 -4.4974
# 5 -7.9982 -12.0690 -19.3696 -6.4169 28.5410 5.4464
# 6 15.6370 -3.1869 3.0234 -4.4974 5.4464 37.4818
#
#
#
# Elastic Compliance Matrix: (Units=1/GPa)
#
#
# Indices 1 2 3 4 5 6 
#
# 1 0.006298 -0.001851 -0.001937 -0.000845 -0.000002 -0.002730
# 2 -0.001851 0.011924 -0.000405 -0.007676 0.002419 0.000546
# 3 -0.001937 -0.000405 0.008278 -0.004327 0.004124 -0.001012
# 4 -0.000845 -0.007676 -0.004327 0.029132 -0.000562 0.003626
# 5 -0.000002 0.002419 0.004124 -0.000562 0.039875 -0.005988
# 6 -0.002730 0.000546 -0.001012 0.003626 -0.005988 0.029252
#
#
# Mechanical properties :
#
#
# Convention : Reuss Voigt Hill
#
# Bulk Modulus (GPa) = 55.20471 93.86904 74.53687
# Shear Modulus (GPa) = 35.92421 45.51771 40.72096
#
# Velocity S-wave (km/s) = 3.66217 4.12226 3.89900
# Velocity P-wave (km/s) = 6.20414 7.59613 6.93515
#
# Compressibility (1/GPa) = 0.01811440
#
# Stress axis : x y z
#
# Youngs Moduli (GPa) = 158.78439 83.86237 120.80316
#
# Poissons Ratio (x) = 0.15521 0.23404
# Poissons Ratio (y) = 0.29387 0.04889
# Poissons Ratio (z) = 0.30762 0.03394
#
# Static dielectric constant tensor:
#      x y z
#    x 5.334700 0.210090 -0.232390 
#    y 0.210090 4.891650 -0.085830 
#    z -0.232390 -0.085830 4.998700 
# 
# 
# High freq. dielectric constant tensor:
#      x y z
#    x 2.073900 0.010180 -0.008890 
#    y 0.010180 2.096780 -0.014920 
#    z -0.008890 -0.014920 2.099860 
# 
# From -- ./inp_files/6935.got.cif
#   From: 2010.03.12/outbox.cif.g09.slc.cpg/sg1_4_cif.got.tgz:6935.got - 2010.03.29 11:57:58.
