data_PCOD8000161
_publ_section_title
;
Structure prediction by ZEFSAII (Michael W. Deem and Ramdas Pophale) SiO2 
 PCOD8000161
Probable space group: P 1
;
_chemical_formula_sum "Si O2"
_cell_formula_units_Z 8
_cell_length_a 14.111258
_cell_length_b 10.766335
_cell_length_c 13.280648
_cell_angle_alpha 30.982656
_cell_angle_beta 158.998674
_cell_angle_gamma 148.415574
_cell_volume 357.449785
_symmetry_space_group_name_H-M "P 1"
_symmetry_group_IT_number 1
_symmetry_cell_setting 'triclinic'
loop_
_space_group_symop_operation_xyz
x,y,z
loop_
_atom_site_type_symbol
_atom_site_label
_atom_site_fract_x
_atom_site_fract_y
_atom_site_fract_z
Si Si1 0.070200 0.410930 0.422420
Si Si2 0.324949 0.771974 0.255676
Si Si3 0.846800 0.834350 0.598647
Si Si4 0.381268 0.317940 0.996620
Si Si5 0.685829 0.553677 0.429217
Si Si6 0.798706 0.735978 0.037861
Si Si7 0.228122 0.612541 0.803926
Si Si8 0.377586 0.984736 0.514042
O O1 0.266034 0.538159 0.436453
O O2 0.859516 0.584901 0.105302
O O3 0.233498 0.402844 0.693933
O O4 0.907440 0.128626 0.427612
O O5 0.578764 0.745849 0.461473
O O6 0.396269 0.034344 0.205142
O O7 0.083321 0.762377 0.944898
O O8 0.814629 0.685933 0.566510
O O9 0.690654 0.511752 0.170118
O O10 0.230659 0.354887 0.925524
O O11 0.924476 0.587374 0.559990
O O12 0.537081 0.265178 0.504118
O O13 0.447580 0.670098 0.072413
O O14 0.073396 0.949082 0.193364
O O15 0.559250 0.875225 0.689822
O O16 0.339190 0.843622 0.679446
#
# Coordination Sequence:
#
# PCOD8000161 Si02
#       8
#     1   1   1   1   1   1   1   1
#     4  11  24  44  70  99 134 172 212 283 333 385
#     4  11  26  41  73  96 128 184 213 274 342 375
#     4  11  27  48  64  99 134 172 236 270 305 405
#     4  10  23  42  67 104 143 155 224 272 334 408
#     4  12  27  45  68  95 136 182 222 265 324 392
#     4  11  20  41  64  96 139 162 202 282 322 383
#     4  11  24  42  68  99 132 181 207 273 338 384
#     4  11  25  41  64  98 138 168 218 267 320 402
#
# _framework density 22.380763999999999
#
# number of rings (size 3 to 8) (size 9 to 14) (size 15 to 20)
#    0.000    1.000    3.750    3.000    5.250    2.000 
#    0.000    0.000    0.000    0.000    0.000    0.000 
#    0.000    0.000    0.000    0.000    0.000    0.000 
#
# Total GULP energy -99177.257121 kJ/mol
# GULP energy per Si atom -12397.157140 kJ/mol
# Density = 2.232982 g / cm^3
# Si number density = 22.380764 Si / 1000 Ang^3
#
#
#
# Elastic Constant Matrix: (Units=GPa)
#
#
# Indices 1 2 3 4 5 6 
#
# 1 115.2519 52.5749 24.5206 3.6019 13.9113 4.8543
# 2 52.5749 130.1553 11.9037 12.7859 6.8093 -1.2396
# 3 24.5206 11.9037 62.2953 18.4340 9.9676 3.3634
# 4 3.6019 12.7859 18.4340 24.7169 1.4816 -1.1987
# 5 13.9113 6.8093 9.9676 1.4816 34.5692 2.7402
# 6 4.8543 -1.2396 3.3634 -1.1987 2.7402 37.7620
#
#
#
# Elastic Compliance Matrix: (Units=1/GPa)
#
#
# Indices 1 2 3 4 5 6 
#
# 1 0.012049 -0.004731 -0.004612 0.004246 -0.002693 -0.000963
# 2 -0.004731 0.010025 0.001647 -0.005673 -0.000353 0.000636
# 3 -0.004612 0.001647 0.023538 -0.017555 -0.004369 -0.001690
# 4 0.004246 -0.005673 -0.017555 0.055874 0.001880 0.002469
# 5 -0.002693 -0.000353 -0.004369 0.001880 0.031378 -0.001494
# 6 -0.000963 0.000636 -0.001690 0.002469 -0.001494 0.026964
#
#
# Mechanical properties :
#
#
# Convention : Reuss Voigt Hill
#
# Bulk Modulus (GPa) = 33.08914 53.96675 43.52795
# Shear Modulus (GPa) = 26.98436 33.98985 30.48711
#
# Velocity S-wave (km/s) = 3.47608 3.90129 3.69481
# Velocity P-wave (km/s) = 5.56125 6.66774 6.13948
#
# Compressibility (1/GPa) = 0.03022139
#
# Stress axis : x y z
#
# Youngs Moduli (GPa) = 82.99607 99.74896 42.48388
#
# Poissons Ratio (x) = 0.47187 0.19595
# Poissons Ratio (y) = 0.39262 -0.06998
# Poissons Ratio (z) = 0.38280 -0.16432
#
# Static dielectric constant tensor:
#      x y z
#    x 3.976100 0.152530 0.201070 
#    y 0.152530 4.187600 0.115020 
#    z 0.201070 0.115020 4.060950 
# 
# 
# High freq. dielectric constant tensor:
#      x y z
#    x 1.876940 0.016550 0.009010 
#    y 0.016550 1.889010 0.008780 
#    z 0.009010 0.008780 1.884850 
# 
# From -- ./inp_files/6675.got.cif
#   From: 2010.03.12/outbox.cif.g09.slc.cpg/sg1_4_cif.got.tgz:6675.got - 2010.03.29 11:57:58.
