data_PCOD8000743
_publ_section_title
;
Structure prediction by ZEFSAII (Michael W. Deem and Ramdas Pophale) SiO2 
 PCOD8000743
Probable space group: P -1
;
_chemical_formula_sum "Si O2"
_cell_formula_units_Z 16
_cell_length_a 9.744052
_cell_length_b 9.626681
_cell_length_c 11.698204
_cell_angle_alpha 91.383111
_cell_angle_beta 90.045782
_cell_angle_gamma 42.080330
_cell_volume 734.942276
_symmetry_space_group_name_H-M "P -1"
_symmetry_group_IT_number 2
_symmetry_cell_setting 'triclinic'
loop_
_space_group_symop_operation_xyz
x,y,z
-x,-y,-z
loop_
_atom_site_type_symbol
_atom_site_label
_atom_site_fract_x
_atom_site_fract_y
_atom_site_fract_z
Si Si1 0.585899 0.844309 0.240693
Si Si2 0.002499 0.081770 0.884541
Si Si3 0.736657 0.793845 0.475990
Si Si4 0.741776 0.681560 0.709335
Si Si5 0.602491 0.277081 0.271557
Si Si6 0.958939 0.628888 0.108142
Si Si7 0.199634 0.942724 0.499210
Si Si8 0.383316 0.723526 0.256846
O O1 0.739963 0.723278 0.348732
O O2 0.511322 0.749493 0.197084
O O3 0.715672 0.814445 0.137151
O O4 0.379025 0.085395 0.265811
O O5 0.963039 0.273842 0.913768
O O6 0.823588 0.157449 0.806575
O O7 0.218285 0.902225 0.817602
O O8 0.000000 0.000000 0.000000
O O9 0.817480 0.628494 0.573876
O O10 0.500000 0.000000 0.500000
O O11 0.856934 0.851536 0.481433
O O12 0.599592 0.661101 0.744988
O O13 0.937721 0.521782 0.785678
O O14 0.663002 0.210693 0.400223
O O15 0.543982 0.478666 0.253302
O O16 0.000000 0.500000 0.000000
O O17 0.330762 0.818179 0.384188
O O18 0.000000 0.000000 0.500000
#
# Coordination Sequence:
#
# PCOD8000743 Si02
#       8
#     2   2   2   2   2   2   2   2
#     4  11  24  46  71 103 143 178 224 285 344 407
#     4  12  29  49  68  98 141 182 236 299 342 404
#     4  10  19  39  70 100 138 177 216 270 339 412
#     4  11  22  45  74  98 140 179 223 282 346 409
#     4  12  24  45  72 102 145 184 226 284 349 414
#     4  12  29  47  72 103 129 182 246 283 341 412
#     4  12  22  39  72 107 147 181 220 278 350 416
#     4  12  26  43  72 108 138 186 230 278 353 418
#
# _framework density 21.770417999999999
#
# number of rings (size 3 to 8) (size 9 to 14) (size 15 to 20)
#    0.000    0.500    8.750    0.375    3.500    3.500 
#    0.000    0.000    0.000    0.000    0.000    0.000 
#    0.000    0.000    0.000    0.000    0.000    0.000 
#
# Total GULP energy -198402.365726 kJ/mol
# GULP energy per Si atom -12400.147858 kJ/mol
# Density = 2.172087 g / cm^3
# Si number density = 21.770418 Si / 1000 Ang^3
#
#
#
# Elastic Constant Matrix: (Units=GPa)
#
#
# Indices 1 2 3 4 5 6 
#
# 1 139.2582 27.7921 29.9185 7.8786 -9.7039 27.1551
# 2 27.7921 84.1916 33.4982 -8.0971 2.4957 23.8623
# 3 29.9185 33.4982 94.8592 0.3931 -9.1629 0.2862
# 4 7.8786 -8.0971 0.3931 32.1997 7.6670 -3.0133
# 5 -9.7039 2.4957 -9.1629 7.6670 24.7006 -1.3299
# 6 27.1551 23.8623 0.2862 -3.0133 -1.3299 38.1358
#
#
#
# Elastic Compliance Matrix: (Units=1/GPa)
#
#
# Indices 1 2 3 4 5 6 
#
# 1 0.009623 -0.000966 -0.002274 -0.004115 0.003966 -0.006417
# 2 -0.000966 0.018845 -0.007044 0.005778 -0.007274 -0.010848
# 3 -0.002274 -0.007044 0.014334 -0.002302 0.006171 0.005953
# 4 -0.004115 0.005778 -0.002302 0.037160 -0.014494 0.001762
# 5 0.003966 -0.007274 0.006171 -0.014494 0.049688 0.002269
# 6 -0.006417 -0.010848 0.005953 0.001762 0.002269 0.037753
#
#
# Mechanical properties :
#
#
# Convention : Reuss Voigt Hill
#
# Bulk Modulus (GPa) = 44.97715 55.63629 50.30672
# Shear Modulus (GPa) = 25.59060 34.14724 29.86892
#
# Velocity S-wave (km/s) = 3.43224 3.96475 3.70806
# Velocity P-wave (km/s) = 6.03421 6.82425 6.44135
#
# Compressibility (1/GPa) = 0.02223351
#
# Stress axis : x y z
#
# Youngs Moduli (GPa) = 103.91935 53.06343 69.76198
#
# Poissons Ratio (x) = 0.05126 0.15867
# Poissons Ratio (y) = 0.10039 0.49141
# Poissons Ratio (z) = 0.23635 0.37379
#
# Static dielectric constant tensor:
#      x y z
#    x 4.179460 0.105180 -0.097370 
#    y 0.105180 4.008690 0.044650 
#    z -0.097370 0.044650 4.346180 
# 
# 
# High freq. dielectric constant tensor:
#      x y z
#    x 1.873670 0.001030 -0.006740 
#    y 0.001030 1.852420 -0.001450 
#    z -0.006740 -0.001450 1.855580 
# 
# From -- ./inp_files/245980.got.cif
#   From: 2010.06.25/outbox.cif.g09.slc.cpg/sg2_123_cif.got.tgz:245980.got - 2010.06.27 13:26:56.
