data_PCOD8000091
_publ_section_title
;
Structure prediction by ZEFSAII (Michael W. Deem and Ramdas Pophale) SiO2 
 PCOD8000091
Probable space group: P 1
;
_chemical_formula_sum "Si O2"
_cell_formula_units_Z 8
_cell_length_a 11.183327
_cell_length_b 14.239744
_cell_length_c 9.500266
_cell_angle_alpha 29.923095
_cell_angle_beta 40.719728
_cell_angle_gamma 29.519968
_cell_volume 371.812596
_symmetry_space_group_name_H-M "P 1"
_symmetry_group_IT_number 1
_symmetry_cell_setting 'triclinic'
loop_
_space_group_symop_operation_xyz
x,y,z
loop_
_atom_site_type_symbol
_atom_site_label
_atom_site_fract_x
_atom_site_fract_y
_atom_site_fract_z
Si Si1 0.846010 0.509050 0.584450
Si Si2 0.832028 0.704647 0.792744
Si Si3 0.957733 0.214675 0.380087
Si Si4 0.285780 0.956217 0.951856
Si Si5 0.741510 0.923284 0.293942
Si Si6 0.119218 0.821017 0.527962
Si Si7 0.647218 0.398600 0.672476
Si Si8 0.374752 0.880595 0.663329
O O1 0.864815 0.724864 0.308922
O O2 0.784809 0.483562 0.512730
O O3 0.093874 0.254285 0.749450
O O4 0.613022 0.598420 0.771288
O O5 0.872875 0.775340 0.513651
O O6 0.947568 0.757879 0.740104
O O7 0.549976 0.860391 0.878775
O O8 0.980803 0.409078 0.045788
O O9 0.708336 0.362752 0.498369
O O10 0.173680 0.009420 0.556935
O O11 0.958013 0.076525 0.426952
O O12 0.279420 0.869307 0.913291
O O13 0.208519 0.845384 0.269813
O O14 0.460495 0.041375 0.400272
O O15 0.754500 0.136814 0.985871
O O16 0.358746 0.601180 0.687736
#
# Coordination Sequence:
#
# PCOD8000091 Si02
#       8
#     1   1   1   1   1   1   1   1
#     4  10  21  42  71  92 136 182 219 284 338 386
#     4  11  25  45  68 104 141 176 225 284 337 412
#     4  12  24  46  68 103 139 175 238 275 335 412
#     4  11  22  45  72  98 141 181 223 283 344 398
#     4   9  22  43  63 102 130 174 229 270 337 404
#     4  12  26  44  70 101 143 183 218 285 348 397
#     4  12  23  43  70 100 138 180 228 280 338 404
#     4   9  21  42  70  96 130 179 226 283 325 403
#
# _framework density 21.516216
#
# number of rings (size 3 to 8) (size 9 to 14) (size 15 to 20)
#    0.750    0.500    3.750    2.250    0.000    1.000 
#   11.250    0.000    2.750    0.000    0.000    0.000 
#    0.000    0.000    0.000    0.000    0.000    0.000 
#
# Total GULP energy -99151.816087 kJ/mol
# GULP energy per Si atom -12393.977011 kJ/mol
# Density = 2.146724 g / cm^3
# Si number density = 21.516216 Si / 1000 Ang^3
#
#
#
# Elastic Constant Matrix: (Units=GPa)
#
#
# Indices 1 2 3 4 5 6 
#
# 1 118.8754 41.5474 30.8767 -15.9033 -9.5243 5.6346
# 2 41.5474 119.6843 30.8273 -13.1566 -0.3901 10.7029
# 3 30.8767 30.8273 89.4893 -7.0612 5.0592 19.4518
# 4 -15.9033 -13.1566 -7.0612 30.4649 4.1702 2.5081
# 5 -9.5243 -0.3901 5.0592 4.1702 25.7403 -2.7663
# 6 5.6346 10.7029 19.4518 2.5081 -2.7663 43.5163
#
#
#
# Elastic Compliance Matrix: (Units=1/GPa)
#
#
# Indices 1 2 3 4 5 6 
#
# 1 0.010844 -0.002702 -0.002930 0.003200 0.004098 0.000646
# 2 -0.002702 0.010247 -0.001985 0.002827 -0.001075 -0.001515
# 3 -0.002930 -0.001985 0.014659 0.002202 -0.005011 -0.006130
# 4 0.003200 0.002827 0.002202 0.037395 -0.005760 -0.004615
# 5 0.004098 -0.001075 -0.005011 -0.005760 0.042808 0.005027
# 6 0.000646 -0.001515 -0.006130 -0.004615 0.005027 0.026595
#
#
# Mechanical properties :
#
#
# Convention : Reuss Voigt Hill
#
# Bulk Modulus (GPa) = 48.74362 59.39466 54.06914
# Shear Modulus (GPa) = 30.37316 34.93080 32.65198
#
# Velocity S-wave (km/s) = 3.76126 4.03359 3.89980
# Velocity P-wave (km/s) = 6.44719 7.02550 6.74255
#
# Compressibility (1/GPa) = 0.02051550
#
# Stress axis : x y z
#
# Youngs Moduli (GPa) = 92.22092 97.58779 68.21874
#
# Poissons Ratio (x) = 0.26370 0.19990
# Poissons Ratio (y) = 0.24920 0.13539
# Poissons Ratio (z) = 0.27023 0.19367
#
# Static dielectric constant tensor:
#      x y z
#    x 3.834950 0.011100 0.104520 
#    y 0.011100 3.983730 -0.012460 
#    z 0.104520 -0.012460 3.601920 
# 
# 
# High freq. dielectric constant tensor:
#      x y z
#    x 1.847000 -0.000510 0.011880 
#    y -0.000510 1.849630 -0.005830 
#    z 0.011880 -0.005830 1.821630 
# 
# From -- ./inp_files/5586.got.cif
#   From: 2010.03.12/outbox.cif.g09.slc.cpg/sg1_3_cif.got.tgz:5586.got - 2010.03.29 11:57:58.
