data_PCOD8000379
_publ_section_title
;
Structure prediction by ZEFSAII (Michael W. Deem and Ramdas Pophale) SiO2 
 PCOD8000379
Probable space group: P -1
;
_chemical_formula_sum "Si O2"
_cell_formula_units_Z 16
_cell_length_a 12.096804
_cell_length_b 29.478936
_cell_length_c 17.840214
_cell_angle_alpha 19.146436
_cell_angle_beta 21.563333
_cell_angle_gamma 29.716345
_cell_volume 764.194869
_symmetry_space_group_name_H-M "P -1"
_symmetry_group_IT_number 2
_symmetry_cell_setting 'triclinic'
loop_
_space_group_symop_operation_xyz
x,y,z
-x,-y,-z
loop_
_atom_site_type_symbol
_atom_site_label
_atom_site_fract_x
_atom_site_fract_y
_atom_site_fract_z
Si Si1 0.290299 0.106093 0.157964
Si Si2 0.105098 0.749238 0.154235
Si Si3 0.892026 0.618533 0.079470
Si Si4 0.322105 0.718477 0.904757
Si Si5 0.448102 0.413696 0.300864
Si Si6 0.495573 0.563622 0.285976
Si Si7 0.671258 0.695410 0.299526
Si Si8 0.228745 0.077242 0.791225
O O1 0.222809 0.239000 0.041603
O O2 0.556609 0.033497 0.141227
O O3 0.398432 0.161925 0.920306
O O4 0.000000 0.000000 0.500000
O O5 0.382826 0.697529 0.106729
O O6 0.838463 0.624357 0.512238
O O7 0.960097 0.872023 0.098228
O O8 0.228997 0.795362 0.920718
O O9 0.239359 0.614040 0.891296
O O10 0.821274 0.606157 0.053726
O O11 0.733625 0.481913 0.431598
O O12 0.581957 0.802173 0.562683
O O13 0.440726 0.572440 0.083904
O O14 0.034453 0.687715 0.079668
O O15 0.431372 0.304842 0.549970
O O16 0.512825 0.436208 0.417415
O O17 0.000000 0.000000 0.000000
#
# Coordination Sequence:
#
# PCOD8000379 Si02
#       8
#     2   2   2   2   2   2   2   2
#     4  11  22  43  61  84 127 175 210 252 306 371
#     4  11  22  41  68  94 124 167 211 263 318 371
#     4  10  23  35  60  93 126 163 206 260 318 376
#     4  11  22  42  68  97 129 157 212 276 309 376
#     4  11  21  39  66 104 117 155 216 265 326 373
#     4  10  19  39  60  89 129 157 196 266 331 364
#     4  10  20  39  65  88 130 158 200 267 315 373
#     4  12  27  44  65  92 127 176 220 251 308 380
#
# _framework density 20.937068
#
# number of rings (size 3 to 8) (size 9 to 14) (size 15 to 20)
#    0.000    1.250    3.750    3.000    1.750    4.000 
#    4.500    1.875    0.000    0.000    0.000    0.000 
#    0.000    0.000    0.000    0.000    0.000    0.000 
#
# Total GULP energy -198343.270656 kJ/mol
# GULP energy per Si atom -12396.454416 kJ/mol
# Density = 2.088941 g / cm^3
# Si number density = 20.937068 Si / 1000 Ang^3
#
#
#
# Elastic Constant Matrix: (Units=GPa)
#
#
# Indices 1 2 3 4 5 6 
#
# 1 93.7346 27.0208 15.2237 -10.1458 5.5516 -6.7962
# 2 27.0208 90.1986 16.2848 -7.3874 10.8992 0.3634
# 3 15.2237 16.2848 52.6994 -12.8759 7.8945 -4.4140
# 4 -10.1458 -7.3874 -12.8759 24.7363 -1.0784 0.3843
# 5 5.5516 10.8992 7.8945 -1.0784 30.6193 -2.5826
# 6 -6.7962 0.3634 -4.4140 0.3843 -2.5826 41.4966
#
#
#
# Elastic Compliance Matrix: (Units=1/GPa)
#
#
# Indices 1 2 3 4 5 6 
#
# 1 0.012329 -0.003092 -0.001589 0.003258 -0.000457 0.001819
# 2 -0.003092 0.012970 -0.002384 0.001230 -0.003491 -0.001102
# 3 -0.001589 -0.002384 0.023606 0.010702 -0.004413 0.001898
# 4 0.003258 0.001230 0.010702 0.047596 -0.002019 0.001095
# 5 -0.000457 -0.003491 -0.004413 -0.002019 0.035194 0.001695
# 6 0.001819 -0.001102 0.001898 0.001095 0.001695 0.024703
#
#
# Mechanical properties :
#
#
# Convention : Reuss Voigt Hill
#
# Bulk Modulus (GPa) = 28.75564 39.29902 34.02733
# Shear Modulus (GPa) = 27.45430 31.24399 29.34915
#
# Velocity S-wave (km/s) = 3.62508 3.86720 3.74810
# Velocity P-wave (km/s) = 5.59337 6.22504 5.91764
#
# Compressibility (1/GPa) = 0.03477579
#
# Stress axis : x y z
#
# Youngs Moduli (GPa) = 81.10669 77.09946 42.36194
#
# Poissons Ratio (x) = 0.23838 0.06733
# Poissons Ratio (y) = 0.25077 0.10098
# Poissons Ratio (z) = 0.12892 0.18378
#
# Static dielectric constant tensor:
#      x y z
#    x 4.111590 -0.113390 -0.052650 
#    y -0.113390 3.559360 0.025710 
#    z -0.052650 0.025710 3.781360 
# 
# 
# High freq. dielectric constant tensor:
#      x y z
#    x 1.839610 -0.008250 -0.002150 
#    y -0.008250 1.802910 0.001890 
#    z -0.002150 0.001890 1.808370 
# 
# From -- ./inp_files/227517.got.cif
#   From: 2010.06.25/outbox.cif.g09.slc.cpg/sg2_114_cif.got.tgz:227517.got - 2010.06.27 13:26:56.
