data_PCOD8000773
_publ_section_title
;
Structure prediction by ZEFSAII (Michael W. Deem and Ramdas Pophale) SiO2 
 PCOD8000773
Probable space group: P -1
;
_chemical_formula_sum "Si O2"
_cell_formula_units_Z 12
_cell_length_a 12.255704
_cell_length_b 11.785477
_cell_length_c 12.022696
_cell_angle_alpha 36.023788
_cell_angle_beta 133.375158
_cell_angle_gamma 143.545215
_cell_volume 603.570651
_symmetry_space_group_name_H-M "P -1"
_symmetry_group_IT_number 2
_symmetry_cell_setting 'triclinic'
loop_
_space_group_symop_operation_xyz
x,y,z
-x,-y,-z
loop_
_atom_site_type_symbol
_atom_site_label
_atom_site_fract_x
_atom_site_fract_y
_atom_site_fract_z
Si Si1 0.611537 0.639598 0.297002
Si Si2 0.630372 0.851072 0.368241
Si Si3 0.807400 0.238386 0.346501
Si Si4 0.558040 0.938429 0.860486
Si Si5 0.968209 0.816808 0.284106
Si Si6 0.024347 0.762198 0.122557
O O1 0.688161 0.817322 0.315268
O O2 0.446412 0.377249 0.426183
O O3 0.782877 0.646728 0.361491
O O4 0.530676 0.723220 0.082135
O O5 0.809856 0.083147 0.369880
O O6 0.470701 0.896445 0.210035
O O7 0.598177 0.168641 0.261682
O O8 0.863351 0.173863 0.550530
O O9 0.946777 0.518561 0.196518
O O10 0.757080 0.093452 0.820338
O O11 0.930168 0.705627 0.222573
O O12 0.021064 0.082450 0.104899
#
# Coordination Sequence:
#
# PCOD8000773 Si02
#       6
#     2   2   2   2   2   2
#     4  10  19  40  59  80 120 149 182 234 283 332
#     4   9  21  35  61  85 110 150 191 227 281 333
#     4  10  22  35  60  88 108 149 194 227 279 334
#     4   9  21  37  60  84 110 151 186 230 284 324
#     4  10  22  38  59  83 116 151 183 234 285 326
#     4  10  21  42  56  83 118 147 187 234 279 334
#
# _framework density 19.881682000000001
#
# number of rings (size 3 to 8) (size 9 to 14) (size 15 to 20)
#    1.000    1.333    0.000    2.000    2.333    1.333 
#    3.000    5.833    0.000    0.000    0.000    0.000 
#    0.000    0.000    0.000    0.000    0.000    0.000 
#
# Total GULP energy -148719.131864 kJ/mol
# GULP energy per Si atom -12393.260989 kJ/mol
# Density = 1.983643 g / cm^3
# Si number density = 19.881682 Si / 1000 Ang^3
#
#
#
# Elastic Constant Matrix: (Units=GPa)
#
#
# Indices 1 2 3 4 5 6 
#
# 1 82.5699 17.7695 29.6172 2.5878 -6.7171 9.7403
# 2 17.7695 103.3892 56.3231 -3.3699 5.8173 1.0644
# 3 29.6172 56.3231 103.9917 2.0171 14.0173 9.0163
# 4 2.5878 -3.3699 2.0171 22.7597 -1.1559 7.1168
# 5 -6.7171 5.8173 14.0173 -1.1559 24.0748 1.2109
# 6 9.7403 1.0644 9.0163 7.1168 1.2109 25.5647
#
#
#
# Elastic Compliance Matrix: (Units=1/GPa)
#
#
# Indices 1 2 3 4 5 6 
#
# 1 0.014966 -0.000389 -0.004642 0.000429 0.007220 -0.004510
# 2 -0.000389 0.013985 -0.007794 0.002358 0.001083 0.001607
# 3 -0.004642 -0.007794 0.016662 -0.001658 -0.009047 -0.002893
# 4 0.000429 0.002358 -0.001658 0.048760 0.003531 -0.013418
# 5 0.007220 0.001083 -0.009047 0.003531 0.048873 -0.002903
# 6 -0.004510 0.001607 -0.002893 -0.013418 -0.002903 0.045661
#
#
# Mechanical properties :
#
#
# Convention : Reuss Voigt Hill
#
# Bulk Modulus (GPa) = 50.09665 55.26338 52.68002
# Shear Modulus (GPa) = 22.60280 26.89591 24.74935
#
# Velocity S-wave (km/s) = 3.37540 3.68203 3.53205
# Velocity P-wave (km/s) = 6.35950 6.77738 6.57176
#
# Compressibility (1/GPa) = 0.01996141
#
# Stress axis : x y z
#
# Youngs Moduli (GPa) = 66.81973 71.50703 60.01581
#
# Poissons Ratio (x) = 0.02783 0.27859
# Poissons Ratio (y) = 0.02600 0.46779
# Poissons Ratio (z) = 0.31017 0.55736
#
# Static dielectric constant tensor:
#      x y z
#    x 3.457040 -0.095190 0.208040 
#    y -0.095190 3.368900 -0.114480 
#    z 0.208040 -0.114480 3.679880 
# 
# 
# High freq. dielectric constant tensor:
#      x y z
#    x 1.758750 -0.005520 0.014600 
#    y -0.005520 1.756780 -0.009640 
#    z 0.014600 -0.009640 1.788950 
# 
# From -- ./inp_files/208605.got.cif
#   From: 2010.06.25/outbox.cif.g09.slc.cpg/sg2_105_cif.got.tgz:208605.got - 2010.06.27 13:26:56.
