data_PCOD8000806
_publ_section_title
;
Structure prediction by ZEFSAII (Michael W. Deem and Ramdas Pophale) SiO2 
 PCOD8000806
Probable space group: P -1
;
_chemical_formula_sum "Si O2"
_cell_formula_units_Z 12
_cell_length_a 12.247429
_cell_length_b 11.477899
_cell_length_c 9.135883
_cell_angle_alpha 129.651155
_cell_angle_beta 116.655830
_cell_angle_gamma 38.230596
_cell_volume 608.165383
_symmetry_space_group_name_H-M "P -1"
_symmetry_group_IT_number 2
_symmetry_cell_setting 'triclinic'
loop_
_space_group_symop_operation_xyz
x,y,z
-x,-y,-z
loop_
_atom_site_type_symbol
_atom_site_label
_atom_site_fract_x
_atom_site_fract_y
_atom_site_fract_z
Si Si1 0.910929 0.877194 0.577650
Si Si2 0.410013 0.751862 0.492340
Si Si3 0.967100 0.510981 0.818700
Si Si4 0.407753 0.129871 0.196558
Si Si5 0.258394 0.750109 0.691327
Si Si6 0.165797 0.104132 0.121121
O O1 0.910417 0.849295 0.726841
O O2 0.897286 0.729756 0.364645
O O3 0.091476 0.800049 0.580877
O O4 0.738900 0.129397 0.628118
O O5 0.472211 0.870273 0.632315
O O6 0.323397 0.789527 0.625464
O O7 0.576985 0.496824 0.347871
O O8 0.770130 0.620269 0.759224
O O9 0.979406 0.666151 0.873714
O O10 0.000000 0.500000 0.000000
O O11 0.352944 0.028749 0.175017
O O12 0.500000 0.000000 0.000000
O O13 0.194119 0.915974 0.915606
#
# Coordination Sequence:
#
# PCOD8000806 Si02
#       6
#     2   2   2   2   2   2
#     4  12  23  41  62  94 127 160 204 252 316 360
#     4  11  23  39  66  88 122 168 204 255 301 361
#     4  10  21  39  65  90 120 161 206 252 304 360
#     4  10  19  40  61  90 120 153 211 253 295 360
#     4  11  22  43  60  88 130 162 209 248 298 373
#     4  10  23  38  65  89 128 162 198 262 307 358
#
# _framework density 19.731473999999999
#
# number of rings (size 3 to 8) (size 9 to 14) (size 15 to 20)
#    1.000    0.333    3.333    3.500    0.000    1.333 
#    0.000    1.667    0.000    0.000    0.000    0.000 
#    0.000    0.000    0.000    0.000    0.000    0.000 
#
# Total GULP energy -148755.855496 kJ/mol
# GULP energy per Si atom -12396.321291 kJ/mol
# Density = 1.968656 g / cm^3
# Si number density = 19.731474 Si / 1000 Ang^3
#
#
#
# Elastic Constant Matrix: (Units=GPa)
#
#
# Indices 1 2 3 4 5 6 
#
# 1 56.6067 19.0113 19.6106 -2.2383 8.0862 -6.3820
# 2 19.0113 129.1612 37.0453 -6.8434 5.7304 -3.4940
# 3 19.6106 37.0453 119.0836 8.5400 1.2547 11.3645
# 4 -2.2383 -6.8434 8.5400 29.8343 5.9950 0.3357
# 5 8.0862 5.7304 1.2547 5.9950 26.1739 -2.5862
# 6 -6.3820 -3.4940 11.3645 0.3357 -2.5862 26.5399
#
#
#
# Elastic Compliance Matrix: (Units=1/GPa)
#
#
# Indices 1 2 3 4 5 6 
#
# 1 0.021150 -0.001399 -0.003796 0.003548 -0.006278 0.005871
# 2 -0.001399 0.009118 -0.002999 0.003219 -0.001968 0.001916
# 3 -0.003796 -0.002999 0.010793 -0.004349 0.001744 -0.005705
# 4 0.003548 0.003219 -0.004349 0.037774 -0.010078 0.001679
# 5 -0.006278 -0.001968 0.001744 -0.010078 0.042979 0.001800
# 6 0.005871 0.001916 -0.005705 0.001679 0.001800 0.041940
#
#
# Mechanical properties :
#
#
# Convention : Reuss Voigt Hill
#
# Bulk Modulus (GPa) = 40.53041 50.68732 45.60886
# Shear Modulus (GPa) = 26.54389 31.78857 29.16623
#
# Velocity S-wave (km/s) = 3.67175 4.01815 3.84885
# Velocity P-wave (km/s) = 6.20977 6.87545 6.55107
#
# Compressibility (1/GPa) = 0.02467283
#
# Stress axis : x y z
#
# Youngs Moduli (GPa) = 47.28186 109.67260 92.64848
#
# Poissons Ratio (x) = 0.15342 0.35172
# Poissons Ratio (y) = 0.06614 0.27786
# Poissons Ratio (z) = 0.17950 0.32892
#
# Static dielectric constant tensor:
#      x y z
#    x 3.653740 0.016750 0.188440 
#    y 0.016750 3.676010 0.226540 
#    z 0.188440 0.226540 3.460930 
# 
# 
# High freq. dielectric constant tensor:
#      x y z
#    x 1.765680 -0.004580 0.003270 
#    y -0.004580 1.764620 0.012810 
#    z 0.003270 0.012810 1.767390 
# 
# From -- ./inp_files/161333.got.cif
#   From: 2010.06.25/outbox.cif.g09.slc.cpg/sg2_81_cif.got.tgz:161333.got - 2010.06.27 13:26:56.
