data_PCOD8000943
_publ_section_title
;
Structure prediction by ZEFSAII (Michael W. Deem and Ramdas Pophale) SiO2 
 PCOD8000943
Probable space group: P -1
;
_chemical_formula_sum "Si O2"
_cell_formula_units_Z 16
_cell_length_a 17.837397
_cell_length_b 9.072162
_cell_length_c 10.963214
_cell_angle_alpha 140.218139
_cell_angle_beta 120.798181
_cell_angle_gamma 88.439232
_cell_volume 727.085022
_symmetry_space_group_name_H-M "P -1"
_symmetry_group_IT_number 2
_symmetry_cell_setting 'triclinic'
loop_
_space_group_symop_operation_xyz
x,y,z
-x,-y,-z
loop_
_atom_site_type_symbol
_atom_site_label
_atom_site_fract_x
_atom_site_fract_y
_atom_site_fract_z
Si Si1 0.317748 0.304650 0.866466
Si Si2 0.723901 0.630432 0.624652
Si Si3 0.270123 0.726585 0.382625
Si Si4 0.479217 0.794268 0.123335
Si Si5 0.117856 0.681964 0.786520
Si Si6 0.320179 0.826571 0.897573
Si Si7 0.517233 0.622318 0.791804
Si Si8 0.123058 0.334435 0.787845
O O1 0.218764 0.321416 0.809771
O O2 0.254911 0.943604 0.579394
O O3 0.396740 0.463324 0.910696
O O4 0.418121 0.495510 0.178517
O O5 0.733376 0.493268 0.666565
O O6 0.716582 0.463160 0.392881
O O7 0.611820 0.612735 0.526382
O O8 0.838523 0.987700 0.929264
O O9 0.392439 0.939811 0.542393
O O10 0.165785 0.520928 0.068307
O O11 0.405425 0.901520 0.127653
O O12 0.508910 0.783397 0.000872
O O13 0.204062 0.731395 0.790442
O O14 0.103961 0.499148 0.777391
O O15 0.000000 0.500000 0.500000
O O16 0.389264 0.128254 0.067651
O O17 0.000000 0.000000 0.500000
#
# Coordination Sequence:
#
# PCOD8000943 Si02
#       8
#     2   2   2   2   2   2   2   2
#     4  11  24  42  70 101 140 178 212 272 334 395
#     4  11  23  42  72 103 135 174 218 269 333 398
#     4  11  23  42  72 101 137 176 214 268 339 396
#     4  10  19  40  67 106 139 168 215 265 334 408
#     4  12  30  47  68  95 129 178 235 281 317 390
#     4  11  21  44  70 100 142 170 216 268 334 397
#     4  10  20  38  71 105 136 175 209 266 334 406
#     4  12  30  49  65  94 133 178 234 278 322 390
#
# _framework density 22.005682
#
# number of rings (size 3 to 8) (size 9 to 14) (size 15 to 20)
#    0.000    1.000    5.000    3.000    8.750    3.000 
#    0.000    0.000    0.000    0.000    0.000    0.000 
#    0.000    0.000    0.000    0.000    0.000    0.000 
#
# Total GULP energy -198291.586650 kJ/mol
# GULP energy per Si atom -12393.224166 kJ/mol
# Density = 2.195560 g / cm^3
# Si number density = 22.005682 Si / 1000 Ang^3
#
#
#
# Elastic Constant Matrix: (Units=GPa)
#
#
# Indices 1 2 3 4 5 6 
#
# 1 31.8744 3.5710 21.8987 5.5362 7.3517 -1.0344
# 2 3.5710 136.2158 28.1159 -7.0245 7.5509 5.5068
# 3 21.8987 28.1159 23.8760 -27.7845 25.8491 23.5882
# 4 5.5362 -7.0245 -27.7845 38.4153 3.9292 11.9914
# 5 7.3517 7.5509 25.8491 3.9292 24.0143 -0.5428
# 6 -1.0344 5.5068 23.5882 11.9914 -0.5428 29.3763
#
#
#
# Elastic Compliance Matrix: (Units=1/GPa)
#
#
# Indices 1 2 3 4 5 6 
#
# 1 0.029099 -0.000768 0.007753 0.005508 -0.018087 -0.007640
# 2 -0.000768 0.007751 -0.000029 0.002576 -0.002650 -0.002557
# 3 0.007753 -0.000029 -0.010831 -0.014972 0.012090 0.015310
# 4 0.005508 0.002576 -0.014972 0.011379 0.011923 0.007308
# 5 -0.018087 -0.002650 0.012090 0.011923 0.032729 -0.014110
# 6 -0.007640 -0.002557 0.015310 0.007308 -0.014110 0.018714
#
#
# Mechanical properties :
#
#
# Convention : Reuss Voigt Hill
#
# Bulk Modulus (GPa) = 25.04232 33.23748 29.13990
# Shear Modulus (GPa) = 56.66406 27.58655 42.12530
#
# Velocity S-wave (km/s) = 5.07993 3.54448 4.38001
# Velocity P-wave (km/s) = 6.76847 5.64694 6.23298
#
# Compressibility (1/GPa) = 0.03993241
#
# Stress axis : x y z
#
# Youngs Moduli (GPa) = 34.36499 129.02325 -92.32979
#
# Poissons Ratio (x) = 0.09905 0.71585
# Poissons Ratio (y) = 0.02638 -0.00267
# Poissons Ratio (z) = -0.26644 0.00373
#
# Static dielectric constant tensor:
#      x y z
#    x 3.862370 -0.059030 0.107260 
#    y -0.059030 4.298480 -0.215570 
#    z 0.107260 -0.215570 4.155740 
# 
# 
# High freq. dielectric constant tensor:
#      x y z
#    x 1.853430 -0.005450 0.005410 
#    y -0.005450 1.886300 -0.006170 
#    z 0.005410 -0.006170 1.862050 
# 
# From -- ./inp_files/462572.got.cif
#   From: 2010.06.25/outbox.cif.g09.slc.cpg/sg2_232_cif.got.tgz:462572.got - 2010.06.27 13:26:56.
