data_PCOD8000247
_publ_section_title
;
Structure prediction by ZEFSAII (Michael W. Deem and Ramdas Pophale) SiO2 
 PCOD8000247
Probable space group: P 1
;
_chemical_formula_sum "Si O2"
_cell_formula_units_Z 8
_cell_length_a 14.776587
_cell_length_b 4.972760
_cell_length_c 6.140112
_cell_angle_alpha 94.067855
_cell_angle_beta 131.477983
_cell_angle_gamma 78.176413
_cell_volume 329.562114
_symmetry_space_group_name_H-M "P 1"
_symmetry_group_IT_number 1
_symmetry_cell_setting 'triclinic'
loop_
_space_group_symop_operation_xyz
x,y,z
loop_
_atom_site_type_symbol
_atom_site_label
_atom_site_fract_x
_atom_site_fract_y
_atom_site_fract_z
Si Si1 0.079450 0.224360 0.368510
Si Si2 0.003325 0.616064 0.637638
Si Si3 0.462288 0.485545 0.413393
Si Si4 0.908250 0.174416 0.723286
Si Si5 0.523804 0.802782 0.897516
Si Si6 0.293901 0.197427 0.421775
Si Si7 0.223298 0.833599 0.929546
Si Si8 0.623274 0.265710 0.289829
O O1 0.185602 0.351295 0.419819
O O2 0.992809 0.473630 0.378326
O O3 0.149933 0.968184 0.609941
O O4 0.991312 0.087446 0.064549
O O5 0.945290 0.452981 0.717132
O O6 0.149432 0.612823 0.904852
O O7 0.932654 0.937415 0.561907
O O8 0.546149 0.670821 0.681582
O O9 0.385763 0.376971 0.479099
O O10 0.549873 0.245027 0.399748
O O11 0.364059 0.672811 0.102587
O O12 0.765881 0.242698 0.567207
O O13 0.379348 0.954043 0.688101
O O14 0.562478 0.568382 0.124776
O O15 0.607662 0.028426 0.082098
O O16 0.220476 0.077136 0.109830
#
# Coordination Sequence:
#
# PCOD8000247 Si02
#       8
#     1   1   1   1   1   1   1   1
#     4  12  25  46  77 109 148 203 230 309 381 422
#     4  12  26  51  72 110 145 194 248 305 360 436
#     4  11  26  47  75 116 149 190 243 306 369 445
#     4  12  29  51  73 108 151 194 256 299 351 446
#     4  11  26  48  76 107 147 192 245 301 368 429
#     4  11  24  47  75 116 151 183 244 308 371 450
#     4  11  24  44  76 110 156 180 245 307 372 440
#     4  12  28  50  76 106 149 202 245 299 364 432
#
# _framework density 24.274636999999998
#
# number of rings (size 3 to 8) (size 9 to 14) (size 15 to 20)
#    0.000    0.500    3.750    3.000    8.750    4.000 
#    0.000    0.000    0.000    0.000    0.000    0.000 
#    0.000    0.000    0.000    0.000    0.000    0.000 
#
# Total GULP energy -99166.380738 kJ/mol
# GULP energy per Si atom -12395.797592 kJ/mol
# Density = 2.421939 g / cm^3
# Si number density = 24.274637 Si / 1000 Ang^3
#
#
#
# Elastic Constant Matrix: (Units=GPa)
#
#
# Indices 1 2 3 4 5 6 
#
# 1 138.2465 45.2944 71.0388 6.0577 13.4406 -8.5550
# 2 45.2944 119.0782 43.5492 12.2369 3.9801 2.5046
# 3 71.0388 43.5492 135.3787 4.3961 13.4949 -0.3834
# 4 6.0577 12.2369 4.3961 34.1939 4.9715 -0.1302
# 5 13.4406 3.9801 13.4949 4.9715 21.1210 3.3073
# 6 -8.5550 2.5046 -0.3834 -0.1302 3.3073 37.9503
#
#
#
# Elastic Compliance Matrix: (Units=1/GPa)
#
#
# Indices 1 2 3 4 5 6 
#
# 1 0.010942 -0.002437 -0.004546 0.000124 -0.004088 0.002938
# 2 -0.002437 0.010422 -0.002167 -0.003312 0.001977 -0.001443
# 3 -0.004546 -0.002167 0.010814 0.000728 -0.003710 -0.000447
# 4 0.000124 -0.003312 0.000728 0.031405 -0.007471 0.001013
# 5 -0.004088 0.001977 -0.003710 -0.007471 0.054624 -0.005876
# 6 0.002938 -0.001443 -0.000447 0.001013 -0.005876 0.027619
#
#
# Mechanical properties :
#
#
# Convention : Reuss Voigt Hill
#
# Bulk Modulus (GPa) = 72.06017 79.16314 75.61165
# Shear Modulus (GPa) = 29.62919 34.17444 31.90182
#
# Velocity S-wave (km/s) = 3.49747 3.75617 3.62913
# Velocity P-wave (km/s) = 6.78672 7.17593 6.98404
#
# Compressibility (1/GPa) = 0.01387729
#
# Stress axis : x y z
#
# Youngs Moduli (GPa) = 91.39316 95.94872 92.47215
#
# Poissons Ratio (x) = 0.23387 0.42035
# Poissons Ratio (y) = 0.22276 0.20042
# Poissons Ratio (z) = 0.41544 0.20795
#
# Static dielectric constant tensor:
#      x y z
#    x 4.276590 -0.038330 0.039160 
#    y -0.038330 4.387500 0.112220 
#    z 0.039160 0.112220 4.396600 
# 
# 
# High freq. dielectric constant tensor:
#      x y z
#    x 1.950600 -0.000580 -0.000110 
#    y -0.000580 1.970380 0.007750 
#    z -0.000110 0.007750 1.961100 
# 
# From -- ./inp_files/440.got.cif
#   From: 2010.03.12/outbox.cif.g09.slc.cpg/sg1_1_cif.got.tgz:440.got - 2010.03.29 11:57:58.
