data_PCOD8000650
_publ_section_title
;
Structure prediction by ZEFSAII (Michael W. Deem and Ramdas Pophale) SiO2 
 PCOD8000650
Probable space group: P -1
;
_chemical_formula_sum "Si O2"
_cell_formula_units_Z 12
_cell_length_a 11.304799
_cell_length_b 16.865604
_cell_length_c 6.728121
_cell_angle_alpha 43.519624
_cell_angle_beta 57.267882
_cell_angle_gamma 31.433947
_cell_volume 449.675313
_symmetry_space_group_name_H-M "P -1"
_symmetry_group_IT_number 2
_symmetry_cell_setting 'triclinic'
loop_
_space_group_symop_operation_xyz
x,y,z
-x,-y,-z
loop_
_atom_site_type_symbol
_atom_site_label
_atom_site_fract_x
_atom_site_fract_y
_atom_site_fract_z
Si Si1 0.008048 0.595194 0.625299
Si Si2 0.849917 0.851943 0.968448
Si Si3 0.494753 0.744587 0.335059
Si Si4 0.299806 0.059298 0.477592
Si Si5 0.690331 0.370279 0.230301
Si Si6 0.622185 0.660696 0.833081
O O1 0.942036 0.748549 0.546706
O O2 0.857383 0.577957 0.836700
O O3 0.283990 0.388296 0.774126
O O4 0.952701 0.673404 0.309066
O O5 0.703621 0.902333 0.821293
O O6 0.053788 0.800214 0.789778
O O7 0.684769 0.032901 0.937918
O O8 0.355181 0.718932 0.449752
O O9 0.593646 0.681258 0.583707
O O10 0.500000 0.000000 0.500000
O O11 0.384656 0.869762 0.763209
O O12 0.500000 0.500000 0.000000
O O13 0.659204 0.504571 0.152723
#
# Coordination Sequence:
#
# PCOD8000650 Si02
#       6
#     2   2   2   2   2   2
#     4  11  21  42  64  97 127 159 217 268 300 379
#     4  11  22  40  70  89 126 177 200 259 332 360
#     4  10  21  37  65  94 125 164 221 252 307 387
#     4   9  22  41  60  97 133 159 210 261 314 384
#     4  10  19  39  66  91 125 173 207 256 318 377
#     4   9  19  38  63  88 131 163 199 268 313 358
#
# _framework density 26.685919999999999
#
# number of rings (size 3 to 8) (size 9 to 14) (size 15 to 20)
#    0.000    2.000    3.333    1.000    0.000    6.000 
#    3.000    3.333    0.000    0.000    0.000    0.000 
#    0.000    0.000    0.000    0.000    0.000    0.000 
#
# Total GULP energy -148768.849608 kJ/mol
# GULP energy per Si atom -12397.404134 kJ/mol
# Density = 2.662518 g / cm^3
# Si number density = 26.685920 Si / 1000 Ang^3
#
#
#
# Elastic Constant Matrix: (Units=GPa)
#
#
# Indices 1 2 3 4 5 6 
#
# 1 85.7609 63.8593 41.2113 -11.4591 -30.0284 1.7354
# 2 63.8593 218.7780 42.8759 -31.9375 -27.7051 4.0972
# 3 41.2113 42.8759 73.9201 -16.4519 -23.6255 -9.9252
# 4 -11.4591 -31.9375 -16.4519 45.8418 -1.9608 -4.6333
# 5 -30.0284 -27.7051 -23.6255 -1.9608 37.8999 -4.1727
# 6 1.7354 4.0972 -9.9252 -4.6333 -4.1727 25.2584
#
#
#
# Elastic Compliance Matrix: (Units=1/GPa)
#
#
# Indices 1 2 3 4 5 6 
#
# 1 0.020981 -0.003445 -0.006640 0.000705 0.009810 -0.001742
# 2 -0.003445 0.006412 -0.000408 0.003540 0.001886 -0.000003
# 3 -0.006640 -0.000408 0.025304 0.009091 0.012243 0.014156
# 4 0.000705 0.003540 0.009091 0.029241 0.011450 0.010205
# 5 0.009810 0.001886 0.012243 0.011450 0.045237 0.013404
# 6 -0.001742 -0.000003 0.014156 0.010205 0.013404 0.049360
#
#
# Mechanical properties :
#
#
# Convention : Reuss Voigt Hill
#
# Bulk Modulus (GPa) = 31.53613 74.92800 53.23207
# Shear Modulus (GPa) = 24.02788 37.16750 30.59769
#
# Velocity S-wave (km/s) = 3.00391 3.73604 3.38980
# Velocity P-wave (km/s) = 4.88615 6.83735 5.94238
#
# Compressibility (1/GPa) = 0.03170966
#
# Stress axis : x y z
#
# Youngs Moduli (GPa) = 47.66245 155.95595 39.51928
#
# Poissons Ratio (x) = 0.53724 0.26243
# Poissons Ratio (y) = 0.16419 0.01614
# Poissons Ratio (z) = 0.31650 0.06369
#
# Static dielectric constant tensor:
#      x y z
#    x 5.299620 0.219360 -0.370850 
#    y 0.219360 5.766970 -0.492230 
#    z -0.370850 -0.492230 5.133540 
# 
# 
# High freq. dielectric constant tensor:
#      x y z
#    x 2.075140 0.012420 0.015770 
#    y 0.012420 2.080950 -0.023760 
#    z 0.015770 -0.023760 2.066840 
# 
# From -- ./inp_files/274997.got.cif
#   From: 2010.06.25/outbox.cif.g09.slc.cpg/sg2_138_cif.got.tgz:274997.got - 2010.06.27 13:26:56.
