data_PCOD8000362
_publ_section_title
;
Structure prediction by ZEFSAII (Michael W. Deem and Ramdas Pophale) SiO2 
 PCOD8000362
Probable space group: P -1
;
_chemical_formula_sum "Si O2"
_cell_formula_units_Z 16
_cell_length_a 9.168788
_cell_length_b 16.894798
_cell_length_c 14.507626
_cell_angle_alpha 149.742603
_cell_angle_beta 59.493218
_cell_angle_gamma 100.546964
_cell_volume 788.861764
_symmetry_space_group_name_H-M "P -1"
_symmetry_group_IT_number 2
_symmetry_cell_setting 'triclinic'
loop_
_space_group_symop_operation_xyz
x,y,z
-x,-y,-z
loop_
_atom_site_type_symbol
_atom_site_label
_atom_site_fract_x
_atom_site_fract_y
_atom_site_fract_z
Si Si1 0.084471 0.054037 0.905362
Si Si2 0.086579 0.120629 0.661354
Si Si3 0.253374 0.008625 0.999815
Si Si4 0.076827 0.331856 0.046534
Si Si5 0.962332 0.869338 0.513024
Si Si6 0.733300 0.780565 0.625104
Si Si7 0.509402 0.718061 0.131890
Si Si8 0.650623 0.312320 0.667900
O O1 0.266740 0.836051 0.592782
O O2 0.167228 0.093757 0.011025
O O3 0.027058 0.214389 0.010295
O O4 0.868724 0.078253 0.013176
O O5 0.996537 0.227161 0.698956
O O6 0.307244 0.918012 0.359990
O O7 0.113065 0.254564 0.852850
O O8 0.939945 0.070644 0.709428
O O9 0.213683 0.179340 0.250456
O O10 0.500369 0.839069 0.750594
O O11 0.884422 0.554012 0.329986
O O12 0.287833 0.297011 0.978886
O O13 0.761719 0.901894 0.660610
O O14 0.158943 0.721762 0.366206
O O15 0.492277 0.715996 0.247219
O O16 0.523506 0.535096 0.898210
#
# Coordination Sequence:
#
# PCOD8000362 Si02
#       8
#     2   2   2   2   2   2   2   2
#     4  11  22  42  65  86 117 153 202 253 290 344
#     4  10  22  35  58  90 123 159 190 231 287 365
#     4  10  24  44  64  82 110 161 206 247 303 340
#     4  12  22  37  60  91 123 146 197 245 293 350
#     4  10  19  40  57  82 123 163 185 235 298 348
#     4  11  23  42  63  85 120 157 196 251 297 344
#     4  10  20  35  58  90 119 159 187 231 291 364
#     4  10  19  39  60  83 123 160 188 233 296 353
#
# _framework density 20.282387
#
# number of rings (size 3 to 8) (size 9 to 14) (size 15 to 20)
#    0.000    1.500    5.000    0.375    1.750    1.500 
#    9.000    0.000    0.000    0.000    0.000    0.000 
#    0.000    0.000    0.000    0.000    0.000    0.000 
#
# Total GULP energy -198360.457022 kJ/mol
# GULP energy per Si atom -12397.528564 kJ/mol
# Density = 2.023622 g / cm^3
# Si number density = 20.282387 Si / 1000 Ang^3
#
#
#
# Elastic Constant Matrix: (Units=GPa)
#
#
# Indices 1 2 3 4 5 6 
#
# 1 84.8468 31.8541 28.3865 -2.6845 0.3179 0.1713
# 2 31.8541 70.3289 40.2149 -14.6461 4.4228 0.7095
# 3 28.3865 40.2149 102.7519 2.5172 -1.9239 6.6500
# 4 -2.6845 -14.6461 2.5172 22.3885 3.4143 -3.8472
# 5 0.3179 4.4228 -1.9239 3.4143 21.7915 -8.8795
# 6 0.1713 0.7095 6.6500 -3.8472 -8.8795 26.9118
#
#
#
# Elastic Compliance Matrix: (Units=1/GPa)
#
#
# Indices 1 2 3 4 5 6 
#
# 1 0.014589 -0.006349 -0.001499 -0.002367 0.001569 0.000624
# 2 -0.006349 0.027283 -0.009680 0.019791 -0.008722 0.001664
# 3 -0.001499 -0.009680 0.014452 -0.009245 0.003264 -0.003551
# 4 -0.002367 0.019791 -0.009245 0.061298 -0.011678 0.006688
# 5 0.001569 -0.008722 0.003264 -0.011678 0.056421 0.016360
# 6 0.000624 0.001664 -0.003551 0.006688 0.016360 0.044342
#
#
# Mechanical properties :
#
#
# Convention : Reuss Voigt Hill
#
# Bulk Modulus (GPa) = 47.01621 50.98205 48.99913
# Shear Modulus (GPa) = 19.19173 24.71650 21.95412
#
# Velocity S-wave (km/s) = 3.07942 3.49466 3.29359
# Velocity P-wave (km/s) = 5.98956 6.44005 6.21889
#
# Compressibility (1/GPa) = 0.02126926
#
# Stress axis : x y z
#
# Youngs Moduli (GPa) = 68.54575 36.65327 69.19433
#
# Poissons Ratio (x) = 0.23270 0.10369
# Poissons Ratio (y) = 0.43518 0.66979
# Poissons Ratio (z) = 0.10272 0.35480
#
# Static dielectric constant tensor:
#      x y z
#    x 3.747740 0.090880 0.028280 
#    y 0.090880 3.717740 -0.234220 
#    z 0.028280 -0.234220 3.618380 
# 
# 
# High freq. dielectric constant tensor:
#      x y z
#    x 1.791540 0.009870 0.001510 
#    y 0.009870 1.788130 -0.012350 
#    z 0.001510 -0.012350 1.780450 
# 
# From -- ./inp_files/208645.got.cif
#   From: 2010.06.25/outbox.cif.g09.slc.cpg/sg2_105_cif.got.tgz:208645.got - 2010.06.27 13:26:56.
