data_PCOD8000377
_publ_section_title
;
Structure prediction by ZEFSAII (Michael W. Deem and Ramdas Pophale) SiO2 
 PCOD8000377
Probable space group: P -1
;
_chemical_formula_sum "Si O2"
_cell_formula_units_Z 14
_cell_length_a 8.862645
_cell_length_b 14.152010
_cell_length_c 12.839699
_cell_angle_alpha 42.302936
_cell_angle_beta 35.648408
_cell_angle_gamma 48.702943
_cell_volume 624.523012
_symmetry_space_group_name_H-M "P -1"
_symmetry_group_IT_number 2
_symmetry_cell_setting 'triclinic'
loop_
_space_group_symop_operation_xyz
x,y,z
-x,-y,-z
loop_
_atom_site_type_symbol
_atom_site_label
_atom_site_fract_x
_atom_site_fract_y
_atom_site_fract_z
Si Si1 0.206067 0.463107 0.008028
Si Si2 0.055763 0.741293 0.973208
Si Si3 0.843117 0.692546 0.340994
Si Si4 0.303313 0.886840 0.539968
Si Si5 0.746414 0.389413 0.649380
Si Si6 0.460131 0.161711 0.927627
Si Si7 0.835790 0.831618 0.704980
O O1 0.211179 0.587433 0.985964
O O2 0.496260 0.429519 0.829468
O O3 0.133892 0.329135 0.223758
O O4 0.000000 0.500000 0.000000
O O5 0.210180 0.853713 0.735939
O O6 0.022733 0.762336 0.098893
O O7 0.765867 0.748507 0.085151
O O8 0.585731 0.804070 0.419975
O O9 0.783603 0.540399 0.451701
O O10 0.997066 0.668081 0.381938
O O11 0.113093 0.851172 0.583268
O O12 0.275397 0.058250 0.413139
O O13 0.698977 0.257108 0.706999
O O14 0.388238 0.153201 0.094721
O O15 0.500000 0.000000 0.000000
#
# Coordination Sequence:
#
# PCOD8000377 Si02
#       7
#     2   2   2   2   2   2   2
#     4  11  17  40  63  90 124 163 211 262 307 359
#     4  11  22  37  67  92 119 166 216 259 301 371
#     4  11  23  40  63  96 129 167 202 253 324 378
#     4  10  19  39  60  88 131 162 202 264 307 369
#     4  10  22  41  63  91 133 165 201 261 320 370
#     4  10  20  39  63  95 122 160 217 259 303 370
#     4   9  19  34  64  88 124 169 198 263 322 347
#
# _framework density 22.417107000000001
#
# number of rings (size 3 to 8) (size 9 to 14) (size 15 to 20)
#    0.000    1.714    5.714    0.857    0.000    1.143 
#    7.714    6.429    0.000    6.857    0.000    0.000 
#    0.000    0.000    0.000    0.000    0.000    0.000 
#
# Total GULP energy -173443.219841 kJ/mol
# GULP energy per Si atom -12388.801417 kJ/mol
# Density = 2.236608 g / cm^3
# Si number density = 22.417107 Si / 1000 Ang^3
#
#
#
# Elastic Constant Matrix: (Units=GPa)
#
#
# Indices 1 2 3 4 5 6 
#
# 1 45.6987 31.4579 26.8872 -3.3771 5.2028 -23.5673
# 2 31.4579 96.7764 29.3720 -26.1590 3.5485 -27.2889
# 3 26.8872 29.3720 73.2041 -11.3607 22.5924 -22.4117
# 4 -3.3771 -26.1590 -11.3607 43.8205 -6.2178 1.4321
# 5 5.2028 3.5485 22.5924 -6.2178 34.4244 -3.8103
# 6 -23.5673 -27.2889 -22.4117 1.4321 -3.8103 32.8452
#
#
#
# Elastic Compliance Matrix: (Units=1/GPa)
#
#
# Indices 1 2 3 4 5 6 
#
# 1 0.039694 -0.006379 -0.007044 -0.003072 0.000785 0.018600
# 2 -0.006379 0.018084 -0.001346 0.010050 0.002841 0.009421
# 3 -0.007044 -0.001346 0.023803 0.002705 -0.012995 0.008444
# 4 -0.003072 0.010050 0.002705 0.029588 0.003788 0.007141
# 5 0.000785 0.002841 -0.012995 0.003788 0.037658 -0.001740
# 6 0.018600 0.009421 0.008444 0.007141 -0.001740 0.056867
#
#
# Mechanical properties :
#
#
# Convention : Reuss Voigt Hill
#
# Bulk Modulus (GPa) = 19.21513 43.45706 31.33610
# Shear Modulus (GPa) = 19.79560 30.74882 25.27221
#
# Velocity S-wave (km/s) = 2.97485 3.70762 3.36127
# Velocity P-wave (km/s) = 4.51552 6.14462 5.39195
#
# Compressibility (1/GPa) = 0.05204231
#
# Stress axis : x y z
#
# Youngs Moduli (GPa) = 25.19270 55.29746 42.01089
#
# Poissons Ratio (x) = 0.35275 0.29594
# Poissons Ratio (y) = 0.16071 0.05655
# Poissons Ratio (z) = 0.17747 0.07443
#
# Static dielectric constant tensor:
#      x y z
#    x 3.744540 -0.219100 0.234070 
#    y -0.219100 4.407490 -0.505520 
#    z 0.234070 -0.505520 3.328620 
# 
# 
# High freq. dielectric constant tensor:
#      x y z
#    x 1.852030 -0.030630 -0.000760 
#    y -0.030630 1.884820 -0.015350 
#    z -0.000760 -0.015350 1.889210 
# 
# From -- ./inp_files/391919.got.cif
#   From: 2010.06.25/outbox.cif.g09.slc.cpg/sg2_196_cif.got.tgz:391919.got - 2010.06.27 13:26:56.
