data_PCOD8000484
_publ_section_title
;
Structure prediction by ZEFSAII (Michael W. Deem and Ramdas Pophale) SiO2 
 PCOD8000484
Probable space group: P -1
;
_chemical_formula_sum "Si O2"
_cell_formula_units_Z 14
_cell_length_a 14.315625
_cell_length_b 11.299535
_cell_length_c 19.893598
_cell_angle_alpha 35.519877
_cell_angle_beta 155.499290
_cell_angle_gamma 147.883638
_cell_volume 695.723137
_symmetry_space_group_name_H-M "P -1"
_symmetry_group_IT_number 2
_symmetry_cell_setting 'triclinic'
loop_
_space_group_symop_operation_xyz
x,y,z
-x,-y,-z
loop_
_atom_site_type_symbol
_atom_site_label
_atom_site_fract_x
_atom_site_fract_y
_atom_site_fract_z
Si Si1 0.711419 0.589249 0.996556
Si Si2 0.270685 0.153057 0.475851
Si Si3 0.590757 0.324767 0.357235
Si Si4 0.830201 0.502203 0.663853
Si Si5 0.210636 0.026389 0.352383
Si Si6 0.996064 0.361489 0.433400
Si Si7 0.780668 0.718039 0.124921
O O1 0.602067 0.673495 0.824855
O O2 0.499443 0.352516 0.998135
O O3 0.801112 0.769938 0.034067
O O4 0.942031 0.549390 0.138400
O O5 0.572527 0.281617 0.613181
O O6 0.151702 0.282189 0.382800
O O7 0.162418 0.138131 0.336228
O O8 0.186412 0.903996 0.566598
O O9 0.448441 0.210741 0.384838
O O10 0.800039 0.574836 0.401362
O O11 0.728692 0.178420 0.487254
O O12 0.851903 0.559705 0.572957
O O13 0.971975 0.940142 0.186566
O O14 0.836355 0.502202 0.276178
#
# Coordination Sequence:
#
# PCOD8000484 Si02
#       7
#     2   2   2   2   2   2   2
#     4  10  20  38  54  85 122 144 181 245 285 336
#     4  11  21  38  65  80 112 157 196 231 276 336
#     4  10  20  35  61  85 117 145 190 236 290 332
#     4  10  23  40  57  86 116 148 198 235 274 341
#     4  10  20  37  58  86 113 153 191 233 274 350
#     4  10  19  39  63  85 109 153 192 235 278 342
#     4   9  20  37  58  85 118 143 189 233 292 343
#
# _framework density 20.122948999999998
#
# number of rings (size 3 to 8) (size 9 to 14) (size 15 to 20)
#    0.000    2.000    1.429    2.143    2.000    2.857 
#    7.714    3.571    0.000    0.000    0.000    0.000 
#    0.000    0.000    0.000    0.000    0.000    0.000 
#
# Total GULP energy -173588.209674 kJ/mol
# GULP energy per Si atom -12399.157834 kJ/mol
# Density = 2.007715 g / cm^3
# Si number density = 20.122949 Si / 1000 Ang^3
#
#
#
# Elastic Constant Matrix: (Units=GPa)
#
#
# Indices 1 2 3 4 5 6 
#
# 1 72.5832 27.4825 49.7095 6.6176 4.4431 -11.7328
# 2 27.4825 108.8787 35.5335 11.8790 2.4687 -9.0865
# 3 49.7095 35.5335 105.1332 21.8354 -12.7405 -10.4496
# 4 6.6176 11.8790 21.8354 24.9458 4.3375 -6.9594
# 5 4.4431 2.4687 -12.7405 4.3375 35.7224 8.0105
# 6 -11.7328 -9.0865 -10.4496 -6.9594 8.0105 27.5727
#
#
#
# Elastic Compliance Matrix: (Units=1/GPa)
#
#
# Indices 1 2 3 4 5 6 
#
# 1 0.025916 -0.001895 -0.014457 0.012038 -0.012297 0.011535
# 2 -0.001895 0.010831 -0.002406 -0.001754 -0.001576 0.001866
# 3 -0.014457 -0.002406 0.021974 -0.018678 0.013710 -0.007314
# 4 0.012038 -0.001754 -0.018678 0.062889 -0.019966 0.019140
# 5 -0.012297 -0.001576 0.013710 -0.019966 0.040863 -0.017467
# 6 0.011535 0.001866 -0.007314 0.019140 -0.017467 0.048925
#
#
# Mechanical properties :
#
#
# Convention : Reuss Voigt Hill
#
# Bulk Modulus (GPa) = 47.15889 56.89399 52.02644
# Shear Modulus (GPa) = 19.53267 29.23951 24.38609
#
# Velocity S-wave (km/s) = 3.11893 3.81602 3.48495
# Velocity P-wave (km/s) = 6.03793 6.91018 6.48872
#
# Compressibility (1/GPa) = 0.02120491
#
# Stress axis : x y z
#
# Youngs Moduli (GPa) = 38.58660 92.32801 45.50816
#
# Poissons Ratio (x) = 0.17498 0.65791
# Poissons Ratio (y) = 0.07313 0.10948
# Poissons Ratio (z) = 0.55784 0.22212
#
# Static dielectric constant tensor:
#      x y z
#    x 3.790920 -0.018930 -0.046690 
#    y -0.018930 3.617820 0.304730 
#    z -0.046690 0.304730 3.425150 
# 
# 
# High freq. dielectric constant tensor:
#      x y z
#    x 1.799240 0.009350 -0.011930 
#    y 0.009350 1.783300 0.031300 
#    z -0.011930 0.031300 1.759850 
# 
# From -- ./inp_files/214989.got.cif
#   From: 2010.06.25/outbox.cif.g09.slc.cpg/sg2_108_cif.got.tgz:214989.got - 2010.06.27 13:26:56.
