data_PCOD8000447
_publ_section_title
;
Structure prediction by ZEFSAII (Michael W. Deem and Ramdas Pophale) SiO2 
 PCOD8000447
Probable space group: P -1
;
_chemical_formula_sum "Si O2"
_cell_formula_units_Z 16
_cell_length_a 11.647636
_cell_length_b 23.700172
_cell_length_c 8.049605
_cell_angle_alpha 122.951368
_cell_angle_beta 105.443803
_cell_angle_gamma 28.944978
_cell_volume 772.829700
_symmetry_space_group_name_H-M "P -1"
_symmetry_group_IT_number 2
_symmetry_cell_setting 'triclinic'
loop_
_space_group_symop_operation_xyz
x,y,z
-x,-y,-z
loop_
_atom_site_type_symbol
_atom_site_label
_atom_site_fract_x
_atom_site_fract_y
_atom_site_fract_z
Si Si1 0.831959 0.410445 0.122979
Si Si2 0.184821 0.029115 0.371713
Si Si3 0.200340 0.318872 0.943171
Si Si4 0.346629 0.743420 0.336847
Si Si5 0.026733 0.810424 0.129053
Si Si6 0.226605 0.359356 0.663867
Si Si7 0.790671 0.762803 0.727767
Si Si8 0.229480 0.088236 0.164528
O O1 0.536514 0.593094 0.265069
O O2 0.922859 0.389989 0.307607
O O3 0.813101 0.339790 0.005835
O O4 0.064586 0.316209 0.928701
O O5 0.473807 0.844015 0.151417
O O6 0.104138 0.117726 0.326785
O O7 0.931092 0.104877 0.414167
O O8 0.204259 0.060570 0.605622
O O9 0.135757 0.366173 0.803215
O O10 0.029376 0.463364 0.212109
O O11 0.252114 0.756450 0.146565
O O12 0.495990 0.738016 0.353429
O O13 0.897189 0.876166 0.000669
O O14 0.299495 0.264757 0.409836
O O15 0.822945 0.804602 0.667294
O O16 0.558507 0.907245 0.999362
#
# Coordination Sequence:
#
# PCOD8000447 Si02
#       8
#     2   2   2   2   2   2   2   2
#     4  10  19  39  62  88 121 157 205 249 305 352
#     4  10  21  39  63  92 121 158 202 249 302 363
#     4  10  21  37  60  89 117 158 214 242 291 369
#     4   9  22  39  58  87 123 171 195 239 311 363
#     4   9  21  37  65  87 129 159 192 256 305 352
#     4  10  22  40  61  86 123 164 201 247 302 356
#     4  10  21  37  64  88 125 151 199 266 295 347
#     4  10  20  40  60 102 115 151 209 252 306 351
#
# _framework density 20.703137999999999
#
# number of rings (size 3 to 8) (size 9 to 14) (size 15 to 20)
#    0.750    1.500    1.250    1.125    1.750    3.000 
#    0.000    8.125    0.000    0.000    0.000    0.000 
#    0.000    0.000    0.000    0.000    0.000    0.000 
#
# Total GULP energy -198213.097167 kJ/mol
# GULP energy per Si atom -12388.318573 kJ/mol
# Density = 2.065602 g / cm^3
# Si number density = 20.703138 Si / 1000 Ang^3
#
#
#
# Elastic Constant Matrix: (Units=GPa)
#
#
# Indices 1 2 3 4 5 6 
#
# 1 98.7813 22.2791 42.5906 -8.7576 10.1102 -13.6711
# 2 22.2791 85.1744 29.1864 3.6720 2.9008 -9.2857
# 3 42.5906 29.1864 60.5710 1.2267 5.7189 -8.0857
# 4 -8.7576 3.6720 1.2267 31.5199 -7.9933 -8.0430
# 5 10.1102 2.9008 5.7189 -7.9933 33.5323 -3.5972
# 6 -13.6711 -9.2857 -8.0857 -8.0430 -3.5972 32.5445
#
#
#
# Elastic Compliance Matrix: (Units=1/GPa)
#
#
# Indices 1 2 3 4 5 6 
#
# 1 0.016104 -0.000243 -0.010503 0.006050 -0.001014 0.005469
# 2 -0.000243 0.014272 -0.006395 -0.000953 -0.000069 0.002138
# 3 -0.010503 -0.006395 0.027146 -0.003882 -0.001906 -0.000662
# 4 0.006050 -0.000953 -0.003882 0.039162 0.009547 0.012039
# 5 -0.001014 -0.000069 -0.001906 0.009547 0.033284 0.005119
# 6 0.005469 0.002138 -0.000662 0.012039 0.005119 0.037011
#
#
# Mechanical properties :
#
#
# Convention : Reuss Voigt Hill
#
# Bulk Modulus (GPa) = 43.02905 48.07101 45.55003
# Shear Modulus (GPa) = 23.92261 29.55071 26.73666
#
# Velocity S-wave (km/s) = 3.40296 3.78213 3.59755
# Velocity P-wave (km/s) = 6.02239 6.50710 6.26943
#
# Compressibility (1/GPa) = 0.02324011
#
# Stress axis : x y z
#
# Youngs Moduli (GPa) = 62.09755 70.06697 36.83754
#
# Poissons Ratio (x) = 0.01705 0.38690
# Poissons Ratio (y) = 0.01511 0.23557
# Poissons Ratio (z) = 0.65220 0.44806
#
# Static dielectric constant tensor:
#      x y z
#    x 3.748700 0.133600 0.075380 
#    y 0.133600 3.743100 0.142380 
#    z 0.075380 0.142380 3.523030 
# 
# 
# High freq. dielectric constant tensor:
#      x y z
#    x 1.805570 0.010200 0.005040 
#    y 0.010200 1.815770 0.013680 
#    z 0.005040 0.013680 1.782420 
# 
# From -- ./inp_files/284955.got.cif
#   From: 2010.06.25/outbox.cif.g09.slc.cpg/sg2_143_cif.got.tgz:284955.got - 2010.06.27 13:26:56.
