data_PCOD8000301
_publ_section_title
;
Structure prediction by ZEFSAII (Michael W. Deem and Ramdas Pophale) SiO2 
 PCOD8000301
Probable space group: P -1
;
_chemical_formula_sum "Si O2"
_cell_formula_units_Z 12
_cell_length_a 8.247683
_cell_length_b 9.443775
_cell_length_c 11.685231
_cell_angle_alpha 34.550515
_cell_angle_beta 63.318702
_cell_angle_gamma 77.684826
_cell_volume 438.655872
_symmetry_space_group_name_H-M "P -1"
_symmetry_group_IT_number 2
_symmetry_cell_setting 'triclinic'
loop_
_space_group_symop_operation_xyz
x,y,z
-x,-y,-z
loop_
_atom_site_type_symbol
_atom_site_label
_atom_site_fract_x
_atom_site_fract_y
_atom_site_fract_z
Si Si1 0.996017 0.089648 0.313258
Si Si2 0.514828 0.613858 0.292465
Si Si3 0.852295 0.312852 0.586390
Si Si4 0.761092 0.401964 0.008089
Si Si5 0.613937 0.728461 0.657169
Si Si6 0.926229 0.765620 0.091775
O O1 0.126283 0.392333 0.067536
O O2 0.088012 0.943687 0.287776
O O3 0.000000 0.000000 0.500000
O O4 0.768812 0.020712 0.402588
O O5 0.500000 0.500000 0.500000
O O6 0.360225 0.774235 0.232716
O O7 0.454066 0.381805 0.372851
O O8 0.731788 0.795692 0.077171
O O9 0.863078 0.475181 0.358226
O O10 0.000000 0.500000 0.500000
O O11 0.719108 0.537048 0.814024
O O12 0.901937 0.222186 0.060192
O O13 0.556295 0.234603 0.235495
O O14 0.000000 0.000000 0.000000
#
# Coordination Sequence:
#
# PCOD8000301 Si02
#       6
#     2   2   2   2   2   2
#     4  10  19  38  70  95 127 165 225 282 320 379
#     4  10  23  40  63  92 134 176 217 261 339 405
#     4  11  20  42  69  92 127 175 229 269 323 397
#     4  10  22  41  69  97 131 171 225 277 331 396
#     4  10  20  41  67  99 126 170 230 276 325 390
#     4  11  24  42  61  94 142 170 213 277 340 400
#
# _framework density 27.356293000000001
#
# number of rings (size 3 to 8) (size 9 to 14) (size 15 to 20)
#    0.000    1.667    5.000    0.000    0.000    6.000 
#    3.000    3.333    0.000    0.000    0.000    0.000 
#    0.000    0.000    0.000    0.000    0.000    0.000 
#
# Total GULP energy -148749.489188 kJ/mol
# GULP energy per Si atom -12395.790766 kJ/mol
# Density = 2.729403 g / cm^3
# Si number density = 27.356293 Si / 1000 Ang^3
#
#
#
# Elastic Constant Matrix: (Units=GPa)
#
#
# Indices 1 2 3 4 5 6 
#
# 1 202.3965 88.0047 49.8669 3.5811 -52.2820 -22.4027
# 2 88.0047 209.0184 45.2989 -0.4972 -48.2483 -8.7139
# 3 49.8669 45.2989 100.9171 20.2601 -52.4662 -7.0025
# 4 3.5811 -0.4972 20.2601 43.7920 3.1600 -4.1883
# 5 -52.2820 -48.2483 -52.4662 3.1600 63.2983 1.7566
# 6 -22.4027 -8.7139 -7.0025 -4.1883 1.7566 73.9660
#
#
#
# Elastic Compliance Matrix: (Units=1/GPa)
#
#
# Indices 1 2 3 4 5 6 
#
# 1 0.007123 -0.001902 -0.000206 -0.000645 0.004246 0.001777
# 2 -0.001902 0.006352 -0.000459 0.000240 0.002877 0.000074
# 3 -0.000206 -0.000459 0.022134 -0.011469 0.018374 0.000893
# 4 -0.000645 0.000240 -0.011469 0.029077 -0.011327 0.000662
# 5 0.004246 0.002877 0.018374 -0.011327 0.037243 0.001839
# 6 0.001777 0.000074 0.000893 0.000662 0.001839 0.014145
#
#
# Mechanical properties :
#
#
# Convention : Reuss Voigt Hill
#
# Bulk Modulus (GPa) = 32.81231 97.63035 65.22133
# Shear Modulus (GPa) = 38.06147 58.15536 48.10842
#
# Velocity S-wave (km/s) = 3.73409 4.61570 4.19810
# Velocity P-wave (km/s) = 5.53279 8.01075 6.88418
#
# Compressibility (1/GPa) = 0.03047637
#
# Stress axis : x y z
#
# Youngs Moduli (GPa) = 140.38177 157.42659 45.17945
#
# Poissons Ratio (x) = 0.29941 0.00929
# Poissons Ratio (y) = 0.26699 0.02074
# Poissons Ratio (z) = 0.02888 0.07225
#
# Static dielectric constant tensor:
#      x y z
#    x 5.697970 0.242280 -0.353410 
#    y 0.242280 4.607980 0.407740 
#    z -0.353410 0.407740 5.259770 
# 
# 
# High freq. dielectric constant tensor:
#      x y z
#    x 2.137080 -0.001650 -0.002090 
#    y -0.001650 2.099290 0.026390 
#    z -0.002090 0.026390 2.119800 
# 
# From -- ./inp_files/380841.got.cif
#   From: 2010.06.25/outbox.cif.g09.slc.cpg/sg2_191_cif.got.tgz:380841.got - 2010.06.27 13:26:56.
