data_PCOD8000276
_publ_section_title
;
Structure prediction by ZEFSAII (Michael W. Deem and Ramdas Pophale) SiO2 
 PCOD8000276
Probable space group: P 1
;
_chemical_formula_sum "Si O2"
_cell_formula_units_Z 6
_cell_length_a 5.168143
_cell_length_b 5.168125
_cell_length_c 9.560601
_cell_angle_alpha 107.336497
_cell_angle_beta 107.336746
_cell_angle_gamma 88.692812
_cell_volume 232.074359
_symmetry_space_group_name_H-M "P 1"
_symmetry_group_IT_number 1
_symmetry_cell_setting 'triclinic'
loop_
_space_group_symop_operation_xyz
x,y,z
loop_
_atom_site_type_symbol
_atom_site_label
_atom_site_fract_x
_atom_site_fract_y
_atom_site_fract_z
Si Si1 0.527760 0.603780 0.048510
Si Si2 0.037792 0.626152 0.806549
Si Si3 0.144628 0.485746 0.507630
Si Si4 0.592222 0.668250 0.388121
Si Si5 0.569853 0.158216 0.630083
Si Si6 0.710268 0.051376 0.929004
O O1 0.502544 0.693445 0.218312
O O2 0.236605 0.480415 0.922275
O O3 0.742910 0.370468 0.030372
O O4 0.592396 0.874085 0.011103
O O5 0.171240 0.669241 0.682204
O O6 0.753648 0.442359 0.718318
O O7 0.992472 0.925893 0.910399
O O8 0.321921 0.603617 0.425532
O O9 0.270110 0.203544 0.526240
O O10 0.825536 0.453102 0.406260
O O11 0.715583 0.959414 0.514349
O O12 0.526777 0.024753 0.754427
#
# Coordination Sequence:
#
# PCOD8000276 Si02
#       6
#     1   1   1   1   1   1
#     4  12  31  50  80 119 168 207 268 336 411 471
#     4  12  25  48  84 121 155 215 275 325 395 482
#     4  12  26  50  78 118 157 216 265 331 392 485
#     4  12  31  50  80 119 168 207 268 336 411 471
#     4  12  25  48  84 121 155 215 275 325 395 482
#     4  12  26  50  78 118 157 216 265 331 392 485
#
# _framework density 25.853781999999999
#
# number of rings (size 3 to 8) (size 9 to 14) (size 15 to 20)
#    0.000    0.000    6.667    1.000    9.333    2.667 
#    0.000    0.000    0.000    0.000    0.000    0.000 
#    0.000    0.000    0.000    0.000    0.000    0.000 
#
# Total GULP energy -74336.351649 kJ/mol
# GULP energy per Si atom -12389.391941 kJ/mol
# Density = 2.579494 g / cm^3
# Si number density = 25.853782 Si / 1000 Ang^3
#
#
#
# Elastic Constant Matrix: (Units=GPa)
#
#
# Indices 1 2 3 4 5 6 
#
# 1 104.3833 27.4351 43.1707 -17.2700 -22.0363 -11.6173
# 2 27.4351 104.3720 43.1621 -22.0371 -17.2686 -11.6128
# 3 43.1707 43.1621 217.3402 -37.6322 -37.6342 -2.1654
# 4 -17.2700 -22.0371 -37.6322 42.8420 -0.2571 -1.7498
# 5 -22.0363 -17.2686 -37.6342 -0.2571 42.8433 -1.7498
# 6 -11.6173 -11.6128 -2.1654 -1.7498 -1.7498 32.5577
#
#
#
# Elastic Compliance Matrix: (Units=1/GPa)
#
#
# Indices 1 2 3 4 5 6 
#
# 1 0.012480 -0.000605 -0.000498 0.004513 0.005960 0.004767
# 2 -0.000605 0.012481 -0.000497 0.005961 0.004513 0.004766
# 3 -0.000498 -0.000497 0.006710 0.005498 0.005498 0.000682
# 4 0.004513 0.005961 0.005498 0.033379 0.010016 0.006434
# 5 0.005960 0.004513 0.005498 0.010016 0.033378 0.006434
# 6 0.004767 0.004766 0.000682 0.006434 0.006434 0.034853
#
#
# Mechanical properties :
#
#
# Convention : Reuss Voigt Hill
#
# Bulk Modulus (GPa) = 35.12488 72.62567 53.87528
# Shear Modulus (GPa) = 34.25307 44.47043 39.36175
#
# Velocity S-wave (km/s) = 3.64383 4.15188 3.90612
# Velocity P-wave (km/s) = 5.59632 7.15095 6.42086
#
# Compressibility (1/GPa) = 0.02846985
#
# Stress axis : x y z
#
# Youngs Moduli (GPa) = 80.12535 80.11867 149.04124
#
# Poissons Ratio (x) = 0.04851 0.07422
# Poissons Ratio (y) = 0.04851 0.07413
# Poissons Ratio (z) = 0.03990 0.03985
#
# Static dielectric constant tensor:
#      x y z
#    x 4.668030 -0.469610 -0.180420 
#    y -0.469610 4.667980 -0.180410 
#    z -0.180420 -0.180410 4.808200 
# 
# 
# High freq. dielectric constant tensor:
#      x y z
#    x 2.029940 -0.027800 -0.023440 
#    y -0.027800 2.029930 -0.023440 
#    z -0.023440 -0.023440 2.032300 
# 
# From -- ./inp_files/755.got.cif
#   From: 2010.03.12/outbox.cif.g09.slc.cpg/sg1_1_cif.got.tgz:755.got - 2010.03.29 11:57:58.
