data_PCOD8000356
_publ_section_title
;
Structure prediction by ZEFSAII (Michael W. Deem and Ramdas Pophale) SiO2 
 PCOD8000356
Probable space group: P -1
;
_chemical_formula_sum "Si O2"
_cell_formula_units_Z 16
_cell_length_a 9.572704
_cell_length_b 20.077903
_cell_length_c 9.929840
_cell_angle_alpha 42.676676
_cell_angle_beta 116.239289
_cell_angle_gamma 140.469513
_cell_volume 788.158863
_symmetry_space_group_name_H-M "P -1"
_symmetry_group_IT_number 2
_symmetry_cell_setting 'triclinic'
loop_
_space_group_symop_operation_xyz
x,y,z
-x,-y,-z
loop_
_atom_site_type_symbol
_atom_site_label
_atom_site_fract_x
_atom_site_fract_y
_atom_site_fract_z
Si Si1 0.907921 0.603649 0.686649
Si Si2 0.015296 0.306595 0.890486
Si Si3 0.500382 0.276462 0.926463
Si Si4 0.258968 0.353666 0.669868
Si Si5 0.645338 0.990679 0.243253
Si Si6 0.685306 0.507649 0.017074
Si Si7 0.536750 0.147190 0.897100
Si Si8 0.415920 0.754989 0.708888
O O1 0.745184 0.445729 0.784115
O O2 0.926164 0.703830 0.440059
O O3 0.155607 0.672802 0.716872
O O4 0.794055 0.588459 0.799764
O O5 0.204999 0.383981 0.741077
O O6 0.115343 0.405436 0.917157
O O7 0.810502 0.281076 0.786099
O O8 0.909979 0.150337 0.119032
O O9 0.281925 0.248959 0.868602
O O10 0.466071 0.196633 0.898144
O O11 0.488667 0.201008 0.163917
O O12 0.500000 0.500000 0.500000
O O13 0.600464 0.899446 0.230882
O O14 0.588347 0.905673 0.479910
O O15 0.480163 0.010897 0.131889
O O16 0.569223 0.347340 0.193908
O O17 0.500000 0.500000 0.000000
#
# Coordination Sequence:
#
# PCOD8000356 Si02
#       8
#     2   2   2   2   2   2   2   2
#     4  10  21  36  59  90 118 153 199 243 293 349
#     4  10  19  39  60  82 119 158 189 241 294 347
#     4  10  20  37  58  88 119 152 193 250 296 342
#     4  10  21  37  57  85 120 153 189 241 297 346
#     4   9  22  37  60  85 119 154 200 244 286 348
#     4  11  22  38  60  90 122 152 192 251 295 348
#     4   9  19  38  60  81 119 155 201 237 292 342
#     4  11  21  38  62  89 117 153 202 241 290 353
#
# _framework density 20.300474000000001
#
# number of rings (size 3 to 8) (size 9 to 14) (size 15 to 20)
#    0.750    1.250    0.000    6.000    0.000    3.500 
#    0.000    7.500    0.000    0.000    0.000    0.000 
#    0.000    0.000    0.000    0.000    0.000    0.000 
#
# Total GULP energy -198292.899652 kJ/mol
# GULP energy per Si atom -12393.306228 kJ/mol
# Density = 2.025427 g / cm^3
# Si number density = 20.300474 Si / 1000 Ang^3
#
#
#
# Elastic Constant Matrix: (Units=GPa)
#
#
# Indices 1 2 3 4 5 6 
#
# 1 88.4246 12.7572 26.7963 9.4183 0.2883 -20.5699
# 2 12.7572 46.6421 3.2956 10.9760 -13.0271 -21.1040
# 3 26.7963 3.2956 104.7629 17.5373 -7.9453 2.1148
# 4 9.4183 10.9760 17.5373 22.6931 5.8872 -7.6389
# 5 0.2883 -13.0271 -7.9453 5.8872 30.5032 6.4419
# 6 -20.5699 -21.1040 2.1148 -7.6389 6.4419 27.7300
#
#
#
# Elastic Compliance Matrix: (Units=1/GPa)
#
#
# Indices 1 2 3 4 5 6 
#
# 1 0.015951 0.000360 -0.005408 0.003712 -0.005239 0.014758
# 2 0.000360 0.039922 0.002611 -0.018625 0.016798 0.021418
# 3 -0.005408 0.002611 0.014545 -0.016267 0.010203 -0.009985
# 4 0.003712 -0.018625 -0.016267 0.078544 -0.031343 0.018737
# 5 -0.005239 0.016798 0.010203 -0.031343 0.051341 -0.012441
# 6 0.014758 0.021418 -0.009985 0.018737 -0.012441 0.072123
#
#
# Mechanical properties :
#
#
# Convention : Reuss Voigt Hill
#
# Bulk Modulus (GPa) = 15.25646 36.16976 25.71311
# Shear Modulus (GPa) = 16.71420 29.31730 23.01575
#
# Velocity S-wave (km/s) = 2.87250 3.80434 3.37078
# Velocity P-wave (km/s) = 4.30504 6.09535 5.27668
#
# Compressibility (1/GPa) = 0.06554600
#
# Stress axis : x y z
#
# Youngs Moduli (GPa) = 62.69292 25.04865 68.75267
#
# Poissons Ratio (x) = -0.00903 0.37180
# Poissons Ratio (y) = -0.02259 -0.17954
# Poissons Ratio (z) = 0.33903 -0.06541
#
# Static dielectric constant tensor:
#      x y z
#    x 3.624240 0.036800 0.205640 
#    y 0.036800 3.615240 0.293690 
#    z 0.205640 0.293690 3.898310 
# 
# 
# High freq. dielectric constant tensor:
#      x y z
#    x 1.787810 -0.005990 -0.002580 
#    y -0.005990 1.780130 0.020590 
#    z -0.002580 0.020590 1.785980 
# 
# From -- ./inp_files/214512.got.cif
#   From: 2010.06.25/outbox.cif.g09.slc.cpg/sg2_108_cif.got.tgz:214512.got - 2010.06.27 13:26:56.
