data_PCOD8000463
_publ_section_title
;
Structure prediction by ZEFSAII (Michael W. Deem and Ramdas Pophale) SiO2 
 PCOD8000463
Probable space group: P -1
;
_chemical_formula_sum "Si O2"
_cell_formula_units_Z 16
_cell_length_a 19.465834
_cell_length_b 26.170889
_cell_length_c 9.552663
_cell_angle_alpha 29.958292
_cell_angle_beta 139.056791
_cell_angle_gamma 159.406320
_cell_volume 810.724641
_symmetry_space_group_name_H-M "P -1"
_symmetry_group_IT_number 2
_symmetry_cell_setting 'triclinic'
loop_
_space_group_symop_operation_xyz
x,y,z
-x,-y,-z
loop_
_atom_site_type_symbol
_atom_site_label
_atom_site_fract_x
_atom_site_fract_y
_atom_site_fract_z
Si Si1 0.434973 0.444260 0.375106
Si Si2 0.546645 0.075011 0.236916
Si Si3 0.862270 0.170288 0.424148
Si Si4 0.784871 0.948773 0.048642
Si Si5 0.136516 0.814098 0.170733
Si Si6 0.110163 0.493708 0.246586
Si Si7 0.015712 0.212315 0.279354
Si Si8 0.870217 0.885246 0.924899
O O1 0.500000 0.500000 0.500000
O O2 0.377070 0.279468 0.633955
O O3 0.248675 0.367894 0.251200
O O4 0.637110 0.651022 0.115589
O O5 0.695378 0.121252 0.274655
O O6 0.500000 0.000000 0.500000
O O7 0.333957 0.907527 0.222148
O O8 0.649618 0.275211 0.925496
O O9 0.054288 0.354481 0.386597
O O10 0.974749 0.249708 0.261303
O O11 0.745392 0.973356 0.779404
O O12 0.012163 0.091766 0.052503
O O13 0.778297 0.021059 0.995613
O O14 0.967685 0.602777 0.490258
O O15 0.038787 0.769614 0.983429
O O16 0.000000 0.500000 0.000000
O O17 0.861793 0.988565 0.594652
O O18 0.000000 0.000000 0.000000
#
# Coordination Sequence:
#
# PCOD8000463 Si02
#       8
#     2   2   2   2   2   2   2   2
#     4  11  20  37  64  88 118 164 201 246 303 358
#     4  11  20  39  66  89 117 160 206 249 298 355
#     4  10  19  39  62  91 119 161 206 250 290 359
#     4  10  20  37  61  90 119 158 208 246 294 360
#     4  11  24  40  59  92 128 158 196 257 302 349
#     4   9  19  38  62  84 113 154 209 246 284 360
#     4  11  24  40  58  92 131 153 199 255 302 351
#     4  11  20  39  60  89 122 151 203 253 289 363
#
# _framework density 19.735430999999998
#
# number of rings (size 3 to 8) (size 9 to 14) (size 15 to 20)
#    0.000    1.500    7.500    0.000    0.000    6.500 
#    2.250    3.750    0.000    0.000    0.000    0.000 
#    0.000    0.000    0.000    0.000    0.000    0.000 
#
# Total GULP energy -198261.425940 kJ/mol
# GULP energy per Si atom -12391.339121 kJ/mol
# Density = 1.969051 g / cm^3
# Si number density = 19.735431 Si / 1000 Ang^3
#
#
#
# Elastic Constant Matrix: (Units=GPa)
#
#
# Indices 1 2 3 4 5 6 
#
# 1 69.2035 24.9923 38.0708 -5.9791 0.9035 5.0171
# 2 24.9923 106.5909 71.6173 -6.7518 -9.3357 14.7598
# 3 38.0708 71.6173 146.6302 -6.8444 -12.6920 3.7357
# 4 -5.9791 -6.7518 -6.8444 48.2081 1.1143 -9.7039
# 5 0.9035 -9.3357 -12.6920 1.1143 25.8466 4.3034
# 6 5.0171 14.7598 3.7357 -9.7039 4.3034 21.1827
#
#
#
# Elastic Compliance Matrix: (Units=1/GPa)
#
#
# Indices 1 2 3 4 5 6 
#
# 1 0.017388 -0.001388 -0.003999 0.001199 -0.002907 -0.001306
# 2 -0.001388 0.016252 -0.006967 -0.001249 0.004423 -0.011238
# 3 -0.003999 -0.006967 0.011431 0.000823 0.002596 0.003635
# 4 0.001199 -0.001249 0.000823 0.023263 -0.003043 0.011716
# 5 -0.002907 0.004423 0.002596 -0.003043 0.043990 -0.013182
# 6 -0.001306 -0.011238 0.003635 0.011716 -0.013182 0.062753
#
#
# Mechanical properties :
#
#
# Convention : Reuss Voigt Hill
#
# Bulk Modulus (GPa) = 49.10612 65.75393 57.43002
# Shear Modulus (GPa) = 24.20467 31.56375 27.88421
#
# Velocity S-wave (km/s) = 3.50588 4.00352 3.76294
# Velocity P-wave (km/s) = 6.42841 7.40006 6.93128
#
# Compressibility (1/GPa) = 0.02036406
#
# Stress axis : x y z
#
# Youngs Moduli (GPa) = 57.51249 61.52944 87.47770
#
# Poissons Ratio (x) = 0.08538 0.34983
# Poissons Ratio (y) = 0.07981 0.60945
# Poissons Ratio (z) = 0.23000 0.42867
#
# Static dielectric constant tensor:
#      x y z
#    x 3.482580 0.099860 0.182140 
#    y 0.099860 3.515480 -0.196490 
#    z 0.182140 -0.196490 3.813750 
# 
# 
# High freq. dielectric constant tensor:
#      x y z
#    x 1.763570 0.019990 0.009690 
#    y 0.019990 1.747980 -0.013560 
#    z 0.009690 -0.013560 1.778940 
# 
# From -- ./inp_files/350238.got.cif
#   From: 2010.06.25/outbox.cif.g09.slc.cpg/sg2_176_cif.got.tgz:350238.got - 2010.06.27 13:26:56.
