data_PCOD8000623
_publ_section_title
;
Structure prediction by ZEFSAII (Michael W. Deem and Ramdas Pophale) SiO2 
 PCOD8000623
Probable space group: P -1
;
_chemical_formula_sum "Si O2"
_cell_formula_units_Z 14
_cell_length_a 9.379790
_cell_length_b 9.073643
_cell_length_c 11.482665
_cell_angle_alpha 140.315701
_cell_angle_beta 94.304914
_cell_angle_gamma 90.614400
_cell_volume 618.675877
_symmetry_space_group_name_H-M "P -1"
_symmetry_group_IT_number 2
_symmetry_cell_setting 'triclinic'
loop_
_space_group_symop_operation_xyz
x,y,z
-x,-y,-z
loop_
_atom_site_type_symbol
_atom_site_label
_atom_site_fract_x
_atom_site_fract_y
_atom_site_fract_z
Si Si1 0.651382 0.655258 0.728440
Si Si2 0.288020 0.091848 0.455686
Si Si3 0.561361 0.864218 0.286135
Si Si4 0.851560 0.101971 0.024951
Si Si5 0.134224 0.671331 0.075187
Si Si6 0.681753 0.418318 0.351993
Si Si7 0.364633 0.440437 0.077897
O O1 0.687258 0.464757 0.519823
O O2 0.482101 0.674609 0.746249
O O3 0.710808 0.587050 0.817478
O O4 0.733892 0.901482 0.847152
O O5 0.303240 0.043934 0.567058
O O6 0.262148 0.350388 0.575268
O O7 0.441593 0.042854 0.378308
O O8 0.153164 0.917209 0.295307
O O9 0.505785 0.623770 0.204345
O O10 0.604358 0.811899 0.123735
O O11 0.877598 0.290594 0.039796
O O12 0.787688 0.225044 0.208588
O O13 0.000000 0.000000 0.000000
O O14 0.270544 0.540608 0.032781
O O15 0.000000 0.500000 0.000000
#
# Coordination Sequence:
#
# PCOD8000623 Si02
#       7
#     2   2   2   2   2   2   2
#     4  11  24  43  71 109 140 181 231 289 351 420
#     4  10  19  39  65  98 138 174 223 289 342 417
#     4   9  19  34  64 101 135 171 219 283 351 398
#     4  12  27  48  71  98 144 190 235 285 348 421
#     4  11  24  44  68  95 136 184 236 281 342 419
#     4  11  24  44  72 105 142 181 234 289 352 413
#     4  10  20  38  68  96 136 175 223 284 340 410
#
# _framework density 22.628973999999999
#
# number of rings (size 3 to 8) (size 9 to 14) (size 15 to 20)
#    0.000    1.429    2.857    2.143    4.000    2.857 
#    0.000    2.857    0.000    0.000    0.000    0.000 
#    0.000    0.000    0.000    0.000    0.000    0.000 
#
# Total GULP energy -173555.612742 kJ/mol
# GULP energy per Si atom -12396.829482 kJ/mol
# Density = 2.257747 g / cm^3
# Si number density = 22.628974 Si / 1000 Ang^3
#
#
#
# Elastic Constant Matrix: (Units=GPa)
#
#
# Indices 1 2 3 4 5 6 
#
# 1 98.9528 43.0676 61.4667 3.6783 0.8881 3.5967
# 2 43.0676 101.8801 28.3197 -20.6671 -4.1771 1.7371
# 3 61.4667 28.3197 131.5150 -12.0497 -13.1113 -1.3930
# 4 3.6783 -20.6671 -12.0497 37.0797 4.0974 3.1608
# 5 0.8881 -4.1771 -13.1113 4.0974 39.8871 10.4241
# 6 3.5967 1.7371 -1.3930 3.1608 10.4241 33.1403
#
#
#
# Elastic Compliance Matrix: (Units=1/GPa)
#
#
# Indices 1 2 3 4 5 6 
#
# 1 0.018845 -0.007486 -0.008264 -0.008375 -0.002992 -0.000260
# 2 -0.007486 0.014563 0.001347 0.009237 0.001513 -0.001251
# 3 -0.008264 0.001347 0.012022 0.005083 0.003850 -0.000364
# 4 -0.008375 0.009237 0.005083 0.034833 -0.000057 -0.002666
# 5 -0.002992 0.001513 0.003850 -0.000057 0.028829 -0.008655
# 6 -0.000260 -0.001251 -0.000364 -0.002666 -0.008655 0.033230
#
#
# Mechanical properties :
#
#
# Convention : Reuss Voigt Hill
#
# Bulk Modulus (GPa) = 60.15860 66.45063 63.30462
# Shear Modulus (GPa) = 28.30140 35.32102 31.81121
#
# Velocity S-wave (km/s) = 3.54032 3.95508 3.75343
# Velocity P-wave (km/s) = 6.58440 7.09125 6.84252
#
# Compressibility (1/GPa) = 0.01662273
#
# Stress axis : x y z
#
# Youngs Moduli (GPa) = 53.06415 68.66806 83.18308
#
# Poissons Ratio (x) = 0.51407 0.68742
# Poissons Ratio (y) = 0.39725 -0.11204
# Poissons Ratio (z) = 0.43852 -0.09249
#
# Static dielectric constant tensor:
#      x y z
#    x 3.045230 0.193240 -0.382750 
#    y 0.193240 3.847290 0.091280 
#    z -0.382750 0.091280 3.949110 
# 
# 
# High freq. dielectric constant tensor:
#      x y z
#    x 1.852970 -0.001900 0.011620 
#    y -0.001900 1.889520 -0.005560 
#    z 0.011620 -0.005560 1.909550 
# 
# From -- ./inp_files/383697.got.cif
#   From: 2010.06.25/outbox.cif.g09.slc.cpg/sg2_192_cif.got.tgz:383697.got - 2010.06.27 13:26:56.
