data_PCOD8000406
_publ_section_title
;
Structure prediction by ZEFSAII (Michael W. Deem and Ramdas Pophale) SiO2 
 PCOD8000406
Probable space group: P -1
;
_chemical_formula_sum "Si O2"
_cell_formula_units_Z 16
_cell_length_a 31.544480
_cell_length_b 15.219164
_cell_length_c 19.412100
_cell_angle_alpha 19.132008
_cell_angle_beta 162.025782
_cell_angle_gamma 161.446423
_cell_volume 822.626871
_symmetry_space_group_name_H-M "P -1"
_symmetry_group_IT_number 2
_symmetry_cell_setting 'triclinic'
loop_
_space_group_symop_operation_xyz
x,y,z
-x,-y,-z
loop_
_atom_site_type_symbol
_atom_site_label
_atom_site_fract_x
_atom_site_fract_y
_atom_site_fract_z
Si Si1 0.313644 0.779492 0.178866
Si Si2 0.217960 0.574990 0.034574
Si Si3 0.013865 0.263310 0.147111
Si Si4 0.876625 0.282271 0.777839
Si Si5 0.386021 0.217119 0.345803
Si Si6 0.508754 0.914766 0.999250
Si Si7 0.129110 0.138629 0.656083
Si Si8 0.650474 0.800984 0.536201
O O1 0.324518 0.732021 0.149906
O O2 0.489317 0.903403 0.387146
O O3 0.197344 0.435712 0.282534
O O4 0.258124 0.028393 0.926475
O O5 0.208449 0.249599 0.238890
O O6 0.039360 0.494815 0.831179
O O7 0.311094 0.844196 0.923108
O O8 0.955137 0.956534 0.328441
O O9 0.907096 0.186529 0.970860
O O10 0.000000 0.500000 0.000000
O O11 0.791892 0.492211 0.499163
O O12 0.767265 0.975137 0.794918
O O13 0.473356 0.567953 0.196652
O O14 0.331321 0.170500 0.374817
O O15 0.500000 0.000000 0.000000
O O16 0.369279 0.924100 0.731563
O O17 0.000000 0.000000 0.500000
O O18 0.500000 0.500000 0.500000
#
# Coordination Sequence:
#
# PCOD8000406 Si02
#       8
#     2   2   2   2   2   2   2   2
#     4  10  20  37  65  91 118 166 211 250 291 374
#     4  10  19  40  65  89 117 166 213 242 293 377
#     4   9  19  39  62  85 116 158 213 248 285 372
#     4  11  25  40  61  95 129 157 200 265 313 346
#     4  12  24  39  60  98 130 151 202 267 310 348
#     4  11  20  38  67  87 118 170 210 241 301 372
#     4  11  20  40  67  88 120 166 211 247 303 367
#     4  10  19  39  61  88 124 155 209 249 292 372
#
# _framework density 19.449888000000001
#
# number of rings (size 3 to 8) (size 9 to 14) (size 15 to 20)
#    0.000    1.500    8.750    0.000    1.750    2.000 
#    0.000    3.125    0.000    0.000    0.000    0.000 
#    0.000    0.000    0.000    0.000    0.000    0.000 
#
# Total GULP energy -198250.211029 kJ/mol
# GULP energy per Si atom -12390.638189 kJ/mol
# Density = 1.940562 g / cm^3
# Si number density = 19.449888 Si / 1000 Ang^3
#
#
#
# Elastic Constant Matrix: (Units=GPa)
#
#
# Indices 1 2 3 4 5 6 
#
# 1 120.1978 41.3366 42.3172 5.8107 -17.6075 1.0992
# 2 41.3366 81.3643 33.9256 7.7503 -9.6771 -10.1360
# 3 42.3172 33.9256 99.3530 -4.7089 1.7702 1.0695
# 4 5.8107 7.7503 -4.7089 25.1437 -2.8709 -5.9987
# 5 -17.6075 -9.6771 1.7702 -2.8709 34.9078 -2.1614
# 6 1.0992 -10.1360 1.0695 -5.9987 -2.1614 26.7556
#
#
#
# Elastic Compliance Matrix: (Units=1/GPa)
#
#
# Indices 1 2 3 4 5 6 
#
# 1 0.011842 -0.003846 -0.003900 -0.002183 0.004808 -0.001889
# 2 -0.003846 0.017764 -0.004725 -0.003526 0.003340 0.006556
# 3 -0.003900 -0.004725 0.013617 0.004112 -0.003725 -0.001553
# 4 -0.002183 -0.003526 0.004112 0.044427 0.001905 0.008704
# 5 0.004808 0.003340 -0.003725 0.001905 0.032609 0.004278
# 6 -0.001889 0.006556 -0.001553 0.008704 0.004278 0.042296
#
#
# Mechanical properties :
#
#
# Convention : Reuss Voigt Hill
#
# Bulk Modulus (GPa) = 54.69522 59.56378 57.12950
# Shear Modulus (GPa) = 25.82765 29.58380 27.70573
#
# Velocity S-wave (km/s) = 3.64800 3.90427 3.77831
# Velocity P-wave (km/s) = 6.77687 7.14249 6.96208
#
# Compressibility (1/GPa) = 0.01828313
#
# Stress axis : x y z
#
# Youngs Moduli (GPa) = 84.44299 56.29259 73.43508
#
# Poissons Ratio (x) = 0.21650 0.28636
# Poissons Ratio (y) = 0.32476 0.34698
# Poissons Ratio (z) = 0.32929 0.26599
#
# Static dielectric constant tensor:
#      x y z
#    x 3.281780 -0.073350 -0.619410 
#    y -0.073350 3.276770 -0.725380 
#    z -0.619410 -0.725380 4.414580 
# 
# 
# High freq. dielectric constant tensor:
#      x y z
#    x 1.772420 0.004870 0.000960 
#    y 0.004870 1.717180 -0.007370 
#    z 0.000960 -0.007370 1.761690 
# 
# From -- ./inp_files/492516.got.cif
#   From: 2010.06.25/outbox.cif.g09.slc.cpg/sg2_247_cif.got.tgz:492516.got - 2010.06.27 13:26:56.
