data_PCOD8000565
_publ_section_title
;
Structure prediction by ZEFSAII (Michael W. Deem and Ramdas Pophale) SiO2 
 PCOD8000565
Probable space group: P -1
;
_chemical_formula_sum "Si O2"
_cell_formula_units_Z 14
_cell_length_a 6.880679
_cell_length_b 14.459704
_cell_length_c 12.050723
_cell_angle_alpha 137.825674
_cell_angle_beta 55.338807
_cell_angle_gamma 110.736817
_cell_volume 657.157554
_symmetry_space_group_name_H-M "P -1"
_symmetry_group_IT_number 2
_symmetry_cell_setting 'triclinic'
loop_
_space_group_symop_operation_xyz
x,y,z
-x,-y,-z
loop_
_atom_site_type_symbol
_atom_site_label
_atom_site_fract_x
_atom_site_fract_y
_atom_site_fract_z
Si Si1 0.193738 0.969397 0.313712
Si Si2 0.516956 0.381266 0.481439
Si Si3 0.998815 0.557416 0.220886
Si Si4 0.491617 0.095213 0.481650
Si Si5 0.019069 0.290124 0.854676
Si Si6 0.129754 0.710557 0.530551
Si Si7 0.663356 0.868770 0.781628
O O1 0.168188 0.815407 0.139906
O O2 0.451320 0.989956 0.299590
O O3 0.160654 0.081135 0.325124
O O4 0.000000 0.000000 0.500000
O O5 0.500000 0.500000 0.500000
O O6 0.285133 0.405011 0.654170
O O7 0.748825 0.375827 0.480886
O O8 0.524073 0.230849 0.288503
O O9 0.097937 0.630497 0.145622
O O10 0.116169 0.603024 0.337070
O O11 0.053285 0.391622 0.037206
O O12 0.726452 0.164992 0.444055
O O13 0.274316 0.215047 0.670992
O O14 0.500000 0.000000 0.500000
O O15 0.862301 0.779313 0.715245
O O16 0.500000 0.000000 0.000000
#
# Coordination Sequence:
#
# PCOD8000565 Si02
#       7
#     2   2   2   2   2   2   2
#     4  10  19  39  64  91 132 168 206 271 332 385
#     4  11  24  45  66  88 131 179 223 270 330 389
#     4  10  22  40  62  93 131 171 215 270 322 390
#     4  11  19  35  61  99 126 169 211 263 340 399
#     4  10  20  38  62  96 136 164 213 272 320 389
#     4  11  21  43  67  90 133 175 219 266 333 394
#     4  11  25  43  67  99 130 171 223 281 330 395
#
# _framework density 21.303871000000001
#
# number of rings (size 3 to 8) (size 9 to 14) (size 15 to 20)
#    0.000    1.429    2.857    5.143    2.000    3.429 
#    2.571    0.000    0.000    0.000    0.000    0.000 
#    0.000    0.000    0.000    0.000    0.000    0.000 
#
# Total GULP energy -173477.678241 kJ/mol
# GULP energy per Si atom -12391.262731 kJ/mol
# Density = 2.125538 g / cm^3
# Si number density = 21.303871 Si / 1000 Ang^3
#
#
#
# Elastic Constant Matrix: (Units=GPa)
#
#
# Indices 1 2 3 4 5 6 
#
# 1 147.1738 40.7512 52.8744 11.4048 19.7723 -10.5140
# 2 40.7512 111.6761 37.8572 18.5211 17.5026 -14.4340
# 3 52.8744 37.8572 103.9855 20.0698 16.0172 9.6949
# 4 11.4048 18.5211 20.0698 30.9455 9.8739 5.1597
# 5 19.7723 17.5026 16.0172 9.8739 24.9756 5.5856
# 6 -10.5140 -14.4340 9.6949 5.1597 5.5856 36.7840
#
#
#
# Elastic Compliance Matrix: (Units=1/GPa)
#
#
# Indices 1 2 3 4 5 6 
#
# 1 0.009524 -0.000727 -0.004269 0.000747 -0.005551 0.004300
# 2 -0.000727 0.013009 -0.003180 -0.004671 -0.006298 0.007347
# 3 -0.004269 -0.003180 0.014472 -0.004818 -0.000533 -0.005525
# 4 0.000747 -0.004671 -0.004818 0.041850 -0.009712 -0.004745
# 5 -0.005551 -0.006298 -0.000533 -0.009712 0.055484 -0.010980
# 6 0.004300 0.007347 -0.005525 -0.004745 -0.010980 0.035087
#
#
# Mechanical properties :
#
#
# Convention : Reuss Voigt Hill
#
# Bulk Modulus (GPa) = 48.41386 69.53344 58.97365
# Shear Modulus (GPa) = 25.95225 33.96454 29.95840
#
# Velocity S-wave (km/s) = 3.49405 3.99719 3.75406
# Velocity P-wave (km/s) = 6.24921 7.34936 6.82150
#
# Compressibility (1/GPa) = 0.02065524
#
# Stress axis : x y z
#
# Youngs Moduli (GPa) = 104.99273 76.87044 69.09875
#
# Poissons Ratio (x) = 0.05586 0.29495
# Poissons Ratio (y) = 0.07630 0.21972
# Poissons Ratio (z) = 0.44817 0.24443
#
# Static dielectric constant tensor:
#      x y z
#    x 3.984940 0.219180 0.394450 
#    y 0.219180 4.153790 0.363890 
#    z 0.394450 0.363890 3.849710 
# 
# 
# High freq. dielectric constant tensor:
#      x y z
#    x 1.834070 0.004150 0.016120 
#    y 0.004150 1.841330 0.019920 
#    z 0.016120 0.019920 1.819010 
# 
# From -- ./inp_files/258733.got.cif
#   From: 2010.06.25/outbox.cif.g09.slc.cpg/sg2_130_cif.got.tgz:258733.got - 2010.06.27 13:26:56.
