data_PCOD8000989
_publ_section_title
;
Structure prediction by ZEFSAII (Michael W. Deem and Ramdas Pophale) SiO2 
 PCOD8000989
Probable space group: P -1
;
_chemical_formula_sum "Si O2"
_cell_formula_units_Z 16
_cell_length_a 10.781218
_cell_length_b 14.372520
_cell_length_c 9.775420
_cell_angle_alpha 139.890862
_cell_angle_beta 116.256079
_cell_angle_gamma 85.847066
_cell_volume 776.970163
_symmetry_space_group_name_H-M "P -1"
_symmetry_group_IT_number 2
_symmetry_cell_setting 'triclinic'
loop_
_space_group_symop_operation_xyz
x,y,z
-x,-y,-z
loop_
_atom_site_type_symbol
_atom_site_label
_atom_site_fract_x
_atom_site_fract_y
_atom_site_fract_z
Si Si1 0.470628 0.178906 0.420990
Si Si2 0.874316 0.587633 0.422611
Si Si3 0.550803 0.362995 0.393756
Si Si4 0.907401 0.552461 0.706555
Si Si5 0.859473 0.903640 0.723409
Si Si6 0.410189 0.070219 0.794149
Si Si7 0.852629 0.120171 0.730923
Si Si8 0.374869 0.750905 0.141632
O O1 0.522549 0.314882 0.483397
O O2 0.289379 0.106778 0.281619
O O3 0.569957 0.266696 0.701139
O O4 0.508980 0.035313 0.227264
O O5 0.925465 0.632517 0.655244
O O6 0.848825 0.727372 0.492486
O O7 0.002247 0.556982 0.366779
O O8 0.709900 0.426540 0.165226
O O9 0.500000 0.500000 0.500000
O O10 0.731926 0.431537 0.525248
O O11 0.439211 0.208990 0.073602
O O12 0.988350 0.709821 0.023928
O O13 0.885542 0.991047 0.687648
O O14 0.000000 0.000000 0.000000
O O15 0.478524 0.140609 0.757780
O O16 0.225874 0.957225 0.542057
O O17 0.738135 0.165683 0.816376
#
# Coordination Sequence:
#
# PCOD8000989 Si02
#       8
#     2   2   2   2   2   2   2   2
#     4  11  24  41  64  98 130 165 208 262 319 384
#     4  10  21  34  63  95 120 168 210 261 311 364
#     4  12  27  43  63  93 134 171 209 257 323 385
#     4  10  21  41  61  86 129 169 210 250 316 381
#     4  12  22  33  61 100 129 151 212 269 313 361
#     4  11  21  43  67  92 124 174 213 261 311 376
#     4  10  20  39  65  94 124 160 214 267 311 363
#     4  10  19  40  68  93 122 166 220 260 310 370
#
# _framework density 20.592813
#
# number of rings (size 3 to 8) (size 9 to 14) (size 15 to 20)
#    0.000    1.250    5.000    1.875    1.750    1.500 
#    0.000    6.250    0.000    0.000    0.000    0.000 
#    0.000    0.000    0.000    0.000    0.000    0.000 
#
# Total GULP energy -198436.281607 kJ/mol
# GULP energy per Si atom -12402.267600 kJ/mol
# Density = 2.054594 g / cm^3
# Si number density = 20.592813 Si / 1000 Ang^3
#
#
#
# Elastic Constant Matrix: (Units=GPa)
#
#
# Indices 1 2 3 4 5 6 
#
# 1 46.3424 25.9754 25.9948 -0.2199 9.4011 -12.4192
# 2 25.9754 120.8849 32.5774 3.0171 -7.3766 -20.7228
# 3 25.9948 32.5774 132.3358 4.6896 13.5350 -16.0924
# 4 -0.2199 3.0171 4.6896 29.2860 -4.6397 -4.5626
# 5 9.4011 -7.3766 13.5350 -4.6397 27.9984 3.7294
# 6 -12.4192 -20.7228 -16.0924 -4.5626 3.7294 35.2685
#
#
#
# Elastic Compliance Matrix: (Units=1/GPa)
#
#
# Indices 1 2 3 4 5 6 
#
# 1 0.030284 -0.005183 -0.002614 0.000604 -0.011194 0.007688
# 2 -0.005183 0.010705 -0.001763 0.000438 0.005062 0.003181
# 3 -0.002614 -0.001763 0.009365 -0.001683 -0.004739 0.002599
# 4 0.000604 0.000438 -0.001683 0.035931 0.006188 0.003696
# 5 -0.011194 0.005062 -0.004739 0.006188 0.045070 -0.007095
# 6 0.007688 0.003181 0.002599 0.003696 -0.007095 0.035345
#
#
# Mechanical properties :
#
#
# Convention : Reuss Voigt Hill
#
# Bulk Modulus (GPa) = 32.01916 52.07317 42.04616
# Shear Modulus (GPa) = 25.48004 32.84493 29.16249
#
# Velocity S-wave (km/s) = 3.52138 3.99804 3.76726
# Velocity P-wave (km/s) = 5.66709 6.83040 6.27576
#
# Compressibility (1/GPa) = 0.03123130
#
# Stress axis : x y z
#
# Youngs Moduli (GPa) = 33.02058 93.41757 106.78442
#
# Poissons Ratio (x) = 0.48420 0.27919
# Poissons Ratio (y) = 0.17115 0.18831
# Poissons Ratio (z) = 0.08633 0.16474
#
# Static dielectric constant tensor:
#      x y z
#    x 3.603510 -0.323390 0.141900 
#    y -0.323390 3.809500 0.118730 
#    z 0.141900 0.118730 3.945490 
# 
# 
# High freq. dielectric constant tensor:
#      x y z
#    x 1.781060 -0.020530 0.013740 
#    y -0.020530 1.800840 0.006260 
#    z 0.013740 0.006260 1.823040 
# 
# From -- ./inp_files/263601.got.cif
#   From: 2010.06.25/outbox.cif.g09.slc.cpg/sg2_132_cif.got.tgz:263601.got - 2010.06.27 13:26:56.
