data_PCOD8000277
_publ_section_title
;
Structure prediction by ZEFSAII (Michael W. Deem and Ramdas Pophale) SiO2 
 PCOD8000277
Probable space group: P 1
;
_chemical_formula_sum "Si O2"
_cell_formula_units_Z 4
_cell_length_a 5.856101
_cell_length_b 4.744072
_cell_length_c 5.853661
_cell_angle_alpha 90.000518
_cell_angle_beta 86.076886
_cell_angle_gamma 90.002737
_cell_volume 162.243963
_symmetry_space_group_name_H-M "P 1"
_symmetry_group_IT_number 1
_symmetry_cell_setting 'triclinic'
loop_
_space_group_symop_operation_xyz
x,y,z
loop_
_atom_site_type_symbol
_atom_site_label
_atom_site_fract_x
_atom_site_fract_y
_atom_site_fract_z
Si Si1 0.678420 0.752560 0.575920
Si Si2 0.355050 0.484386 0.251621
Si Si3 0.982720 0.252592 0.623447
Si Si4 0.306116 0.984377 0.947694
O O1 0.580519 0.617424 0.350612
O O2 0.819031 0.512617 0.702062
O O3 0.842084 0.012625 0.497325
O O4 0.474562 0.865787 0.745224
O O5 0.186532 0.365873 0.454095
O O6 0.433135 0.227513 0.084163
O O7 0.228042 0.727542 0.115175
O O8 0.080661 0.117461 0.848742
#
# Coordination Sequence:
#
# PCOD8000277 Si02
#       4
#     1   1   1   1
#     4  12  26  48  74 104 144 186 234 292 350 416
#     4  12  26  48  74 104 144 186 234 292 350 416
#     4  12  26  48  74 104 144 186 234 292 350 416
#     4  12  26  48  74 104 144 186 234 292 350 416
#
# _framework density 24.654230999999999
#
# number of rings (size 3 to 8) (size 9 to 14) (size 15 to 20)
#    0.000    0.000    0.000   12.000    0.000    8.000 
#    0.000   10.000    0.000    0.000    0.000    0.000 
#    0.000    0.000    0.000    0.000    0.000    0.000 
#
# Total GULP energy -49623.197094 kJ/mol
# GULP energy per Si atom -12405.799273 kJ/mol
# Density = 2.459812 g / cm^3
# Si number density = 24.654231 Si / 1000 Ang^3
#
#
#
# Elastic Constant Matrix: (Units=GPa)
#
#
# Indices 1 2 3 4 5 6 
#
# 1 75.0955 34.9699 10.5202 -0.0099 13.4888 0.0156
# 2 34.9699 176.4348 32.5699 -0.0179 12.9546 -0.0025
# 3 10.5202 32.5699 72.2307 -0.0200 13.5698 -0.0029
# 4 -0.0099 -0.0179 -0.0200 70.6022 -0.0010 5.1375
# 5 13.4888 12.9546 13.5698 -0.0010 15.6004 -0.0007
# 6 0.0156 -0.0025 -0.0029 5.1375 -0.0007 70.9168
#
#
#
# Elastic Compliance Matrix: (Units=1/GPa)
#
#
# Indices 1 2 3 4 5 6 
#
# 1 0.016749 -0.002562 0.001239 0.000002 -0.013432 -0.000004
# 2 -0.002562 0.006714 -0.002418 0.000001 -0.001257 0.000001
# 3 0.001239 -0.002418 0.017426 0.000004 -0.014221 0.000000
# 4 0.000002 0.000001 0.000004 0.014239 -0.000005 -0.001032
# 5 -0.013432 -0.001257 -0.014221 -0.000005 0.089128 0.000004
# 6 -0.000004 0.000001 0.000000 -0.001032 0.000004 0.014176
#
#
# Mechanical properties :
#
#
# Convention : Reuss Voigt Hill
#
# Bulk Modulus (GPa) = 29.93401 53.32011 41.62706
# Shear Modulus (GPa) = 28.24058 47.80393 38.02226
#
# Velocity S-wave (km/s) = 3.38814 4.40816 3.93137
# Velocity P-wave (km/s) = 5.24156 6.89806 6.12606
#
# Compressibility (1/GPa) = 0.03340682
#
# Stress axis : x y z
#
# Youngs Moduli (GPa) = 59.70666 148.93494 57.38483
#
# Poissons Ratio (x) = 0.38160 -0.07112
# Poissons Ratio (y) = 0.15298 0.13878
# Poissons Ratio (z) = -0.07400 0.36017
#
# Static dielectric constant tensor:
#      x y z
#    x 4.326760 0.000120 0.299320 
#    y 0.000120 5.651690 -0.000590 
#    z 0.299320 -0.000590 4.335340 
# 
# 
# High freq. dielectric constant tensor:
#      x y z
#    x 1.972070 0.000000 0.014230 
#    y 0.000000 2.021880 0.000000 
#    z 0.014230 0.000000 1.972190 
# 
# From -- ./inp_files/22.got.cif
#   From: 2010.03.12/outbox.cif.g09.slc.cpg/sg1_1_cif.got.tgz:22.got - 2010.03.29 11:57:58.
