data_PCOD8000632
_publ_section_title
;
Structure prediction by ZEFSAII (Michael W. Deem and Ramdas Pophale) SiO2 
 PCOD8000632
Probable space group: P -1
;
_chemical_formula_sum "Si O2"
_cell_formula_units_Z 16
_cell_length_a 8.837798
_cell_length_b 15.671963
_cell_length_c 12.456059
_cell_angle_alpha 27.383169
_cell_angle_beta 88.322718
_cell_angle_gamma 79.465080
_cell_volume 745.577616
_symmetry_space_group_name_H-M "P -1"
_symmetry_group_IT_number 2
_symmetry_cell_setting 'triclinic'
loop_
_space_group_symop_operation_xyz
x,y,z
-x,-y,-z
loop_
_atom_site_type_symbol
_atom_site_label
_atom_site_fract_x
_atom_site_fract_y
_atom_site_fract_z
Si Si1 0.966788 0.299961 0.718444
Si Si2 0.575444 0.918396 0.702005
Si Si3 0.624887 0.315666 0.642230
Si Si4 0.078458 0.921377 0.830923
Si Si5 0.154909 0.951049 0.478005
Si Si6 0.468482 0.262550 0.494614
Si Si7 0.252051 0.080898 0.809725
Si Si8 0.356963 0.681016 0.941342
O O1 0.800567 0.333190 0.623907
O O2 0.000000 0.500000 0.500000
O O3 0.112490 0.141517 0.832112
O O4 0.964774 0.218984 0.927469
O O5 0.508426 0.737470 0.923679
O O6 0.500000 0.000000 0.500000
O O7 0.768119 0.871068 0.732001
O O8 0.530669 0.067165 0.638786
O O9 0.500000 0.500000 0.500000
O O10 0.594917 0.300383 0.532628
O O11 0.618385 0.122678 0.922044
O O12 0.195592 0.779097 0.901597
O O13 0.173232 0.053967 0.729427
O O14 0.912935 0.069675 0.615568
O O15 0.302120 0.756749 0.734539
O O16 0.000000 0.000000 0.500000
O O17 0.332351 0.244778 0.600181
O O18 0.403486 0.446227 0.209237
#
# Coordination Sequence:
#
# PCOD8000632 Si02
#       8
#     2   2   2   2   2   2   2   2
#     4  11  24  40  63  96 139 176 223 274 330 401
#     4  10  23  41  66  93 128 166 218 270 334 383
#     4  11  24  41  64 100 134 176 230 275 326 403
#     4  10  19  39  66  87 129 175 209 272 332 380
#     4   9  21  39  68  90 122 167 212 268 330 390
#     4  12  24  40  72  93 134 178 214 276 340 386
#     4  11  23  42  64  94 134 177 224 270 333 402
#     4  10  21  43  64  96 126 165 224 269 331 400
#
# _framework density 21.459872000000001
#
# number of rings (size 3 to 8) (size 9 to 14) (size 15 to 20)
#    0.000    1.500    1.250    4.875    3.500    3.000 
#    0.000    0.625    5.500    0.000    0.000    0.000 
#    0.000    0.000    0.000    0.000    0.000    0.000 
#
# Total GULP energy -198213.943139 kJ/mol
# GULP energy per Si atom -12388.371446 kJ/mol
# Density = 2.141103 g / cm^3
# Si number density = 21.459872 Si / 1000 Ang^3
#
#
#
# Elastic Constant Matrix: (Units=GPa)
#
#
# Indices 1 2 3 4 5 6 
#
# 1 124.8494 25.3060 59.3730 7.0948 -4.9580 -4.3244
# 2 25.3060 78.2376 21.2805 7.1525 10.4200 8.7666
# 3 59.3730 21.2805 120.0577 3.5422 -1.0266 17.1641
# 4 7.0948 7.1525 3.5422 34.3457 6.9314 7.5168
# 5 -4.9580 10.4200 -1.0266 6.9314 30.6606 10.4080
# 6 -4.3244 8.7666 17.1641 7.5168 10.4080 39.0630
#
#
#
# Elastic Compliance Matrix: (Units=1/GPa)
#
#
# Indices 1 2 3 4 5 6 
#
# 1 0.011719 -0.002684 -0.005878 -0.002583 0.001654 0.004539
# 2 -0.002684 0.014858 -0.001071 -0.001111 -0.004692 -0.001697
# 3 -0.005878 -0.001071 0.012340 0.001240 0.001767 -0.006542
# 4 -0.002583 -0.001111 0.001240 0.032008 -0.005438 -0.005292
# 5 0.001654 -0.004692 0.001767 -0.005438 0.038760 -0.008821
# 6 0.004539 -0.001697 -0.006542 -0.005292 -0.008821 0.032726
#
#
# Mechanical properties :
#
#
# Convention : Reuss Voigt Hill
#
# Bulk Modulus (GPa) = 50.89090 59.45152 55.17121
# Shear Modulus (GPa) = 29.72165 35.29286 32.50726
#
# Velocity S-wave (km/s) = 3.72558 4.05976 3.89626
# Velocity P-wave (km/s) = 6.50173 7.05261 6.78277
#
# Compressibility (1/GPa) = 0.01964988
#
# Stress axis : x y z
#
# Youngs Moduli (GPa) = 85.33308 67.30515 81.03802
#
# Poissons Ratio (x) = 0.18067 0.47635
# Poissons Ratio (y) = 0.22906 0.08677
# Poissons Ratio (z) = 0.50160 0.07207
#
# Static dielectric constant tensor:
#      x y z
#    x 4.665980 -0.103620 -0.159230 
#    y -0.103620 4.577940 0.443100 
#    z -0.159230 0.443100 4.053360 
# 
# 
# High freq. dielectric constant tensor:
#      x y z
#    x 1.863330 0.003220 -0.010740 
#    y 0.003220 1.839820 0.024590 
#    z -0.010740 0.024590 1.828190 
# 
# From -- ./inp_files/313308.got.cif
#   From: 2010.06.25/outbox.cif.g09.slc.cpg/sg2_157_cif.got.tgz:313308.got - 2010.06.27 13:26:56.
