data_PCOD8000909
_publ_section_title
;
Structure prediction by ZEFSAII (Michael W. Deem and Ramdas Pophale) SiO2 
 PCOD8000909
Probable space group: P -1
;
_chemical_formula_sum "Si O2"
_cell_formula_units_Z 14
_cell_length_a 13.413037
_cell_length_b 8.044698
_cell_length_c 8.802207
_cell_angle_alpha 84.489970
_cell_angle_beta 70.408387
_cell_angle_gamma 47.195718
_cell_volume 644.449795
_symmetry_space_group_name_H-M "P -1"
_symmetry_group_IT_number 2
_symmetry_cell_setting 'triclinic'
loop_
_space_group_symop_operation_xyz
x,y,z
-x,-y,-z
loop_
_atom_site_type_symbol
_atom_site_label
_atom_site_fract_x
_atom_site_fract_y
_atom_site_fract_z
Si Si1 0.301481 0.472740 0.189682
Si Si2 0.598084 0.183737 0.209052
Si Si3 0.060178 0.582010 0.859534
Si Si4 0.348355 0.255115 0.882213
Si Si5 0.848094 0.608774 0.501129
Si Si6 0.865553 0.084704 0.958763
Si Si7 0.433795 0.912823 0.455437
O O1 0.446949 0.403790 0.186132
O O2 0.214166 0.483006 0.370734
O O3 0.186670 0.727653 0.156527
O O4 0.360965 0.269927 0.055706
O O5 0.571620 0.223417 0.401125
O O6 0.646076 0.946805 0.146539
O O7 0.723519 0.182666 0.116553
O O8 0.193984 0.511445 0.895497
O O9 0.132456 0.442922 0.680935
O O10 0.932107 0.850691 0.860290
O O11 0.000000 0.500000 0.000000
O O12 0.467948 0.233040 0.729838
O O13 0.000000 0.500000 0.500000
O O14 0.727827 0.884938 0.548228
O O15 0.000000 0.000000 0.000000
O O16 0.500000 0.000000 0.500000
#
# Coordination Sequence:
#
# PCOD8000909 Si02
#       7
#     2   2   2   2   2   2   2
#     4  12  25  42  65 103 135 171 221 276 328 398
#     4  11  22  43  69  93 134 172 226 271 325 392
#     4  12  22  44  71  93 128 179 220 270 333 393
#     4  11  20  39  73  97 123 171 227 267 328 390
#     4  12  25  38  68 106 132 163 228 280 323 388
#     4  12  27  42  66  95 138 181 216 270 340 389
#     4  10  19  40  65  97 122 168 217 276 322 380
#
# _framework density 21.723960000000002
#
# number of rings (size 3 to 8) (size 9 to 14) (size 15 to 20)
#    0.000    0.571    8.571    1.714    2.000    0.571 
#    0.000    0.714    3.143    0.000    0.000    0.000 
#    0.000    0.000    0.000    0.000    0.000    0.000 
#
# Total GULP energy -173529.123365 kJ/mol
# GULP energy per Si atom -12394.937383 kJ/mol
# Density = 2.167451 g / cm^3
# Si number density = 21.723960 Si / 1000 Ang^3
#
#
#
# Elastic Constant Matrix: (Units=GPa)
#
#
# Indices 1 2 3 4 5 6 
#
# 1 106.2529 34.9221 45.1610 -5.9590 -21.9771 -42.0912
# 2 34.9221 131.1491 38.9696 -12.3472 -5.8078 -29.9121
# 3 45.1610 38.9696 167.1271 -9.9488 -28.4169 -6.6763
# 4 -5.9590 -12.3472 -9.9488 34.4313 -7.5589 -0.1167
# 5 -21.9771 -5.8078 -28.4169 -7.5589 25.4209 3.8799
# 6 -42.0912 -29.9121 -6.6763 -0.1167 3.8799 45.5663
#
#
#
# Elastic Compliance Matrix: (Units=1/GPa)
#
#
# Indices 1 2 3 4 5 6 
#
# 1 0.020614 0.000442 -0.002059 0.006446 0.014823 0.017785
# 2 0.000442 0.009896 -0.001892 0.003205 0.000475 0.006596
# 3 -0.002059 -0.001892 0.008565 0.003355 0.008761 -0.002626
# 4 0.006446 0.003205 0.003355 0.036670 0.019898 0.006950
# 5 0.014823 0.000475 0.008761 0.019898 0.066495 0.009677
# 6 0.017785 0.006596 -0.002626 0.006950 0.009677 0.041513
#
#
# Mechanical properties :
#
#
# Convention : Reuss Voigt Hill
#
# Bulk Modulus (GPa) = 31.19269 71.40383 51.29826
# Shear Modulus (GPa) = 24.81915 40.11546 32.46730
#
# Velocity S-wave (km/s) = 3.38372 4.30187 3.87012
# Velocity P-wave (km/s) = 5.44573 7.59044 6.60571
#
# Compressibility (1/GPa) = 0.03205879
#
# Stress axis : x y z
#
# Youngs Moduli (GPa) = 48.51044 101.04609 116.74830
#
# Poissons Ratio (x) = -0.04470 0.24037
# Poissons Ratio (y) = -0.02146 0.22090
# Poissons Ratio (z) = 0.09988 0.19119
#
# Static dielectric constant tensor:
#      x y z
#    x 3.739650 -0.391370 -0.227580 
#    y -0.391370 4.243010 -0.002060 
#    z -0.227580 -0.002060 4.246170 
# 
# 
# High freq. dielectric constant tensor:
#      x y z
#    x 1.836320 -0.034900 -0.014220 
#    y -0.034900 1.857500 -0.003960 
#    z -0.014220 -0.003960 1.867870 
# 
# From -- ./inp_files/174075.got.cif
#   From: 2010.06.25/outbox.cif.g09.slc.cpg/sg2_88_cif.got.tgz:174075.got - 2010.06.27 13:26:56.
