data_PCOD8000898
_publ_section_title
;
Structure prediction by ZEFSAII (Michael W. Deem and Ramdas Pophale) SiO2 
 PCOD8000898
Probable space group: P -1
;
_chemical_formula_sum "Si O2"
_cell_formula_units_Z 16
_cell_length_a 9.363396
_cell_length_b 8.675756
_cell_length_c 18.803193
_cell_angle_alpha 111.907067
_cell_angle_beta 140.431312
_cell_angle_gamma 53.222679
_cell_volume 767.552474
_symmetry_space_group_name_H-M "P -1"
_symmetry_group_IT_number 2
_symmetry_cell_setting 'triclinic'
loop_
_space_group_symop_operation_xyz
x,y,z
-x,-y,-z
loop_
_atom_site_type_symbol
_atom_site_label
_atom_site_fract_x
_atom_site_fract_y
_atom_site_fract_z
Si Si1 0.487923 0.440872 0.065227
Si Si2 0.733503 0.701673 0.942662
Si Si3 0.408938 0.671868 0.684132
Si Si4 0.026170 0.627174 0.686492
Si Si5 0.454401 0.336807 0.423790
Si Si6 0.095479 0.833391 0.064642
Si Si7 0.187301 0.098048 0.473904
Si Si8 0.435277 0.303399 0.686144
O O1 0.390452 0.291562 0.024736
O O2 0.288889 0.628521 0.066333
O O3 0.785767 0.333652 0.187107
O O4 0.500000 0.500000 0.000000
O O5 0.530351 0.728074 0.806432
O O6 0.000000 0.500000 0.000000
O O7 0.827553 0.857058 0.999445
O O8 0.525696 0.688703 0.657777
O O9 0.470397 0.451878 0.675833
O O10 0.096331 0.822157 0.585848
O O11 0.845940 0.589685 0.662078
O O12 0.849171 0.822872 0.606576
O O13 0.199309 0.432758 0.672784
O O14 0.500000 0.500000 0.500000
O O15 0.657260 0.135094 0.506261
O O16 0.278603 0.850172 0.196751
O O17 0.000000 0.000000 0.000000
O O18 0.355792 0.171445 0.591112
#
# Coordination Sequence:
#
# PCOD8000898 Si02
#       8
#     2   2   2   2   2   2   2   2
#     4  10  21  39  65  91 122 166 206 260 321 364
#     4  10  19  40  65  91 125 162 212 252 313 370
#     4  11  21  40  66  92 122 165 207 260 308 373
#     4  10  21  40  59  89 129 159 203 260 316 368
#     4  12  26  39  58  94 127 159 207 261 313 376
#     4  10  22  38  62  95 127 162 216 257 299 377
#     4  11  22  41  64  88 122 169 208 248 317 378
#     4  10  20  40  64  89 122 167 207 253 311 377
#
# _framework density 20.845479000000001
#
# number of rings (size 3 to 8) (size 9 to 14) (size 15 to 20)
#    0.000    1.500    5.000    3.750    5.250    0.000 
#    2.250    0.625    0.000    0.000    0.000    0.000 
#    0.000    0.000    0.000    0.000    0.000    0.000 
#
# Total GULP energy -198284.142316 kJ/mol
# GULP energy per Si atom -12392.758895 kJ/mol
# Density = 2.079803 g / cm^3
# Si number density = 20.845479 Si / 1000 Ang^3
#
#
#
# Elastic Constant Matrix: (Units=GPa)
#
#
# Indices 1 2 3 4 5 6 
#
# 1 182.9824 23.9346 67.6777 5.2792 5.3842 34.3588
# 2 23.9346 76.0423 53.1816 -10.9790 10.0887 21.9942
# 3 67.6777 53.1816 157.2411 0.0518 7.8336 22.6050
# 4 5.2792 -10.9790 0.0518 20.6290 1.9997 -2.5750
# 5 5.3842 10.0887 7.8336 1.9997 36.0181 5.7803
# 6 34.3588 21.9942 22.6050 -2.5750 5.7803 24.1256
#
#
#
# Elastic Compliance Matrix: (Units=1/GPa)
#
#
# Indices 1 2 3 4 5 6 
#
# 1 0.008490 0.002243 -0.002718 -0.002550 0.000768 -0.012044
# 2 0.002243 0.023766 -0.006400 0.010312 -0.003455 -0.016935
# 3 -0.002718 -0.006400 0.009636 -0.002712 0.000199 0.000340
# 4 -0.002550 0.010312 -0.002712 0.055680 -0.005662 0.004071
# 5 0.000768 -0.003455 0.000199 -0.005662 0.029832 -0.005883
# 6 -0.012044 -0.016935 0.000340 0.004071 -0.005883 0.075568
#
#
# Mechanical properties :
#
#
# Convention : Reuss Voigt Hill
#
# Bulk Modulus (GPa) = 35.53600 78.42818 56.98209
# Shear Modulus (GPa) = 22.11375 34.25267 28.18321
#
# Velocity S-wave (km/s) = 3.26059 4.05800 3.68095
# Velocity P-wave (km/s) = 5.59103 7.72410 6.74245
#
# Compressibility (1/GPa) = 0.02814048
#
# Stress axis : x y z
#
# Youngs Moduli (GPa) = 117.79057 42.07657 103.77350
#
# Poissons Ratio (x) = -0.09436 0.28210
# Poissons Ratio (y) = -0.26415 0.66415
# Poissons Ratio (z) = 0.32020 0.26929
#
# Static dielectric constant tensor:
#      x y z
#    x 4.346230 0.316890 0.480340 
#    y 0.316890 3.446270 0.098520 
#    z 0.480340 0.098520 4.949280 
# 
# 
# High freq. dielectric constant tensor:
#      x y z
#    x 1.831450 0.019560 0.012700 
#    y 0.019560 1.787690 -0.010810 
#    z 0.012700 -0.010810 1.829190 
# 
# From -- ./inp_files/557340.got.cif
#   From: 2010.06.25/outbox.cif.g09.slc.cpg/sg2_279_cif.got.tgz:557340.got - 2010.06.27 13:26:56.
