data_PCOD8000041
_publ_section_title
;
Structure prediction by ZEFSAII (Michael W. Deem and Ramdas Pophale) SiO2 
 PCOD8000041
Probable space group: P 1
;
_chemical_formula_sum "Si O2"
_cell_formula_units_Z 8
_cell_length_a 12.579778
_cell_length_b 5.023978
_cell_length_c 11.541458
_cell_angle_alpha 108.156300
_cell_angle_beta 146.331271
_cell_angle_gamma 67.389744
_cell_volume 373.256412
_symmetry_space_group_name_H-M "P 1"
_symmetry_group_IT_number 1
_symmetry_cell_setting 'triclinic'
loop_
_space_group_symop_operation_xyz
x,y,z
loop_
_atom_site_type_symbol
_atom_site_label
_atom_site_fract_x
_atom_site_fract_y
_atom_site_fract_z
Si Si1 0.019370 0.764500 0.050220
Si Si2 0.540145 0.746367 0.907236
Si Si3 0.371244 0.772216 0.534761
Si Si4 0.724008 0.402151 0.682239
Si Si5 0.737497 0.770079 0.533131
Si Si6 0.168108 0.576309 0.922160
Si Si7 0.655406 0.111026 0.879629
Si Si8 0.412916 0.935934 0.068956
O O1 0.170641 0.755812 0.290533
O O2 0.840013 0.045298 0.948425
O O3 0.135252 0.773015 0.035950
O O4 0.924483 0.484944 0.920687
O O5 0.693177 0.889234 0.993635
O O6 0.638791 0.412030 0.969055
O O7 0.345345 0.766610 0.650780
O O8 0.479723 0.909914 0.993738
O O9 0.547700 0.488530 0.627153
O O10 0.459583 0.056198 0.625935
O O11 0.644978 0.587116 0.518200
O O12 0.772030 0.062479 0.659937
O O13 0.954962 0.570544 0.673182
O O14 0.605947 0.846744 0.311281
O O15 0.278700 0.716004 0.944364
O O16 0.292206 0.259877 0.026753
#
# Coordination Sequence:
#
# PCOD8000041 Si02
#       8
#     1   1   1   1   1   1   1   1
#     4  10  20  41  64  96 121 155 200 264 315 359
#     4  10  23  44  60  87 127 165 207 247 295 374
#     4   9  21  38  62  93 118 166 195 253 315 357
#     4  10  22  37  64  93 130 149 208 257 310 381
#     4  11  23  42  63  94 124 169 200 262 317 357
#     4  11  25  40  65  99 122 161 215 258 307 383
#     4   9  22  41  58  91 124 155 206 253 296 370
#     4  12  24  45  64  89 132 170 207 254 309 369
#
# _framework density 21.432987000000001
#
# number of rings (size 3 to 8) (size 9 to 14) (size 15 to 20)
#    0.750    1.000    0.000    4.500    5.250    1.000 
#   13.500    0.000    0.000    0.000    0.000    0.000 
#    0.000    0.000    0.000    0.000    0.000    0.000 
#
# Total GULP energy -99112.650968 kJ/mol
# GULP energy per Si atom -12389.081371 kJ/mol
# Density = 2.138420 g / cm^3
# Si number density = 21.432987 Si / 1000 Ang^3
#
#
#
# Elastic Constant Matrix: (Units=GPa)
#
#
# Indices 1 2 3 4 5 6 
#
# 1 81.0198 19.2583 41.1588 4.3912 -10.5376 -11.8018
# 2 19.2583 93.5144 16.7775 -9.5049 -0.8698 -2.5055
# 3 41.1588 16.7775 137.2071 -5.6846 -7.4309 -21.4839
# 4 4.3912 -9.5049 -5.6846 22.5564 -0.0411 -2.5207
# 5 -10.5376 -0.8698 -7.4309 -0.0411 27.4245 2.1306
# 6 -11.8018 -2.5055 -21.4839 -2.5207 2.1306 33.6243
#
#
#
# Elastic Compliance Matrix: (Units=1/GPa)
#
#
# Indices 1 2 3 4 5 6 
#
# 1 0.016431 -0.003070 -0.004167 -0.005291 0.004910 0.002168
# 2 -0.003070 0.011946 -0.000348 0.005549 -0.000892 0.000062
# 3 -0.004167 -0.000348 0.009518 0.003603 0.000597 0.004825
# 4 -0.005291 0.005549 0.003603 0.049123 -0.001166 0.004615
# 5 0.004910 -0.000892 0.000597 -0.001166 0.038520 -0.000490
# 6 0.002168 0.000062 0.004825 0.004615 -0.000490 0.033966
#
#
# Mechanical properties :
#
#
# Convention : Reuss Voigt Hill
#
# Bulk Modulus (GPa) = 44.00837 51.79227 47.90032
# Shear Modulus (GPa) = 27.43488 32.35750 29.89619
#
# Velocity S-wave (km/s) = 3.58163 3.88971 3.73884
# Velocity P-wave (km/s) = 6.13854 6.66261 6.40594
#
# Compressibility (1/GPa) = 0.02272295
#
# Stress axis : x y z
#
# Youngs Moduli (GPa) = 60.86190 83.71224 105.06320
#
# Poissons Ratio (x) = 0.25701 0.43782
# Poissons Ratio (y) = 0.18685 0.03660
# Poissons Ratio (z) = 0.25363 0.02916
#
# Static dielectric constant tensor:
#      x y z
#    x 3.776100 0.065260 -0.006850 
#    y 0.065260 3.802440 -0.034890 
#    z -0.006850 -0.034890 3.719670 
# 
# 
# High freq. dielectric constant tensor:
#      x y z
#    x 1.836410 0.008590 -0.006220 
#    y 0.008590 1.842850 -0.004800 
#    z -0.006220 -0.004800 1.822910 
# 
# From -- ./inp_files/6787.got.cif
#   From: 2010.03.12/outbox.cif.g09.slc.cpg/sg1_4_cif.got.tgz:6787.got - 2010.03.29 11:57:58.
