data_PCOD8000047
_publ_section_title
;
Structure prediction by ZEFSAII (Michael W. Deem and Ramdas Pophale) SiO2 
 PCOD8000047
Probable space group: P 1
;
_chemical_formula_sum "Si O2"
_cell_formula_units_Z 8
_cell_length_a 5.336675
_cell_length_b 7.715132
_cell_length_c 8.556829
_cell_angle_alpha 74.458291
_cell_angle_beta 104.249298
_cell_angle_gamma 83.898557
_cell_volume 323.341759
_symmetry_space_group_name_H-M "P 1"
_symmetry_group_IT_number 1
_symmetry_cell_setting 'triclinic'
loop_
_space_group_symop_operation_xyz
x,y,z
loop_
_atom_site_type_symbol
_atom_site_label
_atom_site_fract_x
_atom_site_fract_y
_atom_site_fract_z
Si Si1 0.421110 0.478610 0.155700
Si Si2 0.748976 0.862042 0.365842
Si Si3 0.796277 0.449940 0.477350
Si Si4 0.866385 0.257231 0.854473
Si Si5 0.630476 0.920862 0.668898
Si Si6 0.452262 0.132470 0.017434
Si Si7 0.059835 0.080463 0.553321
Si Si8 0.841968 0.582727 0.993171
O O1 0.519904 0.428239 0.359358
O O2 0.438546 0.300322 0.094320
O O3 0.620974 0.605012 0.088290
O O4 0.130581 0.600612 0.095917
O O5 0.869975 0.648348 0.410310
O O6 0.567559 0.877557 0.489325
O O7 0.573760 0.945682 0.171949
O O8 0.988265 0.971708 0.414373
O O9 0.783201 0.403504 0.668412
O O10 0.021340 0.297958 0.463298
O O11 0.641879 0.137814 0.892611
O O12 0.873879 0.380648 0.978093
O O13 0.158011 0.132691 0.907445
O O14 0.847899 0.057462 0.668682
O O15 0.756922 0.735478 0.814588
O O16 0.351524 0.008596 0.678813
#
# Coordination Sequence:
#
# PCOD8000047 Si02
#       8
#     1   1   1   1   1   1   1   1
#     4  10  22  39  69  98 140 173 233 281 344 404
#     4  10  24  45  71 104 140 184 229 285 348 412
#     4  12  24  49  71 111 131 189 233 292 337 419
#     4  10  23  41  71  98 139 179 231 279 348 407
#     4  10  21  44  69  96 143 183 226 276 349 414
#     4  10  22  44  66  97 143 183 217 288 348 405
#     4  10  24  42  68 101 136 184 223 284 337 414
#     4  10  20  42  67 101 134 187 218 285 347 407
#
# _framework density 24.741626
#
# number of rings (size 3 to 8) (size 9 to 14) (size 15 to 20)
#    0.750    1.000    2.500    0.750    1.750    5.000 
#   11.250    0.000    0.000    0.000    0.000    0.000 
#    0.000    0.000    0.000    0.000    0.000    0.000 
#
# Total GULP energy -99158.022805 kJ/mol
# GULP energy per Si atom -12394.752851 kJ/mol
# Density = 2.468531 g / cm^3
# Si number density = 24.741626 Si / 1000 Ang^3
#
#
#
# Elastic Constant Matrix: (Units=GPa)
#
#
# Indices 1 2 3 4 5 6 
#
# 1 182.4382 50.5623 74.1537 -16.6023 34.3452 -7.7942
# 2 50.5623 103.9261 17.5720 -30.7494 4.4709 -0.3016
# 3 74.1537 17.5720 152.0250 -30.4024 14.1247 -3.1140
# 4 -16.6023 -30.7494 -30.4024 44.6963 -1.9921 5.4846
# 5 34.3452 4.4709 14.1247 -1.9921 29.9498 -9.9009
# 6 -7.7942 -0.3016 -3.1140 5.4846 -9.9009 16.3756
#
#
#
# Elastic Compliance Matrix: (Units=1/GPa)
#
#
# Indices 1 2 3 4 5 6 
#
# 1 0.009745 -0.004383 -0.003881 -0.002329 -0.009155 -0.000936
# 2 -0.004383 0.014388 0.002382 0.010457 0.001050 -0.004236
# 3 -0.003881 0.002382 0.009637 0.007066 -0.000940 -0.002906
# 4 -0.002329 0.010457 0.007066 0.035031 -0.004537 -0.014048
# 5 -0.009155 0.001050 -0.000940 -0.004537 0.053594 0.029406
# 6 -0.000936 -0.004236 -0.002906 -0.014048 0.029406 0.082475
#
#
# Mechanical properties :
#
#
# Convention : Reuss Voigt Hill
#
# Bulk Modulus (GPa) = 45.44262 80.32948 62.88605
# Shear Modulus (GPa) = 22.32450 37.94442 30.13446
#
# Velocity S-wave (km/s) = 3.00710 3.92040 3.49372
# Velocity P-wave (km/s) = 5.51938 7.28221 6.46120
#
# Compressibility (1/GPa) = 0.02200577
#
# Stress axis : x y z
#
# Youngs Moduli (GPa) = 102.61610 69.50010 103.77054
#
# Poissons Ratio (x) = 0.30461 0.40274
# Poissons Ratio (y) = 0.44975 -0.24714
# Poissons Ratio (z) = 0.39826 -0.16552
#
# Static dielectric constant tensor:
#      x y z
#    x 4.456990 0.019610 0.076270 
#    y 0.019610 4.368860 0.114560 
#    z 0.076270 0.114560 4.400200 
# 
# 
# High freq. dielectric constant tensor:
#      x y z
#    x 1.970160 -0.001980 0.008620 
#    y -0.001980 1.987120 0.008710 
#    z 0.008620 0.008710 1.995600 
# 
# From -- ./inp_files/1879.got.cif
#   From: 2010.03.12/outbox.cif.g09.slc.cpg/sg1_1_cif.got.tgz:1879.got - 2010.03.29 11:57:58.
