data_PCOD8000245
_publ_section_title
;
Structure prediction by ZEFSAII (Michael W. Deem and Ramdas Pophale) SiO2 
 PCOD8000245
Probable space group: P 1
;
_chemical_formula_sum "Si O2"
_cell_formula_units_Z 6
_cell_length_a 6.133037
_cell_length_b 10.119168
_cell_length_c 4.973517
_cell_angle_alpha 109.952870
_cell_angle_beta 97.087304
_cell_angle_gamma 64.428469
_cell_volume 261.611059
_symmetry_space_group_name_H-M "P 1"
_symmetry_group_IT_number 1
_symmetry_cell_setting 'triclinic'
loop_
_space_group_symop_operation_xyz
x,y,z
loop_
_atom_site_type_symbol
_atom_site_label
_atom_site_fract_x
_atom_site_fract_y
_atom_site_fract_z
Si Si1 0.531040 0.655930 0.679710
Si Si2 0.010324 0.564836 0.990095
Si Si3 0.085301 0.860555 0.109297
Si Si4 0.310757 0.425723 0.426003
Si Si5 0.567461 0.068220 0.134821
Si Si6 0.435831 0.931431 0.534328
O O1 0.471836 0.520460 0.448864
O O2 0.601215 0.751037 0.523496
O O3 0.744737 0.583686 0.878342
O O4 0.293481 0.786681 0.869310
O O5 0.208728 0.459866 0.733424
O O6 0.018512 0.729708 0.140233
O O7 0.084520 0.474617 0.221339
O O8 0.173891 0.943231 0.413281
O O9 0.846983 0.991828 0.027516
O O10 0.485043 0.246893 0.305817
O O11 0.561960 0.976657 0.339390
O O12 0.401994 0.046094 0.859784
#
# Coordination Sequence:
#
# PCOD8000245 Si02
#       6
#     1   1   1   1   1   1
#     4  11  25  45  76 101 131 185 237 272 336 410
#     4  11  24  44  74  97 137 178 233 279 329 408
#     4  11  24  43  75 103 131 181 232 282 330 408
#     4  11  27  46  67 104 139 180 222 284 345 398
#     4  12  28  44  70 104 144 172 226 289 344 394
#     4  12  24  44  70 105 132 182 228 276 338 406
#
# _framework density 22.934813999999999
#
# number of rings (size 3 to 8) (size 9 to 14) (size 15 to 20)
#    0.000    0.667    5.000    1.000    7.000    2.667 
#    0.000    0.000    0.000    0.000    0.000    0.000 
#    0.000    0.000    0.000    0.000    0.000    0.000 
#
# Total GULP energy -74418.849064 kJ/mol
# GULP energy per Si atom -12403.141511 kJ/mol
# Density = 2.288261 g / cm^3
# Si number density = 22.934814 Si / 1000 Ang^3
#
#
#
# Elastic Constant Matrix: (Units=GPa)
#
#
# Indices 1 2 3 4 5 6 
#
# 1 84.9427 61.2278 39.2869 10.3396 22.4513 -7.7527
# 2 61.2278 128.9267 61.3480 17.3306 14.5761 -13.7403
# 3 39.2869 61.3480 135.0036 8.9225 25.3976 5.0772
# 4 10.3396 17.3306 8.9225 46.9030 0.2816 -2.0677
# 5 22.4513 14.5761 25.3976 0.2816 35.6506 -5.9193
# 6 -7.7527 -13.7403 5.0772 -2.0677 -5.9193 31.9172
#
#
#
# Elastic Compliance Matrix: (Units=1/GPa)
#
#
# Indices 1 2 3 4 5 6 
#
# 1 0.020598 -0.008452 -0.000288 -0.001325 -0.009369 -0.000413
# 2 -0.008452 0.014606 -0.004950 -0.002369 0.003822 0.005578
# 3 -0.000288 -0.004950 0.011218 -0.000433 -0.006655 -0.005248
# 4 -0.001325 -0.002369 -0.000433 0.022583 0.002027 0.000566
# 5 -0.009369 0.003822 -0.006655 0.002027 0.038387 0.007679
# 6 -0.000413 0.005578 -0.005248 0.000566 0.007679 0.035927
#
#
# Mechanical properties :
#
#
# Convention : Reuss Voigt Hill
#
# Bulk Modulus (GPa) = 52.51197 74.73317 63.62257
# Shear Modulus (GPa) = 28.24104 35.36153 31.80129
#
# Velocity S-wave (km/s) = 3.51288 3.93087 3.72774
# Velocity P-wave (km/s) = 6.27692 7.29782 6.80653
#
# Compressibility (1/GPa) = 0.01904328
#
# Stress axis : x y z
#
# Youngs Moduli (GPa) = 48.54883 68.46352 89.14065
#
# Poissons Ratio (x) = 0.57863 0.02566
# Poissons Ratio (y) = 0.41032 0.44125
# Poissons Ratio (z) = 0.01397 0.33890
#
# Static dielectric constant tensor:
#      x y z
#    x 4.117030 0.069290 0.214980 
#    y 0.069290 4.027290 -0.044750 
#    z 0.214980 -0.044750 4.262490 
# 
# 
# High freq. dielectric constant tensor:
#      x y z
#    x 1.900280 0.000940 0.012390 
#    y 0.000940 1.893190 -0.006790 
#    z 0.012390 -0.006790 1.919130 
# 
# From -- ./inp_files/48.got.cif
#   From: 2010.03.12/outbox.cif.g09.slc.cpg/sg1_1_cif.got.tgz:48.got - 2010.03.29 11:57:58.
