data_PCOD8000487
_publ_section_title
;
Structure prediction by ZEFSAII (Michael W. Deem and Ramdas Pophale) SiO2 
 PCOD8000487
Probable space group: P -1
;
_chemical_formula_sum "Si O2"
_cell_formula_units_Z 14
_cell_length_a 6.882998
_cell_length_b 20.051143
_cell_length_c 16.335396
_cell_angle_alpha 153.815430
_cell_angle_beta 45.279395
_cell_angle_gamma 125.185261
_cell_volume 695.818748
_symmetry_space_group_name_H-M "P -1"
_symmetry_group_IT_number 2
_symmetry_cell_setting 'triclinic'
loop_
_space_group_symop_operation_xyz
x,y,z
-x,-y,-z
loop_
_atom_site_type_symbol
_atom_site_label
_atom_site_fract_x
_atom_site_fract_y
_atom_site_fract_z
Si Si1 0.731641 0.151569 0.922132
Si Si2 0.656410 0.142485 0.114593
Si Si3 0.485548 0.284781 0.485076
Si Si4 0.725254 0.007992 0.202015
Si Si5 0.900149 0.331309 0.763956
Si Si6 0.294770 0.929713 0.540086
Si Si7 0.185793 0.595451 0.948419
O O1 0.470250 0.097009 0.897684
O O2 0.645898 0.219772 0.113083
O O3 0.836712 0.282636 0.982654
O O4 0.982455 0.011652 0.705064
O O5 0.502162 0.266306 0.361380
O O6 0.968245 0.088488 0.994147
O O7 0.500000 0.000000 0.000000
O O8 0.468651 0.466048 0.711221
O O9 0.207319 0.233138 0.547377
O O10 0.733417 0.166451 0.324183
O O11 0.612961 0.052944 0.375482
O O12 0.686752 0.252064 0.686319
O O13 0.915343 0.508406 0.929111
O O14 0.810915 0.320513 0.873079
O O15 0.500000 0.000000 0.500000
#
# Coordination Sequence:
#
# PCOD8000487 Si02
#       7
#     2   2   2   2   2   2   2
#     4  11  22  40  60  91 126 152 202 256 293 358
#     4  11  22  39  64  92 117 154 209 251 296 354
#     4  10  19  39  63  86 117 160 202 237 303 357
#     4  11  22  38  64  91 114 159 204 250 301 348
#     4   9  19  41  59  87 122 160 199 238 298 362
#     4  11  23  35  63  95 119 157 206 250 296 349
#     4   9  21  37  66  84 122 168 190 244 310 356
#
# _framework density 20.120183000000001
#
# number of rings (size 3 to 8) (size 9 to 14) (size 15 to 20)
#    0.857    0.857    2.857    2.143    2.000    1.714 
#    0.000    6.429    0.000    0.000    0.000    0.000 
#    0.000    0.000    0.000    0.000    0.000    0.000 
#
# Total GULP energy -173479.302645 kJ/mol
# GULP energy per Si atom -12391.378760 kJ/mol
# Density = 2.007439 g / cm^3
# Si number density = 20.120183 Si / 1000 Ang^3
#
#
#
# Elastic Constant Matrix: (Units=GPa)
#
#
# Indices 1 2 3 4 5 6 
#
# 1 107.3989 42.6530 45.4606 -7.7247 21.3688 -6.4907
# 2 42.6530 98.3973 34.7369 -8.5396 16.8865 -24.9003
# 3 45.4606 34.7369 107.9532 -23.2746 36.4493 -13.0899
# 4 -7.7247 -8.5396 -23.2746 35.3827 -11.3752 5.4462
# 5 21.3688 16.8865 36.4493 -11.3752 21.1339 -7.5218
# 6 -6.4907 -24.9003 -13.0899 5.4462 -7.5218 36.6686
#
#
#
# Elastic Compliance Matrix: (Units=1/GPa)
#
#
# Indices 1 2 3 4 5 6 
#
# 1 0.013327 -0.004502 -0.002134 -0.001765 -0.008171 -0.002874
# 2 -0.004502 0.015105 -0.001018 -0.000238 -0.002847 0.008548
# 3 -0.002134 -0.001018 0.022969 0.003191 -0.035121 -0.000548
# 4 -0.001765 -0.000238 0.003191 0.034879 0.014712 -0.001498
# 5 -0.008171 -0.002847 -0.035121 0.014712 0.129346 0.008430
# 6 -0.002874 0.008548 -0.000548 -0.001498 0.008430 0.034324
#
#
# Mechanical properties :
#
#
# Convention : Reuss Voigt Hill
#
# Bulk Modulus (GPa) = 27.70578 62.16115 44.93347
# Shear Modulus (GPa) = 18.03175 31.36364 24.69769
#
# Velocity S-wave (km/s) = 2.99691 3.95247 3.50738
# Velocity P-wave (km/s) = 5.07694 7.19662 6.22763
#
# Compressibility (1/GPa) = 0.03609355
#
# Stress axis : x y z
#
# Youngs Moduli (GPa) = 75.03368 66.20349 43.53638
#
# Poissons Ratio (x) = 0.29804 0.09290
# Poissons Ratio (y) = 0.33780 0.04433
# Poissons Ratio (z) = 0.16012 0.06740
#
# Static dielectric constant tensor:
#      x y z
#    x 3.529320 -0.088600 0.194120 
#    y -0.088600 3.686430 -0.311810 
#    z 0.194120 -0.311810 3.897580 
# 
# 
# High freq. dielectric constant tensor:
#      x y z
#    x 1.767450 -0.006700 0.018690 
#    y -0.006700 1.780620 -0.015450 
#    z 0.018690 -0.015450 1.789890 
# 
# From -- ./inp_files/66061.got.cif
#   From: 2010.06.25/outbox.cif.g09.slc.cpg/sg2_34_cif.got.tgz:66061.got - 2010.06.27 13:26:56.
