data_PCOD8000955
_publ_section_title
;
Structure prediction by ZEFSAII (Michael W. Deem and Ramdas Pophale) SiO2 
 PCOD8000955
Probable space group: P -1
;
_chemical_formula_sum "Si O2"
_cell_formula_units_Z 14
_cell_length_a 20.306451
_cell_length_b 20.407853
_cell_length_c 8.767428
_cell_angle_alpha 146.015012
_cell_angle_beta 147.345440
_cell_angle_gamma 20.876596
_cell_volume 681.321152
_symmetry_space_group_name_H-M "P -1"
_symmetry_group_IT_number 2
_symmetry_cell_setting 'triclinic'
loop_
_space_group_symop_operation_xyz
x,y,z
-x,-y,-z
loop_
_atom_site_type_symbol
_atom_site_label
_atom_site_fract_x
_atom_site_fract_y
_atom_site_fract_z
Si Si1 0.815962 0.566946 0.717871
Si Si2 0.262342 0.937364 0.134554
Si Si3 0.836561 0.332611 0.116732
Si Si4 0.516252 0.952513 0.763039
Si Si5 0.229483 0.836246 0.170030
Si Si6 0.463691 0.392150 0.189365
Si Si7 0.503925 0.776111 0.779562
O O1 0.899808 0.385436 0.458930
O O2 0.706969 0.726326 0.682669
O O3 0.670861 0.645811 0.725139
O O4 0.000000 0.500000 0.000000
O O5 0.335329 0.014277 0.462178
O O6 0.332369 0.795891 0.133608
O O7 0.346707 0.817631 0.913960
O O8 0.027498 0.122434 0.017451
O O9 0.704874 0.337890 0.966565
O O10 0.718005 0.480859 0.034631
O O11 0.500000 0.000000 0.000000
O O12 0.532134 0.064093 0.919818
O O13 0.296157 0.884026 0.516252
O O14 0.000000 0.000000 0.000000
O O15 0.500000 0.500000 0.500000
O O16 0.412604 0.365825 0.195518
#
# Coordination Sequence:
#
# PCOD8000955 Si02
#       7
#     2   2   2   2   2   2   2
#     4  11  23  41  70 101 126 170 232 287 324 389
#     4  11  23  44  67  96 133 175 220 280 330 390
#     4  11  23  43  67  97 134 171 229 273 330 392
#     4  10  19  40  67  90 130 164 221 277 328 371
#     4  10  21  38  68  99 123 170 228 274 326 382
#     4  12  26  44  63  96 144 181 214 264 336 411
#     4  11  23  42  65  98 135 177 215 273 339 392
#
# _framework density 20.548313
#
# number of rings (size 3 to 8) (size 9 to 14) (size 15 to 20)
#    0.000    1.143    5.714    1.714    4.000    2.286 
#    2.571    1.429    0.000    0.000    0.000    0.000 
#    0.000    0.000    0.000    0.000    0.000    0.000 
#
# Total GULP energy -173529.612910 kJ/mol
# GULP energy per Si atom -12394.972351 kJ/mol
# Density = 2.050154 g / cm^3
# Si number density = 20.548313 Si / 1000 Ang^3
#
#
#
# Elastic Constant Matrix: (Units=GPa)
#
#
# Indices 1 2 3 4 5 6 
#
# 1 96.9229 53.0322 52.1844 -2.3790 10.9335 22.4611
# 2 53.0322 93.7538 32.7290 6.5198 4.4212 4.9519
# 3 52.1844 32.7290 140.4289 5.7509 19.0236 -4.5066
# 4 -2.3790 6.5198 5.7509 37.2533 -1.4455 -1.3776
# 5 10.9335 4.4212 19.0236 -1.4455 32.1385 7.3987
# 6 22.4611 4.9519 -4.5066 -1.3776 7.3987 33.0940
#
#
#
# Elastic Compliance Matrix: (Units=1/GPa)
#
#
# Indices 1 2 3 4 5 6 
#
# 1 0.023182 -0.010163 -0.007086 0.003841 0.001409 -0.015333
# 2 -0.010163 0.016333 0.000263 -0.003390 -0.000104 0.004372
# 3 -0.007086 0.000263 0.010810 -0.002118 -0.005836 0.007459
# 4 0.003841 -0.003390 -0.002118 0.028027 0.002061 -0.001682
# 5 0.001409 -0.000104 -0.005836 0.002061 0.036454 -0.009799
# 6 -0.015333 0.004372 0.007459 -0.001682 -0.009799 0.043106
#
#
# Mechanical properties :
#
#
# Convention : Reuss Voigt Hill
#
# Bulk Modulus (GPa) = 61.15109 67.44409 64.29759
# Shear Modulus (GPa) = 25.33770 33.37450 29.35610
#
# Velocity S-wave (km/s) = 3.51533 4.03450 3.78383
# Velocity P-wave (km/s) = 6.80449 7.38894 7.10273
#
# Compressibility (1/GPa) = 0.01635294
#
# Stress axis : x y z
#
# Youngs Moduli (GPa) = 43.13630 61.22634 92.50921
#
# Poissons Ratio (x) = 0.62224 0.65555
# Poissons Ratio (y) = 0.43840 -0.02436
# Poissons Ratio (z) = 0.30568 -0.01612
#
# Static dielectric constant tensor:
#      x y z
#    x 3.965840 0.262390 0.328130 
#    y 0.262390 3.815480 0.141360 
#    z 0.328130 0.141360 4.010120 
# 
# 
# High freq. dielectric constant tensor:
#      x y z
#    x 1.786830 0.015900 0.017460 
#    y 0.015900 1.799020 0.001010 
#    z 0.017460 0.001010 1.818250 
# 
# From -- ./inp_files/253372.got.cif
#   From: 2010.06.25/outbox.cif.g09.slc.cpg/sg2_127_cif.got.tgz:253372.got - 2010.06.27 13:26:56.
