data_PCOD8000600
_publ_section_title
;
Structure prediction by ZEFSAII (Michael W. Deem and Ramdas Pophale) SiO2 
 PCOD8000600
Probable space group: P -1
;
_chemical_formula_sum "Si O2"
_cell_formula_units_Z 16
_cell_length_a 9.249536
_cell_length_b 15.136419
_cell_length_c 12.099970
_cell_angle_alpha 67.714122
_cell_angle_beta 39.041011
_cell_angle_gamma 47.433240
_cell_volume 745.838660
_symmetry_space_group_name_H-M "P -1"
_symmetry_group_IT_number 2
_symmetry_cell_setting 'triclinic'
loop_
_space_group_symop_operation_xyz
x,y,z
-x,-y,-z
loop_
_atom_site_type_symbol
_atom_site_label
_atom_site_fract_x
_atom_site_fract_y
_atom_site_fract_z
Si Si1 0.586840 0.969199 0.130565
Si Si2 0.673467 0.107899 0.847252
Si Si3 0.214003 0.530433 0.346061
Si Si4 0.633973 0.022119 0.511423
Si Si5 0.745467 0.485648 0.433250
Si Si6 0.209742 0.311293 0.660311
Si Si7 0.103579 0.379913 0.063582
Si Si8 0.891316 0.308584 0.049130
O O1 0.381736 0.947864 0.196625
O O2 0.441652 0.017932 0.314780
O O3 0.942115 0.839307 0.987068
O O4 0.586190 0.073420 0.026348
O O5 0.459278 0.259709 0.893916
O O6 0.009032 0.058555 0.674709
O O7 0.216020 0.582125 0.441000
O O8 0.543134 0.401876 0.173395
O O9 0.000000 0.500000 0.500000
O O10 0.064814 0.635757 0.289044
O O11 0.485329 0.166839 0.536933
O O12 0.500000 0.000000 0.500000
O O13 0.500000 0.500000 0.500000
O O14 0.654233 0.618821 0.457934
O O15 0.047551 0.406719 0.215617
O O16 0.080208 0.329912 0.850284
O O17 0.909873 0.343263 0.147326
O O18 0.000000 0.500000 0.000000
#
# Coordination Sequence:
#
# PCOD8000600 Si02
#       8
#     2   2   2   2   2   2   2   2
#     4   9  22  43  69  99 122 175 229 273 330 390
#     4  10  23  43  70  94 131 173 220 282 326 392
#     4  10  22  36  57  96 127 171 210 258 323 390
#     4  11  25  45  65  98 133 177 222 272 333 395
#     4  11  22  39  64  98 130 165 212 272 324 387
#     4  10  23  41  63  91 131 177 212 261 331 391
#     4  11  22  40  62  96 127 162 214 266 332 381
#     4  10  19  39  65  89 130 170 212 266 321 391
#
# _framework density 21.452361
#
# number of rings (size 3 to 8) (size 9 to 14) (size 15 to 20)
#    0.000    1.750    2.500    0.750    3.500    3.500 
#   11.250    0.000    0.000    0.000    0.000    0.000 
#    0.000    0.000    0.000    0.000    0.000    0.000 
#
# Total GULP energy -198338.110853 kJ/mol
# GULP energy per Si atom -12396.131928 kJ/mol
# Density = 2.140353 g / cm^3
# Si number density = 21.452361 Si / 1000 Ang^3
#
#
#
# Elastic Constant Matrix: (Units=GPa)
#
#
# Indices 1 2 3 4 5 6 
#
# 1 124.3754 44.0399 57.5458 9.5201 9.1326 -11.6447
# 2 44.0399 110.8804 54.9770 11.2476 -4.6960 -14.8894
# 3 57.5458 54.9770 102.3380 15.1565 -2.9397 -4.0007
# 4 9.5201 11.2476 15.1565 28.4307 -14.4834 -0.8007
# 5 9.1326 -4.6960 -2.9397 -14.4834 46.5347 4.1420
# 6 -11.6447 -14.8894 -4.0007 -0.8007 4.1420 33.1590
#
#
#
# Elastic Compliance Matrix: (Units=1/GPa)
#
#
# Indices 1 2 3 4 5 6 
#
# 1 0.011886 -0.001464 -0.005537 -0.002314 -0.003842 0.003273
# 2 -0.001464 0.013325 -0.005955 -0.001244 0.000453 0.004664
# 3 -0.005537 -0.005955 0.016663 -0.004566 0.000363 -0.002764
# 4 -0.002314 -0.001244 -0.004566 0.046278 0.014678 -0.002638
# 5 -0.003842 0.000453 0.000363 0.014678 0.027250 -0.004151
# 6 0.003273 0.004664 -0.002764 -0.002638 -0.004151 0.033523
#
#
# Mechanical properties :
#
#
# Convention : Reuss Voigt Hill
#
# Bulk Modulus (GPa) = 62.65251 72.30215 67.47733
# Shear Modulus (GPa) = 27.75371 33.69362 30.72366
#
# Velocity S-wave (km/s) = 3.60076 3.96741 3.78852
# Velocity P-wave (km/s) = 6.82320 7.40026 7.11758
#
# Compressibility (1/GPa) = 0.01596105
#
# Stress axis : x y z
#
# Youngs Moduli (GPa) = 84.13286 75.04860 60.01422
#
# Poissons Ratio (x) = 0.10989 0.33228
# Poissons Ratio (y) = 0.12319 0.35740
# Poissons Ratio (z) = 0.46582 0.44693
#
# Static dielectric constant tensor:
#      x y z
#    x 7.820420 -0.875060 3.809140 
#    y -0.875060 4.074610 -0.342420 
#    z 3.809140 -0.342420 7.445330 
# 
# 
# High freq. dielectric constant tensor:
#      x y z
#    x 1.842860 -0.016810 0.012960 
#    y -0.016810 1.830230 0.003320 
#    z 0.012960 0.003320 1.847440 
# 
# From -- ./inp_files/271739.got.cif
#   From: 2010.06.25/outbox.cif.g09.slc.cpg/sg2_136_cif.got.tgz:271739.got - 2010.06.27 13:26:56.
