data_PCOD8000020
_publ_section_title
;
Structure prediction by ZEFSAII (Michael W. Deem and Ramdas Pophale) SiO2 
 PCOD8000020
Probable space group: P 1
;
_chemical_formula_sum "Si O2"
_cell_formula_units_Z 8
_cell_length_a 13.695164
_cell_length_b 12.285052
_cell_length_c 6.894187
_cell_angle_alpha 136.352311
_cell_angle_beta 42.516233
_cell_angle_gamma 149.843698
_cell_volume 380.859919
_symmetry_space_group_name_H-M "P 1"
_symmetry_group_IT_number 1
_symmetry_cell_setting 'triclinic'
loop_
_space_group_symop_operation_xyz
x,y,z
loop_
_atom_site_type_symbol
_atom_site_label
_atom_site_fract_x
_atom_site_fract_y
_atom_site_fract_z
Si Si1 0.861830 0.362730 0.123920
Si Si2 0.487073 0.987007 0.456236
Si Si3 0.140897 0.135264 0.858185
Si Si4 0.224303 0.079823 0.074591
Si Si5 0.131820 0.492906 0.233982
Si Si6 0.763409 0.259210 0.730339
Si Si7 0.891022 0.745574 0.448381
Si Si8 0.502540 0.362191 0.355060
O O1 0.060755 0.452653 0.062690
O O2 0.897186 0.574911 0.306909
O O3 0.652247 0.172224 0.298792
O O4 0.842216 0.246356 0.801640
O O5 0.358164 0.739407 0.247932
O O6 0.335052 0.012779 0.744777
O O7 0.607641 0.031491 0.536588
O O8 0.134691 0.108901 0.064373
O O9 0.339006 0.203037 0.561028
O O10 0.938794 0.902348 0.756309
O O11 0.142205 0.319931 0.051929
O O12 0.380741 0.312344 0.271244
O O13 0.046817 0.882293 0.219722
O O14 0.964998 0.456420 0.562426
O O15 0.640102 0.317828 0.049827
O O16 0.665502 0.616813 0.525527
#
# Coordination Sequence:
#
# PCOD8000020 Si02
#       8
#     1   1   1   1   1   1   1   1
#     4  10  21  38  62  88 115 152 199 244 287 343
#     4  10  20  37  61  88 116 153 199 241 287 345
#     4  11  24  39  58  89 124 155 190 238 296 350
#     4  10  20  37  61  88 116 153 199 241 287 345
#     4  11  24  39  58  89 124 155 190 238 296 350
#     4   9  20  38  59  85 114 150 197 239 283 342
#     4  10  21  38  62  88 115 152 199 244 287 343
#     4   9  20  38  59  85 114 150 197 239 283 342
#
# _framework density 21.005098
#
# number of rings (size 3 to 8) (size 9 to 14) (size 15 to 20)
#    0.000    2.000    0.000    3.750    0.000   12.000 
#    0.000    1.250    0.000    0.000    0.000    0.000 
#    0.000    0.000    0.000    0.000    0.000    0.000 
#
# Total GULP energy -99134.015783 kJ/mol
# GULP energy per Si atom -12391.751973 kJ/mol
# Density = 2.095729 g / cm^3
# Si number density = 21.005098 Si / 1000 Ang^3
#
#
#
# Elastic Constant Matrix: (Units=GPa)
#
#
# Indices 1 2 3 4 5 6 
#
# 1 121.9112 84.0433 65.2204 21.8869 52.8062 2.4916
# 2 84.0433 145.3100 49.6614 18.0413 27.0397 13.3036
# 3 65.2204 49.6614 67.0079 -2.6721 31.4968 2.9478
# 4 21.8869 18.0413 -2.6721 31.2096 6.1957 5.6880
# 5 52.8062 27.0397 31.4968 6.1957 48.0493 8.0180
# 6 2.4916 13.3036 2.9478 5.6880 8.0180 39.6508
#
#
#
# Elastic Compliance Matrix: (Units=1/GPa)
#
#
# Indices 1 2 3 4 5 6 
#
# 1 0.041686 -0.009775 -0.023577 -0.022812 -0.023663 0.010471
# 2 -0.009775 0.012925 -0.002863 -0.001269 0.006277 -0.004597
# 3 -0.023577 -0.002863 0.042267 0.022950 -0.002563 -0.003474
# 4 -0.022812 -0.001269 0.022950 0.051154 0.005531 -0.008303
# 5 -0.023663 0.006277 -0.002563 0.005531 0.046008 -0.010526
# 6 0.010471 -0.004597 -0.003474 -0.008303 -0.010526 0.029682
#
#
# Mechanical properties :
#
#
# Convention : Reuss Voigt Hill
#
# Bulk Modulus (GPa) = 40.90660 81.34213 61.12436
# Shear Modulus (GPa) = 16.43110 32.80222 24.61666
#
# Velocity S-wave (km/s) = 2.79990 3.95604 3.42707
# Velocity P-wave (km/s) = 5.47444 7.72502 6.69498
#
# Compressibility (1/GPa) = 0.02444593
#
# Stress axis : x y z
#
# Youngs Moduli (GPa) = 23.98886 77.37240 23.65934
#
# Poissons Ratio (x) = 0.75635 0.55782
# Poissons Ratio (y) = 0.23450 0.06774
# Poissons Ratio (z) = 0.56559 0.22153
#
# Static dielectric constant tensor:
#      x y z
#    x 4.169520 0.478020 0.600320 
#    y 0.478020 3.960960 0.028510 
#    z 0.600320 0.028510 4.024830 
# 
# 
# High freq. dielectric constant tensor:
#      x y z
#    x 1.821770 0.029220 0.029760 
#    y 0.029220 1.815220 -0.006730 
#    z 0.029760 -0.006730 1.823760 
# 
# From -- ./inp_files/2803.got.cif
#   From: 2010.03.12/outbox.cif.g09.slc.cpg/sg1_2_cif.got.tgz:2803.got - 2010.03.29 11:57:58.
