data_PCOD8000129
_publ_section_title
;
Structure prediction by ZEFSAII (Michael W. Deem and Ramdas Pophale) SiO2 
 PCOD8000129
Probable space group: P 1
;
_chemical_formula_sum "Si O2"
_cell_formula_units_Z 8
_cell_length_a 7.401884
_cell_length_b 10.422919
_cell_length_c 8.506237
_cell_angle_alpha 69.915729
_cell_angle_beta 99.243473
_cell_angle_gamma 45.349826
_cell_volume 350.247618
_symmetry_space_group_name_H-M "P 1"
_symmetry_group_IT_number 1
_symmetry_cell_setting 'triclinic'
loop_
_space_group_symop_operation_xyz
x,y,z
loop_
_atom_site_type_symbol
_atom_site_label
_atom_site_fract_x
_atom_site_fract_y
_atom_site_fract_z
Si Si1 0.927940 0.296690 0.280480
Si Si2 0.356500 0.696362 0.824682
Si Si3 0.421437 0.134568 0.621842
Si Si4 0.282893 0.199273 0.922108
Si Si5 0.721203 0.222411 0.528616
Si Si6 0.548262 0.860567 0.351895
Si Si7 0.627256 0.522058 0.600155
Si Si8 0.992584 0.646385 0.776567
O O1 0.744951 0.277764 0.337265
O O2 0.075135 0.296084 0.445308
O O3 0.667625 0.536511 0.040011
O O4 0.211005 0.084569 0.294482
O O5 0.411278 0.689105 0.650181
O O6 0.252180 0.602883 0.863218
O O7 0.082757 0.964006 0.738083
O O8 0.420599 0.174707 0.788312
O O9 0.517375 0.207793 0.499548
O O10 0.685038 0.853499 0.759033
O O11 0.987244 0.281888 0.809362
O O12 0.167879 0.394912 0.934794
O O13 0.545645 0.946649 0.152754
O O14 0.544627 0.432062 0.537608
O O15 0.597651 0.668202 0.414374
O O16 0.847736 0.737589 0.541480
#
# Coordination Sequence:
#
# PCOD8000129 Si02
#       8
#     1   1   1   1   1   1   1   1
#     4  11  22  43  68  98 132 178 215 271 332 390
#     4  11  23  43  67  97 135 170 220 275 329 390
#     4  10  23  45  68  98 137 170 222 273 323 397
#     4  11  21  43  68  96 132 176 216 274 330 386
#     4  11  24  45  67  97 138 170 221 278 322 390
#     4  10  22  42  67  98 129 179 218 268 334 386
#     4  11  22  41  67  97 133 174 221 269 327 392
#     4   9  23  42  66  97 128 173 223 272 325 391
#
# _framework density 22.840983000000001
#
# number of rings (size 3 to 8) (size 9 to 14) (size 15 to 20)
#    0.000    1.500    3.750    0.750    0.000    4.000 
#    2.250    7.500    0.000    0.000    0.000    0.000 
#    0.000    0.000    0.000    0.000    0.000    0.000 
#
# Total GULP energy -99173.817645 kJ/mol
# GULP energy per Si atom -12396.727206 kJ/mol
# Density = 2.278900 g / cm^3
# Si number density = 22.840983 Si / 1000 Ang^3
#
#
#
# Elastic Constant Matrix: (Units=GPa)
#
#
# Indices 1 2 3 4 5 6 
#
# 1 74.4092 28.8538 31.7975 1.3658 -7.8772 0.5901
# 2 28.8538 99.1906 33.0835 -3.8672 -9.0144 14.9491
# 3 31.7975 33.0835 114.6284 -8.9944 -8.3005 9.7872
# 4 1.3658 -3.8672 -8.9944 25.7081 -3.8615 -7.8372
# 5 -7.8772 -9.0144 -8.3005 -3.8615 28.0991 -2.0567
# 6 0.5901 14.9491 9.7872 -7.8372 -2.0567 35.0951
#
#
#
# Elastic Compliance Matrix: (Units=1/GPa)
#
#
# Indices 1 2 3 4 5 6 
#
# 1 0.016760 -0.003821 -0.003700 -0.001770 0.002291 0.002117
# 2 -0.003821 0.012779 -0.002056 0.000321 0.002128 -0.004610
# 3 -0.003700 -0.002056 0.010867 0.003622 0.001925 -0.001171
# 4 -0.001770 0.000321 0.003622 0.044226 0.007427 0.009195
# 5 0.002291 0.002128 0.001925 0.007427 0.038682 0.002444
# 6 0.002117 -0.004610 -0.001171 0.009195 0.002444 0.032945
#
#
# Mechanical properties :
#
#
# Convention : Reuss Voigt Hill
#
# Bulk Modulus (GPa) = 47.05167 52.85531 49.95349
# Shear Modulus (GPa) = 27.39760 30.74670 29.07215
#
# Velocity S-wave (km/s) = 3.46713 3.67293 3.57151
# Velocity P-wave (km/s) = 6.05577 6.41701 6.23901
#
# Compressibility (1/GPa) = 0.02125323
#
# Stress axis : x y z
#
# Youngs Moduli (GPa) = 59.66441 78.25131 92.02088
#
# Poissons Ratio (x) = 0.29901 0.34049
# Poissons Ratio (y) = 0.22799 0.18915
# Poissons Ratio (z) = 0.22077 0.16085
#
# Static dielectric constant tensor:
#      x y z
#    x 3.984650 -0.042210 -0.075560 
#    y -0.042210 4.167570 -0.105180 
#    z -0.075560 -0.105180 3.947860 
# 
# 
# High freq. dielectric constant tensor:
#      x y z
#    x 1.894210 -0.001830 -0.007750 
#    y -0.001830 1.905470 -0.011590 
#    z -0.007750 -0.011590 1.884170 
# 
# From -- ./inp_files/1635.got.cif
#   From: 2010.03.12/outbox.cif.g09.slc.cpg/sg1_1_cif.got.tgz:1635.got - 2010.03.29 11:57:58.
