data_PCOD8000181
_publ_section_title
;
Structure prediction by ZEFSAII (Michael W. Deem and Ramdas Pophale) SiO2 
 PCOD8000181
Probable space group: P 1
;
_chemical_formula_sum "Si O2"
_cell_formula_units_Z 6
_cell_length_a 4.960708
_cell_length_b 10.856027
_cell_length_c 4.911477
_cell_angle_alpha 99.037723
_cell_angle_beta 93.458270
_cell_angle_gamma 53.023874
_cell_volume 208.486843
_symmetry_space_group_name_H-M "P 1"
_symmetry_group_IT_number 1
_symmetry_cell_setting 'triclinic'
loop_
_space_group_symop_operation_xyz
x,y,z
loop_
_atom_site_type_symbol
_atom_site_label
_atom_site_fract_x
_atom_site_fract_y
_atom_site_fract_z
Si Si1 0.091270 0.092500 0.130280
Si Si2 0.613191 0.330051 0.564182
Si Si3 0.729515 0.638532 0.133870
Si Si4 0.206176 0.292417 0.919953
Si Si5 0.251444 0.876081 0.567775
Si Si6 0.136530 0.676166 0.778099
O O1 0.706139 0.249146 0.237953
O O2 0.171361 0.984289 0.349027
O O3 0.305206 0.160633 0.108104
O O4 0.171357 0.984291 0.849027
O O5 0.529003 0.242240 0.742085
O O6 0.302445 0.511636 0.576828
O O7 0.942704 0.305833 0.694705
O O8 0.636572 0.719434 0.460101
O O9 0.400000 0.662751 0.003349
O O10 0.040262 0.456947 0.121224
O O11 0.813701 0.726343 0.955966
O O12 0.037502 0.807950 0.589950
#
# Coordination Sequence:
#
# PCOD8000181 Si02
#       6
#     1   1   1   1   1   1
#     4  12  25  46  71 104 146 184 228 288 351 420
#     4  10  23  46  73 101 137 183 236 287 341 411
#     4  10  23  46  73 101 137 183 236 287 341 411
#     4  10  23  46  73 101 137 183 236 287 341 411
#     4  12  25  46  71 104 146 184 228 288 351 420
#     4  10  23  46  73 101 137 183 236 287 341 411
#
# _framework density 28.778797000000001
#
# number of rings (size 3 to 8) (size 9 to 14) (size 15 to 20)
#    0.000    1.333    3.333    1.000    0.000    5.333 
#    0.000   10.000    0.000    0.000    0.000    0.000 
#    0.000    0.000    0.000    0.000    0.000    0.000 
#
# Total GULP energy -74333.049646 kJ/mol
# GULP energy per Si atom -12388.841608 kJ/mol
# Density = 2.871329 g / cm^3
# Si number density = 28.778797 Si / 1000 Ang^3
#
#
#
# Elastic Constant Matrix: (Units=GPa)
#
#
# Indices 1 2 3 4 5 6 
#
# 1 80.1103 26.7816 72.1691 20.0458 -30.4821 29.1397
# 2 26.7816 178.6088 96.3280 -4.6967 -24.9794 57.0806
# 3 72.1691 96.3280 295.1382 37.1062 -27.4927 39.4069
# 4 20.0458 -4.6967 37.1062 64.2886 -1.8801 -20.2562
# 5 -30.4821 -24.9794 -27.4927 -1.8801 33.2071 -14.9985
# 6 29.1397 57.0806 39.4069 -20.2562 -14.9985 54.6699
#
#
#
# Elastic Compliance Matrix: (Units=1/GPa)
#
#
# Indices 1 2 3 4 5 6 
#
# 1 0.032672 0.006225 -0.003591 -0.013430 0.021756 -0.020333
# 2 0.006225 0.010633 -0.002331 -0.003558 0.005973 -0.012420
# 3 -0.003591 -0.002331 0.005308 -0.002349 -0.001079 -0.000645
# 4 -0.013430 -0.003558 -0.002349 0.027304 -0.005888 0.021068
# 5 0.021756 0.005973 -0.001079 -0.005888 0.050980 -0.005250
# 6 -0.020333 -0.012420 -0.000645 0.021068 -0.005250 0.048928
#
#
# Mechanical properties :
#
#
# Convention : Reuss Voigt Hill
#
# Bulk Modulus (GPa) = 20.31673 104.93498 62.62586
# Shear Modulus (GPa) = 26.09269 54.33837 40.21553
#
# Velocity S-wave (km/s) = 3.01435 4.34999 3.74224
# Velocity P-wave (km/s) = 4.38064 7.85949 6.36245
#
# Compressibility (1/GPa) = 0.04922051
#
# Stress axis : x y z
#
# Youngs Moduli (GPa) = 30.60763 94.04275 188.39604
#
# Poissons Ratio (x) = -0.58546 0.67650
# Poissons Ratio (y) = -0.19055 0.43913
# Poissons Ratio (z) = 0.10991 0.21920
#
# Static dielectric constant tensor:
#      x y z
#    x 5.285940 0.571170 -0.390990 
#    y 0.571170 6.147350 0.515600 
#    z -0.390990 0.515600 5.492740 
# 
# 
# High freq. dielectric constant tensor:
#      x y z
#    x 2.158390 0.025530 -0.015610 
#    y 0.025530 2.181030 0.009210 
#    z -0.015610 0.009210 2.199040 
# 
# From -- ./inp_files/242.got.cif
#   From: 2010.03.12/outbox.cif.g09.slc.cpg/sg1_1_cif.got.tgz:242.got - 2010.03.29 11:57:58.
