data_PCOD8000513
_publ_section_title
;
Structure prediction by ZEFSAII (Michael W. Deem and Ramdas Pophale) SiO2 
 PCOD8000513
Probable space group: P -1
;
_chemical_formula_sum "Si O2"
_cell_formula_units_Z 14
_cell_length_a 11.598313
_cell_length_b 9.322657
_cell_length_c 14.120841
_cell_angle_alpha 78.132148
_cell_angle_beta 29.158665
_cell_angle_gamma 67.739640
_cell_volume 661.430563
_symmetry_space_group_name_H-M "P -1"
_symmetry_group_IT_number 2
_symmetry_cell_setting 'triclinic'
loop_
_space_group_symop_operation_xyz
x,y,z
-x,-y,-z
loop_
_atom_site_type_symbol
_atom_site_label
_atom_site_fract_x
_atom_site_fract_y
_atom_site_fract_z
Si Si1 0.557623 0.688263 0.650402
Si Si2 0.818653 0.338532 0.220376
Si Si3 0.006790 0.209788 0.640665
Si Si4 0.285042 0.645833 0.353688
Si Si5 0.219872 0.846927 0.557315
Si Si6 0.225706 0.314690 0.777574
Si Si7 0.766942 0.379392 0.967965
O O1 0.407687 0.706419 0.655812
O O2 0.709151 0.800822 0.534965
O O3 0.764375 0.500346 0.542856
O O4 0.339506 0.735846 0.883830
O O5 0.900392 0.246863 0.274640
O O6 0.701950 0.531957 0.284605
O O7 0.071008 0.285739 0.980524
O O8 0.938064 0.265802 0.574803
O O9 0.783764 0.337777 0.850594
O O10 0.016526 0.032854 0.672687
O O11 0.272363 0.774426 0.423911
O O12 0.573556 0.566235 0.106685
O O13 0.493944 0.836023 0.404726
O O14 0.061922 0.338063 0.795568
#
# Coordination Sequence:
#
# PCOD8000513 Si02
#       7
#     2   2   2   2   2   2   2
#     4   9  21  40  64  89 115 157 212 247 286 358
#     4  10  20  38  64  92 120 154 207 246 300 361
#     4  12  24  40  60  90 130 160 192 252 309 342
#     4  10  22  44  61  85 122 165 211 239 278 373
#     4  12  24  37  63  96 124 154 195 255 310 354
#     4  10  19  39  63  91 120 154 202 256 293 359
#     4   9  22  39  65  88 112 162 208 245 290 355
#
# _framework density 21.166243000000001
#
# number of rings (size 3 to 8) (size 9 to 14) (size 15 to 20)
#    0.857    0.857    1.429    3.429    2.000    3.429 
#    0.000    2.857    0.000    4.286    0.000    0.000 
#    0.000    0.000    0.000    0.000    0.000    0.000 
#
# Total GULP energy -173519.093261 kJ/mol
# GULP energy per Si atom -12394.220947 kJ/mol
# Density = 2.111807 g / cm^3
# Si number density = 21.166243 Si / 1000 Ang^3
#
#
#
# Elastic Constant Matrix: (Units=GPa)
#
#
# Indices 1 2 3 4 5 6 
#
# 1 115.6084 35.9860 38.5806 -2.8333 13.6857 0.7825
# 2 35.9860 78.2133 34.8804 -1.2084 9.2681 -1.8844
# 3 38.5806 34.8804 48.5104 1.3400 4.6482 4.8132
# 4 -2.8333 -1.2084 1.3400 18.7009 -1.3309 -2.1839
# 5 13.6857 9.2681 4.6482 -1.3309 22.8280 -5.0317
# 6 0.7825 -1.8844 4.8132 -2.1839 -5.0317 21.1428
#
#
#
# Elastic Compliance Matrix: (Units=1/GPa)
#
#
# Indices 1 2 3 4 5 6 
#
# 1 0.012605 -0.001262 -0.008736 0.002145 -0.005046 0.000430
# 2 -0.001262 0.019935 -0.013484 0.002315 -0.003509 0.004297
# 3 -0.008736 -0.013484 0.038409 -0.006116 0.000289 -0.010185
# 4 0.002145 0.002315 -0.006116 0.055638 0.004079 0.008237
# 5 -0.005046 -0.003509 0.000289 0.004079 0.051169 0.012407
# 6 0.000430 0.004297 -0.010185 0.008237 0.012407 0.053787
#
#
# Mechanical properties :
#
#
# Convention : Reuss Voigt Hill
#
# Bulk Modulus (GPa) = 41.69304 51.24736 46.47020
# Shear Modulus (GPa) = 17.45193 21.39335 19.42264
#
# Velocity S-wave (km/s) = 2.87456 3.18265 3.03252
# Velocity P-wave (km/s) = 5.54600 6.14573 5.85355
#
# Compressibility (1/GPa) = 0.02398482
#
# Stress axis : x y z
#
# Youngs Moduli (GPa) = 79.33321 50.16368 26.03581
#
# Poissons Ratio (x) = 0.06333 0.22744
# Poissons Ratio (y) = 0.10015 0.35106
# Poissons Ratio (z) = 0.69303 0.67639
#
# Static dielectric constant tensor:
#      x y z
#    x 3.716210 -0.015770 0.133780 
#    y -0.015770 3.421590 -0.042530 
#    z 0.133780 -0.042530 3.679010 
# 
# 
# High freq. dielectric constant tensor:
#      x y z
#    x 1.831980 -0.003930 0.012910 
#    y -0.003930 1.796410 -0.007300 
#    z 0.012910 -0.007300 1.825100 
# 
# From -- ./inp_files/515479.got.cif
#   From: 2010.06.25/outbox.cif.g09.slc.cpg/sg2_258_cif.got.tgz:515479.got - 2010.06.27 13:26:56.
