data_PCOD8000464
_publ_section_title
;
Structure prediction by ZEFSAII (Michael W. Deem and Ramdas Pophale) SiO2 
 PCOD8000464
Probable space group: P -1
;
_chemical_formula_sum "Si O2"
_cell_formula_units_Z 14
_cell_length_a 14.350260
_cell_length_b 8.073119
_cell_length_c 8.927729
_cell_angle_alpha 100.822894
_cell_angle_beta 116.562951
_cell_angle_gamma 46.178626
_cell_volume 655.463428
_symmetry_space_group_name_H-M "P -1"
_symmetry_group_IT_number 2
_symmetry_cell_setting 'triclinic'
loop_
_space_group_symop_operation_xyz
x,y,z
-x,-y,-z
loop_
_atom_site_type_symbol
_atom_site_label
_atom_site_fract_x
_atom_site_fract_y
_atom_site_fract_z
Si Si1 0.569604 0.583524 0.894550
Si Si2 0.797992 0.576628 0.528163
Si Si3 0.293329 0.036600 0.279734
Si Si4 0.687123 0.016824 0.386080
Si Si5 0.562949 0.630946 0.234019
Si Si6 0.139485 0.916044 0.006290
Si Si7 0.077234 0.064933 0.647712
O O1 0.477626 0.815494 0.765087
O O2 0.470956 0.527359 0.809150
O O3 0.584881 0.651876 0.079432
O O4 0.727583 0.359040 0.906257
O O5 0.754429 0.716575 0.678092
O O6 0.705746 0.511568 0.414644
O O7 0.966284 0.345336 0.623219
O O8 0.763725 0.746306 0.396643
O O9 0.323821 0.904807 0.436805
O O10 0.433837 0.888465 0.251605
O O11 0.167597 0.073406 0.112680
O O12 0.780482 0.037588 0.354809
O O13 0.123799 0.944844 0.822230
O O14 0.000000 0.000000 0.000000
O O15 0.000000 0.000000 0.500000
#
# Coordination Sequence:
#
# PCOD8000464 Si02
#       7
#     2   2   2   2   2   2   2
#     4  10  21  39  65  89 122 161 215 262 299 370
#     4  10  23  38  63  93 130 164 205 257 314 373
#     4   9  22  38  60  90 130 158 209 253 310 369
#     4  10  22  39  60  96 124 163 205 257 312 366
#     4  10  19  39  62  91 122 167 211 253 309 364
#     4  11  24  42  63  94 122 164 214 258 310 368
#     4  12  23  41  67  89 125 170 209 255 312 373
#
# _framework density 21.358931999999999
#
# number of rings (size 3 to 8) (size 9 to 14) (size 15 to 20)
#    0.857    0.857    0.000    6.000    0.000    4.571 
#    0.000    0.000    0.000    0.000    0.000    0.000 
#    0.000    0.000    0.000    0.000    0.000    0.000 
#
# Total GULP energy -173523.304676 kJ/mol
# GULP energy per Si atom -12394.521763 kJ/mol
# Density = 2.131032 g / cm^3
# Si number density = 21.358932 Si / 1000 Ang^3
#
#
#
# Elastic Constant Matrix: (Units=GPa)
#
#
# Indices 1 2 3 4 5 6 
#
# 1 72.3039 18.6222 21.1250 1.0922 5.6798 -23.0970
# 2 18.6222 122.2104 38.5345 -11.2159 3.3453 -17.3166
# 3 21.1250 38.5345 106.3821 8.1873 12.2047 -9.9484
# 4 1.0922 -11.2159 8.1873 47.3247 -0.5930 0.1657
# 5 5.6798 3.3453 12.2047 -0.5930 31.0149 -3.1608
# 6 -23.0970 -17.3166 -9.9484 0.1657 -3.1608 29.1438
#
#
#
# Elastic Compliance Matrix: (Units=1/GPa)
#
#
# Indices 1 2 3 4 5 6 
#
# 1 0.019163 -0.000177 -0.002270 -0.000156 -0.001154 0.014182
# 2 -0.000177 0.010275 -0.003571 0.003051 0.000879 0.004824
# 3 -0.002270 -0.003571 0.011788 -0.002881 -0.003924 -0.000307
# 4 -0.000156 0.003051 -0.002881 0.022370 0.001335 0.000724
# 5 -0.001154 0.000879 -0.003924 0.001335 0.034129 0.001962
# 6 0.014182 0.004824 -0.000307 0.000724 0.001962 0.048522
#
#
# Mechanical properties :
#
#
# Convention : Reuss Voigt Hill
#
# Bulk Modulus (GPa) = 34.26075 50.82886 42.54480
# Shear Modulus (GPa) = 29.75928 36.33766 33.04847
#
# Velocity S-wave (km/s) = 3.73674 4.12914 3.93783
# Velocity P-wave (km/s) = 5.89007 6.82512 6.37476
#
# Compressibility (1/GPa) = 0.02918792
#
# Stress axis : x y z
#
# Youngs Moduli (GPa) = 52.18378 97.32193 84.83321
#
# Poissons Ratio (x) = 0.01725 0.19261
# Poissons Ratio (y) = 0.00925 0.30297
# Poissons Ratio (z) = 0.11848 0.34757
#
# Static dielectric constant tensor:
#      x y z
#    x 3.553470 -0.140470 0.133370 
#    y -0.140470 3.958770 -0.015450 
#    z 0.133370 -0.015450 3.992070 
# 
# 
# High freq. dielectric constant tensor:
#      x y z
#    x 1.815050 -0.012220 0.012840 
#    y -0.012220 1.844780 0.004380 
#    z 0.012840 0.004380 1.843380 
# 
# From -- ./inp_files/295822.got.cif
#   From: 2010.06.25/outbox.cif.g09.slc.cpg/sg2_148_cif.got.tgz:295822.got - 2010.06.27 13:26:56.
