data_PCOD8000365
_publ_section_title
;
Structure prediction by ZEFSAII (Michael W. Deem and Ramdas Pophale) SiO2 
 PCOD8000365
Probable space group: P -1
;
_chemical_formula_sum "Si O2"
_cell_formula_units_Z 14
_cell_length_a 9.138354
_cell_length_b 11.334742
_cell_length_c 17.404522
_cell_angle_alpha 30.663179
_cell_angle_beta 102.857659
_cell_angle_gamma 84.293979
_cell_volume 726.996300
_symmetry_space_group_name_H-M "P -1"
_symmetry_group_IT_number 2
_symmetry_cell_setting 'triclinic'
loop_
_space_group_symop_operation_xyz
x,y,z
-x,-y,-z
loop_
_atom_site_type_symbol
_atom_site_label
_atom_site_fract_x
_atom_site_fract_y
_atom_site_fract_z
Si Si1 0.708660 0.330693 0.143595
Si Si2 0.243246 0.094598 0.498870
Si Si3 0.092106 0.055435 0.078355
Si Si4 0.961600 0.806373 0.830352
Si Si5 0.172074 0.480211 0.811691
Si Si6 0.718981 0.418630 0.747226
Si Si7 0.327603 0.710368 0.592048
O O1 0.721466 0.526499 0.097092
O O2 0.840749 0.253401 0.129468
O O3 0.771795 0.031136 0.353721
O O4 0.500000 0.500000 0.000000
O O5 0.323288 0.270632 0.431846
O O6 0.042934 0.274695 0.335016
O O7 0.372211 0.844935 0.592587
O O8 0.110251 0.061788 0.167819
O O9 0.206528 0.729795 0.244419
O O10 0.186930 0.189013 0.970496
O O11 0.875694 0.219851 0.940038
O O12 0.806554 0.040419 0.623049
O O13 0.000000 0.500000 0.000000
O O14 0.240762 0.547803 0.704641
O O15 0.525260 0.466690 0.715030
#
# Coordination Sequence:
#
# PCOD8000365 Si02
#       7
#     2   2   2   2   2   2   2
#     4  11  22  34  58  93 119 143 190 246 293 332
#     4  10  19  39  60  84 121 150 188 235 293 346
#     4  10  23  41  60  82 123 152 196 233 294 333
#     4  12  22  38  61  90 116 151 191 247 288 338
#     4  10  19  41  59  84 118 157 181 241 291 348
#     4  10  23  39  60  86 114 160 194 237 275 358
#     4  11  21  36  64  88 113 152 200 230 296 338
#
# _framework density 19.25732
#
# number of rings (size 3 to 8) (size 9 to 14) (size 15 to 20)
#    0.000    1.429    4.286    2.143    6.000    1.143 
#    0.000    0.714    0.000    0.000    0.000    0.000 
#    0.000    0.000    0.000    0.000    0.000    0.000 
#
# Total GULP energy -173573.305441 kJ/mol
# GULP energy per Si atom -12398.093246 kJ/mol
# Density = 1.921349 g / cm^3
# Si number density = 19.257320 Si / 1000 Ang^3
#
#
#
# Elastic Constant Matrix: (Units=GPa)
#
#
# Indices 1 2 3 4 5 6 
#
# 1 108.8595 39.7360 46.1538 3.9273 9.7006 -14.6050
# 2 39.7360 103.6620 35.9377 3.1754 -5.3638 -12.4057
# 3 46.1538 35.9377 67.1400 5.4983 -0.6397 -5.1270
# 4 3.9273 3.1754 5.4983 25.2709 -4.3369 2.1244
# 5 9.7006 -5.3638 -0.6397 -4.3369 30.0292 3.9678
# 6 -14.6050 -12.4057 -5.1270 2.1244 3.9678 27.4909
#
#
#
# Elastic Compliance Matrix: (Units=1/GPa)
#
#
# Indices 1 2 3 4 5 6 
#
# 1 0.015243 -0.002357 -0.008626 -0.001889 -0.006665 0.006533
# 2 -0.002357 0.012784 -0.004951 -0.000003 0.002512 0.003231
# 3 -0.008626 -0.004951 0.023507 -0.002526 0.002379 -0.002581
# 4 -0.001889 -0.000003 -0.002526 0.042175 0.007414 -0.005805
# 5 -0.006665 0.002512 0.002379 0.007414 0.038085 -0.008033
# 6 0.006533 0.003231 -0.002581 -0.005805 -0.008033 0.042431
#
#
# Mechanical properties :
#
#
# Convention : Reuss Voigt Hill
#
# Bulk Modulus (GPa) = 50.85612 58.14627 54.50119
# Shear Modulus (GPa) = 23.51297 27.08046 25.29671
#
# Velocity S-wave (km/s) = 3.49806 3.75406 3.62832
# Velocity P-wave (km/s) = 6.54074 7.00361 6.77613
#
# Compressibility (1/GPa) = 0.01966332
#
# Stress axis : x y z
#
# Youngs Moduli (GPa) = 65.60593 78.22539 42.54097
#
# Poissons Ratio (x) = 0.18441 0.36697
# Poissons Ratio (y) = 0.15466 0.21063
# Poissons Ratio (z) = 0.56593 0.38731
#
# Static dielectric constant tensor:
#      x y z
#    x 3.658350 -0.049190 -0.241680 
#    y -0.049190 3.370570 -0.081350 
#    z -0.241680 -0.081350 2.962970 
# 
# 
# High freq. dielectric constant tensor:
#      x y z
#    x 1.758820 -0.002640 -0.002400 
#    y -0.002640 1.734620 0.003430 
#    z -0.002400 0.003430 1.740800 
# 
# From -- ./inp_files/150522.got.cif
#   From: 2010.06.25/outbox.cif.g09.slc.cpg/sg2_76_cif.got.tgz:150522.got - 2010.06.27 13:26:56.
