data_PCOD8000749
_publ_section_title
;
Structure prediction by ZEFSAII (Michael W. Deem and Ramdas Pophale) SiO2 
 PCOD8000749
Probable space group: P -1
;
_chemical_formula_sum "Si O2"
_cell_formula_units_Z 16
_cell_length_a 18.056481
_cell_length_b 8.961345
_cell_length_c 12.177648
_cell_angle_alpha 101.125751
_cell_angle_beta 142.120233
_cell_angle_gamma 50.302552
_cell_volume 700.430475
_symmetry_space_group_name_H-M "P -1"
_symmetry_group_IT_number 2
_symmetry_cell_setting 'triclinic'
loop_
_space_group_symop_operation_xyz
x,y,z
-x,-y,-z
loop_
_atom_site_type_symbol
_atom_site_label
_atom_site_fract_x
_atom_site_fract_y
_atom_site_fract_z
Si Si1 0.873667 0.953067 0.115830
Si Si2 0.906061 0.730117 0.489104
Si Si3 0.426363 0.573021 0.298090
Si Si4 0.755608 0.557279 0.991332
Si Si5 0.332614 0.542639 0.639010
Si Si6 0.988735 0.509641 0.860886
Si Si7 0.617650 0.856668 0.338110
Si Si8 0.783974 0.135749 0.268730
O O1 0.090938 0.802750 0.373959
O O2 0.894882 0.750457 0.097694
O O3 0.721241 0.160684 0.070150
O O4 0.781542 0.117374 0.918678
O O5 0.736118 0.824100 0.377331
O O6 0.000000 0.500000 0.500000
O O7 0.090906 0.627486 0.754104
O O8 0.798234 0.957649 0.316050
O O9 0.500000 0.500000 0.500000
O O10 0.586901 0.482141 0.388323
O O11 0.385956 0.441455 0.198400
O O12 0.900500 0.449592 0.042801
O O13 0.609862 0.849014 0.882496
O O14 0.401477 0.304628 0.721948
O O15 0.377401 0.601847 0.808298
O O16 0.747737 0.754195 0.586410
O O17 0.000000 0.500000 0.000000
O O18 0.000000 0.000000 0.500000
#
# Coordination Sequence:
#
# PCOD8000749 Si02
#       8
#     2   2   2   2   2   2   2   2
#     4  10  23  45  66  95 131 176 223 276 335 395
#     4  11  22  41  68 101 134 173 223 277 338 400
#     4  12  28  42  65 100 138 178 224 276 332 404
#     4  11  24  42  63  98 136 168 223 279 336 393
#     4  10  22  43  67  98 132 178 226 269 337 402
#     4  10  23  41  68  92 126 182 225 274 331 392
#     4  10  23  41  67  99 135 173 226 273 331 401
#     4  10  19  39  70  93 131 173 214 272 333 400
#
# _framework density 22.843094000000001
#
# number of rings (size 3 to 8) (size 9 to 14) (size 15 to 20)
#    0.000    1.500    0.000    6.000    5.250    3.000 
#    0.000    3.750    0.000    0.000    0.000    0.000 
#    0.000    0.000    0.000    0.000    0.000    0.000 
#
# Total GULP energy -198324.232087 kJ/mol
# GULP energy per Si atom -12395.264505 kJ/mol
# Density = 2.279110 g / cm^3
# Si number density = 22.843094 Si / 1000 Ang^3
#
#
#
# Elastic Constant Matrix: (Units=GPa)
#
#
# Indices 1 2 3 4 5 6 
#
# 1 106.8752 54.7098 46.7617 19.1756 -24.1013 8.0631
# 2 54.7098 85.6549 21.8987 9.5050 2.7375 9.1958
# 3 46.7617 21.8987 77.8808 7.0253 -22.1735 2.7603
# 4 19.1756 9.5050 7.0253 34.9454 -0.8647 -3.9656
# 5 -24.1013 2.7375 -22.1735 -0.8647 37.7013 1.0123
# 6 8.0631 9.1958 2.7603 -3.9656 1.0123 42.4345
#
#
#
# Elastic Compliance Matrix: (Units=1/GPa)
#
#
# Indices 1 2 3 4 5 6 
#
# 1 0.022194 -0.011927 -0.005939 -0.007712 0.011445 -0.002240
# 2 -0.011927 0.020004 -0.001266 0.000928 -0.009755 -0.001667
# 3 -0.005939 -0.001266 0.018867 -0.000007 0.007392 -0.000002
# 4 -0.007712 0.000928 -0.000007 0.032994 -0.004364 0.004452
# 5 0.011445 -0.009755 0.007392 -0.004364 0.038846 -0.001876
# 6 -0.002240 -0.001667 -0.000002 0.004452 -0.001876 0.024813
#
#
# Mechanical properties :
#
#
# Convention : Reuss Voigt Hill
#
# Bulk Modulus (GPa) = 43.85519 57.46125 50.65822
# Shear Modulus (GPa) = 24.55999 32.81897 28.68948
#
# Velocity S-wave (km/s) = 3.28252 3.79451 3.54776
# Velocity P-wave (km/s) = 5.79713 6.66387 6.24555
#
# Compressibility (1/GPa) = 0.02280232
#
# Stress axis : x y z
#
# Youngs Moduli (GPa) = 45.05689 49.98928 53.00260
#
# Poissons Ratio (x) = 0.59623 0.31478
# Poissons Ratio (y) = 0.53740 0.06708
# Poissons Ratio (z) = 0.26759 0.06326
#
# Static dielectric constant tensor:
#      x y z
#    x 4.197210 0.111050 -0.046520 
#    y 0.111050 4.268120 -0.023790 
#    z -0.046520 -0.023790 4.478390 
# 
# 
# High freq. dielectric constant tensor:
#      x y z
#    x 1.910400 0.008840 0.004920 
#    y 0.008840 1.901800 -0.001670 
#    z 0.004920 -0.001670 1.921270 
# 
# From -- ./inp_files/462246.got.cif
#   From: 2010.06.25/outbox.cif.g09.slc.cpg/sg2_232_cif.got.tgz:462246.got - 2010.06.27 13:26:56.
