data_PCOD8000877
_publ_section_title
;
Structure prediction by ZEFSAII (Michael W. Deem and Ramdas Pophale) SiO2 
 PCOD8000877
Probable space group: P -1
;
_chemical_formula_sum "Si O2"
_cell_formula_units_Z 12
_cell_length_a 9.545279
_cell_length_b 14.841379
_cell_length_c 9.039761
_cell_angle_alpha 142.577184
_cell_angle_beta 50.227932
_cell_angle_gamma 112.216036
_cell_volume 574.517279
_symmetry_space_group_name_H-M "P -1"
_symmetry_group_IT_number 2
_symmetry_cell_setting 'triclinic'
loop_
_space_group_symop_operation_xyz
x,y,z
-x,-y,-z
loop_
_atom_site_type_symbol
_atom_site_label
_atom_site_fract_x
_atom_site_fract_y
_atom_site_fract_z
Si Si1 0.350340 0.458951 0.851852
Si Si2 0.667725 0.860719 0.645528
Si Si3 0.025111 0.259542 0.205874
Si Si4 0.946773 0.236452 0.560207
Si Si5 0.301370 0.438565 0.199825
Si Si6 0.870032 0.978675 0.425813
O O1 0.387901 0.300283 0.528330
O O2 0.514416 0.541678 0.812238
O O3 0.147674 0.580927 0.108340
O O4 0.353462 0.411260 0.957820
O O5 0.705554 0.913855 0.522855
O O6 0.851836 0.828574 0.582134
O O7 0.500000 0.000000 0.000000
O O8 0.231332 0.294768 0.120990
O O9 0.974485 0.200449 0.320702
O O10 0.866710 0.409836 0.457834
O O11 0.016749 0.137903 0.926710
O O12 0.802457 0.143822 0.602150
O O13 0.000000 0.000000 0.500000
#
# Coordination Sequence:
#
# PCOD8000877 Si02
#       6
#     2   2   2   2   2   2
#     4  10  20  41  62  91 126 160 210 248 304 367
#     4  11  24  42  63  91 125 166 204 253 311 366
#     4  10  19  40  64  95 122 158 211 251 304 365
#     4  10  23  40  64  94 123 162 205 257 307 355
#     4   9  20  35  66  92 120 165 201 256 306 358
#     4  10  22  40  62  89 127 164 199 252 314 361
#
# _framework density 20.8871
#
# number of rings (size 3 to 8) (size 9 to 14) (size 15 to 20)
#    0.000    2.000    1.667    1.000    4.667    1.333 
#    3.000    3.333    0.000    0.000    0.000    0.000 
#    0.000    0.000    0.000    0.000    0.000    0.000 
#
# Total GULP energy -148709.178862 kJ/mol
# GULP energy per Si atom -12392.431572 kJ/mol
# Density = 2.083956 g / cm^3
# Si number density = 20.887100 Si / 1000 Ang^3
#
#
#
# Elastic Constant Matrix: (Units=GPa)
#
#
# Indices 1 2 3 4 5 6 
#
# 1 80.2669 41.0631 54.8909 9.0667 0.4971 5.8464
# 2 41.0631 118.0804 37.2008 0.6118 8.4297 -4.0343
# 3 54.8909 37.2008 141.0010 12.7361 13.6249 -0.4578
# 4 9.0667 0.6118 12.7361 25.0713 5.9529 2.3490
# 5 0.4971 8.4297 13.6249 5.9529 35.8994 -0.1210
# 6 5.8464 -4.0343 -0.4578 2.3490 -0.1210 26.1880
#
#
#
# Elastic Compliance Matrix: (Units=1/GPa)
#
#
# Indices 1 2 3 4 5 6 
#
# 1 0.020683 -0.005570 -0.006603 -0.004517 0.004259 -0.005166
# 2 -0.005570 0.010880 -0.000662 0.002458 -0.002625 0.002675
# 3 -0.006603 -0.000662 0.010365 -0.002238 -0.003310 0.001739
# 4 -0.004517 0.002458 -0.002238 0.044523 -0.007057 -0.002678
# 5 0.004259 -0.002625 -0.003310 -0.007057 0.030837 -0.000638
# 6 -0.005166 0.002675 0.001739 -0.002678 -0.000638 0.040019
#
#
# Mechanical properties :
#
#
# Convention : Reuss Voigt Hill
#
# Bulk Modulus (GPa) = 61.50202 67.29534 64.39868
# Shear Modulus (GPa) = 26.53981 31.17798 28.85890
#
# Velocity S-wave (km/s) = 3.56846 3.86773 3.72110
# Velocity P-wave (km/s) = 6.81817 7.22733 7.02573
#
# Compressibility (1/GPa) = 0.01625963
#
# Stress axis : x y z
#
# Youngs Moduli (GPa) = 48.34846 91.90900 96.47988
#
# Poissons Ratio (x) = 0.51190 0.63703
# Poissons Ratio (y) = 0.26929 0.06387
# Poissons Ratio (z) = 0.31923 0.06084
#
# Static dielectric constant tensor:
#      x y z
#    x 3.565330 0.209060 0.034720 
#    y 0.209060 4.443680 -0.030490 
#    z 0.034720 -0.030490 3.668540 
# 
# 
# High freq. dielectric constant tensor:
#      x y z
#    x 1.795110 0.009910 0.010450 
#    y 0.009910 1.831340 0.002560 
#    z 0.010450 0.002560 1.814720 
# 
# From -- ./inp_files/145981.got.cif
#   From: 2010.06.25/outbox.cif.g09.slc.cpg/sg2_73_cif.got.tgz:145981.got - 2010.06.27 13:26:56.
