data_PCOD8000786
_publ_section_title
;
Structure prediction by ZEFSAII (Michael W. Deem and Ramdas Pophale) SiO2 
 PCOD8000786
Probable space group: P -1
;
_chemical_formula_sum "Si O2"
_cell_formula_units_Z 16
_cell_length_a 9.255533
_cell_length_b 11.743648
_cell_length_c 12.046661
_cell_angle_alpha 67.199800
_cell_angle_beta 84.606532
_cell_angle_gamma 43.262102
_cell_volume 789.699181
_symmetry_space_group_name_H-M "P -1"
_symmetry_group_IT_number 2
_symmetry_cell_setting 'triclinic'
loop_
_space_group_symop_operation_xyz
x,y,z
-x,-y,-z
loop_
_atom_site_type_symbol
_atom_site_label
_atom_site_fract_x
_atom_site_fract_y
_atom_site_fract_z
Si Si1 0.826036 0.177886 0.551189
Si Si2 0.721432 0.814314 0.268579
Si Si3 0.478581 0.300856 0.685809
Si Si4 0.496922 0.218387 0.166849
Si Si5 0.037113 0.461733 0.225680
Si Si6 0.664186 0.553279 0.120131
Si Si7 0.757041 0.226705 0.300150
Si Si8 0.000072 0.326798 0.485179
O O1 0.670866 0.260418 0.636998
O O2 0.668596 0.291233 0.410012
O O3 0.999961 0.178864 0.547341
O O4 0.980835 0.957451 0.626321
O O5 0.511025 0.855243 0.267688
O O6 0.894069 0.667902 0.211517
O O7 0.863058 0.706170 0.410656
O O8 0.610472 0.019724 0.190214
O O9 0.479827 0.334313 0.801978
O O10 0.256401 0.473835 0.569559
O O11 0.258328 0.361717 0.187198
O O12 0.654591 0.177710 0.261554
O O13 0.478693 0.318540 0.024317
O O14 0.885782 0.493090 0.131866
O O15 0.103107 0.317495 0.368438
O O16 0.720424 0.372688 0.176129
#
# Coordination Sequence:
#
# PCOD8000786 Si02
#       8
#     2   2   2   2   2   2   2   2
#     4  11  22  39  64  93 122 164 202 258 320 367
#     4  10  23  40  60 100 126 154 217 254 306 387
#     4  10  22  38  68  89 123 166 196 264 321 357
#     4  12  25  41  67  88 129 174 203 255 311 362
#     4  10  23  41  66  92 124 169 199 266 312 361
#     4  10  23  46  60  91 125 163 216 252 298 379
#     4  11  24  40  60  94 128 155 216 258 301 379
#     4  10  19  40  60  94 129 148 212 262 306 380
#
# _framework density 20.260878999999999
#
# number of rings (size 3 to 8) (size 9 to 14) (size 15 to 20)
#    0.000    1.750    3.750    2.625    5.250    2.500 
#    2.250    0.625    0.000    0.000    0.000    0.000 
#    0.000    0.000    0.000    0.000    0.000    0.000 
#
# Total GULP energy -198251.594614 kJ/mol
# GULP energy per Si atom -12390.724663 kJ/mol
# Density = 2.021476 g / cm^3
# Si number density = 20.260879 Si / 1000 Ang^3
#
#
#
# Elastic Constant Matrix: (Units=GPa)
#
#
# Indices 1 2 3 4 5 6 
#
# 1 71.5297 39.6375 36.6517 7.9072 -4.8045 12.6686
# 2 39.6375 89.0381 40.8262 0.9713 -19.3651 5.7677
# 3 36.6517 40.8262 99.9130 -3.4529 -12.7651 -9.0184
# 4 7.9072 0.9713 -3.4529 24.8932 5.4280 -5.8341
# 5 -4.8045 -19.3651 -12.7651 5.4280 28.9730 -0.1623
# 6 12.6686 5.7677 -9.0184 -5.8341 -0.1623 30.9070
#
#
#
# Elastic Compliance Matrix: (Units=1/GPa)
#
#
# Indices 1 2 3 4 5 6 
#
# 1 0.025977 -0.006998 -0.008617 -0.012055 -0.001987 -0.014142
# 2 -0.006998 0.018414 -0.003952 -0.001622 0.009698 -0.001976
# 3 -0.008617 -0.003952 0.016195 0.007178 0.001778 0.010359
# 4 -0.012055 -0.001622 0.007178 0.051076 -0.009395 0.016930
# 5 -0.001987 0.009698 0.001778 -0.009395 0.043200 -0.002023
# 6 -0.014142 -0.001976 0.010359 0.016930 -0.002023 0.044729
#
#
# Mechanical properties :
#
#
# Convention : Reuss Voigt Hill
#
# Bulk Modulus (GPa) = 46.61666 54.96794 50.79230
# Shear Modulus (GPa) = 20.33552 26.51235 23.42394
#
# Velocity S-wave (km/s) = 3.17153 3.62131 3.40386
# Velocity P-wave (km/s) = 6.03901 6.68387 6.36961
#
# Compressibility (1/GPa) = 0.02145156
#
# Stress axis : x y z
#
# Youngs Moduli (GPa) = 38.49545 54.30730 61.74731
#
# Poissons Ratio (x) = 0.38003 0.53207
# Poissons Ratio (y) = 0.26938 0.24406
# Poissons Ratio (z) = 0.33171 0.21465
#
# Static dielectric constant tensor:
#      x y z
#    x 3.712230 0.245320 -0.096560 
#    y 0.245320 3.641140 -0.047330 
#    z -0.096560 -0.047330 3.665110 
# 
# 
# High freq. dielectric constant tensor:
#      x y z
#    x 1.788460 0.019530 0.000440 
#    y 0.019530 1.785400 -0.003520 
#    z 0.000440 -0.003520 1.790150 
# 
# From -- ./inp_files/392337.got.cif
#   From: 2010.06.25/outbox.cif.g09.slc.cpg/sg2_197_cif.got.tgz:392337.got - 2010.06.27 13:26:56.
