data_PCOD8000023
_publ_section_title
;
Structure prediction by ZEFSAII (Michael W. Deem and Ramdas Pophale) SiO2 
 PCOD8000023
Probable space group: P 1
;
_chemical_formula_sum "Si O2"
_cell_formula_units_Z 6
_cell_length_a 9.076170
_cell_length_b 15.680841
_cell_length_c 8.201169
_cell_angle_alpha 146.103946
_cell_angle_beta 32.443090
_cell_angle_gamma 150.074260
_cell_volume 290.384280
_symmetry_space_group_name_H-M "P 1"
_symmetry_group_IT_number 1
_symmetry_cell_setting 'triclinic'
loop_
_space_group_symop_operation_xyz
x,y,z
loop_
_atom_site_type_symbol
_atom_site_label
_atom_site_fract_x
_atom_site_fract_y
_atom_site_fract_z
Si Si1 0.222600 0.128100 0.225870
Si Si2 0.583274 0.991833 0.461676
Si Si3 0.297645 0.620834 0.307777
Si Si4 0.369862 0.012813 0.335658
Si Si5 0.547798 0.381986 0.600880
Si Si6 0.732407 0.877306 0.571205
O O1 0.492709 0.322831 0.366650
O O2 0.983679 0.135095 0.326386
O O3 0.981503 0.005079 0.400807
O O4 0.408477 0.041932 0.839464
O O5 0.489087 0.787133 0.263403
O O6 0.472534 0.001140 0.401416
O O7 0.451209 0.683646 0.446549
O O8 0.917805 0.553972 0.559015
O O9 0.308546 0.448693 0.970750
O O10 0.460802 0.217156 0.542722
O O11 0.970500 0.864300 0.458229
O O12 0.560825 0.970124 0.958621
#
# Coordination Sequence:
#
# PCOD8000023 Si02
#       6
#     1   1   1   1   1   1
#     4  10  20  38  60  82 112 156 191 220 277 354
#     4  11  22  39  60  85 114 150 190 233 280 335
#     4  11  21  37  59  85 112 148 190 233 277 333
#     4  11  22  39  60  85 114 150 190 233 280 335
#     4  11  21  37  59  85 112 148 190 233 277 333
#     4  10  20  38  60  82 112 156 191 220 277 354
#
# _framework density 20.662275999999999
#
# number of rings (size 3 to 8) (size 9 to 14) (size 15 to 20)
#    0.000    1.333    0.000   11.000    0.000    0.000 
#    0.000   10.000    0.000    0.000    0.000    0.000 
#    0.000    0.000    0.000    0.000    0.000    0.000 
#
# Total GULP energy -74387.777052 kJ/mol
# GULP energy per Si atom -12397.962842 kJ/mol
# Density = 2.061525 g / cm^3
# Si number density = 20.662276 Si / 1000 Ang^3
#
#
#
# Elastic Constant Matrix: (Units=GPa)
#
#
# Indices 1 2 3 4 5 6 
#
# 1 143.5787 46.6033 18.2543 19.4862 -9.8540 24.7453
# 2 46.6033 79.3575 18.0259 3.2900 -1.0763 29.8930
# 3 18.2543 18.0259 127.4713 15.5776 -5.9709 -6.3420
# 4 19.4862 3.2900 15.5776 29.0803 10.7736 -5.0050
# 5 -9.8540 -1.0763 -5.9709 10.7736 30.8213 -4.9214
# 6 24.7453 29.8930 -6.3420 -5.0050 -4.9214 40.3707
#
#
#
# Elastic Compliance Matrix: (Units=1/GPa)
#
#
# Indices 1 2 3 4 5 6 
#
# 1 0.010789 -0.004572 0.000420 -0.009874 0.006244 -0.003625
# 2 -0.004572 0.021066 -0.003404 0.001698 -0.004155 -0.013627
# 3 0.000420 -0.003404 0.009383 -0.005975 0.004488 0.003543
# 4 -0.009874 0.001698 -0.005975 0.053388 -0.021666 0.007834
# 5 0.006244 -0.004155 0.004488 -0.021666 0.043143 0.002527
# 6 -0.003625 -0.013627 0.003543 0.007834 0.002527 0.038918
#
#
# Mechanical properties :
#
#
# Convention : Reuss Voigt Hill
#
# Bulk Modulus (GPa) = 38.27648 57.35271 47.81459
# Shear Modulus (GPa) = 24.93688 37.88938 31.41313
#
# Velocity S-wave (km/s) = 3.47779 4.28687 3.90335
# Velocity P-wave (km/s) = 5.88997 7.23329 6.59591
#
# Compressibility (1/GPa) = 0.02612571
#
# Stress axis : x y z
#
# Youngs Moduli (GPa) = 92.69005 47.47071 106.57764
#
# Poissons Ratio (x) = 0.21703 -0.04480
# Poissons Ratio (y) = 0.42376 0.36282
# Poissons Ratio (z) = -0.03896 0.16160
#
# Static dielectric constant tensor:
#      x y z
#    x 4.332700 0.901140 -0.195180 
#    y 0.901140 3.912490 -0.161920 
#    z -0.195180 -0.161920 3.867770 
# 
# 
# High freq. dielectric constant tensor:
#      x y z
#    x 1.811350 0.044690 -0.008410 
#    y 0.044690 1.788190 -0.006240 
#    z -0.008410 -0.006240 1.824530 
# 
# From -- ./inp_files/68.got.cif
#   From: 2010.03.12/outbox.cif.g09.slc.cpg/sg1_1_cif.got.tgz:68.got - 2010.03.29 11:57:58.
