data_PCOD8000246
_publ_section_title
;
Structure prediction by ZEFSAII (Michael W. Deem and Ramdas Pophale) SiO2 
 PCOD8000246
Probable space group: P 1
;
_chemical_formula_sum "Si O2"
_cell_formula_units_Z 8
_cell_length_a 4.944068
_cell_length_b 5.368482
_cell_length_c 17.197115
_cell_angle_alpha 122.029236
_cell_angle_beta 114.017567
_cell_angle_gamma 95.687223
_cell_volume 322.906368
_symmetry_space_group_name_H-M "P 1"
_symmetry_group_IT_number 1
_symmetry_cell_setting 'triclinic'
loop_
_space_group_symop_operation_xyz
x,y,z
loop_
_atom_site_type_symbol
_atom_site_label
_atom_site_fract_x
_atom_site_fract_y
_atom_site_fract_z
Si Si1 0.202770 0.419620 0.935250
Si Si2 0.334880 0.175545 0.478364
Si Si3 0.839593 0.864689 0.910385
Si Si4 0.620019 0.960453 0.334709
Si Si5 0.570300 0.925043 0.615895
Si Si6 0.321099 0.251374 0.761793
Si Si7 0.154875 0.260464 0.148804
Si Si8 0.655087 0.997724 0.169829
O O1 0.389150 0.308411 0.871893
O O2 0.024518 0.630724 0.912300
O O3 0.456612 0.617131 0.065769
O O4 0.959172 0.081916 0.885039
O O5 0.381394 0.544572 0.543748
O O6 0.539968 0.164374 0.424865
O O7 0.449104 0.064695 0.551712
O O8 0.954942 0.933206 0.391402
O O9 0.465903 0.622541 0.808375
O O10 0.865177 0.100604 0.025978
O O11 0.293087 0.639920 0.235995
O O12 0.691237 0.110674 0.281978
O O13 0.526133 0.076047 0.716832
O O14 0.949922 0.041175 0.663381
O O15 0.450162 0.180405 0.139109
O O16 0.010029 0.114957 0.192265
#
# Coordination Sequence:
#
# PCOD8000246 Si02
#       8
#     1   1   1   1   1   1   1   1
#     4  11  25  46  73 114 156 195 238 293 367 461
#     4  12  30  52  77 106 145 194 264 316 362 426
#     4  11  25  46  73 114 156 195 238 293 367 461
#     4  12  26  48  79 106 147 202 236 312 378 428
#     4  12  30  52  77 106 145 194 264 316 362 426
#     4  12  26  52  79 110 149 202 238 312 380 428
#     4  11  24  44  71 111 155 194 237 292 366 460
#     4  11  24  44  71 111 155 194 237 292 366 460
#
# _framework density 24.774986999999999
#
# number of rings (size 3 to 8) (size 9 to 14) (size 15 to 20)
#    0.000    0.500    3.750    3.000    7.000    3.000 
#    0.000    0.000    0.000    0.000    0.000    0.000 
#    0.000    0.000    0.000    0.000    0.000    0.000 
#
# Total GULP energy -99139.300209 kJ/mol
# GULP energy per Si atom -12392.412526 kJ/mol
# Density = 2.471860 g / cm^3
# Si number density = 24.774987 Si / 1000 Ang^3
#
#
#
# Elastic Constant Matrix: (Units=GPa)
#
#
# Indices 1 2 3 4 5 6 
#
# 1 90.9116 23.8659 26.2626 2.1854 -14.3047 23.0000
# 2 23.8659 132.3958 32.3497 11.4613 -17.4884 9.9812
# 3 26.2626 32.3497 92.2882 -1.7731 -19.5906 3.4286
# 4 2.1854 11.4613 -1.7731 38.0641 15.1448 3.7656
# 5 -14.3047 -17.4884 -19.5906 15.1448 49.4175 -4.6343
# 6 23.0000 9.9812 3.4286 3.7656 -4.6343 33.3200
#
#
#
# Elastic Compliance Matrix: (Units=1/GPa)
#
#
# Indices 1 2 3 4 5 6 
#
# 1 0.014827 -0.000878 -0.003142 -0.000633 0.002059 -0.009291
# 2 -0.000878 0.009114 -0.002309 -0.003967 0.003178 -0.000996
# 3 -0.003142 -0.002309 0.013263 -0.000217 0.003790 0.002047
# 4 -0.000633 -0.003967 -0.000217 0.032645 -0.012026 -0.003714
# 5 0.002059 0.003178 0.003790 -0.012026 0.027370 0.002403
# 6 -0.009291 -0.000996 0.002047 -0.003714 0.002403 0.037267
#
#
# Mechanical properties :
#
#
# Convention : Reuss Voigt Hill
#
# Bulk Modulus (GPa) = 40.73886 53.39466 47.06676
# Shear Modulus (GPa) = 32.19021 39.70148 35.94585
#
# Velocity S-wave (km/s) = 3.60849 4.00744 3.81319
# Velocity P-wave (km/s) = 5.81729 6.55831 6.19888
#
# Compressibility (1/GPa) = 0.02454659
#
# Stress axis : x y z
#
# Youngs Moduli (GPa) = 67.44257 109.72099 75.39516
#
# Poissons Ratio (x) = 0.09633 0.23687
# Poissons Ratio (y) = 0.05921 0.17412
# Poissons Ratio (z) = 0.21188 0.25340
#
# Static dielectric constant tensor:
#      x y z
#    x 4.591890 0.350710 -0.066560 
#    y 0.350710 4.218660 0.105240 
#    z -0.066560 0.105240 4.881080 
# 
# 
# High freq. dielectric constant tensor:
#      x y z
#    x 1.991670 0.022520 -0.004200 
#    y 0.022520 1.974950 0.007990 
#    z -0.004200 0.007990 2.005490 
# 
# From -- ./inp_files/7359.got.cif
#   From: 2010.03.12/outbox.cif.g09.slc.cpg/sg1_4_cif.got.tgz:7359.got - 2010.03.29 11:57:58.
