data_PCOD8000210
_publ_section_title
;
Structure prediction by ZEFSAII (Michael W. Deem and Ramdas Pophale) SiO2 
 PCOD8000210
Probable space group: P 1
;
_chemical_formula_sum "Si O2"
_cell_formula_units_Z 8
_cell_length_a 8.406325
_cell_length_b 8.783528
_cell_length_c 10.880707
_cell_angle_alpha 53.892950
_cell_angle_beta 127.207746
_cell_angle_gamma 82.616835
_cell_volume 339.869515
_symmetry_space_group_name_H-M "P 1"
_symmetry_group_IT_number 1
_symmetry_cell_setting 'triclinic'
loop_
_space_group_symop_operation_xyz
x,y,z
loop_
_atom_site_type_symbol
_atom_site_label
_atom_site_fract_x
_atom_site_fract_y
_atom_site_fract_z
Si Si1 0.470730 0.209810 0.351590
Si Si2 0.511049 0.744572 0.578640
Si Si3 0.466135 0.207989 0.632734
Si Si4 0.548427 0.709259 0.895414
Si Si5 0.938148 0.496884 0.393467
Si Si6 0.146108 0.772190 0.836049
Si Si7 0.977589 0.125151 0.991627
Si Si8 0.327102 0.956111 0.998128
O O1 0.373726 0.307440 0.401347
O O2 0.497032 0.976026 0.434051
O O3 0.218167 0.497094 0.014406
O O4 0.794656 0.071143 0.541830
O O5 0.612825 0.632900 0.819064
O O6 0.762299 0.457837 0.753370
O O7 0.168733 0.920174 0.298558
O O8 0.777509 0.093827 0.863867
O O9 0.193096 0.464337 0.476399
O O10 0.496606 0.963669 0.785718
O O11 0.262899 0.776991 0.760072
O O12 0.827013 0.459541 0.236179
O O13 0.075488 0.255653 0.669527
O O14 0.666042 0.794954 0.200878
O O15 0.326452 0.744322 0.045065
O O16 0.242362 0.002906 0.079078
#
# Coordination Sequence:
#
# PCOD8000210 Si02
#       8
#     1   1   1   1   1   1   1   1
#     4  11  25  41  73 102 135 178 246 276 341 406
#     4  11  28  47  66 102 148 190 225 283 353 421
#     4  11  25  41  74 108 136 180 239 288 338 416
#     4  10  25  44  75 102 142 177 236 288 352 404
#     4  11  22  41  71 107 136 175 233 295 344 392
#     4  11  21  41  73 105 131 174 236 298 334 396
#     4  12  27  46  71 102 148 187 229 281 354 420
#     4  11  23  41  69 108 140 177 224 299 346 401
#
# _framework density 23.538447000000001
#
# number of rings (size 3 to 8) (size 9 to 14) (size 15 to 20)
#    0.000    1.000    3.750    3.000   10.500    0.000 
#    0.000    5.000    0.000    0.000    0.000    0.000 
#    0.000    0.000    0.000    0.000    0.000    0.000 
#
# Total GULP energy -99143.871737 kJ/mol
# GULP energy per Si atom -12392.983967 kJ/mol
# Density = 2.348487 g / cm^3
# Si number density = 23.538447 Si / 1000 Ang^3
#
#
#
# Elastic Constant Matrix: (Units=GPa)
#
#
# Indices 1 2 3 4 5 6 
#
# 1 129.9778 30.0776 30.8724 -3.7211 13.1071 -11.3359
# 2 30.0776 77.3184 23.5029 -5.6014 -1.1802 -8.2749
# 3 30.8724 23.5029 118.2039 -4.5783 5.3104 -8.8355
# 4 -3.7211 -5.6014 -4.5783 35.7319 -1.1204 3.3194
# 5 13.1071 -1.1802 5.3104 -1.1204 41.1335 -7.7580
# 6 -11.3359 -8.2749 -8.8355 3.3194 -7.7580 18.6601
#
#
#
# Elastic Compliance Matrix: (Units=1/GPa)
#
#
# Indices 1 2 3 4 5 6 
#
# 1 0.009181 -0.002862 -0.001529 -0.000005 -0.002316 0.002622
# 2 -0.002862 0.015325 -0.001990 0.001473 0.002577 0.004925
# 3 -0.001529 -0.001990 0.009472 0.000505 -0.000317 0.002452
# 4 -0.000005 0.001473 0.000505 0.028673 -0.000038 -0.004227
# 5 -0.002316 0.002577 -0.000317 -0.000038 0.027221 0.010910
# 6 0.002622 0.004925 0.002452 -0.004227 0.010910 0.063816
#
#
# Mechanical properties :
#
#
# Convention : Reuss Voigt Hill
#
# Bulk Modulus (GPa) = 47.13450 54.93399 51.03424
# Shear Modulus (GPa) = 28.81484 35.17490 31.99487
#
# Velocity S-wave (km/s) = 3.50260 3.86989 3.69081
# Velocity P-wave (km/s) = 6.03536 6.58458 6.31594
#
# Compressibility (1/GPa) = 0.02121588
#
# Stress axis : x y z
#
# Youngs Moduli (GPa) = 108.91896 65.25332 105.57311
#
# Poissons Ratio (x) = 0.18674 0.16142
# Poissons Ratio (y) = 0.31170 0.21012
# Poissons Ratio (z) = 0.16654 0.12988
#
# Static dielectric constant tensor:
#      x y z
#    x 4.434190 -0.043410 0.165310 
#    y -0.043410 3.988860 0.041640 
#    z 0.165310 0.041640 4.369250 
# 
# 
# High freq. dielectric constant tensor:
#      x y z
#    x 1.942360 -0.006780 0.005010 
#    y -0.006780 1.895610 -0.007990 
#    z 0.005010 -0.007990 1.944710 
# 
# From -- ./inp_files/6509.got.cif
#   From: 2010.03.12/outbox.cif.g09.slc.cpg/sg1_4_cif.got.tgz:6509.got - 2010.03.29 11:57:58.
