data_PCOD8000426
_publ_section_title
;
Structure prediction by ZEFSAII (Michael W. Deem and Ramdas Pophale) SiO2 
 PCOD8000426
Probable space group: P -1
;
_chemical_formula_sum "Si O2"
_cell_formula_units_Z 14
_cell_length_a 9.494368
_cell_length_b 8.934521
_cell_length_c 17.266707
_cell_angle_alpha 58.316817
_cell_angle_beta 82.090956
_cell_angle_gamma 129.558290
_cell_volume 667.296480
_symmetry_space_group_name_H-M "P -1"
_symmetry_group_IT_number 2
_symmetry_cell_setting 'triclinic'
loop_
_space_group_symop_operation_xyz
x,y,z
-x,-y,-z
loop_
_atom_site_type_symbol
_atom_site_label
_atom_site_fract_x
_atom_site_fract_y
_atom_site_fract_z
Si Si1 0.884376 0.295640 0.408833
Si Si2 0.783718 0.346463 0.115109
Si Si3 0.548341 0.440893 0.353989
Si Si4 0.621984 0.810394 0.883247
Si Si5 0.361764 0.625220 0.344973
Si Si6 0.940790 0.624330 0.191235
Si Si7 0.881913 0.638040 0.404012
O O1 0.817030 0.324847 0.325644
O O2 0.837340 0.385153 0.457810
O O3 0.189020 0.550131 0.315077
O O4 0.709730 0.944389 0.531075
O O5 0.616819 0.316390 0.090240
O O6 0.941313 0.594445 0.107982
O O7 0.601064 0.996887 0.253801
O O8 0.000000 0.500000 0.000000
O O9 0.473980 0.566071 0.313869
O O10 0.760042 0.606525 0.227676
O O11 0.671579 0.540969 0.402175
O O12 0.500000 0.500000 0.000000
O O13 0.769637 0.042885 0.884784
O O14 0.824968 0.002068 0.743721
O O15 0.162518 0.373805 0.498979
#
# Coordination Sequence:
#
# PCOD8000426 Si02
#       7
#     2   2   2   2   2   2   2
#     4  10  19  39  61  95 135 173 215 272 329 393
#     4  12  27  45  71  95 134 180 221 276 334 399
#     4  10  21  36  62  98 136 170 218 272 332 390
#     4  10  24  48  68 102 131 177 228 265 334 400
#     4  12  22  39  63 107 133 166 229 274 330 385
#     4  10  23  46  68  91 134 183 219 270 332 401
#     4  10  21  39  69  90 136 176 214 274 326 396
#
# _framework density 20.980179
#
# number of rings (size 3 to 8) (size 9 to 14) (size 15 to 20)
#    0.000    1.714    2.857    4.714    6.000    1.143 
#    0.000    0.000    0.000    0.000    0.000    0.000 
#    0.000    0.000    0.000    0.000    0.000    0.000 
#
# Total GULP energy -173599.269348 kJ/mol
# GULP energy per Si atom -12399.947811 kJ/mol
# Density = 2.093243 g / cm^3
# Si number density = 20.980179 Si / 1000 Ang^3
#
#
#
# Elastic Constant Matrix: (Units=GPa)
#
#
# Indices 1 2 3 4 5 6 
#
# 1 133.4791 51.9276 29.1781 13.4105 -13.4851 -7.2320
# 2 51.9276 118.6950 50.3836 10.8458 -7.8540 4.1457
# 3 29.1781 50.3836 100.9693 5.9139 -3.3667 -3.6791
# 4 13.4105 10.8458 5.9139 31.3943 -10.9372 -3.0016
# 5 -13.4851 -7.8540 -3.3667 -10.9372 29.8367 -11.5268
# 6 -7.2320 4.1457 -3.6791 -3.0016 -11.5268 25.2654
#
#
#
# Elastic Compliance Matrix: (Units=1/GPa)
#
#
# Indices 1 2 3 4 5 6 
#
# 1 0.010089 -0.004018 -0.000485 -0.000275 0.005678 0.006034
# 2 -0.004018 0.012742 -0.005293 -0.002981 -0.002232 -0.005384
# 3 -0.000485 -0.005293 0.012821 0.000338 0.001185 0.003177
# 4 -0.000275 -0.002981 0.000338 0.041207 0.019791 0.014384
# 5 0.005678 -0.002232 0.001185 0.019791 0.054176 0.029232
# 6 0.006034 -0.005384 0.003177 0.014384 0.029232 0.057699
#
#
# Mechanical properties :
#
#
# Convention : Reuss Voigt Hill
#
# Bulk Modulus (GPa) = 62.26775 68.45799 65.36287
# Shear Modulus (GPa) = 23.39938 32.07622 27.73780
#
# Velocity S-wave (km/s) = 3.34325 3.91433 3.64001
# Velocity P-wave (km/s) = 6.68183 7.28903 6.99203
#
# Compressibility (1/GPa) = 0.01605968
#
# Stress axis : x y z
#
# Youngs Moduli (GPa) = 99.11626 78.47826 77.99580
#
# Poissons Ratio (x) = 0.31531 0.03786
# Poissons Ratio (y) = 0.39822 0.41286
# Poissons Ratio (z) = 0.04811 0.41542
#
# Static dielectric constant tensor:
#      x y z
#    x 3.931700 0.112090 -0.077700 
#    y 0.112090 3.671730 -0.176390 
#    z -0.077700 -0.176390 3.641860 
# 
# 
# High freq. dielectric constant tensor:
#      x y z
#    x 1.834190 0.009770 -0.004960 
#    y 0.009770 1.810990 -0.015920 
#    z -0.004960 -0.015920 1.806290 
# 
# From -- ./inp_files/179802.got.cif
#   From: 2010.06.25/outbox.cif.g09.slc.cpg/sg2_90_cif.got.tgz:179802.got - 2010.06.27 13:26:56.
