data_PCOD8000671
_publ_section_title
;
Structure prediction by ZEFSAII (Michael W. Deem and Ramdas Pophale) SiO2 
 PCOD8000671
Probable space group: P -1
;
_chemical_formula_sum "Si O2"
_cell_formula_units_Z 16
_cell_length_a 11.262267
_cell_length_b 19.931362
_cell_length_c 20.535621
_cell_angle_alpha 19.787587
_cell_angle_beta 39.386559
_cell_angle_gamma 31.271856
_cell_volume 797.065424
_symmetry_space_group_name_H-M "P -1"
_symmetry_group_IT_number 2
_symmetry_cell_setting 'triclinic'
loop_
_space_group_symop_operation_xyz
x,y,z
-x,-y,-z
loop_
_atom_site_type_symbol
_atom_site_label
_atom_site_fract_x
_atom_site_fract_y
_atom_site_fract_z
Si Si1 0.757177 0.736719 0.362948
Si Si2 0.137526 0.387079 0.212696
Si Si3 0.174655 0.065782 0.116571
Si Si4 0.402150 0.029084 0.655881
Si Si5 0.037404 0.671059 0.786739
Si Si6 0.323551 0.182206 0.822798
Si Si7 0.374732 0.783372 0.544103
Si Si8 0.000691 0.735231 0.490951
O O1 0.671077 0.962325 0.244765
O O2 0.761396 0.819444 0.212549
O O3 0.572585 0.668764 0.508345
O O4 0.000000 0.500000 0.500000
O O5 0.144361 0.247735 0.401204
O O6 0.970226 0.380711 0.238592
O O7 0.399772 0.247191 0.200746
O O8 0.041411 0.665301 0.014244
O O9 0.398099 0.978701 0.145211
O O10 0.231513 0.068027 0.014203
O O11 0.101945 0.887335 0.321611
O O12 0.517988 0.180011 0.469020
O O13 0.172155 0.159072 0.592832
O O14 0.288965 0.612856 0.748598
O O15 0.840205 0.951398 0.633864
O O16 0.000000 0.500000 0.000000
O O17 0.219034 0.457309 0.638399
#
# Coordination Sequence:
#
# PCOD8000671 Si02
#       8
#     2   2   2   2   2   2   2   2
#     4  10  19  39  67  86 121 169 203 255 307 367
#     4  10  23  37  59  91 123 156 201 255 311 368
#     4  10  24  38  61  92 121 166 201 259 303 359
#     4   9  20  39  60  90 119 158 207 247 310 368
#     4  10  20  37  59  90 120 149 199 250 309 362
#     4  10  21  42  59  89 124 154 215 254 301 366
#     4   8  20  37  59  86 117 154 190 252 304 354
#     4  11  21  40  64  82 122 167 206 248 302 370
#
# _framework density 20.073633999999998
#
# number of rings (size 3 to 8) (size 9 to 14) (size 15 to 20)
#    0.750    1.500    1.250    0.750    3.500    2.500 
#    0.000    8.125    0.000    0.000    0.000    0.000 
#    0.000    0.000    0.000    0.000    0.000    0.000 
#
# Total GULP energy -198268.043743 kJ/mol
# GULP energy per Si atom -12391.752734 kJ/mol
# Density = 2.002795 g / cm^3
# Si number density = 20.073634 Si / 1000 Ang^3
#
#
#
# Elastic Constant Matrix: (Units=GPa)
#
#
# Indices 1 2 3 4 5 6 
#
# 1 60.8633 15.6116 10.0985 1.5080 20.7816 12.3296
# 2 15.6116 101.8692 31.3348 -9.5421 9.0325 11.6835
# 3 10.0985 31.3348 75.6405 -2.8394 0.7274 5.8427
# 4 1.5080 -9.5421 -2.8394 14.4270 -1.0573 2.4815
# 5 20.7816 9.0325 0.7274 -1.0573 30.7003 5.8343
# 6 12.3296 11.6835 5.8427 2.4815 5.8343 36.9563
#
#
#
# Elastic Compliance Matrix: (Units=1/GPa)
#
#
# Indices 1 2 3 4 5 6 
#
# 1 0.023084 -0.001485 -0.002148 -0.004132 -0.014457 -0.004333
# 2 -0.001485 0.012693 -0.004503 0.008063 -0.001761 -0.003069
# 3 -0.002148 -0.004503 0.015428 0.000600 0.002576 -0.000746
# 4 -0.004132 0.008063 0.000600 0.076743 0.004406 -0.007114
# 5 -0.014457 -0.001761 0.002576 0.004406 0.043381 -0.002171
# 6 -0.004333 -0.003069 -0.000746 -0.007114 -0.002171 0.030413
#
#
# Mechanical properties :
#
#
# Convention : Reuss Voigt Hill
#
# Bulk Modulus (GPa) = 28.62718 39.16254 33.89486
# Shear Modulus (GPa) = 21.77146 28.50527 25.13837
#
# Velocity S-wave (km/s) = 3.29687 3.77242 3.54264
# Velocity P-wave (km/s) = 5.36512 6.20699 5.80135
#
# Compressibility (1/GPa) = 0.03493184
#
# Stress axis : x y z
#
# Youngs Moduli (GPa) = 43.32005 78.78596 64.81718
#
# Poissons Ratio (x) = 0.11702 0.13923
# Poissons Ratio (y) = 0.06434 0.29188
# Poissons Ratio (z) = 0.09305 0.35478
#
# Static dielectric constant tensor:
#      x y z
#    x 3.755000 -0.003630 0.070900 
#    y -0.003630 3.843810 -0.043390 
#    z 0.070900 -0.043390 3.422820 
# 
# 
# High freq. dielectric constant tensor:
#      x y z
#    x 1.779250 0.000550 0.010820 
#    y 0.000550 1.795030 -0.009480 
#    z 0.010820 -0.009480 1.754880 
# 
# From -- ./inp_files/471682.got.cif
#   From: 2010.06.25/outbox.cif.g09.slc.cpg/sg2_236_cif.got.tgz:471682.got - 2010.06.27 13:26:56.
