data_PCOD8000801
_publ_section_title
;
Structure prediction by ZEFSAII (Michael W. Deem and Ramdas Pophale) SiO2 
 PCOD8000801
Probable space group: P -1
;
_chemical_formula_sum "Si O2"
_cell_formula_units_Z 14
_cell_length_a 13.628148
_cell_length_b 12.203108
_cell_length_c 8.420134
_cell_angle_alpha 80.824691
_cell_angle_beta 123.745238
_cell_angle_gamma 54.215908
_cell_volume 657.540217
_symmetry_space_group_name_H-M "P -1"
_symmetry_group_IT_number 2
_symmetry_cell_setting 'triclinic'
loop_
_space_group_symop_operation_xyz
x,y,z
-x,-y,-z
loop_
_atom_site_type_symbol
_atom_site_label
_atom_site_fract_x
_atom_site_fract_y
_atom_site_fract_z
Si Si1 0.065703 0.599957 0.182714
Si Si2 0.015396 0.194822 0.652566
Si Si3 0.672096 0.050662 0.277146
Si Si4 0.274290 0.466982 0.927908
Si Si5 0.128072 0.310221 0.324978
Si Si6 0.978735 0.985902 0.669123
Si Si7 0.322696 0.574699 0.230234
O O1 0.192927 0.388755 0.386566
O O2 0.217369 0.577474 0.263983
O O3 0.955605 0.730295 0.211514
O O4 0.887861 0.707813 0.871293
O O5 0.834443 0.362635 0.326757
O O6 0.235476 0.010608 0.803097
O O7 0.948157 0.130134 0.691533
O O8 0.701145 0.901272 0.395150
O O9 0.431028 0.267861 0.016455
O O10 0.792246 0.042218 0.506548
O O11 0.097057 0.529789 0.834553
O O12 0.397940 0.440175 0.181167
O O13 0.175466 0.780437 0.975423
O O14 0.000000 0.000000 0.500000
O O15 0.500000 0.500000 0.500000
#
# Coordination Sequence:
#
# PCOD8000801 Si02
#       7
#     2   2   2   2   2   2   2
#     4  10  21  40  65  85 125 169 199 264 314 365
#     4  10  22  38  61  93 126 165 211 250 319 368
#     4  10  20  38  65  88 122 165 210 252 312 366
#     4  10  21  40  62  93 123 168 205 262 305 370
#     4   9  20  44  62  85 125 162 213 252 318 363
#     4  10  19  40  61  87 129 165 205 250 309 374
#     4  11  23  40  62  98 127 163 211 256 314 372
#
# _framework density 21.291471999999999
#
# number of rings (size 3 to 8) (size 9 to 14) (size 15 to 20)
#    0.000    2.000    5.714    0.000    2.000    6.857 
#    0.000   12.143    0.000    0.000    0.000    0.000 
#    0.000    0.000    0.000    0.000    0.000    0.000 
#
# Total GULP energy -173517.753303 kJ/mol
# GULP energy per Si atom -12394.125236 kJ/mol
# Density = 2.124301 g / cm^3
# Si number density = 21.291472 Si / 1000 Ang^3
#
#
#
# Elastic Constant Matrix: (Units=GPa)
#
#
# Indices 1 2 3 4 5 6 
#
# 1 76.7536 55.6079 48.3194 -10.0441 -20.2099 17.0096
# 2 55.6079 136.9348 39.6938 0.5240 -5.6414 -0.6288
# 3 48.3194 39.6938 74.6927 -11.8809 0.0480 -1.1808
# 4 -10.0441 0.5240 -11.8809 38.0463 3.6810 -2.2274
# 5 -20.2099 -5.6414 0.0480 3.6810 20.7808 -11.3264
# 6 17.0096 -0.6288 -1.1808 -2.2274 -11.3264 42.6987
#
#
#
# Elastic Compliance Matrix: (Units=1/GPa)
#
#
# Indices 1 2 3 4 5 6 
#
# 1 0.052471 -0.011536 -0.027913 0.000603 0.042046 -0.010660
# 2 -0.011536 0.011440 0.001103 -0.002091 -0.006069 0.003075
# 3 -0.027913 0.001103 0.031805 0.005276 -0.024732 0.005730
# 4 0.000603 -0.002091 0.005276 0.028609 -0.005046 0.000029
# 5 0.042046 -0.006069 -0.024732 -0.005046 0.091909 0.006594
# 6 -0.010660 0.003075 0.005730 0.000029 0.006594 0.029621
#
#
# Mechanical properties :
#
#
# Convention : Reuss Voigt Hill
#
# Bulk Modulus (GPa) = 52.56556 63.95815 58.26186
# Shear Modulus (GPa) = 15.20275 29.95582 22.57928
#
# Velocity S-wave (km/s) = 2.67503 3.75499 3.26004
# Velocity P-wave (km/s) = 5.85519 6.99317 6.44933
#
# Compressibility (1/GPa) = 0.01902386
#
# Stress axis : x y z
#
# Youngs Moduli (GPa) = 19.05815 87.41558 31.44160
#
# Poissons Ratio (x) = 1.00840 0.87764
# Poissons Ratio (y) = 0.21985 -0.03468
# Poissons Ratio (z) = 0.53198 -0.09643
#
# Static dielectric constant tensor:
#      x y z
#    x 3.903350 0.276630 -0.262390 
#    y 0.276630 4.213900 0.062170 
#    z -0.262390 0.062170 3.541110 
# 
# 
# High freq. dielectric constant tensor:
#      x y z
#    x 1.826070 0.019510 -0.023420 
#    y 0.019510 1.847140 0.001810 
#    z -0.023420 0.001810 1.808990 
# 
# From -- ./inp_files/305186.got.cif
#   From: 2010.06.25/outbox.cif.g09.slc.cpg/sg2_153_cif.got.tgz:305186.got - 2010.06.27 13:26:56.
