data_PCOD8000715
_publ_section_title
;
Structure prediction by ZEFSAII (Michael W. Deem and Ramdas Pophale) SiO2 
 PCOD8000715
Probable space group: P -1
;
_chemical_formula_sum "Si O2"
_cell_formula_units_Z 16
_cell_length_a 11.392829
_cell_length_b 13.792376
_cell_length_c 8.007617
_cell_angle_alpha 116.077626
_cell_angle_beta 111.356957
_cell_angle_gamma 116.704640
_cell_volume 720.956987
_symmetry_space_group_name_H-M "P -1"
_symmetry_group_IT_number 2
_symmetry_cell_setting 'triclinic'
loop_
_space_group_symop_operation_xyz
x,y,z
-x,-y,-z
loop_
_atom_site_type_symbol
_atom_site_label
_atom_site_fract_x
_atom_site_fract_y
_atom_site_fract_z
Si Si1 0.455084 0.701845 0.380503
Si Si2 0.936511 0.851717 0.266249
Si Si3 0.142790 0.405598 0.801591
Si Si4 0.468826 0.957351 0.186112
Si Si5 0.574786 0.658767 0.725112
Si Si6 0.703398 0.375579 0.256452
Si Si7 0.715384 0.023098 0.633613
Si Si8 0.772906 0.286203 0.525424
O O1 0.575239 0.737622 0.626162
O O2 0.312973 0.707923 0.356381
O O3 0.600567 0.839300 0.428382
O O4 0.327879 0.532277 0.102474
O O5 0.887267 0.742161 0.314619
O O6 0.079463 0.881176 0.239292
O O7 0.773452 0.773896 0.995556
O O8 0.000000 0.000000 0.500000
O O9 0.164671 0.474675 0.684625
O O10 0.957246 0.344039 0.729885
O O11 0.306732 0.934939 0.159390
O O12 0.631833 0.054160 0.482297
O O13 0.605598 0.101553 0.225602
O O14 0.393814 0.790876 0.995572
O O15 0.500000 0.500000 0.500000
O O16 0.445680 0.628653 0.775845
O O17 0.820708 0.405457 0.497771
#
# Coordination Sequence:
#
# PCOD8000715 Si02
#       8
#     2   2   2   2   2   2   2   2
#     4  10  22  42  69  95 133 180 221 278 341 400
#     4  12  27  45  70  98 136 181 235 277 325 406
#     4  12  23  40  68  98 133 177 224 283 336 401
#     4  10  19  39  68  96 135 170 217 277 345 398
#     4  11  25  47  68  95 137 182 225 279 336 398
#     4  11  24  41  67  99 137 176 223 279 340 402
#     4  10  21  40  65  99 128 176 224 276 332 398
#     4  10  22  39  64 103 135 169 221 280 343 398
#
# _framework density 22.192724999999999
#
# number of rings (size 3 to 8) (size 9 to 14) (size 15 to 20)
#    0.000    1.250    3.750    1.875    0.000    3.000 
#    2.250    0.000    0.000    0.000    0.000    0.000 
#    0.000    0.000    0.000    0.000    0.000    0.000 
#
# Total GULP energy -198211.008438 kJ/mol
# GULP energy per Si atom -12388.188027 kJ/mol
# Density = 2.214221 g / cm^3
# Si number density = 22.192725 Si / 1000 Ang^3
#
#
#
# Elastic Constant Matrix: (Units=GPa)
#
#
# Indices 1 2 3 4 5 6 
#
# 1 125.6726 32.2314 44.2279 11.8638 1.1801 -12.5944
# 2 32.2314 127.8412 26.6626 22.8842 3.6248 -13.9096
# 3 44.2279 26.6626 97.3175 12.1867 2.4704 -13.2439
# 4 11.8638 22.8842 12.1867 31.2361 -15.9414 -0.3505
# 5 1.1801 3.6248 2.4704 -15.9414 35.2558 1.8392
# 6 -12.5944 -13.9096 -13.2439 -0.3505 1.8392 28.4654
#
#
#
# Elastic Compliance Matrix: (Units=1/GPa)
#
#
# Indices 1 2 3 4 5 6 
#
# 1 0.009944 -0.001120 -0.003635 -0.002019 -0.000991 0.002200
# 2 -0.001120 0.010705 -0.000330 -0.010262 -0.005933 0.004839
# 3 -0.003635 -0.000330 0.013397 -0.005298 -0.003420 0.004619
# 4 -0.002019 -0.010262 -0.005298 0.056256 0.027424 -0.009452
# 5 -0.000991 -0.005933 -0.003420 0.027424 0.042028 -0.007306
# 6 0.002200 0.004839 0.004619 -0.009452 -0.007306 0.040973
#
#
# Mechanical properties :
#
#
# Convention : Reuss Voigt Hill
#
# Bulk Modulus (GPa) = 41.88205 61.89724 51.88964
# Shear Modulus (GPa) = 26.11890 35.50543 30.81217
#
# Velocity S-wave (km/s) = 3.43434 4.00417 3.73015
# Velocity P-wave (km/s) = 5.88551 7.02348 6.47952
#
# Compressibility (1/GPa) = 0.02387658
#
# Stress axis : x y z
#
# Youngs Moduli (GPa) = 100.56175 93.41390 74.64413
#
# Poissons Ratio (x) = 0.10463 0.27133
# Poissons Ratio (y) = 0.11264 0.02460
# Poissons Ratio (z) = 0.36554 0.03079
#
# Static dielectric constant tensor:
#      x y z
#    x 4.047560 -0.127260 0.104970 
#    y -0.127260 4.362170 0.072900 
#    z 0.104970 0.072900 3.843610 
# 
# 
# High freq. dielectric constant tensor:
#      x y z
#    x 1.868920 -0.011230 0.003870 
#    y -0.011230 1.898110 0.009560 
#    z 0.003870 0.009560 1.858760 
# 
# From -- ./inp_files/274115.got.cif
#   From: 2010.06.25/outbox.cif.g09.slc.cpg/sg2_138_cif.got.tgz:274115.got - 2010.06.27 13:26:56.
