data_PCOD8000962
_publ_section_title
;
Structure prediction by ZEFSAII (Michael W. Deem and Ramdas Pophale) SiO2 
 PCOD8000962
Probable space group: P -1
;
_chemical_formula_sum "Si O2"
_cell_formula_units_Z 16
_cell_length_a 8.688449
_cell_length_b 14.485913
_cell_length_c 16.905942
_cell_angle_alpha 133.744677
_cell_angle_beta 136.841726
_cell_angle_gamma 31.965286
_cell_volume 754.877721
_symmetry_space_group_name_H-M "P -1"
_symmetry_group_IT_number 2
_symmetry_cell_setting 'triclinic'
loop_
_space_group_symop_operation_xyz
x,y,z
-x,-y,-z
loop_
_atom_site_type_symbol
_atom_site_label
_atom_site_fract_x
_atom_site_fract_y
_atom_site_fract_z
Si Si1 0.156847 0.014458 0.495183
Si Si2 0.339231 0.362605 0.507895
Si Si3 0.323068 0.504843 0.279264
Si Si4 0.637747 0.829509 0.244164
Si Si5 0.636261 0.666390 0.954641
Si Si6 0.509584 0.247949 0.327695
Si Si7 0.635311 0.314153 0.971473
Si Si8 0.355401 0.032862 0.106038
O O1 0.450118 0.810982 0.458040
O O2 0.290792 0.102393 0.617235
O O3 0.000000 0.000000 0.500000
O O4 0.879802 0.139273 0.401772
O O5 0.477092 0.448320 0.606623
O O6 0.348865 0.301683 0.386114
O O7 0.000000 0.500000 0.500000
O O8 0.481455 0.359075 0.183245
O O9 0.324047 0.428377 0.316835
O O10 0.961122 0.680821 0.228230
O O11 0.502445 0.745306 0.171574
O O12 0.377878 0.990217 0.182553
O O13 0.462967 0.671981 0.967117
O O14 0.000000 0.500000 0.000000
O O15 0.556884 0.848409 0.023740
O O16 0.488909 0.122281 0.198857
O O17 0.500000 0.500000 0.000000
O O18 0.007562 0.167473 0.021028
#
# Coordination Sequence:
#
# PCOD8000962 Si02
#       8
#     2   2   2   2   2   2   2   2
#     4  10  19  40  67  92 123 174 220 256 324 396
#     4  11  24  40  66  95 129 164 217 275 331 374
#     4  12  23  41  65  98 130 170 222 271 314 393
#     4  11  19  40  69  91 127 177 218 256 325 393
#     4  11  24  41  66  93 128 172 221 263 320 386
#     4  11  23  42  69  94 128 177 222 257 328 393
#     4  11  25  44  64  99 130 174 218 270 332 384
#     4  11  22  41  69  94 132 175 215 266 332 392
#
# _framework density 21.195485999999999
#
# number of rings (size 3 to 8) (size 9 to 14) (size 15 to 20)
#    0.000    1.000    7.500    2.625    1.750    1.500 
#    0.000    0.625    2.750    0.000    0.000    0.000 
#    0.000    0.000    0.000    0.000    0.000    0.000 
#
# Total GULP energy -198341.503170 kJ/mol
# GULP energy per Si atom -12396.343948 kJ/mol
# Density = 2.114724 g / cm^3
# Si number density = 21.195486 Si / 1000 Ang^3
#
#
#
# Elastic Constant Matrix: (Units=GPa)
#
#
# Indices 1 2 3 4 5 6 
#
# 1 45.0275 42.9851 41.5194 5.0101 11.6333 3.3200
# 2 42.9851 155.5514 53.8124 7.6016 16.4121 -11.7268
# 3 41.5194 53.8124 134.4402 22.5593 34.4188 1.1982
# 4 5.0101 7.6016 22.5593 38.4519 1.9563 4.9117
# 5 11.6333 16.4121 34.4188 1.9563 39.7309 6.9603
# 6 3.3200 -11.7268 1.1982 4.9117 6.9603 30.7799
#
#
#
# Elastic Compliance Matrix: (Units=1/GPa)
#
#
# Indices 1 2 3 4 5 6 
#
# 1 0.038724 -0.008327 -0.009459 0.003071 0.001514 -0.007814
# 2 -0.008327 0.009593 -0.000698 -0.000968 -0.001772 0.005135
# 3 -0.009459 -0.000698 0.014205 -0.006921 -0.009512 0.003457
# 4 0.003071 -0.000968 -0.006921 0.030420 0.005127 -0.006444
# 5 0.001514 -0.001772 -0.009512 0.005127 0.035061 -0.009214
# 6 -0.007814 0.005135 0.003457 -0.006444 -0.009214 0.038265
#
#
# Mechanical properties :
#
#
# Convention : Reuss Voigt Hill
#
# Bulk Modulus (GPa) = 39.13468 67.96146 53.54807
# Shear Modulus (GPa) = 23.61232 34.90602 29.25917
#
# Velocity S-wave (km/s) = 3.34132 4.06256 3.71946
# Velocity P-wave (km/s) = 5.77838 7.35796 6.61548
#
# Compressibility (1/GPa) = 0.02555278
#
# Stress axis : x y z
#
# Youngs Moduli (GPa) = 25.82380 104.24618 70.39939
#
# Poissons Ratio (x) = 0.86811 0.66592
# Poissons Ratio (y) = 0.21505 0.04911
# Poissons Ratio (z) = 0.24427 0.07272
#
# Static dielectric constant tensor:
#      x y z
#    x 3.735920 -0.460530 -0.134780 
#    y -0.460530 5.092950 0.675690 
#    z -0.134780 0.675690 4.664650 
# 
# 
# High freq. dielectric constant tensor:
#      x y z
#    x 1.781580 0.006420 0.022770 
#    y 0.006420 1.852390 0.004310 
#    z 0.022770 0.004310 1.847300 
# 
# From -- ./inp_files/507298.got.cif
#   From: 2010.06.25/outbox.cif.g09.slc.cpg/sg2_254_cif.got.tgz:507298.got - 2010.06.27 13:26:56.
