data_PCOD8000190
_publ_section_title
;
Structure prediction by ZEFSAII (Michael W. Deem and Ramdas Pophale) SiO2 
 PCOD8000190
Probable space group: P 1
;
_chemical_formula_sum "Si O2"
_cell_formula_units_Z 8
_cell_length_a 8.143792
_cell_length_b 9.585415
_cell_length_c 9.552357
_cell_angle_alpha 42.578698
_cell_angle_beta 64.769039
_cell_angle_gamma 90.000000
_cell_volume 391.805357
_symmetry_space_group_name_H-M "P 1"
_symmetry_group_IT_number 1
_symmetry_cell_setting 'triclinic'
loop_
_space_group_symop_operation_xyz
x,y,z
loop_
_atom_site_type_symbol
_atom_site_label
_atom_site_fract_x
_atom_site_fract_y
_atom_site_fract_z
Si Si1 0.937110 0.656820 0.932790
Si Si2 0.428170 0.059517 0.950671
Si Si3 0.882569 0.158072 0.386004
Si Si4 0.109464 0.358168 0.441726
Si Si5 0.050479 0.858165 0.441731
Si Si6 0.092033 0.951170 0.921127
Si Si7 0.571430 0.765167 0.962333
Si Si8 0.826843 0.558261 0.497455
O O1 0.729782 0.674961 0.015467
O O2 0.055766 0.769529 0.661038
O O3 0.870111 0.378542 0.165765
O O4 0.096100 0.798326 0.898702
O O5 0.303519 0.041372 0.867996
O O6 0.594145 0.337797 0.717691
O O7 0.553074 0.918009 0.984761
O O8 0.275080 0.946812 0.222421
O O9 0.989716 0.203137 0.465641
O O10 0.649729 0.927968 0.671890
O O11 0.008457 0.080416 0.292687
O O12 0.088325 0.184276 0.703154
O O13 0.013618 0.513193 0.417808
O O14 0.349752 0.532069 0.180298
O O15 0.859422 0.635906 0.590779
O O16 0.879890 0.788375 0.211568
#
# Coordination Sequence:
#
# PCOD8000190 Si02
#       8
#     1   1   1   1   1   1   1   1
#     4  11  22  44  69  94 136 171 215 272 325 385
#     4  11  22  44  69  94 136 171 215 272 325 385
#     4  11  23  44  64  98 134 171 215 274 317 390
#     4  12  22  38  70  98 130 166 222 270 316 384
#     4  10  24  42  62 100 142 164 210 268 344 378
#     4  11  22  39  67 100 124 171 222 263 318 383
#     4  11  22  39  67 100 124 171 222 263 318 383
#     4  11  23  44  64  98 134 171 215 274 317 390
#
# _framework density 20.418306000000001
#
# number of rings (size 3 to 8) (size 9 to 14) (size 15 to 20)
#    0.000    1.000    7.500    0.000    3.500    4.000 
#    0.000    0.000    0.000    1.500    0.000    0.000 
#    0.000    0.000    0.000    0.000    0.000    0.000 
#
# Total GULP energy -99201.798274 kJ/mol
# GULP energy per Si atom -12400.224784 kJ/mol
# Density = 2.037183 g / cm^3
# Si number density = 20.418306 Si / 1000 Ang^3
#
#
#
# Elastic Constant Matrix: (Units=GPa)
#
#
# Indices 1 2 3 4 5 6 
#
# 1 89.5405 38.9524 54.2980 1.8393 -0.9632 -2.8438
# 2 38.9524 102.9924 31.9944 12.9014 -0.4933 1.2584
# 3 54.2980 31.9944 140.0600 -1.7098 -0.7248 1.9601
# 4 1.8393 12.9014 -1.7098 37.6135 -0.7683 -0.6029
# 5 -0.9632 -0.4933 -0.7248 -0.7683 26.2363 2.2052
# 6 -2.8438 1.2584 1.9601 -0.6029 2.2052 41.5741
#
#
#
# Elastic Compliance Matrix: (Units=1/GPa)
#
#
# Indices 1 2 3 4 5 6 
#
# 1 0.016469 -0.004662 -0.005332 0.000581 0.000259 0.001514
# 2 -0.004662 0.012314 -0.001045 -0.004055 -0.000028 -0.000700
# 3 -0.005332 -0.001045 0.009470 0.001040 0.000142 -0.000772
# 4 0.000581 -0.004055 0.001040 0.028019 0.000754 0.000480
# 5 0.000259 -0.000028 0.000142 0.000754 0.038319 -0.002010
# 6 0.001514 -0.000700 -0.000772 0.000480 -0.002010 0.024328
#
#
# Mechanical properties :
#
#
# Convention : Reuss Voigt Hill
#
# Bulk Modulus (GPa) = 61.83141 64.78694 63.30917
# Shear Modulus (GPa) = 31.97149 34.90800 33.43974
#
# Velocity S-wave (km/s) = 3.96134 4.13927 4.05128
# Velocity P-wave (km/s) = 7.16038 7.39212 7.27717
#
# Compressibility (1/GPa) = 0.01617301
#
# Stress axis : x y z
#
# Youngs Moduli (GPa) = 60.72098 81.20972 105.59619
#
# Poissons Ratio (x) = 0.37861 0.56307
# Poissons Ratio (y) = 0.28309 0.11038
# Poissons Ratio (z) = 0.32378 0.08489
#
# Static dielectric constant tensor:
#      x y z
#    x 3.565380 -0.021280 0.005130 
#    y -0.021280 3.876870 -0.148180 
#    z 0.005130 -0.148180 3.825540 
# 
# 
# High freq. dielectric constant tensor:
#      x y z
#    x 1.783010 -0.001170 0.000380 
#    y -0.001170 1.801870 -0.013590 
#    z 0.000380 -0.013590 1.810230 
# 
# From -- ./inp_files/4046.got.cif
#   From: 2010.03.12/outbox.cif.g09.slc.cpg/sg1_3_cif.got.tgz:4046.got - 2010.03.29 11:57:58.
