data_PCOD8000819
_publ_section_title
;
Structure prediction by ZEFSAII (Michael W. Deem and Ramdas Pophale) SiO2 
 PCOD8000819
Probable space group: P -1
;
_chemical_formula_sum "Si O2"
_cell_formula_units_Z 16
_cell_length_a 9.831365
_cell_length_b 8.525474
_cell_length_c 20.092975
_cell_angle_alpha 29.066446
_cell_angle_beta 83.342658
_cell_angle_gamma 83.516025
_cell_volume 812.440434
_symmetry_space_group_name_H-M "P -1"
_symmetry_group_IT_number 2
_symmetry_cell_setting 'triclinic'
loop_
_space_group_symop_operation_xyz
x,y,z
-x,-y,-z
loop_
_atom_site_type_symbol
_atom_site_label
_atom_site_fract_x
_atom_site_fract_y
_atom_site_fract_z
Si Si1 0.123290 0.621574 0.631120
Si Si2 0.179118 0.338235 0.360628
Si Si3 0.649143 0.247482 0.221187
Si Si4 0.117084 0.429013 0.849501
Si Si5 0.449623 0.677327 0.003532
Si Si6 0.382616 0.243528 0.714761
Si Si7 0.188489 0.700638 0.091401
Si Si8 0.423354 0.193236 0.489995
O O1 0.128274 0.637188 0.704776
O O2 0.226891 0.355119 0.695086
O O3 0.968736 0.532904 0.651013
O O4 0.165476 0.970224 0.472664
O O5 0.226756 0.538377 0.219898
O O6 0.287326 0.369390 0.402823
O O7 0.803827 0.375506 0.170124
O O8 0.627837 0.997797 0.256236
O O9 0.609738 0.074288 0.355237
O O10 0.553924 0.570464 0.095775
O O11 0.959402 0.400406 0.890621
O O12 0.189639 0.083044 0.961108
O O13 0.445377 0.059493 0.844577
O O14 0.500000 0.500000 0.000000
O O15 0.297519 0.587642 0.070820
O O16 0.479978 0.538802 0.582709
O O17 0.500000 0.000000 0.500000
#
# Coordination Sequence:
#
# PCOD8000819 Si02
#       8
#     2   2   2   2   2   2   2   2
#     4  10  19  40  62  86 120 157 196 253 298 352
#     4  10  21  35  64  92 117 148 206 252 294 351
#     4  11  24  41  59  89 123 160 199 249 305 361
#     4  10  20  39  65  90 117 158 206 249 300 352
#     4  10  23  41  59  86 124 163 197 248 304 357
#     4  11  23  41  59  84 125 161 197 247 306 355
#     4  10  21  37  65  92 118 154 206 254 294 355
#     4  12  22  39  62  91 115 159 202 246 297 359
#
# _framework density 19.693750999999999
#
# number of rings (size 3 to 8) (size 9 to 14) (size 15 to 20)
#    0.000    1.500    3.750    1.125    1.750    0.500 
#    0.000    5.625    0.000    0.000    0.000    0.000 
#    0.000    0.000    0.000    0.000    0.000    0.000 
#
# Total GULP energy -198343.062269 kJ/mol
# GULP energy per Si atom -12396.441392 kJ/mol
# Density = 1.964893 g / cm^3
# Si number density = 19.693751 Si / 1000 Ang^3
#
#
#
# Elastic Constant Matrix: (Units=GPa)
#
#
# Indices 1 2 3 4 5 6 
#
# 1 140.3161 54.9572 42.2437 2.2488 7.1250 4.9498
# 2 54.9572 66.4247 23.7294 0.3584 -1.9192 0.8093
# 3 42.2437 23.7294 105.9842 6.6855 12.5258 2.8866
# 4 2.2488 0.3584 6.6855 25.1174 1.3132 -3.1524
# 5 7.1250 -1.9192 12.5258 1.3132 37.0893 -4.2816
# 6 4.9498 0.8093 2.8866 -3.1524 -4.2816 36.2512
#
#
#
# Elastic Compliance Matrix: (Units=1/GPa)
#
#
# Indices 1 2 3 4 5 6 
#
# 1 0.011348 -0.008606 -0.002297 -0.000358 -0.002003 -0.001442
# 2 -0.008606 0.023075 -0.002280 0.001025 0.003739 0.001372
# 3 -0.002297 -0.002280 0.011496 -0.002786 -0.003601 -0.001218
# 4 -0.000358 0.001025 -0.002786 0.041049 0.000051 0.003823
# 5 -0.002003 0.003739 -0.003601 0.000051 0.029208 0.003931
# 6 -0.001442 0.001372 -0.001218 0.003823 0.003931 0.028645
#
#
# Mechanical properties :
#
#
# Convention : Reuss Voigt Hill
#
# Bulk Modulus (GPa) = 51.14698 61.62062 56.38380
# Shear Modulus (GPa) = 28.13623 32.47790 30.30706
#
# Velocity S-wave (km/s) = 3.78390 4.06538 3.92716
# Velocity P-wave (km/s) = 6.71700 7.30710 7.01825
#
# Compressibility (1/GPa) = 0.01955150
#
# Stress axis : x y z
#
# Youngs Moduli (GPa) = 88.12506 43.33623 86.98536
#
# Poissons Ratio (x) = 0.37296 0.19985
# Poissons Ratio (y) = 0.75841 0.19834
# Poissons Ratio (z) = 0.20247 0.09881
#
# Static dielectric constant tensor:
#      x y z
#    x 4.012940 -0.080600 0.163940 
#    y -0.080600 3.139950 0.144550 
#    z 0.163940 0.144550 4.526420 
# 
# 
# High freq. dielectric constant tensor:
#      x y z
#    x 1.781450 -0.008950 0.009110 
#    y -0.008950 1.726280 0.005000 
#    z 0.009110 0.005000 1.793240 
# 
# From -- ./inp_files/179260.got.cif
#   From: 2010.06.25/outbox.cif.g09.slc.cpg/sg2_90_cif.got.tgz:179260.got - 2010.06.27 13:26:56.
