data_PCOD8000452
_publ_section_title
;
Structure prediction by ZEFSAII (Michael W. Deem and Ramdas Pophale) SiO2 
 PCOD8000452
Probable space group: P -1
;
_chemical_formula_sum "Si O2"
_cell_formula_units_Z 16
_cell_length_a 17.493742
_cell_length_b 23.730546
_cell_length_c 15.106995
_cell_angle_alpha 158.433826
_cell_angle_beta 146.983223
_cell_angle_gamma 20.841036
_cell_volume 797.328434
_symmetry_space_group_name_H-M "P -1"
_symmetry_group_IT_number 2
_symmetry_cell_setting 'triclinic'
loop_
_space_group_symop_operation_xyz
x,y,z
-x,-y,-z
loop_
_atom_site_type_symbol
_atom_site_label
_atom_site_fract_x
_atom_site_fract_y
_atom_site_fract_z
Si Si1 0.957721 0.711212 0.776674
Si Si2 0.197282 0.975995 0.265949
Si Si3 0.851199 0.024251 0.456708
Si Si4 0.586095 0.719638 0.659492
Si Si5 0.970120 0.206565 0.214040
Si Si6 0.533754 0.018554 0.913599
Si Si7 0.370005 0.531041 0.997299
Si Si8 0.877792 0.767120 0.258029
O O1 0.724872 0.946759 0.941587
O O2 0.000000 0.500000 0.500000
O O3 0.941323 0.774094 0.752598
O O4 0.157853 0.617978 0.887322
O O5 0.106296 0.148529 0.513153
O O6 0.151858 0.097152 0.305492
O O7 0.459159 0.724079 0.158937
O O8 0.046502 0.951524 0.070529
O O9 0.678229 0.078847 0.308586
O O10 0.966725 0.802214 0.313289
O O11 0.705390 0.265147 0.720461
O O12 0.000000 0.000000 0.500000
O O13 0.729194 0.453289 0.380092
O O14 0.656800 0.799482 0.780828
O O15 0.620738 0.733814 0.817641
O O16 0.379463 0.053276 0.747353
O O17 0.500000 0.500000 0.000000
O O18 0.000000 0.500000 0.000000
#
# Coordination Sequence:
#
# PCOD8000452 Si02
#       8
#     2   2   2   2   2   2   2   2
#     4  12  22  38  64  98 130 167 221 275 323 387
#     4  11  23  40  67  93 126 177 218 265 328 397
#     4  11  22  39  67  97 125 166 227 275 315 387
#     4  10  19  39  62  89 124 174 214 258 325 398
#     4  11  22  40  65  95 127 168 219 271 326 388
#     4  10  22  37  62  91 131 171 213 266 328 393
#     4  12  21  42  69  93 127 178 222 265 323 399
#     4  11  23  44  65  93 137 181 214 266 346 402
#
# _framework density 20.067014
#
# number of rings (size 3 to 8) (size 9 to 14) (size 15 to 20)
#    0.000    1.000    5.000    2.250    0.000    0.000 
#    4.500    1.250    0.000    4.500    0.000    0.000 
#    0.000    0.000    0.000    0.000    0.000    0.000 
#
# Total GULP energy -198240.398525 kJ/mol
# GULP energy per Si atom -12390.024908 kJ/mol
# Density = 2.002134 g / cm^3
# Si number density = 20.067014 Si / 1000 Ang^3
#
#
#
# Elastic Constant Matrix: (Units=GPa)
#
#
# Indices 1 2 3 4 5 6 
#
# 1 134.7220 64.1831 41.7193 -0.0398 -4.6826 3.6470
# 2 64.1831 108.0764 29.7385 -8.0541 -2.3023 10.2553
# 3 41.7193 29.7385 115.7809 -0.3159 -14.4391 9.0691
# 4 -0.0398 -8.0541 -0.3159 38.7666 3.1233 1.0023
# 5 -4.6826 -2.3023 -14.4391 3.1233 30.6818 -0.7963
# 6 3.6470 10.2553 9.0691 1.0023 -0.7963 36.8600
#
#
#
# Elastic Compliance Matrix: (Units=1/GPa)
#
#
# Indices 1 2 3 4 5 6 
#
# 1 0.011078 -0.006105 -0.002498 -0.001328 0.000225 0.001258
# 2 -0.006105 0.013692 -0.001177 0.002974 -0.000839 -0.003015
# 3 -0.002498 -0.001177 0.010548 -0.000474 0.004493 -0.001911
# 4 -0.001328 0.002974 -0.000474 0.026682 -0.002954 -0.001369
# 5 0.000225 -0.000839 0.004493 -0.002954 0.034978 -0.000058
# 6 0.001258 -0.003015 -0.001911 -0.001369 -0.000058 0.028350
#
#
# Mechanical properties :
#
#
# Convention : Reuss Voigt Hill
#
# Bulk Modulus (GPa) = 63.46084 69.98460 66.72272
# Shear Modulus (GPa) = 33.30200 36.12423 34.71312
#
# Velocity S-wave (km/s) = 4.07816 4.24746 4.16367
# Velocity P-wave (km/s) = 7.33951 7.68151 7.51246
#
# Compressibility (1/GPa) = 0.01575775
#
# Stress axis : x y z
#
# Youngs Moduli (GPa) = 90.26790 73.03416 94.80337
#
# Poissons Ratio (x) = 0.44589 0.23680
# Poissons Ratio (y) = 0.55110 0.11162
# Poissons Ratio (z) = 0.22547 0.08599
#
# Static dielectric constant tensor:
#      x y z
#    x 3.498850 0.780970 0.176970 
#    y 0.780970 1.736250 -0.980250 
#    z 0.176970 -0.980250 3.281610 
# 
# 
# High freq. dielectric constant tensor:
#      x y z
#    x 1.776530 0.014520 -0.008500 
#    y 0.014520 1.776970 -0.014060 
#    z -0.008500 -0.014060 1.799320 
# 
# From -- ./inp_files/277845.got.cif
#   From: 2010.06.25/outbox.cif.g09.slc.cpg/sg2_139_cif.got.tgz:277845.got - 2010.06.27 13:26:56.
