data_PCOD8000052
_publ_section_title
;
Structure prediction by ZEFSAII (Michael W. Deem and Ramdas Pophale) SiO2 
 PCOD8000052
Probable space group: P 1
;
_chemical_formula_sum "Si O2"
_cell_formula_units_Z 8
_cell_length_a 10.700267
_cell_length_b 6.618063
_cell_length_c 5.108834
_cell_angle_alpha 74.612859
_cell_angle_beta 108.394141
_cell_angle_gamma 91.271007
_cell_volume 330.242868
_symmetry_space_group_name_H-M "P 1"
_symmetry_group_IT_number 1
_symmetry_cell_setting 'triclinic'
loop_
_space_group_symop_operation_xyz
x,y,z
loop_
_atom_site_type_symbol
_atom_site_label
_atom_site_fract_x
_atom_site_fract_y
_atom_site_fract_z
Si Si1 0.961550 0.694520 0.258200
Si Si2 0.634465 0.253218 0.496152
Si Si3 0.308510 0.881451 0.059486
Si Si4 0.043818 0.101222 0.870299
Si Si5 0.833753 0.013549 0.397189
Si Si6 0.467329 0.240809 0.903380
Si Si7 0.848851 0.376737 0.918094
Si Si8 0.255763 0.612841 0.609216
O O1 0.100364 0.573307 0.476951
O O2 0.868756 0.770775 0.418815
O O3 0.866212 0.562927 0.065212
O O4 0.994942 0.900431 0.057130
O O5 0.722840 0.037432 0.544983
O O6 0.531018 0.215320 0.668356
O O7 0.738210 0.424645 0.600278
O O8 0.557427 0.339131 0.154363
O O9 0.319931 0.746763 0.377069
O O10 0.270477 0.733461 0.848989
O O11 0.440254 0.001880 0.053813
O O12 0.199759 0.077263 0.953770
O O13 0.973012 0.104909 0.541503
O O14 0.994111 0.315561 0.912723
O O15 0.786246 0.172565 0.078624
O O16 0.333139 0.387124 0.741298
#
# Coordination Sequence:
#
# PCOD8000052 Si02
#       8
#     1   1   1   1   1   1   1   1
#     4  10  22  40  70 108 137 173 226 296 369 404
#     4  11  24  48  68 101 139 190 246 278 334 433
#     4  11  24  46  71 105 142 185 232 291 360 409
#     4   9  21  38  65 102 142 163 229 293 349 426
#     4  10  20  43  69  96 142 173 232 295 340 415
#     4  12  26  47  75  96 147 197 232 286 351 408
#     4  10  22  41  70 103 136 184 225 293 355 408
#     4  11  25  45  70 113 141 173 242 294 344 443
#
# _framework density 24.224595000000001
#
# number of rings (size 3 to 8) (size 9 to 14) (size 15 to 20)
#    0.000    1.500    2.500    1.500    1.750    5.000 
#    2.250    6.250    0.000    0.000    0.000    0.000 
#    0.000    0.000    0.000    0.000    0.000    0.000 
#
# Total GULP energy -99141.615762 kJ/mol
# GULP energy per Si atom -12392.701970 kJ/mol
# Density = 2.416946 g / cm^3
# Si number density = 24.224595 Si / 1000 Ang^3
#
#
#
# Elastic Constant Matrix: (Units=GPa)
#
#
# Indices 1 2 3 4 5 6 
#
# 1 102.8147 57.5935 39.8151 13.2862 -6.5289 -22.7198
# 2 57.5935 88.9673 30.3338 30.1031 3.7053 -20.4018
# 3 39.8151 30.3338 107.9387 18.4445 1.1360 -17.8268
# 4 13.2862 30.1031 18.4445 41.9770 -5.2856 -6.5819
# 5 -6.5289 3.7053 1.1360 -5.2856 44.3427 4.1623
# 6 -22.7198 -20.4018 -17.8268 -6.5819 4.1623 26.1988
#
#
#
# Elastic Compliance Matrix: (Units=1/GPa)
#
#
# Indices 1 2 3 4 5 6 
#
# 1 0.018141 -0.011236 -0.003599 0.005200 0.003831 0.005231
# 2 -0.011236 0.025139 0.000901 -0.014427 -0.006231 0.007811
# 3 -0.003599 0.000901 0.011887 -0.004195 -0.001871 0.004912
# 4 0.005200 -0.014427 -0.004195 0.034886 0.006409 -0.001834
# 5 0.003831 -0.006231 -0.001871 0.006409 0.024932 -0.005154
# 6 0.005231 0.007811 0.004912 -0.001834 -0.005154 0.052489
#
#
# Mechanical properties :
#
#
# Convention : Reuss Voigt Hill
#
# Bulk Modulus (GPa) = 36.63222 61.68950 49.16086
# Shear Modulus (GPa) = 24.45674 33.96893 29.21283
#
# Velocity S-wave (km/s) = 3.18084 3.74872 3.47640
# Velocity P-wave (km/s) = 5.35211 6.65268 6.03752
#
# Compressibility (1/GPa) = 0.02729837
#
# Stress axis : x y z
#
# Youngs Moduli (GPa) = 55.12232 39.77859 84.12743
#
# Poissons Ratio (x) = 0.44696 0.30278
# Poissons Ratio (y) = 0.61937 -0.07578
# Poissons Ratio (z) = 0.19839 -0.03583
#
# Static dielectric constant tensor:
#      x y z
#    x 4.555540 -0.413310 -0.002370 
#    y -0.413310 4.042040 0.061750 
#    z -0.002370 0.061750 4.683430 
# 
# 
# High freq. dielectric constant tensor:
#      x y z
#    x 1.962580 -0.017940 -0.006040 
#    y -0.017940 1.939600 0.009500 
#    z -0.006040 0.009500 1.980560 
# 
# From -- ./inp_files/602.got.cif
#   From: 2010.03.12/outbox.cif.g09.slc.cpg/sg1_1_cif.got.tgz:602.got - 2010.03.29 11:57:58.
