data_PCOD8000184
_publ_section_title
;
Structure prediction by ZEFSAII (Michael W. Deem and Ramdas Pophale) SiO2 
 PCOD8000184
Probable space group: P 1
;
_chemical_formula_sum "Si O2"
_cell_formula_units_Z 8
_cell_length_a 10.248902
_cell_length_b 5.488578
_cell_length_c 8.689114
_cell_angle_alpha 70.969798
_cell_angle_beta 62.702717
_cell_angle_gamma 113.060852
_cell_volume 314.028649
_symmetry_space_group_name_H-M "P 1"
_symmetry_group_IT_number 1
_symmetry_cell_setting 'triclinic'
loop_
_space_group_symop_operation_xyz
x,y,z
loop_
_atom_site_type_symbol
_atom_site_label
_atom_site_fract_x
_atom_site_fract_y
_atom_site_fract_z
Si Si1 0.623990 0.151760 0.056550
Si Si2 0.299487 0.496597 0.526719
Si Si3 0.993418 0.321528 0.959681
Si Si4 0.497369 0.447103 0.706080
Si Si5 0.678255 0.817457 0.819759
Si Si6 0.087975 0.165410 0.426359
Si Si7 0.891666 0.722811 0.350675
Si Si8 0.174500 0.702711 0.064739
O O1 0.429379 0.877914 0.314354
O O2 0.813637 0.297880 0.022287
O O3 0.630521 0.464847 0.960765
O O4 0.617452 0.960654 0.948263
O O5 0.431101 0.491490 0.573342
O O6 0.227024 0.233644 0.476888
O O7 0.099745 0.358967 0.739409
O O8 0.162279 0.652607 0.897819
O O9 0.920839 0.008018 0.171651
O O10 0.562313 0.734308 0.738163
O O11 0.670265 0.446491 0.573928
O O12 0.327291 0.091248 0.947762
O O13 0.904014 0.106900 0.607840
O O14 0.219160 0.500195 0.180263
O O15 0.013853 0.856987 0.417504
O O16 0.958300 0.550233 0.256897
#
# Coordination Sequence:
#
# PCOD8000184 Si02
#       8
#     1   1   1   1   1   1   1   1
#     4  12  28  50  76 110 153 197 250 308 372 441
#     4  12  25  45  74 112 146 192 253 308 368 441
#     4  11  25  45  70 110 147 196 244 312 369 441
#     4  11  25  45  75 112 141 197 245 308 371 446
#     4  11  28  51  77 105 157 198 246 306 378 442
#     4  10  25  46  72 106 144 197 244 308 366 448
#     4  10  23  47  70 102 147 195 241 305 376 441
#     4  11  25  45  76 101 151 192 251 299 378 446
#
# _framework density 25.475380999999999
#
# number of rings (size 3 to 8) (size 9 to 14) (size 15 to 20)
#    0.000    1.000    3.750    0.750    8.750    3.000 
#    0.000    0.000    0.000    0.000    0.000    0.000 
#    0.000    0.000    0.000    0.000    0.000    0.000 
#
# Total GULP energy -99151.897491 kJ/mol
# GULP energy per Si atom -12393.987186 kJ/mol
# Density = 2.541740 g / cm^3
# Si number density = 25.475381 Si / 1000 Ang^3
#
#
#
# Elastic Constant Matrix: (Units=GPa)
#
#
# Indices 1 2 3 4 5 6 
#
# 1 96.9218 43.6911 11.3657 7.3197 26.3813 40.3382
# 2 43.6911 97.0273 25.2186 5.3385 23.9420 18.5644
# 3 11.3657 25.2186 105.8205 0.1141 3.9819 12.5609
# 4 7.3197 5.3385 0.1141 35.4391 7.5324 0.4441
# 5 26.3813 23.9420 3.9819 7.5324 35.4815 7.5121
# 6 40.3382 18.5644 12.5609 0.4441 7.5121 49.4736
#
#
#
# Elastic Compliance Matrix: (Units=1/GPa)
#
#
# Indices 1 2 3 4 5 6 
#
# 1 0.020671 -0.004521 0.000862 -0.001472 -0.009144 -0.013975
# 2 -0.004521 0.014604 -0.002744 0.000054 -0.006162 -0.000162
# 3 0.000862 -0.002744 0.010272 0.000119 0.000533 -0.002363
# 4 -0.001472 0.000054 0.000119 0.029687 -0.005625 0.001738
# 5 -0.009144 -0.006162 0.000533 -0.005625 0.039495 0.003686
# 6 -0.013975 -0.000162 -0.002363 0.001738 0.003686 0.031692
#
#
# Mechanical properties :
#
#
# Convention : Reuss Voigt Hill
#
# Bulk Modulus (GPa) = 30.54318 51.14671 40.84494
# Shear Modulus (GPa) = 29.38774 38.71180 34.04977
#
# Velocity S-wave (km/s) = 3.40012 3.90240 3.65989
# Velocity P-wave (km/s) = 5.23734 6.35811 5.82474
#
# Compressibility (1/GPa) = 0.03274053
#
# Stress axis : x y z
#
# Youngs Moduli (GPa) = 48.37755 68.47549 97.35620
#
# Poissons Ratio (x) = 0.30956 -0.08389
# Poissons Ratio (y) = 0.21870 0.26711
# Poissons Ratio (z) = -0.04168 0.18787
#
# Static dielectric constant tensor:
#      x y z
#    x 4.529430 0.376510 0.049590 
#    y 0.376510 4.498300 0.025730 
#    z 0.049590 0.025730 4.863720 
# 
# 
# High freq. dielectric constant tensor:
#      x y z
#    x 2.013230 0.028420 0.000520 
#    y 0.028420 2.009590 0.001430 
#    z 0.000520 0.001430 2.038040 
# 
# From -- ./inp_files/1340.got.cif
#   From: 2010.03.12/outbox.cif.g09.slc.cpg/sg1_1_cif.got.tgz:1340.got - 2010.03.29 11:57:58.
