data_PCOD8000583
_publ_section_title
;
Structure prediction by ZEFSAII (Michael W. Deem and Ramdas Pophale) SiO2 
 PCOD8000583
Probable space group: P -1
;
_chemical_formula_sum "Si O2"
_cell_formula_units_Z 16
_cell_length_a 19.943664
_cell_length_b 25.994831
_cell_length_c 5.410388
_cell_angle_alpha 56.619452
_cell_angle_beta 125.839594
_cell_angle_gamma 161.655248
_cell_volume 715.482509
_symmetry_space_group_name_H-M "P -1"
_symmetry_group_IT_number 2
_symmetry_cell_setting 'triclinic'
loop_
_space_group_symop_operation_xyz
x,y,z
-x,-y,-z
loop_
_atom_site_type_symbol
_atom_site_label
_atom_site_fract_x
_atom_site_fract_y
_atom_site_fract_z
Si Si1 0.744196 0.430252 0.143523
Si Si2 0.303283 0.921061 0.527390
Si Si3 0.312308 0.338425 0.368178
Si Si4 0.443618 0.693619 0.428118
Si Si5 0.221698 0.792156 0.190183
Si Si6 0.994143 0.811771 0.247634
Si Si7 0.058255 0.971725 0.277542
Si Si8 0.334663 0.504340 0.440855
O O1 0.638268 0.330343 0.432072
O O2 0.006768 0.601175 0.256171
O O3 0.639552 0.326332 0.944595
O O4 0.686708 0.464280 0.923892
O O5 0.234807 0.844409 0.321311
O O6 0.210649 0.926743 0.311576
O O7 0.566471 0.106059 0.629336
O O8 0.205099 0.817512 0.827603
O O9 0.500000 0.500000 0.500000
O O10 0.433669 0.371511 0.374965
O O11 0.129044 0.176550 0.549321
O O12 0.195774 0.312551 0.036857
O O13 0.336436 0.550675 0.563124
O O14 0.705388 0.869730 0.504599
O O15 0.873896 0.685645 0.524717
O O16 0.060758 0.925736 0.176893
O O17 0.000000 0.000000 0.000000
#
# Coordination Sequence:
#
# PCOD8000583 Si02
#       8
#     2   2   2   2   2   2   2   2
#     4  10  20  38  68  91 131 167 219 265 330 397
#     4  10  22  36  65 102 140 170 214 280 343 399
#     4  12  27  40  66  95 131 175 227 285 332 398
#     4  10  24  39  66  91 128 172 222 268 329 396
#     4  10  19  39  65 103 137 170 215 277 344 399
#     4  12  25  40  65  97 137 177 224 282 338 394
#     4  12  28  45  63  92 136 184 227 280 333 396
#     4  10  22  38  62  94 125 171 222 274 323 393
#
# _framework density 22.362532000000002
#
# number of rings (size 3 to 8) (size 9 to 14) (size 15 to 20)
#    0.750    0.500    2.500    3.375    8.750    1.000 
#    0.000    0.000    0.000    1.500    0.000    0.000 
#    0.000    0.000    0.000    0.000    0.000    0.000 
#
# Total GULP energy -198260.996297 kJ/mol
# GULP energy per Si atom -12391.312269 kJ/mol
# Density = 2.231163 g / cm^3
# Si number density = 22.362532 Si / 1000 Ang^3
#
#
#
# Elastic Constant Matrix: (Units=GPa)
#
#
# Indices 1 2 3 4 5 6 
#
# 1 103.5322 28.6202 34.9315 10.6232 -11.0254 17.5929
# 2 28.6202 122.3615 13.7384 19.8598 -8.9297 15.3781
# 3 34.9315 13.7384 54.9587 19.3177 -25.8455 4.5662
# 4 10.6232 19.8598 19.3177 38.4202 5.6624 2.5948
# 5 -11.0254 -8.9297 -25.8455 5.6624 42.1884 4.1099
# 6 17.5929 15.3781 4.5662 2.5948 4.1099 42.0199
#
#
#
# Elastic Compliance Matrix: (Units=1/GPa)
#
#
# Indices 1 2 3 4 5 6 
#
# 1 0.013869 -0.002447 -0.011022 0.003774 -0.003804 -0.003574
# 2 -0.002447 0.010292 0.004600 -0.007571 0.005698 -0.003331
# 3 -0.011022 0.004600 0.050267 -0.029229 0.033198 -0.003973
# 4 0.003774 -0.007571 -0.029229 0.047046 -0.025219 0.003928
# 5 -0.003804 0.005698 0.033198 -0.025219 0.048346 -0.007271
# 6 -0.003574 -0.003331 -0.003973 0.003928 -0.007271 0.027414
#
#
# Mechanical properties :
#
#
# Convention : Reuss Voigt Hill
#
# Bulk Modulus (GPa) = 17.63993 48.38141 33.01067
# Shear Modulus (GPa) = 21.37946 38.09652 29.73799
#
# Velocity S-wave (km/s) = 3.09534 4.13193 3.65062
# Velocity P-wave (km/s) = 4.54754 6.66677 5.70640
#
# Compressibility (1/GPa) = 0.05668955
#
# Stress axis : x y z
#
# Youngs Moduli (GPa) = 72.10208 97.16529 19.89370
#
# Poissons Ratio (x) = 0.23781 0.21927
# Poissons Ratio (y) = 0.17647 -0.09152
# Poissons Ratio (z) = 0.79472 -0.44699
#
# Static dielectric constant tensor:
#      x y z
#    x 4.034560 0.282540 0.009980 
#    y 0.282540 3.861510 0.208480 
#    z 0.009980 0.208480 3.211510 
# 
# 
# High freq. dielectric constant tensor:
#      x y z
#    x 1.868370 0.018570 -0.013540 
#    y 0.018570 1.889340 0.019960 
#    z -0.013540 0.019960 1.867090 
# 
# From -- ./inp_files/120755.got.cif
#   From: 2010.06.25/outbox.cif.g09.slc.cpg/sg2_61_cif.got.tgz:120755.got - 2010.06.27 13:26:56.
