data_PCOD8000382
_publ_section_title
;
Structure prediction by ZEFSAII (Michael W. Deem and Ramdas Pophale) SiO2 
 PCOD8000382
Probable space group: P -1
;
_chemical_formula_sum "Si O2"
_cell_formula_units_Z 12
_cell_length_a 12.387078
_cell_length_b 9.402832
_cell_length_c 9.790293
_cell_angle_alpha 118.752722
_cell_angle_beta 76.909977
_cell_angle_gamma 142.430736
_cell_volume 583.430249
_symmetry_space_group_name_H-M "P -1"
_symmetry_group_IT_number 2
_symmetry_cell_setting 'triclinic'
loop_
_space_group_symop_operation_xyz
x,y,z
-x,-y,-z
loop_
_atom_site_type_symbol
_atom_site_label
_atom_site_fract_x
_atom_site_fract_y
_atom_site_fract_z
Si Si1 0.566503 0.101577 0.759579
Si Si2 0.405786 0.196381 0.263839
Si Si3 0.242847 0.655458 0.451513
Si Si4 0.599119 0.770497 0.030743
Si Si5 0.784438 0.801304 0.465830
Si Si6 0.139941 0.892359 0.651822
O O1 0.707366 0.333118 0.712525
O O2 0.517469 0.200436 0.908424
O O3 0.642653 0.050962 0.815504
O O4 0.404102 0.822516 0.591892
O O5 0.625475 0.477070 0.363998
O O6 0.264517 0.131676 0.368481
O O7 0.358225 0.201149 0.127513
O O8 0.179430 0.766199 0.514555
O O9 0.081099 0.341394 0.395710
O O10 0.790837 0.018859 0.171356
O O11 0.500000 0.500000 0.000000
O O12 0.756511 0.853469 0.351144
O O13 0.000000 0.000000 0.500000
#
# Coordination Sequence:
#
# PCOD8000382 Si02
#       6
#     2   2   2   2   2   2
#     4  10  20  38  65  91 124 163 206 252 315 364
#     4  11  23  42  63  93 129 161 207 259 311 368
#     4   9  19  35  66  91 116 160 210 253 302 365
#     4  11  23  40  61  90 128 167 201 253 319 368
#     4  11  23  39  66  91 123 163 211 258 306 368
#     4  10  19  39  60  90 123 158 208 255 299 372
#
# _framework density 20.568010000000001
#
# number of rings (size 3 to 8) (size 9 to 14) (size 15 to 20)
#    0.000    1.667    3.333    1.500    0.000    1.333 
#    3.000    2.500    0.000    0.000    0.000    0.000 
#    0.000    0.000    0.000    0.000    0.000    0.000 
#
# Total GULP energy -148732.022629 kJ/mol
# GULP energy per Si atom -12394.335219 kJ/mol
# Density = 2.052120 g / cm^3
# Si number density = 20.568010 Si / 1000 Ang^3
#
#
#
# Elastic Constant Matrix: (Units=GPa)
#
#
# Indices 1 2 3 4 5 6 
#
# 1 73.8242 36.4129 38.8949 -14.2325 -3.8170 -2.6268
# 2 36.4129 86.1488 28.6212 -16.9083 -7.8891 3.7003
# 3 38.8949 28.6212 91.9609 -21.6614 2.3555 -0.2675
# 4 -14.2325 -16.9083 -21.6614 30.6489 -6.6347 4.4314
# 5 -3.8170 -7.8891 2.3555 -6.6347 20.9592 0.6553
# 6 -2.6268 3.7003 -0.2675 4.4314 0.6553 44.3002
#
#
#
# Elastic Compliance Matrix: (Units=1/GPa)
#
#
# Indices 1 2 3 4 5 6 
#
# 1 0.020417 -0.005894 -0.006365 0.002145 0.002850 0.001408
# 2 -0.005894 0.016863 -0.001107 0.007897 0.007982 -0.002673
# 3 -0.006365 -0.001107 0.015687 0.007447 -0.000953 -0.000921
# 4 0.002145 0.007897 0.007447 0.047913 0.017867 -0.005545
# 5 0.002850 0.007982 -0.000953 0.017867 0.057096 -0.003135
# 6 0.001408 -0.002673 -0.000921 -0.005545 -0.003135 0.023475
#
#
# Mechanical properties :
#
#
# Convention : Reuss Voigt Hill
#
# Bulk Modulus (GPa) = 38.11772 51.08797 44.60284
# Shear Modulus (GPa) = 23.04916 29.04865 26.04891
#
# Velocity S-wave (km/s) = 3.35122 3.76216 3.56262
# Velocity P-wave (km/s) = 5.79197 6.61546 6.21737
#
# Compressibility (1/GPa) = 0.02623452
#
# Stress axis : x y z
#
# Youngs Moduli (GPa) = 48.97888 59.30274 63.74818
#
# Poissons Ratio (x) = 0.34951 0.40574
# Poissons Ratio (y) = 0.28867 0.07060
# Poissons Ratio (z) = 0.31174 0.06567
#
# Static dielectric constant tensor:
#      x y z
#    x 3.614520 0.044790 0.006800 
#    y 0.044790 3.890850 -0.104630 
#    z 0.006800 -0.104630 3.604750 
# 
# 
# High freq. dielectric constant tensor:
#      x y z
#    x 1.797680 -0.010040 0.001090 
#    y -0.010040 1.811070 -0.014960 
#    z 0.001090 -0.014960 1.794480 
# 
# From -- ./inp_files/158394.got.cif
#   From: 2010.06.25/outbox.cif.g09.slc.cpg/sg2_80_cif.got.tgz:158394.got - 2010.06.27 13:26:56.
