data_PCOD8000323
_publ_section_title
;
Structure prediction by ZEFSAII (Michael W. Deem and Ramdas Pophale) SiO2 
 PCOD8000323
Probable space group: P -1
;
_chemical_formula_sum "Si O2"
_cell_formula_units_Z 16
_cell_length_a 8.918856
_cell_length_b 9.784514
_cell_length_c 24.780691
_cell_angle_alpha 149.626955
_cell_angle_beta 132.380715
_cell_angle_gamma 61.410166
_cell_volume 776.377897
_symmetry_space_group_name_H-M "P -1"
_symmetry_group_IT_number 2
_symmetry_cell_setting 'triclinic'
loop_
_space_group_symop_operation_xyz
x,y,z
-x,-y,-z
loop_
_atom_site_type_symbol
_atom_site_label
_atom_site_fract_x
_atom_site_fract_y
_atom_site_fract_z
Si Si1 0.269292 0.137717 0.664403
Si Si2 0.451587 0.774009 0.957683
Si Si3 0.310801 0.252719 0.891507
Si Si4 0.521160 0.063475 0.259352
Si Si5 0.458043 0.557877 0.350169
Si Si6 0.780569 0.023753 0.525031
Si Si7 0.804146 0.864186 0.941012
Si Si8 0.064520 0.613022 0.994759
O O1 0.386775 0.463337 0.812466
O O2 0.296178 0.063954 0.584034
O O3 0.384187 0.947189 0.661967
O O4 0.030575 0.078035 0.606732
O O5 0.649168 0.818352 0.061012
O O6 0.500000 0.000000 0.000000
O O7 0.263309 0.851617 0.969359
O O8 0.308680 0.001107 0.764201
O O9 0.500000 0.500000 0.000000
O O10 0.096669 0.355407 0.877040
O O11 0.512743 0.377256 0.351076
O O12 0.284778 0.856641 0.129405
O O13 0.671093 0.783203 0.459269
O O14 0.372551 0.365009 0.212064
O O15 0.282288 0.696682 0.378047
O O16 0.871207 0.721684 0.962170
O O17 0.000000 0.000000 0.000000
O O18 0.000000 0.500000 0.000000
#
# Coordination Sequence:
#
# PCOD8000323 Si02
#       8
#     2   2   2   2   2   2   2   2
#     4  11  24  44  64  91 127 167 211 258 307 366
#     4  12  22  36  65  96 127 159 196 256 319 372
#     4  10  19  39  57  93 127 163 193 244 324 385
#     4  11  23  40  66  89 127 164 204 262 309 374
#     4  11  23  45  66  92 124 164 215 259 305 369
#     4  10  26  45  66  87 121 173 219 256 299 360
#     4  12  22  36  65  98 125 158 198 257 316 378
#     4  11  23  37  56 100 134 161 194 244 333 380
#
# _framework density 20.608521
#
# number of rings (size 3 to 8) (size 9 to 14) (size 15 to 20)
#    0.000    1.000    5.000    3.000    3.500    1.000 
#    0.000    0.000    0.000    0.000    0.000    0.000 
#    0.000    0.000    0.000    0.000    0.000    0.000 
#
# Total GULP energy -198325.741056 kJ/mol
# GULP energy per Si atom -12395.358816 kJ/mol
# Density = 2.056162 g / cm^3
# Si number density = 20.608521 Si / 1000 Ang^3
#
#
#
# Elastic Constant Matrix: (Units=GPa)
#
#
# Indices 1 2 3 4 5 6 
#
# 1 64.3112 10.5792 12.0417 12.2727 -2.8330 6.1400
# 2 10.5792 150.0351 36.0204 10.1537 0.9876 9.9225
# 3 12.0417 36.0204 48.9491 5.5017 -1.6942 7.9175
# 4 12.2727 10.1537 5.5017 33.2391 2.8410 1.0554
# 5 -2.8330 0.9876 -1.6942 2.8410 24.1389 1.3926
# 6 6.1400 9.9225 7.9175 1.0554 1.3926 33.2014
#
#
#
# Elastic Compliance Matrix: (Units=1/GPa)
#
#
# Indices 1 2 3 4 5 6 
#
# 1 0.017670 0.000091 -0.003232 -0.006171 0.002710 -0.002442
# 2 0.000091 0.008212 -0.005745 -0.001517 -0.000490 -0.001032
# 3 -0.003232 -0.005745 0.026338 -0.001464 0.002108 -0.004008
# 4 -0.006171 -0.001517 -0.001464 0.033442 -0.004763 0.001080
# 5 0.002710 -0.000490 0.002108 -0.004763 0.042618 -0.002493
# 6 -0.002442 -0.001032 -0.004008 0.001080 -0.002493 0.031905
#
#
# Mechanical properties :
#
#
# Convention : Reuss Voigt Hill
#
# Bulk Modulus (GPa) = 29.02854 42.28641 35.65748
# Shear Modulus (GPa) = 26.39384 31.75948 29.07666
#
# Velocity S-wave (km/s) = 3.58260 3.92992 3.76028
# Velocity P-wave (km/s) = 5.58835 6.41528 6.01604
#
# Compressibility (1/GPa) = 0.03444885
#
# Stress axis : x y z
#
# Youngs Moduli (GPa) = 56.59418 121.77186 37.96823
#
# Poissons Ratio (x) = -0.01111 0.12270
# Poissons Ratio (y) = -0.00516 0.21813
# Poissons Ratio (z) = 0.18289 0.69958
#
# Static dielectric constant tensor:
#      x y z
#    x 3.964640 0.021130 -0.180100 
#    y 0.021130 3.975410 0.051600 
#    z -0.180100 0.051600 3.456890 
# 
# 
# High freq. dielectric constant tensor:
#      x y z
#    x 1.820990 0.001740 -0.011840 
#    y 0.001740 1.825050 0.009700 
#    z -0.011840 0.009700 1.778520 
# 
# From -- ./inp_files/199450.got.cif
#   From: 2010.06.25/outbox.cif.g09.slc.cpg/sg2_100_cif.got.tgz:199450.got - 2010.06.27 13:26:56.
