data_PCOD8000595
_publ_section_title
;
Structure prediction by ZEFSAII (Michael W. Deem and Ramdas Pophale) SiO2 
 PCOD8000595
Probable space group: P -1
;
_chemical_formula_sum "Si O2"
_cell_formula_units_Z 16
_cell_length_a 13.308600
_cell_length_b 12.412611
_cell_length_c 9.025662
_cell_angle_alpha 35.816235
_cell_angle_beta 105.357063
_cell_angle_gamma 122.037871
_cell_volume 697.335459
_symmetry_space_group_name_H-M "P -1"
_symmetry_group_IT_number 2
_symmetry_cell_setting 'triclinic'
loop_
_space_group_symop_operation_xyz
x,y,z
-x,-y,-z
loop_
_atom_site_type_symbol
_atom_site_label
_atom_site_fract_x
_atom_site_fract_y
_atom_site_fract_z
Si Si1 0.938391 0.398948 0.932651
Si Si2 0.562957 0.553277 0.123158
Si Si3 0.596032 0.913279 0.892924
Si Si4 0.657920 0.198797 0.001958
Si Si5 0.987093 0.739101 0.351389
Si Si6 0.369774 0.232652 0.628442
Si Si7 0.718242 0.390617 0.501978
Si Si8 0.095013 0.984398 0.841704
O O1 0.800757 0.358235 0.937422
O O2 0.015056 0.585239 0.628540
O O3 0.945284 0.190176 0.116973
O O4 0.000000 0.500000 0.000000
O O5 0.456614 0.451717 0.322422
O O6 0.658115 0.478944 0.267830
O O7 0.500000 0.500000 0.000000
O O8 0.634785 0.820556 0.873646
O O9 0.702510 0.175670 0.656892
O O10 0.454355 0.851603 0.876963
O O11 0.583868 0.762704 0.194673
O O12 0.640746 0.292921 0.734683
O O13 0.639504 0.965216 0.241657
O O14 0.859709 0.589791 0.370814
O O15 0.988728 0.917031 0.266795
O O16 0.095945 0.867525 0.126529
O O17 0.233880 0.196542 0.626426
#
# Coordination Sequence:
#
# PCOD8000595 Si02
#       8
#     2   2   2   2   2   2   2   2
#     4  10  22  39  62  94 129 164 207 257 315 367
#     4  12  25  37  57  94 131 159 197 251 317 371
#     4  11  20  37  67  88 117 168 204 245 308 369
#     4   9  18  37  64  90 116 160 211 246 295 368
#     4  10  22  41  68  93 122 161 219 261 304 365
#     4  10  19  39  65  89 122 158 210 257 297 369
#     4  10  20  40  62  94 120 154 207 254 299 365
#     4  10  22  41  65  93 122 166 215 260 303 363
#
# _framework density 22.944479999999999
#
# number of rings (size 3 to 8) (size 9 to 14) (size 15 to 20)
#    0.000    1.750    2.500    3.000    3.500    1.000 
#    2.250    8.750    0.000    0.000    0.000    0.000 
#    0.000    0.000    0.000    0.000    0.000    0.000 
#
# Total GULP energy -198219.308600 kJ/mol
# GULP energy per Si atom -12388.706787 kJ/mol
# Density = 2.289226 g / cm^3
# Si number density = 22.944480 Si / 1000 Ang^3
#
#
#
# Elastic Constant Matrix: (Units=GPa)
#
#
# Indices 1 2 3 4 5 6 
#
# 1 35.3870 34.9868 10.3133 0.0038 13.4927 -10.4761
# 2 34.9868 147.5102 39.2564 -4.0126 21.6895 -6.0165
# 3 10.3133 39.2564 59.9079 -7.7768 8.4614 2.2638
# 4 0.0038 -4.0126 -7.7768 23.1798 5.0121 9.4435
# 5 13.4927 21.6895 8.4614 5.0121 27.8377 0.7661
# 6 -10.4761 -6.0165 2.2638 9.4435 0.7661 24.3921
#
#
#
# Elastic Compliance Matrix: (Units=1/GPa)
#
#
# Indices 1 2 3 4 5 6 
#
# 1 0.050315 -0.007956 -0.003157 -0.008602 -0.016335 0.023784
# 2 -0.007956 0.010390 -0.004851 0.001111 -0.002944 -0.000742
# 3 -0.003157 -0.004851 0.022658 0.011085 -0.003330 -0.008842
# 4 -0.008602 0.001111 0.011085 0.060480 -0.010197 -0.027544
# 5 -0.016335 -0.002944 -0.003330 -0.010197 0.049120 -0.005028
# 6 0.023784 -0.000742 -0.008842 -0.027544 -0.005028 0.062671
#
#
# Mechanical properties :
#
#
# Convention : Reuss Voigt Hill
#
# Bulk Modulus (GPa) = 19.44157 45.76868 32.60513
# Shear Modulus (GPa) = 16.40928 25.63183 21.02056
#
# Velocity S-wave (km/s) = 2.67717 3.34597 3.03008
# Velocity P-wave (km/s) = 4.24830 5.90916 5.14618
#
# Compressibility (1/GPa) = 0.05143618
#
# Stress axis : x y z
#
# Youngs Moduli (GPa) = 19.87478 96.24684 44.13541
#
# Poissons Ratio (x) = 0.76573 0.13933
# Poissons Ratio (y) = 0.15812 0.21408
# Poissons Ratio (z) = 0.06274 0.46685
#
# Static dielectric constant tensor:
#      x y z
#    x 4.150370 -0.029270 -0.077990 
#    y -0.029270 4.124840 -0.438470 
#    z -0.077990 -0.438470 4.161900 
# 
# 
# High freq. dielectric constant tensor:
#      x y z
#    x 1.898050 -0.007640 0.005570 
#    y -0.007640 1.892010 -0.037810 
#    z 0.005570 -0.037810 1.894440 
# 
# From -- ./inp_files/283077.got.cif
#   From: 2010.06.25/outbox.cif.g09.slc.cpg/sg2_142_cif.got.tgz:283077.got - 2010.06.27 13:26:56.
