data_PCOD8000634
_publ_section_title
;
Structure prediction by ZEFSAII (Michael W. Deem and Ramdas Pophale) SiO2 
 PCOD8000634
Probable space group: P -1
;
_chemical_formula_sum "Si O2"
_cell_formula_units_Z 16
_cell_length_a 12.161561
_cell_length_b 8.715632
_cell_length_c 12.142069
_cell_angle_alpha 122.359891
_cell_angle_beta 124.127479
_cell_angle_gamma 92.258884
_cell_volume 786.588117
_symmetry_space_group_name_H-M "P -1"
_symmetry_group_IT_number 2
_symmetry_cell_setting 'triclinic'
loop_
_space_group_symop_operation_xyz
x,y,z
-x,-y,-z
loop_
_atom_site_type_symbol
_atom_site_label
_atom_site_fract_x
_atom_site_fract_y
_atom_site_fract_z
Si Si1 0.774514 0.242246 0.508010
Si Si2 0.529775 0.795869 0.157925
Si Si3 0.069792 0.460336 0.629077
Si Si4 0.790731 0.315334 0.007129
Si Si5 0.375981 0.480028 0.761415
Si Si6 0.107178 0.991465 0.150418
Si Si7 0.365079 0.458864 0.494703
Si Si8 0.980539 0.314962 0.840856
O O1 0.726111 0.421183 0.544786
O O2 0.925273 0.283257 0.542969
O O3 0.817255 0.223212 0.651172
O O4 0.640169 0.039179 0.299699
O O5 0.386429 0.770589 0.135727
O O6 0.609985 0.705400 0.246653
O O7 0.482593 0.690665 0.970443
O O8 0.196363 0.399521 0.639938
O O9 0.000000 0.500000 0.500000
O O10 0.152845 0.671668 0.830024
O O11 0.825765 0.158344 0.900845
O O12 0.874335 0.559748 0.109899
O O13 0.429862 0.521432 0.679835
O O14 0.244429 0.216645 0.336924
O O15 0.013347 0.876033 0.164992
O O16 0.000000 0.000000 0.000000
O O17 0.500000 0.500000 0.500000
O O18 0.000000 0.500000 0.000000
#
# Coordination Sequence:
#
# PCOD8000634 Si02
#       8
#     2   2   2   2   2   2   2   2
#     4  11  22  40  65  93 123 165 211 256 315 373
#     4  10  22  42  64  93 125 161 210 261 321 376
#     4  10  19  39  66  88 121 160 206 265 304 358
#     4   9  20  39  62  89 125 164 205 254 319 367
#     4  10  23  42  64  89 127 164 211 263 310 374
#     4  11  22  38  60  90 123 165 216 256 298 373
#     4  12  25  40  58  92 132 165 205 254 317 376
#     4   9  19  37  61  86 120 164 206 249 306 365
#
# _framework density 20.341014999999999
#
# number of rings (size 3 to 8) (size 9 to 14) (size 15 to 20)
#    0.000    1.750    1.250    3.750    0.000    4.000 
#    2.250    6.875    0.000    0.000    0.000    0.000 
#    0.000    0.000    0.000    0.000    0.000    0.000 
#
# Total GULP energy -198246.551627 kJ/mol
# GULP energy per Si atom -12390.409477 kJ/mol
# Density = 2.029472 g / cm^3
# Si number density = 20.341015 Si / 1000 Ang^3
#
#
#
# Elastic Constant Matrix: (Units=GPa)
#
#
# Indices 1 2 3 4 5 6 
#
# 1 116.9973 44.9223 51.6341 -2.4365 10.7493 3.7509
# 2 44.9223 136.9508 71.0408 -4.4875 4.5272 1.9326
# 3 51.6341 71.0408 126.7035 -2.4337 10.3607 7.7577
# 4 -2.4365 -4.4875 -2.4337 48.1054 4.3651 -0.0839
# 5 10.7493 4.5272 10.3607 4.3651 33.2744 -5.0227
# 6 3.7509 1.9326 7.7577 -0.0839 -5.0227 23.5253
#
#
#
# Elastic Compliance Matrix: (Units=1/GPa)
#
#
# Indices 1 2 3 4 5 6 
#
# 1 0.010913 -0.001841 -0.003133 0.000450 -0.002523 -0.001093
# 2 -0.001841 0.010664 -0.005383 0.000545 0.000960 0.001399
# 3 -0.003133 -0.005383 0.012656 0.000227 -0.002804 -0.003829
# 4 0.000450 0.000545 0.000227 0.021160 -0.003186 -0.000796
# 5 -0.002523 0.000960 -0.002804 -0.003186 0.033288 0.008344
# 6 -0.001093 0.001399 -0.003829 -0.000796 0.008344 0.045608
#
#
# Mechanical properties :
#
#
# Convention : Reuss Voigt Hill
#
# Bulk Modulus (GPa) = 73.96997 79.53845 76.75421
# Shear Modulus (GPa) = 31.34603 35.18465 33.26534
#
# Velocity S-wave (km/s) = 3.92985 4.16353 4.04837
# Velocity P-wave (km/s) = 7.55218 7.89308 7.72451
#
# Compressibility (1/GPa) = 0.01351900
#
# Stress axis : x y z
#
# Youngs Moduli (GPa) = 91.63368 93.77036 79.01680
#
# Poissons Ratio (x) = 0.17261 0.24758
# Poissons Ratio (y) = 0.16867 0.42534
# Poissons Ratio (z) = 0.28712 0.50476
#
# Static dielectric constant tensor:
#      x y z
#    x 4.321200 0.393820 -0.055230 
#    y 0.393820 4.045010 -0.160940 
#    z -0.055230 -0.160940 3.892220 
# 
# 
# High freq. dielectric constant tensor:
#      x y z
#    x 1.790510 0.006150 -0.003080 
#    y 0.006150 1.789340 -0.009770 
#    z -0.003080 -0.009770 1.813420 
# 
# From -- ./inp_files/271386.got.cif
#   From: 2010.06.25/outbox.cif.g09.slc.cpg/sg2_136_cif.got.tgz:271386.got - 2010.06.27 13:26:56.
