data_PCOD8000348
_publ_section_title
;
Structure prediction by ZEFSAII (Michael W. Deem and Ramdas Pophale) SiO2 
 PCOD8000348
Probable space group: P -1
;
_chemical_formula_sum "Si O2"
_cell_formula_units_Z 16
_cell_length_a 20.128352
_cell_length_b 19.938025
_cell_length_c 9.567487
_cell_angle_alpha 140.161681
_cell_angle_beta 49.311493
_cell_angle_gamma 160.092854
_cell_volume 793.205611
_symmetry_space_group_name_H-M "P -1"
_symmetry_group_IT_number 2
_symmetry_cell_setting 'triclinic'
loop_
_space_group_symop_operation_xyz
x,y,z
-x,-y,-z
loop_
_atom_site_type_symbol
_atom_site_label
_atom_site_fract_x
_atom_site_fract_y
_atom_site_fract_z
Si Si1 0.330054 0.025184 0.940356
Si Si2 0.179007 0.040608 0.977251
Si Si3 0.706198 0.171854 0.547833
Si Si4 0.343805 0.075248 0.589431
Si Si5 0.197628 0.504084 0.002625
Si Si6 0.218579 0.984173 0.309603
Si Si7 0.552309 0.557842 0.357385
Si Si8 0.760681 0.601129 0.983312
O O1 0.284243 0.087932 0.034145
O O2 0.211157 0.808563 0.664353
O O3 0.575203 0.273683 0.008728
O O4 0.251714 0.935626 0.062647
O O5 0.173615 0.964797 0.722510
O O6 0.952654 0.838973 0.001279
O O7 0.334830 0.307609 0.172811
O O8 0.663685 0.050617 0.543998
O O9 0.500000 0.000000 0.500000
O O10 0.851099 0.423751 0.801647
O O11 0.297870 0.020599 0.401909
O O12 0.567130 0.367184 0.776431
O O13 0.170936 0.428054 0.072768
O O14 0.030248 0.270049 0.752826
O O15 0.343594 0.223192 0.484848
O O16 0.500000 0.500000 0.500000
O O17 0.711698 0.638853 0.223029
#
# Coordination Sequence:
#
# PCOD8000348 Si02
#       8
#     2   2   2   2   2   2   2   2
#     4  10  19  39  59  90 119 154 202 255 286 357
#     4  10  20  39  61  87 118 162 207 243 287 362
#     4   9  18  39  68  83 116 162 201 250 294 359
#     4  10  23  42  57  91 131 150 197 261 299 352
#     4  11  20  38  64  91 115 159 211 244 295 364
#     4  12  25  37  60  92 127 158 195 254 313 343
#     4  11  21  39  60  91 126 158 202 253 292 350
#     4  11  20  38  67  88 116 166 211 235 294 371
#
# _framework density 20.171315
#
# number of rings (size 3 to 8) (size 9 to 14) (size 15 to 20)
#    0.000    1.500    7.500    0.000    0.000    7.000 
#    0.000    3.750    0.000    0.000    0.000    0.000 
#    0.000    0.000    0.000    0.000    0.000    0.000 
#
# Total GULP energy -198303.462447 kJ/mol
# GULP energy per Si atom -12393.966403 kJ/mol
# Density = 2.012540 g / cm^3
# Si number density = 20.171315 Si / 1000 Ang^3
#
#
#
# Elastic Constant Matrix: (Units=GPa)
#
#
# Indices 1 2 3 4 5 6 
#
# 1 87.6559 33.2399 54.4712 -4.4437 14.2477 -11.3155
# 2 33.2399 110.1609 47.1200 3.4805 -7.5847 2.0831
# 3 54.4712 47.1200 92.0165 -5.2942 8.1475 -7.0538
# 4 -4.4437 3.4805 -5.2942 28.7298 -2.9988 4.9224
# 5 14.2477 -7.5847 8.1475 -2.9988 36.0617 -1.3833
# 6 -11.3155 2.0831 -7.0538 4.9224 -1.3833 22.4352
#
#
#
# Elastic Compliance Matrix: (Units=1/GPa)
#
#
# Indices 1 2 3 4 5 6 
#
# 1 0.020241 -0.002549 -0.009603 -0.000182 -0.006107 0.007090
# 2 -0.002549 0.012804 -0.005853 -0.001913 0.004725 -0.003603
# 3 -0.009603 -0.005853 0.019943 0.002497 -0.001684 0.001319
# 4 -0.000182 -0.001913 0.002497 0.036887 0.001900 -0.007105
# 5 -0.006107 0.004725 -0.001684 0.001900 0.031579 -0.002518
# 6 0.007090 -0.003603 0.001319 -0.007105 -0.002518 0.050301
#
#
# Mechanical properties :
#
#
# Convention : Reuss Voigt Hill
#
# Bulk Modulus (GPa) = 58.89538 62.16618 60.53078
# Shear Modulus (GPa) = 23.42758 27.77880 25.60319
#
# Velocity S-wave (km/s) = 3.41167 3.71501 3.56657
# Velocity P-wave (km/s) = 6.69181 7.02053 6.85814
#
# Compressibility (1/GPa) = 0.01697926
#
# Stress axis : x y z
#
# Youngs Moduli (GPa) = 49.40492 78.10098 50.14175
#
# Poissons Ratio (x) = 0.19904 0.48153
# Poissons Ratio (y) = 0.12591 0.29346
# Poissons Ratio (z) = 0.47445 0.45710
#
# Static dielectric constant tensor:
#      x y z
#    x 3.513220 -0.076000 -0.332630 
#    y -0.076000 3.849640 0.077610 
#    z -0.332630 0.077610 4.125430 
# 
# 
# High freq. dielectric constant tensor:
#      x y z
#    x 1.756170 -0.000400 -0.012280 
#    y -0.000400 1.791650 0.005690 
#    z -0.012280 0.005690 1.792510 
# 
# From -- ./inp_files/349583.got.cif
#   From: 2010.06.25/outbox.cif.g09.slc.cpg/sg2_175_cif.got.tgz:349583.got - 2010.06.27 13:26:56.
