data_PCOD8000769
_publ_section_title
;
Structure prediction by ZEFSAII (Michael W. Deem and Ramdas Pophale) SiO2 
 PCOD8000769
Probable space group: P -1
;
_chemical_formula_sum "Si O2"
_cell_formula_units_Z 14
_cell_length_a 23.980430
_cell_length_b 7.339670
_cell_length_c 13.654550
_cell_angle_alpha 136.686102
_cell_angle_beta 25.908501
_cell_angle_gamma 143.910056
_cell_volume 618.559848
_symmetry_space_group_name_H-M "P -1"
_symmetry_group_IT_number 2
_symmetry_cell_setting 'triclinic'
loop_
_space_group_symop_operation_xyz
x,y,z
-x,-y,-z
loop_
_atom_site_type_symbol
_atom_site_label
_atom_site_fract_x
_atom_site_fract_y
_atom_site_fract_z
Si Si1 0.337176 0.638585 0.710718
Si Si2 0.174852 0.328897 0.551212
Si Si3 0.077207 0.495920 0.205289
Si Si4 0.151756 0.186425 0.117584
Si Si5 0.777753 0.954546 0.451712
Si Si6 0.184489 0.423375 0.359728
Si Si7 0.668041 0.045575 0.356979
O O1 0.301011 0.291221 0.607591
O O2 0.329125 0.789967 0.683101
O O3 0.499988 0.828796 0.576308
O O4 0.219379 0.652134 0.972766
O O5 0.252902 0.210951 0.457624
O O6 0.215590 0.296015 0.361377
O O7 0.233924 0.692613 0.615938
O O8 0.997225 0.148307 0.772432
O O9 0.122309 0.453702 0.227833
O O10 0.994116 0.694804 0.415466
O O11 0.955647 0.147196 0.224173
O O12 0.228243 0.292815 0.145636
O O13 0.262895 0.169441 0.857717
O O14 0.720652 0.199020 0.641899
#
# Coordination Sequence:
#
# PCOD8000769 Si02
#       7
#     2   2   2   2   2   2   2
#     4  10  19  40  58  82 117 151 189 241 281 331
#     4  10  20  37  60  84 115 150 191 238 277 336
#     4   9  20  33  60  83 114 145 190 233 287 326
#     4  11  21  37  57  90 115 146 192 238 281 344
#     4   8  20  35  60  88 112 144 194 235 281 338
#     4  10  21  37  61  86 117 148 187 235 293 331
#     4  10  23  36  59  85 114 151 196 231 283 341
#
# _framework density 22.633216000000001
#
# number of rings (size 3 to 8) (size 9 to 14) (size 15 to 20)
#    0.857    1.429    0.000    2.571    2.000    1.714 
#    0.000    0.714    0.000    3.429    0.000    0.000 
#    0.000    0.000    0.000    0.000    0.000    0.000 
#
# Total GULP energy -173514.578021 kJ/mol
# GULP energy per Si atom -12393.898430 kJ/mol
# Density = 2.258170 g / cm^3
# Si number density = 22.633216 Si / 1000 Ang^3
#
#
#
# Elastic Constant Matrix: (Units=GPa)
#
#
# Indices 1 2 3 4 5 6 
#
# 1 53.0215 1.2908 20.8162 -4.6633 11.6069 12.9396
# 2 1.2908 53.9495 28.3086 -6.5942 1.2953 14.4395
# 3 20.8162 28.3086 60.5918 -12.5162 11.6633 8.5148
# 4 -4.6633 -6.5942 -12.5162 20.2040 -0.2133 4.9908
# 5 11.6069 1.2953 11.6633 -0.2133 21.5315 6.3619
# 6 12.9396 14.4395 8.5148 4.9908 6.3619 25.4917
#
#
#
# Elastic Compliance Matrix: (Units=1/GPa)
#
#
# Indices 1 2 3 4 5 6 
#
# 1 0.028368 0.009824 -0.009105 0.008274 -0.005820 -0.017091
# 2 0.009824 0.033326 -0.015366 0.009260 0.007757 -0.022480
# 3 -0.009105 -0.015366 0.030803 0.010884 -0.011890 0.003873
# 4 0.008274 0.009260 0.010884 0.067471 -0.002674 -0.025623
# 5 -0.005820 0.007757 -0.011890 -0.002674 0.058974 -0.011663
# 6 -0.017091 -0.022480 0.003873 -0.025623 -0.011663 0.067271
#
#
# Mechanical properties :
#
#
# Convention : Reuss Voigt Hill
#
# Bulk Modulus (GPa) = 15.82172 29.82156 22.82164
# Shear Modulus (GPa) = 14.85551 21.25524 18.05538
#
# Velocity S-wave (km/s) = 2.56473 3.06783 2.82749
# Velocity P-wave (km/s) = 3.97192 5.07478 4.55683
#
# Compressibility (1/GPa) = 0.06320425
#
# Stress axis : x y z
#
# Youngs Moduli (GPa) = 35.25072 30.00639 32.46385
#
# Poissons Ratio (x) = -0.29478 0.29557
# Poissons Ratio (y) = -0.34630 0.49885
# Poissons Ratio (z) = 0.32094 0.46109
#
# Static dielectric constant tensor:
#      x y z
#    x 4.018080 0.005390 0.096660 
#    y 0.005390 4.099730 -0.203980 
#    z 0.096660 -0.203980 3.621370 
# 
# 
# High freq. dielectric constant tensor:
#      x y z
#    x 1.895540 -0.006290 0.019670 
#    y -0.006290 1.892610 -0.009520 
#    z 0.019670 -0.009520 1.842750 
# 
# From -- ./inp_files/250328.got.cif
#   From: 2010.06.25/outbox.cif.g09.slc.cpg/sg2_126_cif.got.tgz:250328.got - 2010.06.27 13:26:56.
