data_PCOD8000454
_publ_section_title
;
Structure prediction by ZEFSAII (Michael W. Deem and Ramdas Pophale) SiO2 
 PCOD8000454
Probable space group: P -1
;
_chemical_formula_sum "Si O2"
_cell_formula_units_Z 16
_cell_length_a 15.085328
_cell_length_b 18.719915
_cell_length_c 15.386355
_cell_angle_alpha 24.266903
_cell_angle_beta 135.707912
_cell_angle_gamma 150.034386
_cell_volume 832.002080
_symmetry_space_group_name_H-M "P -1"
_symmetry_group_IT_number 2
_symmetry_cell_setting 'triclinic'
loop_
_space_group_symop_operation_xyz
x,y,z
-x,-y,-z
loop_
_atom_site_type_symbol
_atom_site_label
_atom_site_fract_x
_atom_site_fract_y
_atom_site_fract_z
Si Si1 0.813533 0.613144 0.265924
Si Si2 0.186664 0.733402 0.821407
Si Si3 0.746419 0.115788 0.482515
Si Si4 0.419687 0.300311 0.411894
Si Si5 0.344830 0.822301 0.477738
Si Si6 0.399222 0.408388 0.623487
Si Si7 0.006061 0.100834 0.752760
Si Si8 0.536460 0.286649 0.982847
O O1 0.606449 0.484328 0.278636
O O2 0.790480 0.400579 0.442260
O O3 0.924217 0.707566 0.330250
O O4 0.931986 0.845706 0.022454
O O5 0.139133 0.684598 0.739502
O O6 0.263669 0.001432 0.606162
O O7 0.334696 0.731823 0.948419
O O8 0.000000 0.500000 0.000000
O O9 0.769064 0.264308 0.416820
O O10 0.834472 0.017369 0.673437
O O11 0.524769 0.878549 0.561345
O O12 0.482947 0.332969 0.520934
O O13 0.345065 0.426220 0.212783
O O14 0.411080 0.076959 0.205019
O O15 0.500000 0.500000 0.500000
O O16 0.178263 0.241264 0.649570
O O17 0.405471 0.227242 0.878325
#
# Coordination Sequence:
#
# PCOD8000454 Si02
#       8
#     2   2   2   2   2   2   2   2
#     4  10  19  39  62  89 126 161 202 244 321 369
#     4  11  23  42  62  90 121 164 213 247 302 372
#     4  10  22  38  58  91 128 153 207 262 295 365
#     4   9  19  40  64  86 117 169 197 245 319 357
#     4  10  20  40  60  91 125 165 199 250 323 368
#     4   9  21  41  62  86 123 162 211 248 304 366
#     4  10  22  37  60  95 121 159 211 259 295 373
#     4   9  20  39  66  83 123 162 203 254 310 362
#
# _framework density 19.230720000000002
#
# number of rings (size 3 to 8) (size 9 to 14) (size 15 to 20)
#    0.750    1.500    2.500    0.750    3.500    1.500 
#    9.000    0.625    0.000    0.000    0.000    0.000 
#    0.000    0.000    0.000    0.000    0.000    0.000 
#
# Total GULP energy -198232.485574 kJ/mol
# GULP energy per Si atom -12389.530348 kJ/mol
# Density = 1.918695 g / cm^3
# Si number density = 19.230720 Si / 1000 Ang^3
#
#
#
# Elastic Constant Matrix: (Units=GPa)
#
#
# Indices 1 2 3 4 5 6 
#
# 1 135.1119 33.1491 60.2741 -9.6133 -18.7155 -8.1158
# 2 33.1491 65.4837 47.9902 8.8840 -3.8516 2.0545
# 3 60.2741 47.9902 105.9235 -7.3591 6.0320 -2.8459
# 4 -9.6133 8.8840 -7.3591 36.9957 -1.6392 4.1503
# 5 -18.7155 -3.8516 6.0320 -1.6392 40.8439 -2.5895
# 6 -8.1158 2.0545 -2.8459 4.1503 -2.5895 20.7629
#
#
#
# Elastic Compliance Matrix: (Units=1/GPa)
#
#
# Indices 1 2 3 4 5 6 
#
# 1 0.011832 -0.001486 -0.006176 0.002006 0.006549 0.004341
# 2 -0.001486 0.026115 -0.011826 -0.008574 0.003013 -0.002696
# 3 -0.006176 -0.011826 0.019009 0.004771 -0.006587 -0.000414
# 4 0.002006 -0.008574 0.004771 0.031010 0.000406 -0.003862
# 5 0.006549 0.003013 -0.006587 0.000406 0.029069 0.004903
# 6 0.004341 -0.002696 -0.000414 -0.003862 0.004903 0.051453
#
#
# Mechanical properties :
#
#
# Convention : Reuss Voigt Hill
#
# Bulk Modulus (GPa) = 55.62120 65.48288 60.55204
# Shear Modulus (GPa) = 23.42389 30.72755 27.07572
#
# Velocity S-wave (km/s) = 3.49384 4.00163 3.75632
# Velocity P-wave (km/s) = 6.72769 7.44821 7.09710
#
# Compressibility (1/GPa) = 0.01797876
#
# Stress axis : x y z
#
# Youngs Moduli (GPa) = 84.51708 38.29232 52.60789
#
# Poissons Ratio (x) = 0.05691 0.32492
# Poissons Ratio (y) = 0.12562 0.62212
# Poissons Ratio (z) = 0.52201 0.45283
#
# Static dielectric constant tensor:
#      x y z
#    x 3.669900 -0.054050 0.035400 
#    y -0.054050 3.445470 0.035740 
#    z 0.035400 0.035740 3.302540 
# 
# 
# High freq. dielectric constant tensor:
#      x y z
#    x 1.757590 0.002540 0.000110 
#    y 0.002540 1.728290 0.009740 
#    z 0.000110 0.009740 1.728090 
# 
# From -- ./inp_files/574304.got.cif
#   From: 2010.06.25/outbox.cif.g09.slc.cpg/sg2_288_cif.got.tgz:574304.got - 2010.06.27 13:26:56.
