data_PCOD8000836
_publ_section_title
;
Structure prediction by ZEFSAII (Michael W. Deem and Ramdas Pophale) SiO2 
 PCOD8000836
Probable space group: P -1
;
_chemical_formula_sum "Si O2"
_cell_formula_units_Z 16
_cell_length_a 22.691944
_cell_length_b 6.737226
_cell_length_c 9.497416
_cell_angle_alpha 129.477607
_cell_angle_beta 42.594512
_cell_angle_gamma 121.366937
_cell_volume 754.684287
_symmetry_space_group_name_H-M "P -1"
_symmetry_group_IT_number 2
_symmetry_cell_setting 'triclinic'
loop_
_space_group_symop_operation_xyz
x,y,z
-x,-y,-z
loop_
_atom_site_type_symbol
_atom_site_label
_atom_site_fract_x
_atom_site_fract_y
_atom_site_fract_z
Si Si1 0.752705 0.175928 0.646619
Si Si2 0.373943 0.513296 0.698389
Si Si3 0.972274 0.248451 0.586439
Si Si4 0.316763 0.297743 0.996404
Si Si5 0.773459 0.197414 0.945836
Si Si6 0.468589 0.057469 0.734831
Si Si7 0.573399 0.952063 0.738895
Si Si8 0.049117 0.805369 0.727857
O O1 0.747097 0.117747 0.795991
O O2 0.847382 0.113068 0.395743
O O3 0.673311 0.007392 0.635530
O O4 0.739516 0.470203 0.761286
O O5 0.355284 0.338639 0.791016
O O6 0.422967 0.795507 0.770200
O O7 0.433990 0.354352 0.421516
O O8 0.281552 0.562810 0.808890
O O9 0.874342 0.295926 0.822429
O O10 0.982481 0.188379 0.375822
O O11 0.029557 0.500912 0.661872
O O12 0.000000 0.000000 0.500000
O O13 0.399414 0.272563 0.945242
O O14 0.250739 0.037571 0.009140
O O15 0.551941 0.132447 0.723502
O O16 0.500000 0.000000 0.500000
O O17 0.500000 0.000000 0.000000
O O18 0.000000 0.000000 0.000000
#
# Coordination Sequence:
#
# PCOD8000836 Si02
#       8
#     2   2   2   2   2   2   2   2
#     4  10  23  41  60  94 131 162 205 266 324 379
#     4  10  22  39  62  85 123 167 213 258 305 381
#     4  10  21  41  71 100 128 176 220 266 339 401
#     4  10  19  40  63  85 123 166 208 263 310 370
#     4   9  20  40  65  90 122 166 212 257 314 390
#     4  11  23  40  62  87 117 168 221 256 307 377
#     4  12  24  39  61  90 127 168 205 261 321 367
#     4  10  23  43  69  99 137 172 217 277 334 398
#
# _framework density 21.20092
#
# number of rings (size 3 to 8) (size 9 to 14) (size 15 to 20)
#    0.000    1.750    1.250    3.375    3.500    2.000 
#    2.250    0.000    0.000    0.000    0.000    0.000 
#    0.000    0.000    0.000    0.000    0.000    0.000 
#
# Total GULP energy -198245.663711 kJ/mol
# GULP energy per Si atom -12390.353982 kJ/mol
# Density = 2.115267 g / cm^3
# Si number density = 21.200920 Si / 1000 Ang^3
#
#
#
# Elastic Constant Matrix: (Units=GPa)
#
#
# Indices 1 2 3 4 5 6 
#
# 1 95.9696 30.6744 39.1647 -2.7682 -13.1119 -0.8651
# 2 30.6744 117.8913 36.6361 -1.6651 0.4809 -16.7410
# 3 39.1647 36.6361 144.1007 8.7400 -17.8595 -7.7465
# 4 -2.7682 -1.6651 8.7400 35.3641 -0.6947 -6.7716
# 5 -13.1119 0.4809 -17.8595 -0.6947 29.6130 -1.3339
# 6 -0.8651 -16.7410 -7.7465 -6.7716 -1.3339 29.6627
#
#
#
# Elastic Compliance Matrix: (Units=1/GPa)
#
#
# Indices 1 2 3 4 5 6 
#
# 1 0.012911 -0.002797 -0.002420 0.001303 0.004273 -0.001344
# 2 -0.002797 0.010699 -0.002055 0.001845 -0.002350 0.005735
# 3 -0.002420 -0.002055 0.008825 -0.002239 0.004266 0.000755
# 4 0.001303 0.001845 -0.002239 0.030452 0.000247 0.007457
# 5 0.004273 -0.002350 0.004266 0.000247 0.038354 0.001694
# 6 -0.001344 0.005735 0.000755 0.007457 0.001694 0.038886
#
#
# Mechanical properties :
#
#
# Convention : Reuss Voigt Hill
#
# Bulk Modulus (GPa) = 55.89313 63.43467 59.66390
# Shear Modulus (GPa) = 31.12692 35.69372 33.41032
#
# Velocity S-wave (km/s) = 3.83585 4.10761 3.97405
# Velocity P-wave (km/s) = 6.78521 7.24447 7.01860
#
# Compressibility (1/GPa) = 0.01789129
#
# Stress axis : x y z
#
# Youngs Moduli (GPa) = 77.45511 93.46839 113.31955
#
# Poissons Ratio (x) = 0.26146 0.27418
# Poissons Ratio (y) = 0.21666 0.23282
# Poissons Ratio (z) = 0.18741 0.19204
#
# Static dielectric constant tensor:
#      x y z
#    x 0.205070 -0.638840 1.478070 
#    y -0.638840 4.155630 0.181740 
#    z 1.478070 0.181740 3.034110 
# 
# 
# High freq. dielectric constant tensor:
#      x y z
#    x 1.826680 -0.014580 -0.029470 
#    y -0.014580 1.829890 -0.004000 
#    z -0.029470 -0.004000 1.832880 
# 
# From -- ./inp_files/340624.got.cif
#   From: 2010.06.25/outbox.cif.g09.slc.cpg/sg2_171_cif.got.tgz:340624.got - 2010.06.27 13:26:56.
