data_PCOD8000656
_publ_section_title
;
Structure prediction by ZEFSAII (Michael W. Deem and Ramdas Pophale) SiO2 
 PCOD8000656
Probable space group: P -1
;
_chemical_formula_sum "Si O2"
_cell_formula_units_Z 16
_cell_length_a 25.540572
_cell_length_b 9.376294
_cell_length_c 22.278090
_cell_angle_alpha 36.753278
_cell_angle_beta 162.223199
_cell_angle_gamma 152.213771
_cell_volume 726.764933
_symmetry_space_group_name_H-M "P -1"
_symmetry_group_IT_number 2
_symmetry_cell_setting 'triclinic'
loop_
_space_group_symop_operation_xyz
x,y,z
-x,-y,-z
loop_
_atom_site_type_symbol
_atom_site_label
_atom_site_fract_x
_atom_site_fract_y
_atom_site_fract_z
Si Si1 0.885786 0.755672 0.375590
Si Si2 0.265826 0.554922 0.948273
Si Si3 0.181359 0.826770 0.483214
Si Si4 0.401651 0.520797 0.325395
Si Si5 0.972367 0.414635 0.929143
Si Si6 0.647373 0.841555 0.177881
Si Si7 0.089875 0.182147 0.346655
Si Si8 0.603880 0.712506 0.728589
O O1 0.811450 0.418625 0.391217
O O2 0.683064 0.674266 0.222940
O O3 0.135182 0.967855 0.605652
O O4 0.910335 0.958117 0.278665
O O5 0.413607 0.569267 0.051016
O O6 0.275557 0.404215 0.069362
O O7 0.999395 0.338013 0.713295
O O8 0.372742 0.915093 0.956526
O O9 0.433816 0.108356 0.637900
O O10 0.108629 0.960042 0.404688
O O11 0.500000 0.500000 0.500000
O O12 0.389780 0.316828 0.326957
O O13 0.150120 0.383543 0.110768
O O14 0.014603 0.700482 0.845120
O O15 0.723885 0.070602 0.758791
O O16 0.000000 0.500000 0.000000
O O17 0.342763 0.489487 0.542606
#
# Coordination Sequence:
#
# PCOD8000656 Si02
#       8
#     2   2   2   2   2   2   2   2
#     4  10  20  40  60  97 133 172 216 265 332 389
#     4  10  19  39  66  93 127 173 216 265 332 385
#     4  10  23  41  65  91 133 178 212 275 328 387
#     4  11  25  47  67  96 132 175 226 275 333 394
#     4  12  26  45  68 100 131 169 226 281 334 394
#     4   9  20  36  61  95 131 167 217 270 317 397
#     4  11  23  41  64  96 132 170 221 269 328 395
#     4  11  23  43  70  94 130 178 218 272 337 396
#
# _framework density 22.015374000000001
#
# number of rings (size 3 to 8) (size 9 to 14) (size 15 to 20)
#    0.000    1.500    1.250    4.125    1.750    2.000 
#    6.750    1.250    0.000    0.000    0.000    0.000 
#    0.000    0.000    0.000    0.000    0.000    0.000 
#
# Total GULP energy -198425.647935 kJ/mol
# GULP energy per Si atom -12401.602996 kJ/mol
# Density = 2.196527 g / cm^3
# Si number density = 22.015374 Si / 1000 Ang^3
#
#
#
# Elastic Constant Matrix: (Units=GPa)
#
#
# Indices 1 2 3 4 5 6 
#
# 1 88.9459 57.2972 22.4692 -7.8960 -17.1831 2.0813
# 2 57.2972 130.2490 27.5688 -14.8314 -15.4475 -0.3061
# 3 22.4692 27.5688 59.0738 -5.1711 -3.9067 -0.3139
# 4 -7.8960 -14.8314 -5.1711 41.2335 2.2653 -5.1989
# 5 -17.1831 -15.4475 -3.9067 2.2653 34.0679 -6.7485
# 6 2.0813 -0.3061 -0.3139 -5.1989 -6.7485 31.2119
#
#
#
# Elastic Compliance Matrix: (Units=1/GPa)
#
#
# Indices 1 2 3 4 5 6 
#
# 1 0.017110 -0.006154 -0.003245 0.000357 0.005444 0.000003
# 2 -0.006154 0.011478 -0.002649 0.002685 0.001886 0.001351
# 3 -0.003245 -0.002649 0.019445 0.000949 -0.000588 0.000417
# 4 0.000357 0.002685 0.000949 0.025933 0.000669 0.004476
# 5 0.005444 0.001886 -0.000588 0.000669 0.034263 0.007169
# 6 0.000003 0.001351 0.000417 0.004476 0.007169 0.034352
#
#
# Mechanical properties :
#
#
# Convention : Reuss Voigt Hill
#
# Bulk Modulus (GPa) = 41.77490 54.77100 48.27295
# Shear Modulus (GPa) = 28.62803 32.69824 30.66313
#
# Velocity S-wave (km/s) = 3.60997 3.85807 3.73608
# Velocity P-wave (km/s) = 6.03261 6.69170 6.37068
#
# Compressibility (1/GPa) = 0.02393782
#
# Stress axis : x y z
#
# Youngs Moduli (GPa) = 58.44571 87.12437 51.42755
#
# Poissons Ratio (x) = 0.53612 0.16687
# Poissons Ratio (y) = 0.35965 0.13623
# Poissons Ratio (z) = 0.18964 0.23080
#
# Static dielectric constant tensor:
#      x y z
#    x 3.883950 0.139560 0.005650 
#    y 0.139560 4.122230 -0.063150 
#    z 0.005650 -0.063150 3.816690 
# 
# 
# High freq. dielectric constant tensor:
#      x y z
#    x 1.855520 0.007220 0.002350 
#    y 0.007220 1.873020 -0.001750 
#    z 0.002350 -0.001750 1.869110 
# 
# From -- ./inp_files/308181.got.cif
#   From: 2010.06.25/outbox.cif.g09.slc.cpg/sg2_155_cif.got.tgz:308181.got - 2010.06.27 13:26:56.
