data_PCOD8000998
_publ_section_title
;
Structure prediction by ZEFSAII (Michael W. Deem and Ramdas Pophale) SiO2 
 PCOD8000998
Probable space group: P -1
;
_chemical_formula_sum "Si O2"
_cell_formula_units_Z 14
_cell_length_a 20.950341
_cell_length_b 20.444410
_cell_length_c 9.081716
_cell_angle_alpha 149.861373
_cell_angle_beta 28.112723
_cell_angle_gamma 161.417837
_cell_volume 573.266049
_symmetry_space_group_name_H-M "P -1"
_symmetry_group_IT_number 2
_symmetry_cell_setting 'triclinic'
loop_
_space_group_symop_operation_xyz
x,y,z
-x,-y,-z
loop_
_atom_site_type_symbol
_atom_site_label
_atom_site_fract_x
_atom_site_fract_y
_atom_site_fract_z
Si Si1 0.008768 0.221514 0.575570
Si Si2 0.570851 0.288601 0.254175
Si Si3 0.706218 0.694320 0.051681
Si Si4 0.175676 0.727428 0.153364
Si Si5 0.081189 0.918277 0.191931
Si Si6 0.461785 0.817843 0.221047
Si Si7 0.137392 0.402485 0.229848
O O1 0.222393 0.469202 0.648973
O O2 0.807962 0.144715 0.751853
O O3 0.903726 0.101800 0.707052
O O4 0.084841 0.154655 0.190106
O O5 0.344018 0.197616 0.571034
O O6 0.597681 0.177050 0.083870
O O7 0.593838 0.271952 0.004250
O O8 0.500000 0.500000 0.000000
O O9 0.734323 0.609507 0.959746
O O10 0.079260 0.713418 0.473697
O O11 0.000000 0.500000 0.000000
O O12 0.000000 0.000000 0.500000
O O13 0.921376 0.702219 0.011605
O O14 0.324367 0.091253 0.973006
O O15 0.279337 0.637137 0.358242
O O16 0.500000 0.000000 0.500000
#
# Coordination Sequence:
#
# PCOD8000998 Si02
#       7
#     2   2   2   2   2   2   2
#     4   9  20  42  68  98 135 179 221 279 340 401
#     4  10  19  40  69 100 131 175 224 278 337 392
#     4   9  20  39  75 101 125 184 225 272 349 396
#     4   9  20  39  74  95 129 190 223 268 351 392
#     4  12  27  45  71 104 138 179 228 276 342 409
#     4  12  28  42  68 106 137 179 233 273 338 408
#     4  11  24  47  72  96 141 180 220 287 338 396
#
# _framework density 24.421471
#
# number of rings (size 3 to 8) (size 9 to 14) (size 15 to 20)
#    0.000    1.714    1.429    2.571    8.000    2.286 
#    0.000    7.143    3.143    0.000    0.000    0.000 
#    0.000    0.000    0.000    0.000    0.000    0.000 
#
# Total GULP energy -173546.214876 kJ/mol
# GULP energy per Si atom -12396.158205 kJ/mol
# Density = 2.436589 g / cm^3
# Si number density = 24.421471 Si / 1000 Ang^3
#
#
#
# Elastic Constant Matrix: (Units=GPa)
#
#
# Indices 1 2 3 4 5 6 
#
# 1 154.0442 37.3440 73.7415 -11.9177 -9.4447 -3.9261
# 2 37.3440 35.5552 27.9267 -5.8735 -5.6721 5.9657
# 3 73.7415 27.9267 157.7422 0.3314 -16.7402 2.1571
# 4 -11.9177 -5.8735 0.3314 37.6031 7.0539 -4.9790
# 5 -9.4447 -5.6721 -16.7402 7.0539 50.2639 -6.8990
# 6 -3.9261 5.9657 2.1571 -4.9790 -6.8990 38.6953
#
#
#
# Elastic Compliance Matrix: (Units=1/GPa)
#
#
# Indices 1 2 3 4 5 6 
#
# 1 0.010412 -0.008316 -0.003448 0.002421 -0.000082 0.002828
# 2 -0.008316 0.041061 -0.003224 0.002812 0.000710 -0.006506
# 3 -0.003448 -0.003224 0.008760 -0.002111 0.002171 -0.000226
# 4 0.002421 0.002812 -0.002111 0.028887 -0.003571 0.003010
# 5 -0.000082 0.000710 0.002171 -0.003571 0.021617 0.003156
# 6 0.002828 -0.006506 -0.000226 0.003010 0.003156 0.028095
#
#
# Mechanical properties :
#
#
# Convention : Reuss Voigt Hill
#
# Bulk Modulus (GPa) = 33.04830 69.48511 51.26670
# Shear Modulus (GPa) = 27.94965 39.20109 33.57537
#
# Velocity S-wave (km/s) = 3.38667 4.01083 3.71189
# Velocity P-wave (km/s) = 5.37165 7.06847 6.27765
#
# Compressibility (1/GPa) = 0.03025874
#
# Stress axis : x y z
#
# Youngs Moduli (GPa) = 96.03897 24.35423 114.15691
#
# Poissons Ratio (x) = 0.20252 0.39360
# Poissons Ratio (y) = 0.79863 0.36799
# Poissons Ratio (z) = 0.33113 0.07851
#
# Static dielectric constant tensor:
#      x y z
#    x 4.630570 0.231480 -0.221930 
#    y 0.231480 4.128580 -0.111550 
#    z -0.221930 -0.111550 5.187500 
# 
# 
# High freq. dielectric constant tensor:
#      x y z
#    x 1.984410 0.018090 -0.002770 
#    y 0.018090 1.972600 0.006300 
#    z -0.002770 0.006300 1.989320 
# 
# From -- ./inp_files/349748.got.cif
#   From: 2010.06.25/outbox.cif.g09.slc.cpg/sg2_175_cif.got.tgz:349748.got - 2010.06.27 13:26:56.
