data_PCOD8000546
_publ_section_title
;
Structure prediction by ZEFSAII (Michael W. Deem and Ramdas Pophale) SiO2 
 PCOD8000546
Probable space group: P -1
;
_chemical_formula_sum "Si O2"
_cell_formula_units_Z 16
_cell_length_a 8.692546
_cell_length_b 15.038309
_cell_length_c 12.192405
_cell_angle_alpha 94.520775
_cell_angle_beta 146.866212
_cell_angle_gamma 73.051610
_cell_volume 790.594960
_symmetry_space_group_name_H-M "P -1"
_symmetry_group_IT_number 2
_symmetry_cell_setting 'triclinic'
loop_
_space_group_symop_operation_xyz
x,y,z
-x,-y,-z
loop_
_atom_site_type_symbol
_atom_site_label
_atom_site_fract_x
_atom_site_fract_y
_atom_site_fract_z
Si Si1 0.060282 0.633513 0.306900
Si Si2 0.189119 0.880421 0.510822
Si Si3 0.208590 0.560179 0.625260
Si Si4 0.909618 0.481152 0.064767
Si Si5 0.548613 0.705948 0.552112
Si Si6 0.778445 0.760795 0.482783
Si Si7 0.919214 0.093356 0.308953
Si Si8 0.377212 0.172602 0.839127
O O1 0.233780 0.591764 0.520026
O O2 0.310721 0.655516 0.387796
O O3 0.960947 0.556816 0.182767
O O4 0.753017 0.731091 0.153227
O O5 0.439759 0.788468 0.589103
O O6 0.277785 0.873921 0.692017
O O7 0.849996 0.881645 0.301064
O O8 0.172187 0.981229 0.458659
O O9 0.000000 0.500000 0.500000
O O10 0.062920 0.655825 0.623679
O O11 0.556416 0.494382 0.865771
O O12 0.115656 0.371692 0.217538
O O13 0.000000 0.500000 0.000000
O O14 0.557497 0.752976 0.444933
O O15 0.578120 0.797811 0.255595
O O16 0.907786 0.838001 0.607948
O O17 0.699970 0.099477 0.075957
#
# Coordination Sequence:
#
# PCOD8000546 Si02
#       8
#     2   2   2   2   2   2   2   2
#     4  10  22  40  59  87 123 161 204 260 298 363
#     4   9  21  38  62  91 118 157 201 264 308 357
#     4  11  24  42  62  89 125 163 210 255 306 368
#     4  12  25  38  66  91 119 167 212 246 312 372
#     4  11  23  41  59  90 132 159 206 262 312 363
#     4  10  23  38  58  88 125 161 201 255 312 358
#     4  10  19  39  64  87 119 158 210 250 305 376
#     4   9  19  37  63  84 116 160 208 246 306 371
#
# _framework density 20.237924
#
# number of rings (size 3 to 8) (size 9 to 14) (size 15 to 20)
#    0.000    1.750    1.250    3.000    3.500    4.500 
#    0.000    0.625    0.000    0.000    0.000    0.000 
#    0.000    0.000    0.000    0.000    0.000    0.000 
#
# Total GULP energy -198457.286106 kJ/mol
# GULP energy per Si atom -12403.580382 kJ/mol
# Density = 2.019186 g / cm^3
# Si number density = 20.237924 Si / 1000 Ang^3
#
#
#
# Elastic Constant Matrix: (Units=GPa)
#
#
# Indices 1 2 3 4 5 6 
#
# 1 102.7922 34.4062 34.4233 1.1553 -0.6018 19.9780
# 2 34.4062 121.0384 31.6582 5.0933 10.5002 10.1688
# 3 34.4233 31.6582 95.3143 -1.2507 2.4371 6.9010
# 4 1.1553 5.0933 -1.2507 21.4747 5.2487 -6.2219
# 5 -0.6018 10.5002 2.4371 5.2487 22.7546 2.0900
# 6 19.9780 10.1688 6.9010 -6.2219 2.0900 32.0817
#
#
#
# Elastic Compliance Matrix: (Units=1/GPa)
#
#
# Indices 1 2 3 4 5 6 
#
# 1 0.013245 -0.002331 -0.003587 -0.003376 0.003288 -0.007607
# 2 -0.002331 0.010062 -0.002327 -0.001828 -0.003911 -0.001337
# 3 -0.003587 -0.002327 0.012557 0.001888 -0.000865 0.000693
# 4 -0.003376 -0.001828 0.001888 0.054511 -0.013281 0.013712
# 5 0.003288 -0.003911 -0.000865 -0.013281 0.049585 -0.006427
# 6 -0.007607 -0.001337 0.000693 0.013712 -0.006427 0.039260
#
#
# Mechanical properties :
#
#
# Convention : Reuss Voigt Hill
#
# Bulk Modulus (GPa) = 51.61758 57.79114 54.70436
# Shear Modulus (GPa) = 24.73190 29.83936 27.28563
#
# Velocity S-wave (km/s) = 3.49959 3.84399 3.67583
# Velocity P-wave (km/s) = 6.47226 6.95123 6.71602
#
# Compressibility (1/GPa) = 0.01937325
#
# Stress axis : x y z
#
# Youngs Moduli (GPa) = 75.49798 99.38721 79.63808
#
# Poissons Ratio (x) = 0.23167 0.28566
# Poissons Ratio (y) = 0.17598 0.18534
# Poissons Ratio (z) = 0.27081 0.23130
#
# Static dielectric constant tensor:
#      x y z
#    x 3.530470 0.071790 -0.109990 
#    y 0.071790 3.786770 -0.061450 
#    z -0.109990 -0.061450 3.483210 
# 
# 
# High freq. dielectric constant tensor:
#      x y z
#    x 1.783630 0.003750 -0.014710 
#    y 0.003750 1.803760 0.001530 
#    z -0.014710 0.001530 1.779340 
# 
# From -- ./inp_files/90502.got.cif
#   From: 2010.06.25/outbox.cif.g09.slc.cpg/sg2_46_cif.got.tgz:90502.got - 2010.06.27 13:26:56.
