data_PCOD8000457
_publ_section_title
;
Structure prediction by ZEFSAII (Michael W. Deem and Ramdas Pophale) SiO2 
 PCOD8000457
Probable space group: P -1
;
_chemical_formula_sum "Si O2"
_cell_formula_units_Z 14
_cell_length_a 15.376392
_cell_length_b 14.307356
_cell_length_c 21.619718
_cell_angle_alpha 160.278740
_cell_angle_beta 157.738482
_cell_angle_gamma 28.359873
_cell_volume 606.575142
_symmetry_space_group_name_H-M "P -1"
_symmetry_group_IT_number 2
_symmetry_cell_setting 'triclinic'
loop_
_space_group_symop_operation_xyz
x,y,z
-x,-y,-z
loop_
_atom_site_type_symbol
_atom_site_label
_atom_site_fract_x
_atom_site_fract_y
_atom_site_fract_z
Si Si1 0.888941 0.551436 0.273378
Si Si2 0.127929 0.780123 0.756383
Si Si3 0.318582 0.549713 0.189365
Si Si4 0.550295 0.276327 0.961264
Si Si5 0.712949 0.148587 0.759762
Si Si6 0.693027 0.872990 0.699145
Si Si7 0.911489 0.953165 0.227557
O O1 0.717849 0.607305 0.136445
O O2 0.057282 0.271174 0.206132
O O3 0.711004 0.513674 0.189340
O O4 0.018424 0.831411 0.540109
O O5 0.000000 0.500000 0.500000
O O6 0.199642 0.857704 0.782890
O O7 0.368298 0.774307 0.947060
O O8 0.961032 0.010859 0.821834
O O9 0.310195 0.565311 0.117808
O O10 0.559894 0.629580 0.427547
O O11 0.130157 0.769159 0.231764
O O12 0.277533 0.236894 0.986994
O O13 0.573580 0.999787 0.761373
O O14 0.500000 0.000000 0.500000
O O15 0.703127 0.133336 0.819139
#
# Coordination Sequence:
#
# PCOD8000457 Si02
#       7
#     2   2   2   2   2   2   2
#     4  11  22  36  63  89 122 160 200 252 300 362
#     4  11  20  37  58  89 117 156 205 252 298 359
#     4   9  20  36  64  88 122 162 203 251 298 361
#     4  11  23  37  59  93 126 158 196 254 311 353
#     4   9  19  33  58  90 116 150 198 252 296 352
#     4  11  20  39  61  93 123 158 201 251 307 357
#     4  10  19  39  62  90 119 162 210 243 300 364
#
# _framework density 23.080407000000001
#
# number of rings (size 3 to 8) (size 9 to 14) (size 15 to 20)
#    0.000    1.714    4.286    0.429    0.000    0.571 
#    0.000    0.714    0.000    1.714    0.000    0.000 
#    0.000    0.000    0.000    0.000    0.000    0.000 
#
# Total GULP energy -173446.896262 kJ/mol
# GULP energy per Si atom -12389.064019 kJ/mol
# Density = 2.302788 g / cm^3
# Si number density = 23.080407 Si / 1000 Ang^3
#
#
#
# Elastic Constant Matrix: (Units=GPa)
#
#
# Indices 1 2 3 4 5 6 
#
# 1 54.0693 51.2789 35.9543 -1.1130 7.7102 12.2203
# 2 51.2789 153.6705 78.5688 -22.5091 -6.6192 29.8230
# 3 35.9543 78.5688 121.0883 5.9864 -0.7989 21.2536
# 4 -1.1130 -22.5091 5.9864 50.8794 8.3430 -0.4347
# 5 7.7102 -6.6192 -0.7989 8.3430 27.1452 7.5858
# 6 12.2203 29.8230 21.2536 -0.4347 7.5858 38.7068
#
#
#
# Elastic Compliance Matrix: (Units=1/GPa)
#
#
# Indices 1 2 3 4 5 6 
#
# 1 0.031082 -0.009748 -0.003202 -0.001382 -0.011340 0.001663
# 2 -0.009748 0.015385 -0.006211 0.006245 0.006240 -0.006518
# 3 -0.003202 -0.006211 0.013884 -0.004783 0.001903 -0.002254
# 4 -0.001382 0.006245 -0.004783 0.023837 -0.005435 -0.000416
# 5 -0.011340 0.006240 0.001903 -0.005435 0.046507 -0.011448
# 6 0.001663 -0.006518 -0.002254 -0.000416 -0.011448 0.033809
#
#
# Mechanical properties :
#
#
# Convention : Reuss Voigt Hill
#
# Bulk Modulus (GPa) = 45.39879 73.38134 59.39006
# Shear Modulus (GPa) = 23.79032 34.21471 29.00251
#
# Velocity S-wave (km/s) = 3.21403 3.85439 3.54868
# Velocity P-wave (km/s) = 5.78669 7.18827 6.52522
#
# Compressibility (1/GPa) = 0.02202702
#
# Stress axis : x y z
#
# Youngs Moduli (GPa) = 32.17288 65.00021 72.02483
#
# Poissons Ratio (x) = 0.63364 0.23064
# Poissons Ratio (y) = 0.31363 0.44737
# Poissons Ratio (z) = 0.10302 0.40374
#
# Static dielectric constant tensor:
#      x y z
#    x 4.102760 0.215600 -0.031440 
#    y 0.215600 4.689120 -0.184350 
#    z -0.031440 -0.184350 4.028920 
# 
# 
# High freq. dielectric constant tensor:
#      x y z
#    x 1.882680 -0.005640 -0.018870 
#    y -0.005640 1.937760 -0.016350 
#    z -0.018870 -0.016350 1.899240 
# 
# From -- ./inp_files/181306.got.cif
#   From: 2010.06.25/outbox.cif.g09.slc.cpg/sg2_91_cif.got.tgz:181306.got - 2010.06.27 13:26:56.
