data_PCOD8000804
_publ_section_title
;
Structure prediction by ZEFSAII (Michael W. Deem and Ramdas Pophale) SiO2 
 PCOD8000804
Probable space group: P -1
;
_chemical_formula_sum "Si O2"
_cell_formula_units_Z 14
_cell_length_a 12.153174
_cell_length_b 8.662144
_cell_length_c 8.955919
_cell_angle_alpha 104.291579
_cell_angle_beta 66.923717
_cell_angle_gamma 55.546045
_cell_volume 562.446428
_symmetry_space_group_name_H-M "P -1"
_symmetry_group_IT_number 2
_symmetry_cell_setting 'triclinic'
loop_
_space_group_symop_operation_xyz
x,y,z
-x,-y,-z
loop_
_atom_site_type_symbol
_atom_site_label
_atom_site_fract_x
_atom_site_fract_y
_atom_site_fract_z
Si Si1 0.254608 0.832286 0.117890
Si Si2 0.542384 0.068066 0.633478
Si Si3 0.179830 0.399482 0.059195
Si Si4 0.401625 0.632720 0.309938
Si Si5 0.130711 0.803319 0.719305
Si Si6 0.311377 0.143977 0.203174
Si Si7 0.042332 0.216149 0.962137
O O1 0.303136 0.709487 0.222546
O O2 0.266387 0.009062 0.154126
O O3 0.392774 0.624953 0.872235
O O4 0.053486 0.983790 0.221399
O O5 0.616091 0.168207 0.569959
O O6 0.500000 0.000000 0.500000
O O7 0.686403 0.836940 0.612809
O O8 0.370109 0.278032 0.875938
O O9 0.170390 0.396799 0.246194
O O10 0.163854 0.238648 0.960679
O O11 0.029705 0.664589 0.136032
O O12 0.298951 0.616054 0.475051
O O13 0.118658 0.663041 0.804175
O O14 0.160051 0.939116 0.828586
O O15 0.500000 0.000000 0.000000
#
# Coordination Sequence:
#
# PCOD8000804 Si02
#       7
#     2   2   2   2   2   2   2
#     4  10  20  40  65  94 129 175 214 273 325 393
#     4  10  20  37  63  95 130 166 216 276 324 388
#     4  10  19  40  61  88 126 181 216 262 326 391
#     4  10  22  38  66  99 129 170 222 264 336 391
#     4  11  21  40  61  98 132 170 212 277 328 390
#     4   9  19  37  65  89 123 174 215 262 332 382
#     4  10  22  36  64  90 131 175 218 267 331 387
#
# _framework density 24.891259000000002
#
# number of rings (size 3 to 8) (size 9 to 14) (size 15 to 20)
#    0.000    2.000    1.429    2.143    0.000    1.143 
#    5.143    3.571    0.000    4.286    0.000    0.000 
#    0.000    0.000    0.000    0.000    0.000    0.000 
#
# Total GULP energy -173496.557766 kJ/mol
# GULP energy per Si atom -12392.611269 kJ/mol
# Density = 2.483461 g / cm^3
# Si number density = 24.891259 Si / 1000 Ang^3
#
#
#
# Elastic Constant Matrix: (Units=GPa)
#
#
# Indices 1 2 3 4 5 6 
#
# 1 78.2887 24.5603 18.4373 -7.6638 -0.8078 -0.7388
# 2 24.5603 111.0937 17.8937 -34.2820 9.9221 -17.8421
# 3 18.4373 17.8937 84.4280 -19.0691 -4.5585 2.3721
# 4 -7.6638 -34.2820 -19.0691 33.3259 1.5115 -0.5766
# 5 -0.8078 9.9221 -4.5585 1.5115 34.6075 -13.1553
# 6 -0.7388 -17.8421 2.3721 -0.5766 -13.1553 39.4565
#
#
#
# Elastic Compliance Matrix: (Units=1/GPa)
#
#
# Indices 1 2 3 4 5 6 
#
# 1 0.014344 -0.003560 -0.002763 -0.001993 0.000711 -0.000967
# 2 -0.003560 0.015974 0.000734 0.016274 -0.002843 0.006403
# 3 -0.002763 0.000734 0.014210 0.008195 0.001221 -0.000047
# 4 -0.001993 0.016274 0.008195 0.051244 -0.003425 0.006436
# 5 0.000711 -0.002843 0.001221 -0.003425 0.033789 0.009870
# 6 -0.000967 0.006403 -0.000047 0.006436 0.009870 0.031609
#
#
# Mechanical properties :
#
#
# Convention : Reuss Voigt Hill
#
# Bulk Modulus (GPa) = 29.98401 43.95479 36.96940
# Shear Modulus (GPa) = 27.25308 35.67259 31.46284
#
# Velocity S-wave (km/s) = 3.31250 3.78979 3.55915
# Velocity P-wave (km/s) = 5.16743 6.07018 5.63690
#
# Compressibility (1/GPa) = 0.03335111
#
# Stress axis : x y z
#
# Youngs Moduli (GPa) = 69.71675 62.60063 70.37181
#
# Poissons Ratio (x) = 0.22287 0.19440
# Poissons Ratio (y) = 0.24820 -0.05166
# Poissons Ratio (z) = 0.19259 -0.04595
#
# Static dielectric constant tensor:
#      x y z
#    x 4.492250 -0.266110 -0.025160 
#    y -0.266110 4.932080 -0.601230 
#    z -0.025160 -0.601230 4.097310 
# 
# 
# High freq. dielectric constant tensor:
#      x y z
#    x 2.007460 0.000370 -0.003850 
#    y 0.000370 1.997180 -0.033430 
#    z -0.003850 -0.033430 1.952070 
# 
# From -- ./inp_files/206907.got.cif
#   From: 2010.06.25/outbox.cif.g09.slc.cpg/sg2_104_cif.got.tgz:206907.got - 2010.06.27 13:26:56.
