data_PCOD8000387
_publ_section_title
;
Structure prediction by ZEFSAII (Michael W. Deem and Ramdas Pophale) SiO2 
 PCOD8000387
Probable space group: P -1
;
_chemical_formula_sum "Si O2"
_cell_formula_units_Z 16
_cell_length_a 11.850014
_cell_length_b 9.728919
_cell_length_c 9.138548
_cell_angle_alpha 99.570209
_cell_angle_beta 51.232192
_cell_angle_gamma 72.891038
_cell_volume 692.853100
_symmetry_space_group_name_H-M "P -1"
_symmetry_group_IT_number 2
_symmetry_cell_setting 'triclinic'
loop_
_space_group_symop_operation_xyz
x,y,z
-x,-y,-z
loop_
_atom_site_type_symbol
_atom_site_label
_atom_site_fract_x
_atom_site_fract_y
_atom_site_fract_z
Si Si1 0.268163 0.635303 0.237954
Si Si2 0.655474 0.757671 0.589345
Si Si3 0.108092 0.243601 0.365180
Si Si4 0.467872 0.423356 0.786395
Si Si5 0.379397 0.876776 0.067230
Si Si6 0.519011 0.893859 0.252882
Si Si7 0.202482 0.518228 0.813706
Si Si8 0.886256 0.680799 0.942568
O O1 0.360394 0.576458 0.314758
O O2 0.312090 0.764286 0.160882
O O3 0.070218 0.719024 0.422009
O O4 0.352559 0.476340 0.037399
O O5 0.807324 0.703898 0.570300
O O6 0.711814 0.614957 0.405032
O O7 0.614758 0.920352 0.557695
O O8 0.483607 0.799439 0.820050
O O9 0.216269 0.053771 0.201369
O O10 0.073682 0.353897 0.268519
O O11 0.518463 0.238654 0.669665
O O12 0.351485 0.541939 0.767729
O O13 0.502563 0.891325 0.088039
O O14 0.708066 0.850153 0.135044
O O15 0.130284 0.464528 0.999215
O O16 0.042913 0.680497 0.900264
#
# Coordination Sequence:
#
# PCOD8000387 Si02
#       8
#     2   2   2   2   2   2   2   2
#     4  10  22  38  67  87 119 170 207 247 307 362
#     4  11  21  37  66  98 118 163 197 257 318 354
#     4  11  21  37  65  96 118 159 213 253 301 364
#     4   9  21  41  58  86 122 165 206 247 301 369
#     4  10  19  39  60  94 126 155 206 262 291 362
#     4   9  17  36  62  85 125 150 201 255 297 353
#     4  10  24  37  60  92 129 159 195 261 314 358
#     4  10  20  37  55  90 130 150 194 262 298 356
#
# _framework density 23.092918999999998
#
# number of rings (size 3 to 8) (size 9 to 14) (size 15 to 20)
#    0.000    2.000    2.500    1.125    5.250    5.500 
#    0.000    2.500    2.750    1.500    0.000    0.000 
#    0.000    0.000    0.000    0.000    0.000    0.000 
#
# Total GULP energy -198236.718381 kJ/mol
# GULP energy per Si atom -12389.794899 kJ/mol
# Density = 2.304036 g / cm^3
# Si number density = 23.092919 Si / 1000 Ang^3
#
#
#
# Elastic Constant Matrix: (Units=GPa)
#
#
# Indices 1 2 3 4 5 6 
#
# 1 143.1493 16.9524 42.1710 1.6232 -7.2536 -34.5403
# 2 16.9524 47.6657 18.8465 2.5229 -2.6733 -19.3587
# 3 42.1710 18.8465 89.5169 -0.7311 -15.4920 1.2279
# 4 1.6232 2.5229 -0.7311 19.3373 -1.0102 -3.4956
# 5 -7.2536 -2.6733 -15.4920 -1.0102 29.6417 2.8883
# 6 -34.5403 -19.3587 1.2279 -3.4956 2.8883 35.2714
#
#
#
# Elastic Compliance Matrix: (Units=1/GPa)
#
#
# Indices 1 2 3 4 5 6 
#
# 1 0.011957 0.004291 -0.007033 0.000704 -0.001754 0.014522
# 2 0.004291 0.032265 -0.009707 -0.001059 -0.003334 0.022416
# 3 -0.007033 -0.009707 0.018139 0.000538 0.008214 -0.013466
# 4 0.000704 -0.001059 0.000538 0.052838 0.001653 0.005191
# 5 -0.001754 -0.003334 0.008214 0.001653 0.038017 -0.006783
# 6 0.014522 0.022416 -0.013466 0.005191 -0.006783 0.056414
#
#
# Mechanical properties :
#
#
# Convention : Reuss Voigt Hill
#
# Bulk Modulus (GPa) = 26.69476 48.47464 37.58470
# Shear Modulus (GPa) = 20.24174 30.34089 25.29132
#
# Velocity S-wave (km/s) = 2.96384 3.62865 3.31297
# Velocity P-wave (km/s) = 4.82673 6.21232 5.56283
#
# Compressibility (1/GPa) = 0.03746053
#
# Stress axis : x y z
#
# Youngs Moduli (GPa) = 83.63579 30.99372 55.13087
#
# Poissons Ratio (x) = -0.13298 0.38774
# Poissons Ratio (y) = -0.35885 0.53517
# Poissons Ratio (z) = 0.58821 0.30086
#
# Static dielectric constant tensor:
#      x y z
#    x 4.696550 -0.538050 -0.118540 
#    y -0.538050 4.205320 0.095500 
#    z -0.118540 0.095500 3.899290 
# 
# 
# High freq. dielectric constant tensor:
#      x y z
#    x 1.917780 -0.034500 -0.009620 
#    y -0.034500 1.896140 0.006370 
#    z -0.009620 0.006370 1.894190 
# 
# From -- ./inp_files/259388.got.cif
#   From: 2010.06.25/outbox.cif.g09.slc.cpg/sg2_130_cif.got.tgz:259388.got - 2010.06.27 13:26:56.
