data_PCOD8000056
_publ_section_title
;
Structure prediction by ZEFSAII (Michael W. Deem and Ramdas Pophale) SiO2 
 PCOD8000056
Probable space group: P 1
;
_chemical_formula_sum "Si O2"
_cell_formula_units_Z 6
_cell_length_a 8.762394
_cell_length_b 6.564411
_cell_length_c 7.618256
_cell_angle_alpha 103.677485
_cell_angle_beta 128.753628
_cell_angle_gamma 57.859323
_cell_volume 286.246959
_symmetry_space_group_name_H-M "P 1"
_symmetry_group_IT_number 1
_symmetry_cell_setting 'triclinic'
loop_
_space_group_symop_operation_xyz
x,y,z
loop_
_atom_site_type_symbol
_atom_site_label
_atom_site_fract_x
_atom_site_fract_y
_atom_site_fract_z
Si Si1 0.504680 0.254190 0.369160
Si Si2 0.131667 0.796274 0.202201
Si Si3 0.384452 0.877010 0.080578
Si Si4 0.669856 0.904841 0.733985
Si Si5 0.771030 0.476793 0.461939
Si Si6 0.221468 0.040476 0.630735
O O1 0.290674 0.516209 0.309220
O O2 0.696294 0.279675 0.409183
O O3 0.413747 0.111356 0.158623
O O4 0.620903 0.112785 0.601835
O O5 0.228798 0.878123 0.127065
O O6 0.110709 0.949504 0.389652
O O7 0.884056 0.846503 0.992327
O O8 0.632782 0.633585 0.223695
O O9 0.266821 0.888094 0.812993
O O10 0.709566 0.660078 0.618762
O O11 0.457018 0.009543 0.731270
O O12 0.040463 0.327637 0.589710
#
# Coordination Sequence:
#
# PCOD8000056 Si02
#       6
#     1   1   1   1   1   1
#     4  10  20  46  70  90 138 172 208 278 322 374
#     4  11  24  45  67  97 134 170 217 271 321 385
#     4  10  23  45  66  98 133 170 218 269 322 385
#     4  11  24  45  67  97 134 170 217 271 321 385
#     4  10  23  45  66  98 133 170 218 269 322 385
#     4  12  24  44  68 100 128 174 220 260 332 386
#
# _framework density 20.960922
#
# number of rings (size 3 to 8) (size 9 to 14) (size 15 to 20)
#    0.000    1.333    5.000    2.000    2.333    2.667 
#   12.000    0.000    0.000    0.000    0.000    0.000 
#    0.000    0.000    0.000    0.000    0.000    0.000 
#
# Total GULP energy -74415.095787 kJ/mol
# GULP energy per Si atom -12402.515965 kJ/mol
# Density = 2.091321 g / cm^3
# Si number density = 20.960922 Si / 1000 Ang^3
#
#
#
# Elastic Constant Matrix: (Units=GPa)
#
#
# Indices 1 2 3 4 5 6 
#
# 1 82.8977 57.4887 34.6682 -2.3148 9.8958 -19.5412
# 2 57.4887 95.0103 18.4069 -18.3925 6.4920 -1.8648
# 3 34.6682 18.4069 116.0192 -11.7572 1.7274 -13.1102
# 4 -2.3148 -18.3925 -11.7572 29.8049 -1.5321 13.6198
# 5 9.8958 6.4920 1.7274 -1.5321 46.4670 -4.6154
# 6 -19.5412 -1.8648 -13.1102 13.6198 -4.6154 36.7164
#
#
#
# Elastic Compliance Matrix: (Units=1/GPa)
#
#
# Indices 1 2 3 4 5 6 
#
# 1 0.041825 -0.029114 -0.007698 -0.031281 -0.002675 0.029300
# 2 -0.029114 0.032786 0.003895 0.030332 0.000123 -0.023675
# 3 -0.007698 0.003895 0.010727 0.007302 0.000670 -0.002694
# 4 -0.031281 0.030332 0.007302 0.070355 0.000646 -0.038517
# 5 -0.002675 0.000123 0.000670 0.000646 0.022206 0.001373
# 6 0.029300 -0.023675 -0.002694 -0.038517 0.001373 0.055126
#
#
# Mechanical properties :
#
#
# Convention : Reuss Voigt Hill
#
# Bulk Modulus (GPa) = 51.27264 57.22829 54.25047
# Shear Modulus (GPa) = 16.37410 34.82189 25.59799
#
# Velocity S-wave (km/s) = 2.79798 4.08030 3.49839
# Velocity P-wave (km/s) = 5.91206 7.03989 6.50048
#
# Compressibility (1/GPa) = 0.01950358
#
# Stress axis : x y z
#
# Youngs Moduli (GPa) = 23.90904 30.50128 93.21967
#
# Poissons Ratio (x) = 0.88801 0.71762
# Poissons Ratio (y) = 0.69608 -0.36307
# Poissons Ratio (z) = 0.18406 -0.11879
#
# Static dielectric constant tensor:
#      x y z
#    x 3.691220 -0.001260 0.067970 
#    y -0.001260 3.814100 -0.156050 
#    z 0.067970 -0.156050 4.009560 
# 
# 
# High freq. dielectric constant tensor:
#      x y z
#    x 1.814790 -0.000690 0.007970 
#    y -0.000690 1.822120 -0.010960 
#    z 0.007970 -0.010960 1.837140 
# 
# From -- ./inp_files/950.got.cif
#   From: 2010.03.12/outbox.cif.g09.slc.cpg/sg1_1_cif.got.tgz:950.got - 2010.03.29 11:57:58.
