data_PCOD8000521
_publ_section_title
;
Structure prediction by ZEFSAII (Michael W. Deem and Ramdas Pophale) SiO2 
 PCOD8000521
Probable space group: P -1
;
_chemical_formula_sum "Si O2"
_cell_formula_units_Z 16
_cell_length_a 11.076408
_cell_length_b 8.835025
_cell_length_c 12.151120
_cell_angle_alpha 52.374560
_cell_angle_beta 55.359153
_cell_angle_gamma 69.585793
_cell_volume 774.845057
_symmetry_space_group_name_H-M "P -1"
_symmetry_group_IT_number 2
_symmetry_cell_setting 'triclinic'
loop_
_space_group_symop_operation_xyz
x,y,z
-x,-y,-z
loop_
_atom_site_type_symbol
_atom_site_label
_atom_site_fract_x
_atom_site_fract_y
_atom_site_fract_z
Si Si1 0.398617 0.346938 0.062817
Si Si2 0.131163 0.268024 0.802716
Si Si3 0.312090 0.996847 0.966824
Si Si4 0.793734 0.311934 0.003074
Si Si5 0.428574 0.783315 0.182214
Si Si6 0.346841 0.594108 0.507157
Si Si7 0.602449 0.999537 0.616996
Si Si8 0.288739 0.010938 0.674070
O O1 0.248193 0.465413 0.065059
O O2 0.365540 0.167607 0.237798
O O3 0.500000 0.500000 0.000000
O O4 0.463391 0.288851 0.937008
O O5 0.211619 0.470362 0.674117
O O6 0.168409 0.158069 0.719105
O O7 0.959500 0.299125 0.882458
O O8 0.181647 0.140550 0.938598
O O9 0.309332 0.804936 0.978721
O O10 0.305909 0.925522 0.129216
O O11 0.472992 0.101774 0.827303
O O12 0.770295 0.206410 0.180344
O O13 0.347886 0.612713 0.364247
O O14 0.500000 0.500000 0.500000
O O15 0.320483 0.803749 0.476675
O O16 0.430861 0.038207 0.666570
O O17 0.679229 0.936385 0.490855
#
# Coordination Sequence:
#
# PCOD8000521 Si02
#       8
#     2   2   2   2   2   2   2   2
#     4  12  23  40  64  94 130 159 213 267 308 377
#     4  11  23  41  63  94 131 173 210 251 316 384
#     4  10  19  39  63  92 123 156 210 265 301 369
#     4  11  23  41  63  94 131 173 210 251 316 384
#     4  11  22  36  66  97 120 163 210 266 326 343
#     4  12  23  40  64  94 130 159 213 267 308 377
#     4  11  23  39  62  97 123 156 218 268 312 352
#     4  10  20  37  66  92 124 162 210 267 311 362
#
# _framework density 20.649290000000001
#
# number of rings (size 3 to 8) (size 9 to 14) (size 15 to 20)
#    0.000    1.000    5.000    4.500    3.500    0.000 
#    0.000    8.125    0.000    0.000    0.000    0.000 
#    0.000    0.000    0.000    0.000    0.000    0.000 
#
# Total GULP energy -198302.828160 kJ/mol
# GULP energy per Si atom -12393.926760 kJ/mol
# Density = 2.060229 g / cm^3
# Si number density = 20.649290 Si / 1000 Ang^3
#
#
#
# Elastic Constant Matrix: (Units=GPa)
#
#
# Indices 1 2 3 4 5 6 
#
# 1 60.4255 46.7838 39.1411 5.8008 1.4243 -3.3038
# 2 46.7838 118.2284 62.5952 -14.9727 3.1211 -11.8425
# 3 39.1411 62.5952 123.0508 -8.5403 6.9426 -3.0736
# 4 5.8008 -14.9727 -8.5403 36.1827 -1.5204 -3.4975
# 5 1.4243 3.1211 6.9426 -1.5204 29.0222 -1.0574
# 6 -3.3038 -11.8425 -3.0736 -3.4975 -1.0574 29.0152
#
#
#
# Elastic Compliance Matrix: (Units=1/GPa)
#
#
# Indices 1 2 3 4 5 6 
#
# 1 0.028338 -0.010387 -0.004513 -0.010161 0.000175 -0.002709
# 2 -0.010387 0.016525 -0.004415 0.008068 0.000433 0.006083
# 3 -0.004513 -0.004415 0.012013 0.001552 -0.002130 -0.000934
# 4 -0.010161 0.008068 0.001552 0.033643 0.001255 0.006401
# 5 0.000175 0.000433 -0.002130 0.001255 0.035027 0.001399
# 6 -0.002709 0.006083 -0.000934 0.006401 0.001399 0.037363
#
#
# Mechanical properties :
#
#
# Convention : Reuss Voigt Hill
#
# Bulk Modulus (GPa) = 54.80586 66.52722 60.66654
# Shear Modulus (GPa) = 24.08241 29.05633 26.56937
#
# Velocity S-wave (km/s) = 3.41876 3.75525 3.59095
# Velocity P-wave (km/s) = 6.49483 7.14774 6.82909
#
# Compressibility (1/GPa) = 0.01824623
#
# Stress axis : x y z
#
# Youngs Moduli (GPa) = 35.28863 60.51288 83.24530
#
# Poissons Ratio (x) = 0.62854 0.37568
# Poissons Ratio (y) = 0.36654 0.36753
# Poissons Ratio (z) = 0.15925 0.26716
#
# Static dielectric constant tensor:
#      x y z
#    x 3.599620 0.049500 0.205030 
#    y 0.049500 3.980760 -0.280600 
#    z 0.205030 -0.280600 4.111410 
# 
# 
# High freq. dielectric constant tensor:
#      x y z
#    x 1.777140 0.005070 0.016440 
#    y 0.005070 1.809480 -0.011890 
#    z 0.016440 -0.011890 1.820910 
# 
# From -- ./inp_files/416263.got.cif
#   From: 2010.06.25/outbox.cif.g09.slc.cpg/sg2_209_cif.got.tgz:416263.got - 2010.06.27 13:26:56.
