data_PCOD8000411
_publ_section_title
;
Structure prediction by ZEFSAII (Michael W. Deem and Ramdas Pophale) SiO2 
 PCOD8000411
Probable space group: P -1
;
_chemical_formula_sum "Si O2"
_cell_formula_units_Z 14
_cell_length_a 15.755055
_cell_length_b 20.974930
_cell_length_c 6.985614
_cell_angle_alpha 57.568478
_cell_angle_beta 61.885398
_cell_angle_gamma 16.231379
_cell_volume 535.203613
_symmetry_space_group_name_H-M "P -1"
_symmetry_group_IT_number 2
_symmetry_cell_setting 'triclinic'
loop_
_space_group_symop_operation_xyz
x,y,z
-x,-y,-z
loop_
_atom_site_type_symbol
_atom_site_label
_atom_site_fract_x
_atom_site_fract_y
_atom_site_fract_z
Si Si1 0.641047 0.113914 0.363795
Si Si2 0.152108 0.844956 0.329186
Si Si3 0.558074 0.483131 0.175453
Si Si4 0.870423 0.561253 0.232888
Si Si5 0.015886 0.258839 0.164112
Si Si6 0.550957 0.227793 0.874720
Si Si7 0.085646 0.336535 0.710786
O O1 0.285268 0.389548 0.338491
O O2 0.758480 0.946070 0.589155
O O3 0.693913 0.071828 0.146095
O O4 0.816165 0.057058 0.360185
O O5 0.272886 0.745727 0.140110
O O6 0.400290 0.619751 0.566054
O O7 0.180948 0.912231 0.250291
O O8 0.865061 0.304534 0.128603
O O9 0.500000 0.500000 0.000000
O O10 0.556724 0.746945 0.224972
O O11 0.137765 0.312330 0.464369
O O12 0.773344 0.700703 0.254803
O O13 0.000000 0.500000 0.000000
O O14 0.761129 0.497375 0.165188
O O15 0.202586 0.171850 0.950774
#
# Coordination Sequence:
#
# PCOD8000411 Si02
#       7
#     2   2   2   2   2   2   2
#     4  10  19  39  61  90 127 149 193 248 291 355
#     4   9  19  35  56  88 125 156 191 239 292 352
#     4   9  18  33  55  86 124 160 196 232 285 358
#     4  11  21  43  66  83 114 161 203 245 297 351
#     4   9  19  37  60  88 120 157 193 240 297 347
#     4  10  20  38  64  85 120 165 195 236 298 347
#     4  10  23  41  64  85 120 154 197 254 294 345
#
# _framework density 26.158269000000001
#
# number of rings (size 3 to 8) (size 9 to 14) (size 15 to 20)
#    0.000    2.286    2.857    1.286    2.000    0.000 
#    5.143    6.429    0.000    0.000    0.000    0.000 
#    0.000    0.000    0.000    0.000    0.000    0.000 
#
# Total GULP energy -173474.764631 kJ/mol
# GULP energy per Si atom -12391.054616 kJ/mol
# Density = 2.609873 g / cm^3
# Si number density = 26.158269 Si / 1000 Ang^3
#
#
#
# Elastic Constant Matrix: (Units=GPa)
#
#
# Indices 1 2 3 4 5 6 
#
# 1 141.4900 28.2866 80.4243 2.7316 18.2562 -50.4765
# 2 28.2866 61.2957 16.0874 -2.3305 0.5044 -26.7290
# 3 80.4243 16.0874 188.4831 11.6423 -10.9597 -24.1886
# 4 2.7316 -2.3305 11.6423 35.1680 -9.7044 -1.9685
# 5 18.2562 0.5044 -10.9597 -9.7044 47.1011 2.4455
# 6 -50.4765 -26.7290 -24.1886 -1.9685 2.4455 31.9605
#
#
#
# Elastic Compliance Matrix: (Units=1/GPa)
#
#
# Indices 1 2 3 4 5 6 
#
# 1 0.030002 0.010891 -0.008022 -0.000592 -0.016415 0.051641
# 2 0.010891 0.029998 -0.002477 0.002396 -0.006758 0.041080
# 3 -0.008022 -0.002477 0.008164 -0.001305 0.005236 -0.009043
# 4 -0.000592 0.002396 -0.001305 0.030862 0.006180 0.001509
# 5 -0.016415 -0.006758 0.005236 0.006180 0.031697 -0.029659
# 6 0.051641 0.041080 -0.009043 0.001509 -0.029659 0.142720
#
#
# Mechanical properties :
#
#
# Convention : Reuss Voigt Hill
#
# Bulk Modulus (GPa) = 14.50323 71.20725 42.85524
# Shear Modulus (GPa) = 16.91230 40.61062 28.76146
#
# Velocity S-wave (km/s) = 2.54547 3.94445 3.31949
# Velocity P-wave (km/s) = 3.76771 6.93006 5.57769
#
# Compressibility (1/GPa) = 0.06895015
#
# Stress axis : x y z
#
# Youngs Moduli (GPa) = 33.33088 33.33507 122.48230
#
# Poissons Ratio (x) = -0.36307 0.98256
# Poissons Ratio (y) = -0.36302 0.30337
# Poissons Ratio (z) = 0.26738 0.08257
#
# Static dielectric constant tensor:
#      x y z
#    x 4.644600 -0.509080 -0.118780 
#    y -0.509080 4.638680 0.315240 
#    z -0.118780 0.315240 5.867040 
# 
# 
# High freq. dielectric constant tensor:
#      x y z
#    x 2.026690 -0.040510 0.000810 
#    y -0.040510 2.024170 0.007930 
#    z 0.000810 0.007930 2.082610 
# 
# From -- ./inp_files/319578.got.cif
#   From: 2010.06.25/outbox.cif.g09.slc.cpg/sg2_160_cif.got.tgz:319578.got - 2010.06.27 13:26:56.
