data_PCOD8000940
_publ_section_title
;
Structure prediction by ZEFSAII (Michael W. Deem and Ramdas Pophale) SiO2 
 PCOD8000940
Probable space group: P -1
;
_chemical_formula_sum "Si O2"
_cell_formula_units_Z 16
_cell_length_a 18.826181
_cell_length_b 19.533290
_cell_length_c 8.555581
_cell_angle_alpha 143.965309
_cell_angle_beta 48.586643
_cell_angle_gamma 157.423778
_cell_volume 658.048136
_symmetry_space_group_name_H-M "P -1"
_symmetry_group_IT_number 2
_symmetry_cell_setting 'triclinic'
loop_
_space_group_symop_operation_xyz
x,y,z
-x,-y,-z
loop_
_atom_site_type_symbol
_atom_site_label
_atom_site_fract_x
_atom_site_fract_y
_atom_site_fract_z
Si Si1 0.224986 0.775657 0.368312
Si Si2 0.659715 0.209613 0.474950
Si Si3 0.912889 0.566124 0.276820
Si Si4 0.502004 0.800324 0.820739
Si Si5 0.849014 0.051420 0.632399
Si Si6 0.846830 0.642854 0.970075
Si Si7 0.029891 0.033046 0.834909
Si Si8 0.379582 0.489553 0.675864
O O1 0.186134 0.661829 0.373884
O O2 0.073793 0.722978 0.474485
O O3 0.461463 0.059440 0.555000
O O4 0.183602 0.659577 0.055897
O O5 0.774491 0.436762 0.636333
O O6 0.602584 0.035958 0.134734
O O7 0.720407 0.434205 0.363805
O O8 0.017425 0.731762 0.279955
O O9 0.494284 0.718911 0.843695
O O10 0.634574 0.879120 0.645472
O O11 0.799479 0.872093 0.296332
O O12 0.958689 0.159105 0.838089
O O13 0.918276 0.784342 0.969833
O O14 0.668618 0.520679 0.094947
O O15 0.832128 0.761992 0.555474
O O16 0.000000 0.000000 0.000000
O O17 0.500000 0.500000 0.500000
#
# Coordination Sequence:
#
# PCOD8000940 Si02
#       8
#     2   2   2   2   2   2   2   2
#     4   9  18  37  65  99 139 191 225 283 341 410
#     4  10  20  40  70 105 142 182 240 278 347 426
#     4  10  19  40  66  96 145 184 231 283 348 405
#     4  11  22  41  73 105 141 187 236 284 347 425
#     4  11  22  45  71 104 138 189 236 283 352 426
#     4  11  21  44  73 103 141 188 236 288 349 432
#     4  11  25  47  71 101 139 179 237 306 354 402
#     4  11  21  43  73 101 137 190 240 285 353 422
#
# _framework density 24.314333000000001
#
# number of rings (size 3 to 8) (size 9 to 14) (size 15 to 20)
#    0.000    1.500    3.750    4.500    0.000    0.500 
#    9.000    8.125    0.000    0.000    0.000    0.000 
#    0.000    0.000    0.000    0.000    0.000    0.000 
#
# Total GULP energy -198262.900875 kJ/mol
# GULP energy per Si atom -12391.431305 kJ/mol
# Density = 2.425899 g / cm^3
# Si number density = 24.314333 Si / 1000 Ang^3
#
#
#
# Elastic Constant Matrix: (Units=GPa)
#
#
# Indices 1 2 3 4 5 6 
#
# 1 171.0398 82.1661 60.3997 2.0081 -10.3079 2.7850
# 2 82.1661 139.7244 40.8251 -6.0332 -14.0706 9.8234
# 3 60.3997 40.8251 73.5910 4.3516 -19.5845 -19.0877
# 4 2.0081 -6.0332 4.3516 18.8931 -1.8815 -14.9188
# 5 -10.3079 -14.0706 -19.5845 -1.8815 34.8302 9.8627
# 6 2.7850 9.8234 -19.0877 -14.9188 9.8627 52.8893
#
#
#
# Elastic Compliance Matrix: (Units=1/GPa)
#
#
# Indices 1 2 3 4 5 6 
#
# 1 0.010379 -0.004085 -0.007383 -0.003275 -0.002060 -0.002992
# 2 -0.004085 0.010951 -0.002890 0.002856 0.002456 -0.002514
# 3 -0.007383 -0.002890 0.025826 0.002047 0.008673 0.009206
# 4 -0.003275 0.002856 0.002047 0.069536 -0.000602 0.020107
# 5 -0.002060 0.002456 0.008673 -0.000602 0.035049 -0.003923
# 6 -0.002992 -0.002514 0.009206 0.020107 -0.003923 0.029258
#
#
# Mechanical properties :
#
#
# Convention : Reuss Voigt Hill
#
# Bulk Modulus (GPa) = 54.22706 83.45967 68.84337
# Shear Modulus (GPa) = 23.16305 34.72013 28.94159
#
# Velocity S-wave (km/s) = 3.08985 3.78295 3.45383
# Velocity P-wave (km/s) = 5.92288 7.31305 6.65437
#
# Compressibility (1/GPa) = 0.01844098
#
# Stress axis : x y z
#
# Youngs Moduli (GPa) = 96.34692 91.31736 38.72000
#
# Poissons Ratio (x) = 0.37301 0.28588
# Poissons Ratio (y) = 0.39355 0.11189
# Poissons Ratio (z) = 0.71135 0.26389
#
# Static dielectric constant tensor:
#      x y z
#    x 4.639740 0.062310 0.173900 
#    y 0.062310 3.644630 1.122880 
#    z 0.173900 1.122880 2.708350 
# 
# 
# High freq. dielectric constant tensor:
#      x y z
#    x 1.967480 0.007590 -0.017340 
#    y 0.007590 1.963140 0.002990 
#    z -0.017340 0.002990 1.948750 
# 
# From -- ./inp_files/349586.got.cif
#   From: 2010.06.25/outbox.cif.g09.slc.cpg/sg2_175_cif.got.tgz:349586.got - 2010.06.27 13:26:56.
