data_PCOD8000151
_publ_section_title
;
Structure prediction by ZEFSAII (Michael W. Deem and Ramdas Pophale) SiO2 
 PCOD8000151
Probable space group: P 1
;
_chemical_formula_sum "Si O2"
_cell_formula_units_Z 8
_cell_length_a 12.225056
_cell_length_b 6.262450
_cell_length_c 5.327264
_cell_angle_alpha 87.075531
_cell_angle_beta 105.799569
_cell_angle_gamma 132.438299
_cell_volume 284.520308
_symmetry_space_group_name_H-M "P 1"
_symmetry_group_IT_number 1
_symmetry_cell_setting 'triclinic'
loop_
_space_group_symop_operation_xyz
x,y,z
loop_
_atom_site_type_symbol
_atom_site_label
_atom_site_fract_x
_atom_site_fract_y
_atom_site_fract_z
Si Si1 0.546710 0.309380 0.184740
Si Si2 0.619538 0.280149 0.735561
Si Si3 0.132685 0.473604 0.733140
Si Si4 0.833102 0.961478 0.360629
Si Si5 0.118509 0.891691 0.489798
Si Si6 0.965058 0.595725 0.902914
Si Si7 0.706095 0.888502 0.786822
Si Si8 0.387320 0.492576 0.829562
O O1 0.506921 0.130519 0.427750
O O2 0.730841 0.613054 0.308024
O O3 0.524397 0.118502 0.946421
O O4 0.442519 0.389632 0.078357
O O5 0.771809 0.317702 0.807477
O O6 0.680813 0.601331 0.786413
O O7 0.048107 0.469568 0.926683
O O8 0.175984 0.719709 0.552675
O O9 0.289669 0.551306 0.906394
O O10 0.016191 0.158020 0.528822
O O11 0.771713 0.038340 0.544307
O O12 0.822533 0.080781 0.086277
O O13 0.009172 0.796952 0.674957
O O14 0.274153 0.237248 0.567808
O O15 0.022853 0.797240 0.175078
O O16 0.536718 0.782668 0.749396
#
# Coordination Sequence:
#
# PCOD8000151 Si02
#       8
#     1   1   1   1   1   1   1   1
#     4   9  20  37  64  96 119 173 224 255 330 391
#     4   9  17  36  62  85 129 158 216 268 308 383
#     4  10  25  42  67 104 133 173 221 280 334 392
#     4   9  19  37  61  90 128 160 219 271 308 383
#     4  10  25  42  61 101 134 175 217 266 341 392
#     4  10  23  41  60 100 136 164 221 278 325 388
#     4   9  21  37  64  96 121 174 223 256 329 394
#     4  10  22  46  69  98 136 181 215 276 335 407
#
# _framework density 28.117502000000002
#
# number of rings (size 3 to 8) (size 9 to 14) (size 15 to 20)
#    0.750    2.000    0.000    0.750    8.750    4.000 
#   11.250    5.000    0.000    0.000    0.000    0.000 
#    0.000    0.000    0.000    0.000    0.000    0.000 
#
# Total GULP energy -99107.874572 kJ/mol
# GULP energy per Si atom -12388.484321 kJ/mol
# Density = 2.805351 g / cm^3
# Si number density = 28.117502 Si / 1000 Ang^3
#
#
#
# Elastic Constant Matrix: (Units=GPa)
#
#
# Indices 1 2 3 4 5 6 
#
# 1 149.4193 -1.9461 58.5285 -19.0902 18.1968 28.4829
# 2 -1.9461 73.7956 22.3788 20.0175 -2.8677 28.9810
# 3 58.5285 22.3788 217.5240 -20.7169 -30.7064 34.2778
# 4 -19.0902 20.0175 -20.7169 39.2832 10.3025 5.0396
# 5 18.1968 -2.8677 -30.7064 10.3025 48.6652 2.1901
# 6 28.4829 28.9810 34.2778 5.0396 2.1901 37.7753
#
#
#
# Elastic Compliance Matrix: (Units=1/GPa)
#
#
# Indices 1 2 3 4 5 6 
#
# 1 0.010534 0.002511 -0.002099 0.005342 -0.005871 -0.008337
# 2 0.002511 0.023786 -0.000753 -0.009697 0.002865 -0.018331
# 3 -0.002099 -0.000753 0.006873 0.002330 0.004794 -0.004665
# 4 0.005342 -0.009697 0.002330 0.036924 -0.008775 -0.003119
# 5 -0.005871 0.002865 0.004794 -0.008775 0.027911 -0.002569
# 6 -0.008337 -0.018331 -0.004665 -0.003119 -0.002569 0.051620
#
#
# Mechanical properties :
#
#
# Convention : Reuss Voigt Hill
#
# Bulk Modulus (GPa) = 24.68405 66.51791 45.60098
# Shear Modulus (GPa) = 29.09767 49.26328 39.18048
#
# Velocity S-wave (km/s) = 3.22041 4.19029 3.73695
# Velocity P-wave (km/s) = 4.75668 6.86439 5.90533
#
# Compressibility (1/GPa) = 0.04051198
#
# Stress axis : x y z
#
# Youngs Moduli (GPa) = 94.92863 42.04067 145.49251
#
# Poissons Ratio (x) = -0.10558 0.30539
# Poissons Ratio (y) = -0.23840 0.10960
# Poissons Ratio (z) = 0.19926 0.03167
#
# Static dielectric constant tensor:
#      x y z
#    x 5.410560 0.036390 -0.619790 
#    y 0.036390 5.092210 -0.109140 
#    z -0.619790 -0.109140 5.947360 
# 
# 
# High freq. dielectric constant tensor:
#      x y z
#    x 2.142940 -0.014540 -0.008540 
#    y -0.014540 2.136100 0.004020 
#    z -0.008540 0.004020 2.133950 
# 
# From -- ./inp_files/2136.got.cif
#   From: 2010.03.12/outbox.cif.g09.slc.cpg/sg1_2_cif.got.tgz:2136.got - 2010.03.29 11:57:58.
