data_PCOD8000538
_publ_section_title
;
Structure prediction by ZEFSAII (Michael W. Deem and Ramdas Pophale) SiO2 
 PCOD8000538
Probable space group: P -1
;
_chemical_formula_sum "Si O2"
_cell_formula_units_Z 16
_cell_length_a 22.862191
_cell_length_b 19.456166
_cell_length_c 9.687078
_cell_angle_alpha 145.260533
_cell_angle_beta 152.971514
_cell_angle_gamma 25.172788
_cell_volume 830.177020
_symmetry_space_group_name_H-M "P -1"
_symmetry_group_IT_number 2
_symmetry_cell_setting 'triclinic'
loop_
_space_group_symop_operation_xyz
x,y,z
-x,-y,-z
loop_
_atom_site_type_symbol
_atom_site_label
_atom_site_fract_x
_atom_site_fract_y
_atom_site_fract_z
Si Si1 0.894170 0.351307 0.351829
Si Si2 0.109822 0.181789 0.774304
Si Si3 0.946706 0.041159 0.612776
Si Si4 0.123770 0.008908 0.181697
Si Si5 0.586763 0.045263 0.158955
Si Si6 0.935742 0.583002 0.717159
Si Si7 0.742930 0.634265 0.137070
Si Si8 0.694914 0.404236 0.780512
O O1 0.881021 0.502570 0.559517
O O2 0.928519 0.300973 0.502551
O O3 0.051797 0.191703 0.333491
O O4 0.725834 0.394267 0.996403
O O5 0.139488 0.030006 0.642749
O O6 0.273573 0.109586 0.901247
O O7 0.100238 0.276883 0.038402
O O8 0.805207 0.231646 0.654666
O O9 0.000000 0.000000 0.500000
O O10 0.117290 0.962560 0.935406
O O11 0.319765 0.902664 0.474046
O O12 0.000000 0.000000 0.000000
O O13 0.444772 0.198491 0.018396
O O14 0.500000 0.000000 0.000000
O O15 0.824593 0.667484 0.482968
O O16 0.137907 0.440193 0.871379
O O17 0.745510 0.497692 0.972669
O O18 0.500000 0.500000 0.500000
#
# Coordination Sequence:
#
# PCOD8000538 Si02
#       8
#     2   2   2   2   2   2   2   2
#     4   9  19  34  58  84 107 155 204 231 292 369
#     4  11  21  37  62  85 121 162 201 253 304 361
#     4  11  22  37  60  92 117 156 210 248 297 361
#     4  10  19  39  64  85 120 167 202 243 301 367
#     4  11  23  38  63  95 119 156 210 255 299 363
#     4  10  21  38  58  85 120 161 195 243 310 371
#     4  10  21  38  58  84 120 155 199 250 303 359
#     4  10  21  35  57  82 115 154 198 246 301 357
#
# _framework density 19.272998999999999
#
# number of rings (size 3 to 8) (size 9 to 14) (size 15 to 20)
#    0.000    1.750    2.500    3.375    1.750    3.500 
#    0.000    3.750    0.000    3.000    0.000    0.000 
#    0.000    0.000    0.000    0.000    0.000    0.000 
#
# Total GULP energy -198278.895446 kJ/mol
# GULP energy per Si atom -12392.430965 kJ/mol
# Density = 1.922913 g / cm^3
# Si number density = 19.272999 Si / 1000 Ang^3
#
#
#
# Elastic Constant Matrix: (Units=GPa)
#
#
# Indices 1 2 3 4 5 6 
#
# 1 96.6498 31.6854 61.4259 0.3103 -16.0415 -2.7669
# 2 31.6854 97.3754 63.0271 -2.0182 -16.0536 5.8702
# 3 61.4259 63.0271 146.6726 -5.1980 -19.4712 -10.5591
# 4 0.3103 -2.0182 -5.1980 42.4299 -2.7484 -1.7047
# 5 -16.0415 -16.0536 -19.4712 -2.7484 33.9054 5.2943
# 6 -2.7669 5.8702 -10.5591 -1.7047 5.2943 26.9190
#
#
#
# Elastic Compliance Matrix: (Units=1/GPa)
#
#
# Indices 1 2 3 4 5 6 
#
# 1 0.014595 -0.000503 -0.005529 -0.000625 0.003647 -0.001316
# 2 -0.000503 0.015796 -0.006465 -0.000017 0.004611 -0.006940
# 3 -0.005529 -0.006465 0.012471 0.001536 0.000721 0.005689
# 4 -0.000625 -0.000017 0.001536 0.023972 0.002270 0.001614
# 5 0.003647 0.004611 0.000721 0.002270 0.035110 -0.007109
# 6 -0.001316 -0.006940 0.005689 0.001614 -0.007109 0.042259
#
#
# Mechanical properties :
#
#
# Convention : Reuss Voigt Hill
#
# Bulk Modulus (GPa) = 55.96561 72.55272 64.25917
# Shear Modulus (GPa) = 28.54627 32.95483 30.75055
#
# Velocity S-wave (km/s) = 3.85275 4.13958 3.99874
# Velocity P-wave (km/s) = 6.99235 7.78297 7.39823
#
# Compressibility (1/GPa) = 0.01786811
#
# Stress axis : x y z
#
# Youngs Moduli (GPa) = 68.51629 63.30683 80.18342
#
# Poissons Ratio (x) = 0.03183 0.44333
# Poissons Ratio (y) = 0.03445 0.51842
# Poissons Ratio (z) = 0.37883 0.40930
#
# Static dielectric constant tensor:
#      x y z
#    x 3.419910 0.233180 -0.137350 
#    y 0.233180 3.583420 -0.212790 
#    z -0.137350 -0.212790 4.081190 
# 
# 
# High freq. dielectric constant tensor:
#      x y z
#    x 1.729880 0.027360 -0.010710 
#    y 0.027360 1.745970 0.004490 
#    z -0.010710 0.004490 1.765810 
# 
# From -- ./inp_files/347373.got.cif
#   From: 2010.06.25/outbox.cif.g09.slc.cpg/sg2_174_cif.got.tgz:347373.got - 2010.06.27 13:26:56.
