data_PCOD8000601
_publ_section_title
;
Structure prediction by ZEFSAII (Michael W. Deem and Ramdas Pophale) SiO2 
 PCOD8000601
Probable space group: P -1
;
_chemical_formula_sum "Si O2"
_cell_formula_units_Z 14
_cell_length_a 23.932059
_cell_length_b 8.337677
_cell_length_c 12.791062
_cell_angle_alpha 117.269113
_cell_angle_beta 21.846004
_cell_angle_gamma 128.585834
_cell_volume 675.425284
_symmetry_space_group_name_H-M "P -1"
_symmetry_group_IT_number 2
_symmetry_cell_setting 'triclinic'
loop_
_space_group_symop_operation_xyz
x,y,z
-x,-y,-z
loop_
_atom_site_type_symbol
_atom_site_label
_atom_site_fract_x
_atom_site_fract_y
_atom_site_fract_z
Si Si1 0.207753 0.112073 0.706018
Si Si2 0.436692 0.995974 0.782098
Si Si3 0.122378 0.961991 0.203923
Si Si4 0.426598 0.519815 0.300769
Si Si5 0.624340 0.761697 0.333767
Si Si6 0.756469 0.599084 0.627920
Si Si7 0.592066 0.090183 0.757274
O O1 0.358660 0.364507 0.474540
O O2 0.217277 0.116030 0.815806
O O3 0.250851 0.946302 0.539097
O O4 0.000000 0.000000 0.000000
O O5 0.575149 0.268252 0.604072
O O6 0.434009 0.961558 0.901962
O O7 0.509779 0.868108 0.559982
O O8 0.228505 0.888521 0.068087
O O9 0.977994 0.763841 0.315186
O O10 0.000000 0.000000 0.500000
O O11 0.275025 0.186181 0.938246
O O12 0.289884 0.358435 0.394830
O O13 0.640665 0.624874 0.926150
O O14 0.500000 0.500000 0.500000
O O15 0.697598 0.352190 0.652166
O O16 0.500000 0.000000 0.000000
#
# Coordination Sequence:
#
# PCOD8000601 Si02
#       7
#     2   2   2   2   2   2   2
#     4  11  23  38  63  93 126 160 212 263 309 371
#     4  10  23  41  64  90 126 170 205 256 320 381
#     4  12  24  41  66  96 122 164 225 259 300 380
#     4  10  19  39  65  90 123 165 204 255 320 364
#     4  11  26  44  63  89 133 172 201 260 332 372
#     4  10  21  36  65  93 123 161 210 261 303 367
#     4  10  21  39  63  91 127 167 206 254 322 369
#
# _framework density 20.727681
#
# number of rings (size 3 to 8) (size 9 to 14) (size 15 to 20)
#    0.000    1.429    2.857    2.143    0.000    3.429 
#    0.000    5.714    0.000    0.000    0.000    0.000 
#    0.000    0.000    0.000    0.000    0.000    0.000 
#
# Total GULP energy -173578.020072 kJ/mol
# GULP energy per Si atom -12398.430005 kJ/mol
# Density = 2.068050 g / cm^3
# Si number density = 20.727681 Si / 1000 Ang^3
#
#
#
# Elastic Constant Matrix: (Units=GPa)
#
#
# Indices 1 2 3 4 5 6 
#
# 1 118.2928 20.4335 73.3105 7.7104 -14.2845 -7.8600
# 2 20.4335 101.3600 47.5663 18.0345 -2.7130 -11.6234
# 3 73.3105 47.5663 112.6948 7.3448 -7.4278 -2.2921
# 4 7.7104 18.0345 7.3448 31.6458 3.9784 -5.0463
# 5 -14.2845 -2.7130 -7.4278 3.9784 50.7236 -3.8623
# 6 -7.8600 -11.6234 -2.2921 -5.0463 -3.8623 30.4912
#
#
#
# Elastic Compliance Matrix: (Units=1/GPa)
#
#
# Indices 1 2 3 4 5 6 
#
# 1 0.015598 0.003077 -0.010946 -0.002759 0.003503 0.004358
# 2 0.003077 0.014562 -0.007517 -0.006711 0.001440 0.004851
# 3 -0.010946 -0.007517 0.018871 0.002071 -0.001194 -0.004077
# 4 -0.002759 -0.006711 0.002071 0.036451 -0.003503 0.002475
# 5 0.003503 0.001440 -0.001194 -0.003503 0.021141 0.003460
# 6 0.004358 0.004851 -0.004077 0.002475 0.003460 0.036310
#
#
# Mechanical properties :
#
#
# Convention : Reuss Voigt Hill
#
# Bulk Modulus (GPa) = 54.77093 68.32980 61.55036
# Shear Modulus (GPa) = 27.80980 35.30795 31.55888
#
# Velocity S-wave (km/s) = 3.66686 4.13173 3.90622
# Velocity P-wave (km/s) = 6.66403 7.46985 7.07841
#
# Compressibility (1/GPa) = 0.01825786
#
# Stress axis : x y z
#
# Youngs Moduli (GPa) = 64.10918 68.67179 52.99270
#
# Poissons Ratio (x) = -0.21129 0.58008
# Poissons Ratio (y) = -0.19725 0.39834
# Poissons Ratio (z) = 0.70177 0.51620
#
# Static dielectric constant tensor:
#      x y z
#    x 4.677370 0.284950 0.187840 
#    y 0.284950 3.939320 0.223130 
#    z 0.187840 0.223130 3.728820 
# 
# 
# High freq. dielectric constant tensor:
#      x y z
#    x 1.838270 0.004620 -0.000340 
#    y 0.004620 1.812070 0.010920 
#    z -0.000340 0.010920 1.791310 
# 
# From -- ./inp_files/153957.got.cif
#   From: 2010.06.25/outbox.cif.g09.slc.cpg/sg2_77_cif.got.tgz:153957.got - 2010.06.27 13:26:56.
