data_PCOD8000628
_publ_section_title
;
Structure prediction by ZEFSAII (Michael W. Deem and Ramdas Pophale) SiO2 
 PCOD8000628
Probable space group: P -1
;
_chemical_formula_sum "Si O2"
_cell_formula_units_Z 16
_cell_length_a 9.083180
_cell_length_b 21.781651
_cell_length_c 15.250879
_cell_angle_alpha 19.583617
_cell_angle_beta 122.974349
_cell_angle_gamma 125.739740
_cell_volume 820.693739
_symmetry_space_group_name_H-M "P -1"
_symmetry_group_IT_number 2
_symmetry_cell_setting 'triclinic'
loop_
_space_group_symop_operation_xyz
x,y,z
-x,-y,-z
loop_
_atom_site_type_symbol
_atom_site_label
_atom_site_fract_x
_atom_site_fract_y
_atom_site_fract_z
Si Si1 0.454131 0.869163 0.078968
Si Si2 0.828764 0.992459 0.308817
Si Si3 0.190165 0.603380 0.464958
Si Si4 0.705892 0.991235 0.462500
Si Si5 0.063376 0.722741 0.719315
Si Si6 0.294634 0.951694 0.347170
Si Si7 0.190288 0.951676 0.120265
Si Si8 0.804819 0.758937 0.955626
O O1 0.334563 0.665184 0.348205
O O2 0.352804 0.977050 0.833316
O O3 0.500000 0.000000 0.000000
O O4 0.647685 0.864660 0.103865
O O5 0.802503 0.952363 0.457460
O O6 0.985237 0.183512 0.083568
O O7 0.890452 0.813061 0.529258
O O8 0.171503 0.784259 0.269747
O O9 0.000000 0.500000 0.500000
O O10 0.257236 0.462971 0.742563
O O11 0.826966 0.186377 0.280556
O O12 0.508582 0.014218 0.347189
O O13 0.689330 0.816893 0.760346
O O14 0.200219 0.769864 0.618714
O O15 0.000000 0.500000 0.000000
O O16 0.244106 0.888420 0.317163
O O17 0.217704 0.128597 0.114113
O O18 0.000000 0.000000 0.000000
#
# Coordination Sequence:
#
# PCOD8000628 Si02
#       8
#     2   2   2   2   2   2   2   2
#     4  10  22  40  62  88 119 161 205 244 313 360
#     4  10  19  39  66  85 122 163 199 248 297 370
#     4  11  22  41  65  89 121 159 208 251 302 369
#     4  10  20  40  63  89 121 164 201 244 302 363
#     4  10  22  38  60  91 126 157 196 245 307 364
#     4  10  21  41  60  87 124 159 198 251 306 361
#     4  11  24  41  63  87 119 162 207 257 308 358
#     4  10  20  37  64  88 122 160 199 242 306 363
#
# _framework density 19.495702999999999
#
# number of rings (size 3 to 8) (size 9 to 14) (size 15 to 20)
#    0.000    2.000    2.500    3.750    5.250    2.000 
#    9.000    5.000    0.000    0.000    0.000    0.000 
#    0.000    0.000    0.000    0.000    0.000    0.000 
#
# Total GULP energy -198301.037188 kJ/mol
# GULP energy per Si atom -12393.814824 kJ/mol
# Density = 1.945133 g / cm^3
# Si number density = 19.495703 Si / 1000 Ang^3
#
#
#
# Elastic Constant Matrix: (Units=GPa)
#
#
# Indices 1 2 3 4 5 6 
#
# 1 134.6038 43.2457 45.7011 -2.4224 -8.8140 13.1948
# 2 43.2457 99.5781 38.2343 15.0496 -5.0373 4.8599
# 3 45.7011 38.2343 121.4782 -8.1295 -12.2392 10.4850
# 4 -2.4224 15.0496 -8.1295 27.4092 4.7968 -1.1518
# 5 -8.8140 -5.0373 -12.2392 4.7968 24.6083 5.7250
# 6 13.1948 4.8599 10.4850 -1.1518 5.7250 34.9821
#
#
#
# Elastic Compliance Matrix: (Units=1/GPa)
#
#
# Indices 1 2 3 4 5 6 
#
# 1 0.009654 -0.003438 -0.001979 0.001664 0.002111 -0.002861
# 2 -0.003438 0.014541 -0.003729 -0.009726 0.001839 -0.000227
# 3 -0.001979 -0.003729 0.011038 0.004385 0.003748 -0.002513
# 4 0.001664 -0.009726 0.004385 0.044853 -0.008486 0.002275
# 5 0.002111 0.001839 0.003748 -0.008486 0.047673 -0.010256
# 6 -0.002861 -0.000227 -0.002513 0.002275 -0.010256 0.032203
#
#
# Mechanical properties :
#
#
# Convention : Reuss Voigt Hill
#
# Bulk Modulus (GPa) = 59.02753 67.78028 63.40390
# Shear Modulus (GPa) = 27.18825 32.63184 29.91004
#
# Velocity S-wave (km/s) = 3.73845 4.09564 3.92112
# Velocity P-wave (km/s) = 6.99840 7.56360 7.28648
#
# Compressibility (1/GPa) = 0.01694125
#
# Stress axis : x y z
#
# Youngs Moduli (GPa) = 103.58003 68.76930 90.59518
#
# Poissons Ratio (x) = 0.23643 0.17928
# Poissons Ratio (y) = 0.35611 0.33786
# Poissons Ratio (z) = 0.20497 0.25647
#
# Static dielectric constant tensor:
#      x y z
#    x 4.286850 0.059270 -0.422960 
#    y 0.059270 3.554030 0.113320 
#    z -0.422960 0.113320 3.520870 
# 
# 
# High freq. dielectric constant tensor:
#      x y z
#    x 1.780030 0.002670 -0.012470 
#    y 0.002670 1.757970 0.019380 
#    z -0.012470 0.019380 1.734910 
# 
# From -- ./inp_files/218540.got.cif
#   From: 2010.06.25/outbox.cif.g09.slc.cpg/sg2_110_cif.got.tgz:218540.got - 2010.06.27 13:26:56.
