data_PCOD8000176
_publ_section_title
;
Structure prediction by ZEFSAII (Michael W. Deem and Ramdas Pophale) SiO2 
 PCOD8000176
Probable space group: P 1
;
_chemical_formula_sum "Si O2"
_cell_formula_units_Z 8
_cell_length_a 13.648542
_cell_length_b 8.780433
_cell_length_c 10.430776
_cell_angle_alpha 139.096556
_cell_angle_beta 28.915385
_cell_angle_gamma 150.256443
_cell_volume 299.812787
_symmetry_space_group_name_H-M "P 1"
_symmetry_group_IT_number 1
_symmetry_cell_setting 'triclinic'
loop_
_space_group_symop_operation_xyz
x,y,z
loop_
_atom_site_type_symbol
_atom_site_label
_atom_site_fract_x
_atom_site_fract_y
_atom_site_fract_z
Si Si1 0.021510 0.698580 0.518350
Si Si2 0.722756 0.643977 0.287102
Si Si3 0.211564 0.216225 0.243010
Si Si4 0.496008 0.841549 0.216656
Si Si5 0.817431 0.202211 0.836422
Si Si6 0.173547 0.269028 0.793262
Si Si7 0.766729 0.077906 0.325005
Si Si8 0.328395 0.860946 0.015777
O O1 0.235282 0.792091 0.442820
O O2 0.139793 0.805257 0.309700
O O3 0.782871 0.327307 0.551612
O O4 0.948250 0.915912 0.772701
O O5 0.469246 0.383862 0.502912
O O6 0.959780 0.921142 0.274022
O O7 0.636024 0.771679 0.361766
O O8 0.824266 0.487154 0.001674
O O9 0.103696 0.306919 0.537557
O O10 0.405468 0.503609 0.110010
O O11 0.388310 0.134310 0.038723
O O12 0.597431 0.002427 0.342447
O O13 0.736667 0.051546 0.973620
O O14 0.601466 0.956460 0.820493
O O15 0.185632 0.544121 0.896291
O O16 0.075827 0.239104 0.033789
#
# Coordination Sequence:
#
# PCOD8000176 Si02
#       8
#     1   1   1   1   1   1   1   1
#     4  10  23  47  72 102 151 187 243 305 360 434
#     4  12  25  44  75 109 150 194 247 299 370 445
#     4  12  27  47  76 109 149 195 250 300 371 444
#     4  11  25  48  73 112 145 191 253 295 373 442
#     4  11  26  47  74 108 148 197 240 310 365 433
#     4  11  24  46  76 101 151 194 240 308 364 429
#     4  11  27  46  71 112 148 196 245 303 371 439
#     4  10  23  45  73 105 142 192 248 296 366 434
#
# _framework density 26.683319000000001
#
# number of rings (size 3 to 8) (size 9 to 14) (size 15 to 20)
#    0.000    1.000    5.000    0.750    7.000    0.000 
#    2.250    1.250    0.000    0.000    0.000    0.000 
#    0.000    0.000    0.000    0.000    0.000    0.000 
#
# Total GULP energy -99131.340921 kJ/mol
# GULP energy per Si atom -12391.417615 kJ/mol
# Density = 2.662259 g / cm^3
# Si number density = 26.683319 Si / 1000 Ang^3
#
#
#
# Elastic Constant Matrix: (Units=GPa)
#
#
# Indices 1 2 3 4 5 6 
#
# 1 126.7179 46.7769 15.9225 12.8759 -2.7568 -6.4206
# 2 46.7769 189.2442 47.2012 44.0911 2.6416 -7.2674
# 3 15.9225 47.2012 75.5652 24.5804 8.3540 2.2406
# 4 12.8759 44.0911 24.5804 60.0145 -4.0384 -1.7828
# 5 -2.7568 2.6416 8.3540 -4.0384 23.0440 4.9534
# 6 -6.4206 -7.2674 2.2406 -1.7828 4.9534 43.4304
#
#
#
# Elastic Compliance Matrix: (Units=1/GPa)
#
#
# Indices 1 2 3 4 5 6 
#
# 1 0.008789 -0.001958 -0.000808 0.000002 0.001385 0.000856
# 2 -0.001958 0.007454 -0.002902 -0.003900 -0.000947 0.001056
# 3 -0.000808 -0.002902 0.017799 -0.005482 -0.006973 -0.000953
# 4 0.000002 -0.003900 -0.005482 0.022196 0.006364 -0.000184
# 5 0.001385 -0.000947 -0.006973 0.006364 0.048355 -0.004848
# 6 0.000856 0.001056 -0.000953 -0.000184 -0.004848 0.023923
#
#
# Mechanical properties :
#
#
# Convention : Reuss Voigt Hill
#
# Bulk Modulus (GPa) = 44.03990 67.92538 55.98264
# Shear Modulus (GPa) = 33.91668 44.07290 38.99479
#
# Velocity S-wave (km/s) = 3.56909 4.06852 3.82696
# Velocity P-wave (km/s) = 5.79008 6.89796 6.36816
#
# Compressibility (1/GPa) = 0.02270668
#
# Stress axis : x y z
#
# Youngs Moduli (GPa) = 113.77728 134.15011 56.18360
#
# Poissons Ratio (x) = 0.26266 0.04541
# Poissons Ratio (y) = 0.22277 0.16302
# Poissons Ratio (z) = 0.09197 0.38924
#
# Static dielectric constant tensor:
#      x y z
#    x 4.630470 -0.199870 0.081090 
#    y -0.199870 5.349330 0.242520 
#    z 0.081090 0.242520 4.786950 
# 
# 
# High freq. dielectric constant tensor:
#      x y z
#    x 2.049140 -0.003990 0.002820 
#    y -0.003990 2.099990 0.013500 
#    z 0.002820 0.013500 2.066310 
# 
# From -- ./inp_files/6836.got.cif
#   From: 2010.03.12/outbox.cif.g09.slc.cpg/sg1_4_cif.got.tgz:6836.got - 2010.03.29 11:57:58.
