data_PCOD8000328
_publ_section_title
;
Structure prediction by ZEFSAII (Michael W. Deem and Ramdas Pophale) SiO2 
 PCOD8000328
Probable space group: P -1
;
_chemical_formula_sum "Si O2"
_cell_formula_units_Z 16
_cell_length_a 12.445319
_cell_length_b 20.074469
_cell_length_c 8.949739
_cell_angle_alpha 63.971565
_cell_angle_beta 103.662753
_cell_angle_gamma 155.241095
_cell_volume 759.191669
_symmetry_space_group_name_H-M "P -1"
_symmetry_group_IT_number 2
_symmetry_cell_setting 'triclinic'
loop_
_space_group_symop_operation_xyz
x,y,z
-x,-y,-z
loop_
_atom_site_type_symbol
_atom_site_label
_atom_site_fract_x
_atom_site_fract_y
_atom_site_fract_z
Si Si1 0.732793 0.066002 0.377581
Si Si2 0.581443 0.768936 0.983867
Si Si3 0.812508 0.858883 0.269968
Si Si4 0.225052 0.860604 0.359646
Si Si5 0.606171 0.198839 0.966357
Si Si6 0.444739 0.168437 0.650130
Si Si7 0.701019 0.476655 0.393013
Si Si8 0.121431 0.411599 0.981272
O O1 0.830155 0.124769 0.524101
O O2 0.433859 0.922957 0.407027
O O3 0.680913 0.949992 0.419779
O O4 0.974249 0.252640 0.172532
O O5 0.400711 0.726210 0.027997
O O6 0.391896 0.605344 0.970567
O O7 0.678535 0.773869 0.143318
O O8 0.866175 0.973197 0.789847
O O9 0.809703 0.943673 0.239883
O O10 0.607499 0.685260 0.486213
O O11 0.932628 0.644240 0.424099
O O12 0.348726 0.988342 0.144014
O O13 0.574405 0.187811 0.788196
O O14 0.905966 0.346789 0.955375
O O15 0.688638 0.378554 0.476090
O O16 0.770653 0.552068 0.179012
#
# Coordination Sequence:
#
# PCOD8000328 Si02
#       8
#     2   2   2   2   2   2   2   2
#     4  10  21  36  54  83 120 152 186 235 282 339
#     4  10  19  39  58  83 114 152 190 239 278 336
#     4   8  20  38  60  79 112 154 193 232 280 330
#     4  10  21  36  55  82 120 153 186 232 287 338
#     4  10  21  35  57  86 117 150 185 234 289 337
#     4   9  20  38  57  83 115 150 191 228 281 338
#     4  10  21  37  57  85 116 151 189 230 282 340
#     4  11  22  33  57  88 119 147 187 233 287 341
#
# _framework density 21.075044999999999
#
# number of rings (size 3 to 8) (size 9 to 14) (size 15 to 20)
#    0.750    1.500    0.000    2.625    1.750    4.500 
#    0.000    1.250    0.000    0.000    0.000    0.000 
#    0.000    0.000    0.000    0.000    0.000    0.000 
#
# Total GULP energy -198352.334922 kJ/mol
# GULP energy per Si atom -12397.020933 kJ/mol
# Density = 2.102708 g / cm^3
# Si number density = 21.075045 Si / 1000 Ang^3
#
#
#
# Elastic Constant Matrix: (Units=GPa)
#
#
# Indices 1 2 3 4 5 6 
#
# 1 19.7542 25.6120 5.4851 5.2368 -7.7365 -3.1861
# 2 25.6120 153.8012 45.9010 -1.2023 -19.5714 -22.0697
# 3 5.4851 45.9010 107.3325 -3.1358 -23.1408 -2.5202
# 4 5.2368 -1.2023 -3.1358 26.9051 -1.8494 -9.4016
# 5 -7.7365 -19.5714 -23.1408 -1.8494 27.5714 -2.5352
# 6 -3.1861 -22.0697 -2.5202 -9.4016 -2.5352 23.0094
#
#
#
# Elastic Compliance Matrix: (Units=1/GPa)
#
#
# Indices 1 2 3 4 5 6 
#
# 1 0.074884 -0.013078 0.004018 -0.016171 0.013385 -0.006867
# 2 -0.013078 0.012010 -0.003097 0.007487 0.003941 0.012862
# 3 0.004018 -0.003097 0.012567 0.001416 0.009627 0.000601
# 4 -0.016171 0.007487 0.001416 0.050668 0.007815 0.026661
# 5 0.013385 0.003941 0.009627 0.007815 0.052871 0.015706
# 6 -0.006867 0.012862 0.000601 0.026661 0.015706 0.067537
#
#
# Mechanical properties :
#
#
# Convention : Reuss Voigt Hill
#
# Bulk Modulus (GPa) = 13.30735 48.32044 30.81390
# Shear Modulus (GPa) = 15.62991 29.08984 22.35988
#
# Velocity S-wave (km/s) = 2.72625 3.71927 3.26078
# Velocity P-wave (km/s) = 4.02962 6.43595 5.36933
#
# Compressibility (1/GPa) = 0.07514641
#
# Stress axis : x y z
#
# Youngs Moduli (GPa) = 13.35404 83.26560 79.57299
#
# Poissons Ratio (x) = 1.08893 -0.31973
# Poissons Ratio (y) = 0.17464 0.24646
# Poissons Ratio (z) = -0.05366 0.25790
#
# Static dielectric constant tensor:
#      x y z
#    x 3.451000 -0.064870 -0.189160 
#    y -0.064870 3.662470 0.068640 
#    z -0.189160 0.068640 3.949840 
# 
# 
# High freq. dielectric constant tensor:
#      x y z
#    x 1.790850 -0.008560 -0.014230 
#    y -0.008560 1.825080 0.003840 
#    z -0.014230 0.003840 1.835970 
# 
# From -- ./inp_files/224206.got.cif
#   From: 2010.06.25/outbox.cif.g09.slc.cpg/sg2_113_cif.got.tgz:224206.got - 2010.06.27 13:26:56.
