data_PCOD8000337
_publ_section_title
;
Structure prediction by ZEFSAII (Michael W. Deem and Ramdas Pophale) SiO2 
 PCOD8000337
Probable space group: P -1
;
_chemical_formula_sum "Si O2"
_cell_formula_units_Z 16
_cell_length_a 21.254711
_cell_length_b 11.810510
_cell_length_c 17.446326
_cell_angle_alpha 139.744871
_cell_angle_beta 17.641147
_cell_angle_gamma 139.667297
_cell_volume 843.829944
_symmetry_space_group_name_H-M "P -1"
_symmetry_group_IT_number 2
_symmetry_cell_setting 'triclinic'
loop_
_space_group_symop_operation_xyz
x,y,z
-x,-y,-z
loop_
_atom_site_type_symbol
_atom_site_label
_atom_site_fract_x
_atom_site_fract_y
_atom_site_fract_z
Si Si1 0.599747 0.702147 0.478854
Si Si2 0.613682 0.056482 0.252298
Si Si3 0.814256 0.161600 0.710185
Si Si4 0.759439 0.856240 0.846967
Si Si5 0.969660 0.147876 0.005210
Si Si6 0.830111 0.178127 0.347649
Si Si7 0.064202 0.469450 0.496397
Si Si8 0.488359 0.944958 0.864632
O O1 0.500000 0.500000 0.500000
O O2 0.475484 0.777131 0.592916
O O3 0.579448 0.806693 0.634634
O O4 0.847680 0.715910 0.179285
O O5 0.747271 0.122774 0.206572
O O6 0.415714 0.901952 0.421693
O O7 0.771160 0.981507 0.972658
O O8 0.032654 0.085101 0.416824
O O9 0.859250 0.361192 0.724084
O O10 0.661154 0.024336 0.765261
O O11 0.718114 0.162720 0.907484
O O12 0.749747 0.650914 0.779081
O O13 0.562466 0.889326 0.041391
O O14 0.935718 0.231251 0.170485
O O15 0.045474 0.958911 0.825776
O O16 0.847665 0.346817 0.469428
O O17 0.000000 0.500000 0.500000
#
# Coordination Sequence:
#
# PCOD8000337 Si02
#       8
#     2   2   2   2   2   2   2   2
#     4  10  23  36  61  86 114 146 195 241 282 338
#     4  10  20  38  61  82 111 156 193 228 291 344
#     4   9  21  36  58  82 112 152 187 235 284 340
#     4   9  20  34  58  81 114 147 185 233 285 333
#     4  10  21  40  60  80 119 155 189 233 292 332
#     4  10  22  38  58  85 117 154 189 237 278 345
#     4  10  22  36  57  87 120 145 191 236 285 340
#     4  10  19  39  59  80 114 151 193 227 289 345
#
# _framework density 18.961165999999999
#
# number of rings (size 3 to 8) (size 9 to 14) (size 15 to 20)
#    0.750    1.500    0.000    2.250    7.000    1.000 
#    2.250    2.500    0.000    0.000    0.000    0.000 
#    0.000    0.000    0.000    0.000    0.000    0.000 
#
# Total GULP energy -198323.874772 kJ/mol
# GULP energy per Si atom -12395.242173 kJ/mol
# Density = 1.891801 g / cm^3
# Si number density = 18.961166 Si / 1000 Ang^3
#
#
#
# Elastic Constant Matrix: (Units=GPa)
#
#
# Indices 1 2 3 4 5 6 
#
# 1 88.5510 45.1107 32.3024 -1.7607 4.0906 6.9234
# 2 45.1107 117.3384 41.7142 -3.1169 1.6311 2.7316
# 3 32.3024 41.7142 86.8159 -10.3819 7.5735 3.8807
# 4 -1.7607 -3.1169 -10.3819 28.3818 -5.2635 1.6868
# 5 4.0906 1.6311 7.5735 -5.2635 27.7339 -7.2942
# 6 6.9234 2.7316 3.8807 1.6868 -7.2942 24.8675
#
#
#
# Elastic Compliance Matrix: (Units=1/GPa)
#
#
# Indices 1 2 3 4 5 6 
#
# 1 0.015188 -0.004614 -0.003173 -0.000921 -0.002286 -0.003834
# 2 -0.004614 0.011706 -0.004109 -0.000320 0.001330 0.001052
# 3 -0.003173 -0.004109 0.015618 0.004593 -0.003311 -0.002385
# 4 -0.000921 -0.000320 0.004593 0.037968 0.005762 -0.001311
# 5 -0.002286 0.001330 -0.003311 0.005762 0.041692 0.012845
# 6 -0.003834 0.001052 -0.002385 -0.001311 0.012845 0.045394
#
#
# Mechanical properties :
#
#
# Convention : Reuss Voigt Hill
#
# Bulk Modulus (GPa) = 53.42188 58.99554 56.20871
# Shear Modulus (GPa) = 25.30376 27.76851 26.53613
#
# Velocity S-wave (km/s) = 3.65705 3.83102 3.74505
# Velocity P-wave (km/s) = 6.78731 7.12393 6.95766
#
# Compressibility (1/GPa) = 0.01871892
#
# Stress axis : x y z
#
# Youngs Moduli (GPa) = 65.83988 85.42932 64.02733
#
# Poissons Ratio (x) = 0.39421 0.20319
# Poissons Ratio (y) = 0.30381 0.26307
# Poissons Ratio (z) = 0.20894 0.35101
#
# Static dielectric constant tensor:
#      x y z
#    x 3.509910 -0.132840 0.200660 
#    y -0.132840 3.261490 -0.107450 
#    z 0.200660 -0.107450 3.598270 
# 
# 
# High freq. dielectric constant tensor:
#      x y z
#    x 1.740880 -0.004140 0.008620 
#    y -0.004140 1.719340 -0.007060 
#    z 0.008620 -0.007060 1.742400 
# 
# From -- ./inp_files/577833.got.cif
#   From: 2010.06.25/outbox.cif.g09.slc.cpg/sg2_289_cif.got.tgz:577833.got - 2010.06.27 13:26:56.
