data_PCOD8000587
_publ_section_title
;
Structure prediction by ZEFSAII (Michael W. Deem and Ramdas Pophale) SiO2 
 PCOD8000587
Probable space group: P -1
;
_chemical_formula_sum "Si O2"
_cell_formula_units_Z 16
_cell_length_a 18.487679
_cell_length_b 8.480680
_cell_length_c 10.902829
_cell_angle_alpha 121.097978
_cell_angle_beta 113.989426
_cell_angle_gamma 113.940575
_cell_volume 824.854662
_symmetry_space_group_name_H-M "P -1"
_symmetry_group_IT_number 2
_symmetry_cell_setting 'triclinic'
loop_
_space_group_symop_operation_xyz
x,y,z
-x,-y,-z
loop_
_atom_site_type_symbol
_atom_site_label
_atom_site_fract_x
_atom_site_fract_y
_atom_site_fract_z
Si Si1 0.503536 0.677430 0.729368
Si Si2 0.305897 0.249635 0.216605
Si Si3 0.096480 0.311570 0.756320
Si Si4 0.716131 0.416557 0.806849
Si Si5 0.634708 0.254252 0.944105
Si Si6 0.599630 0.571510 0.176088
Si Si7 0.195336 0.782349 0.324040
Si Si8 0.068893 0.662247 0.941038
O O1 0.384292 0.382146 0.450767
O O2 0.629175 0.779151 0.841229
O O3 0.465379 0.611819 0.817184
O O4 0.530590 0.936014 0.809933
O O5 0.312458 0.462847 0.248937
O O6 0.156684 0.928028 0.008915
O O7 0.223376 0.570550 0.863617
O O8 0.143296 0.313670 0.921355
O O9 0.030939 0.388786 0.759576
O O10 0.000000 0.000000 0.500000
O O11 0.715061 0.230504 0.647768
O O12 0.609402 0.209171 0.759867
O O13 0.637789 0.464000 0.082180
O O14 0.724067 0.925247 0.424066
O O15 0.500000 0.500000 0.000000
O O16 0.150997 0.802612 0.178233
O O17 0.067480 0.485006 0.191831
#
# Coordination Sequence:
#
# PCOD8000587 Si02
#       8
#     2   2   2   2   2   2   2   2
#     4  11  23  39  63  88 124 164 202 251 310 360
#     4  11  21  39  64  93 120 157 210 257 295 358
#     4   9  18  38  61  87 117 161 197 244 306 359
#     4   9  22  38  63  92 120 156 208 247 302 357
#     4  10  22  41  59  90 121 161 204 240 311 366
#     4  12  25  40  61  92 129 157 202 255 314 362
#     4  10  21  40  62  91 118 167 203 249 303 359
#     4  10  19  39  65  86 121 158 212 246 298 367
#
# _framework density 19.397355999999998
#
# number of rings (size 3 to 8) (size 9 to 14) (size 15 to 20)
#    0.750    1.000    2.500    1.875    3.500    1.000 
#    0.000    1.875    0.000    0.000    0.000    0.000 
#    0.000    0.000    0.000    0.000    0.000    0.000 
#
# Total GULP energy -198338.735533 kJ/mol
# GULP energy per Si atom -12396.170971 kJ/mol
# Density = 1.935321 g / cm^3
# Si number density = 19.397356 Si / 1000 Ang^3
#
#
#
# Elastic Constant Matrix: (Units=GPa)
#
#
# Indices 1 2 3 4 5 6 
#
# 1 122.2459 41.9578 28.0094 3.3756 -16.3290 5.8102
# 2 41.9578 96.0504 18.0016 6.6892 10.0681 5.1894
# 3 28.0094 18.0016 72.6603 13.4854 -9.1968 1.2419
# 4 3.3756 6.6892 13.4854 23.3267 3.1486 3.1417
# 5 -16.3290 10.0681 -9.1968 3.1486 25.2504 7.8592
# 6 5.8102 5.1894 1.2419 3.1417 7.8592 31.0609
#
#
#
# Elastic Compliance Matrix: (Units=1/GPa)
#
#
# Indices 1 2 3 4 5 6 
#
# 1 0.012284 -0.005954 -0.001823 0.000051 0.010890 -0.003991
# 2 -0.005954 0.014622 -0.002665 -0.000514 -0.011097 0.001637
# 3 -0.001823 -0.002665 0.018090 -0.010393 0.008056 -0.000924
# 4 0.000051 -0.000514 -0.010393 0.050561 -0.009133 -0.002312
# 5 0.010890 -0.011097 0.008056 -0.009133 0.059716 -0.014691
# 6 -0.003991 0.001637 -0.000924 -0.002312 -0.014691 0.036656
#
#
# Mechanical properties :
#
#
# Convention : Reuss Voigt Hill
#
# Bulk Modulus (GPa) = 41.47207 51.87713 46.67460
# Shear Modulus (GPa) = 22.63975 29.46012 26.04994
#
# Velocity S-wave (km/s) = 3.42007 3.90137 3.66862
# Velocity P-wave (km/s) = 6.08462 6.86271 6.48534
#
# Compressibility (1/GPa) = 0.02411261
#
# Stress axis : x y z
#
# Youngs Moduli (GPa) = 81.40412 68.39042 55.27911
#
# Poissons Ratio (x) = 0.40719 0.10079
# Poissons Ratio (y) = 0.48467 0.14730
# Poissons Ratio (z) = 0.14843 0.18223
#
# Static dielectric constant tensor:
#      x y z
#    x 3.563330 0.123180 0.017610 
#    y 0.123180 3.279720 0.048730 
#    z 0.017610 0.048730 3.349480 
# 
# 
# High freq. dielectric constant tensor:
#      x y z
#    x 1.766380 0.005840 -0.005530 
#    y 0.005840 1.735210 0.009870 
#    z -0.005530 0.009870 1.747880 
# 
# From -- ./inp_files/462461.got.cif
#   From: 2010.06.25/outbox.cif.g09.slc.cpg/sg2_232_cif.got.tgz:462461.got - 2010.06.27 13:26:56.
