data_PCOD8000294
_publ_section_title
;
Structure prediction by ZEFSAII (Michael W. Deem and Ramdas Pophale) SiO2 
 PCOD8000294
Probable space group: P 1
;
_chemical_formula_sum "Si O2"
_cell_formula_units_Z 6
_cell_length_a 5.251734
_cell_length_b 9.148376
_cell_length_c 9.254344
_cell_angle_alpha 58.725118
_cell_angle_beta 65.556939
_cell_angle_gamma 101.566843
_cell_volume 292.546427
_symmetry_space_group_name_H-M "P 1"
_symmetry_group_IT_number 1
_symmetry_cell_setting 'triclinic'
loop_
_space_group_symop_operation_xyz
x,y,z
loop_
_atom_site_type_symbol
_atom_site_label
_atom_site_fract_x
_atom_site_fract_y
_atom_site_fract_z
Si Si1 0.652510 0.084680 0.721320
Si Si2 0.649790 0.087318 0.400228
Si Si3 0.759758 0.476510 0.588337
Si Si4 0.396093 0.684389 0.489970
Si Si5 0.286092 0.295199 0.301892
Si Si6 0.393306 0.687013 0.168906
O O1 0.486472 0.028968 0.629151
O O2 0.565674 0.232772 0.749435
O O3 0.052578 0.202089 0.548017
O O4 0.522936 0.885875 0.945120
O O5 0.547142 0.226606 0.269806
O O6 0.050781 0.212362 0.256723
O O7 0.522958 0.885919 0.444987
O O8 0.498792 0.545175 0.620430
O O9 0.995083 0.559295 0.633532
O O10 0.993236 0.569628 0.342206
O O11 0.559349 0.742613 0.261115
O O12 0.480088 0.538931 0.140757
#
# Coordination Sequence:
#
# PCOD8000294 Si02
#       6
#     1   1   1   1   1   1
#     4   9  20  35  57  78 102 138 176 211 254 309
#     4  10  19  36  56  75 107 139 168 214 262 300
#     4   9  20  36  55  75 107 137 172 210 258 308
#     4  10  19  36  56  75 107 139 168 214 262 300
#     4   9  20  36  55  75 107 137 172 210 258 308
#     4   9  20  35  57  78 102 138 176 211 254 309
#
# _framework density 20.509564000000001
#
# number of rings (size 3 to 8) (size 9 to 14) (size 15 to 20)
#    2.000    0.667    0.000    2.000    0.000    1.333 
#    0.000    3.333    0.000    0.000    0.000    0.000 
#    0.000    0.000    0.000    0.000    0.000    0.000 
#
# Total GULP energy -74337.630394 kJ/mol
# GULP energy per Si atom -12389.605066 kJ/mol
# Density = 2.046288 g / cm^3
# Si number density = 20.509564 Si / 1000 Ang^3
#
#
#
# Elastic Constant Matrix: (Units=GPa)
#
#
# Indices 1 2 3 4 5 6 
#
# 1 136.3041 56.1577 39.2847 -24.0234 41.0861 7.8955
# 2 56.1577 146.8375 47.4438 -57.5930 20.1618 26.7613
# 3 39.2847 47.4438 116.2514 -45.6698 19.0007 1.2073
# 4 -24.0234 -57.5930 -45.6698 39.1402 -12.6100 1.5478
# 5 41.0861 20.1618 19.0007 -12.6100 23.8339 -8.0902
# 6 7.8955 26.7613 1.2073 1.5478 -8.0902 31.6393
#
#
#
# Elastic Compliance Matrix: (Units=1/GPa)
#
#
# Indices 1 2 3 4 5 6 
#
# 1 0.020761 0.004023 0.001466 0.007193 -0.043372 -0.020082
# 2 0.004023 0.048086 0.019528 0.086492 -0.036415 -0.055964
# 3 0.001466 0.019528 0.024251 0.052804 -0.019014 -0.025253
# 4 0.007193 0.086492 0.052804 0.205770 -0.052930 -0.100568
# 5 -0.043372 -0.036415 -0.019014 -0.052930 0.164187 0.086922
# 6 -0.020082 -0.055964 -0.025253 -0.100568 0.086922 0.112063
#
#
# Mechanical properties :
#
#
# Convention : Reuss Voigt Hill
#
# Bulk Modulus (GPa) = 6.98660 76.12949 41.55805
# Shear Modulus (GPa) = 8.72909 36.02311 22.37610
#
# Velocity S-wave (km/s) = 2.06527 4.19550 3.30662
# Velocity P-wave (km/s) = 3.01679 7.78904 5.90636
#
# Compressibility (1/GPa) = 0.14313110
#
# Stress axis : x y z
#
# Youngs Moduli (GPa) = 48.16667 20.79609 41.23483
#
# Poissons Ratio (x) = -0.08366 -0.06044
# Poissons Ratio (y) = -0.19376 -0.80523
# Poissons Ratio (z) = -0.07060 -0.40610
#
# Static dielectric constant tensor:
#      x y z
#    x 3.580150 0.112600 0.167970 
#    y 0.112600 3.605620 -0.289570 
#    z 0.167970 -0.289570 3.264470 
# 
# 
# High freq. dielectric constant tensor:
#      x y z
#    x 1.791790 0.011310 0.022040 
#    y 0.011310 1.794340 -0.036080 
#    z 0.022040 -0.036080 1.768760 
# 
# From -- ./inp_files/184.got.cif
#   From: 2010.03.12/outbox.cif.g09.slc.cpg/sg1_1_cif.got.tgz:184.got - 2010.03.29 11:57:58.
