data_PCOD8000557
_publ_section_title
;
Structure prediction by ZEFSAII (Michael W. Deem and Ramdas Pophale) SiO2 
 PCOD8000557
Probable space group: P -1
;
_chemical_formula_sum "Si O2"
_cell_formula_units_Z 16
_cell_length_a 8.008178
_cell_length_b 6.451219
_cell_length_c 25.006301
_cell_angle_alpha 109.047523
_cell_angle_beta 39.145931
_cell_angle_gamma 98.963352
_cell_volume 760.596043
_symmetry_space_group_name_H-M "P -1"
_symmetry_group_IT_number 2
_symmetry_cell_setting 'triclinic'
loop_
_space_group_symop_operation_xyz
x,y,z
-x,-y,-z
loop_
_atom_site_type_symbol
_atom_site_label
_atom_site_fract_x
_atom_site_fract_y
_atom_site_fract_z
Si Si1 0.890096 0.502392 0.886298
Si Si2 0.446323 0.269113 0.721884
Si Si3 0.184738 0.305378 0.197862
Si Si4 0.811850 0.040416 0.319803
Si Si5 0.116979 0.700506 0.464949
Si Si6 0.148654 0.754035 0.294544
Si Si7 0.728285 0.908452 0.494349
Si Si8 0.533530 0.128023 0.948400
O O1 0.852146 0.595876 0.843812
O O2 0.775860 0.271091 0.902727
O O3 0.204900 0.456957 0.818551
O O4 0.737619 0.693661 0.980448
O O5 0.648782 0.378934 0.643291
O O6 0.619399 0.157325 0.720526
O O7 0.313373 0.092679 0.706472
O O8 0.269584 0.497480 0.229954
O O9 0.902860 0.252032 0.286519
O O10 0.398380 0.073427 0.128401
O O11 0.585843 0.115987 0.427993
O O12 0.071620 0.893481 0.271314
O O13 0.000000 0.500000 0.500000
O O14 0.856088 0.843686 0.514888
O O15 0.232066 0.831924 0.496649
O O16 0.873789 0.764848 0.397769
O O17 0.500000 0.000000 0.000000
#
# Coordination Sequence:
#
# PCOD8000557 Si02
#       8
#     2   2   2   2   2   2   2   2
#     4  10  19  39  64  91 123 153 201 253 303 371
#     4  10  21  40  60  88 120 163 200 249 309 351
#     4  11  21  37  62  92 118 159 203 250 305 363
#     4  11  22  40  61  83 122 166 210 248 301 358
#     4   9  19  35  57  85 122 159 206 255 294 353
#     4  11  23  39  56  89 129 155 206 259 294 357
#     4   9  21  36  53  84 119 166 206 250 303 347
#     4   9  19  36  65  94 118 156 199 246 312 370
#
# _framework density 21.036135000000002
#
# number of rings (size 3 to 8) (size 9 to 14) (size 15 to 20)
#    0.000    2.000    2.500    1.125    1.750    2.500 
#    2.250    0.625    0.000   10.500    0.000    0.000 
#    0.000    0.000    0.000    0.000    0.000    0.000 
#
# Total GULP energy -198209.432610 kJ/mol
# GULP energy per Si atom -12388.089538 kJ/mol
# Density = 2.098826 g / cm^3
# Si number density = 21.036135 Si / 1000 Ang^3
#
#
#
# Elastic Constant Matrix: (Units=GPa)
#
#
# Indices 1 2 3 4 5 6 
#
# 1 107.1643 27.3333 29.1441 1.7482 -7.0084 -3.6141
# 2 27.3333 104.0914 36.4575 -12.3542 3.7443 -4.3079
# 3 29.1441 36.4575 113.5743 15.2046 -15.7666 -0.2848
# 4 1.7482 -12.3542 15.2046 36.5275 0.6385 -1.7771
# 5 -7.0084 3.7443 -15.7666 0.6385 31.4212 5.2259
# 6 -3.6141 -4.3079 -0.2848 -1.7771 5.2259 10.4169
#
#
#
# Elastic Compliance Matrix: (Units=1/GPa)
#
#
# Indices 1 2 3 4 5 6 
#
# 1 0.010525 -0.002181 -0.001738 -0.000450 0.001427 0.001910
# 2 -0.002181 0.013779 -0.005822 0.007770 -0.006790 0.009515
# 3 -0.001738 -0.005822 0.013357 -0.007999 0.008552 -0.008300
# 4 -0.000450 0.007770 -0.007999 0.034105 -0.007826 0.012583
# 5 0.001427 -0.006790 0.008552 -0.007826 0.041428 -0.024198
# 6 0.001910 0.009515 -0.008300 0.012583 -0.024198 0.114654
#
#
# Mechanical properties :
#
#
# Convention : Reuss Voigt Hill
#
# Bulk Modulus (GPa) = 55.00752 56.74442 55.87597
# Shear Modulus (GPa) = 19.73244 31.13280 25.43262
#
# Velocity S-wave (km/s) = 3.06604 3.85121 3.48084
# Velocity P-wave (km/s) = 6.22415 6.84171 6.54022
#
# Compressibility (1/GPa) = 0.01817933
#
# Stress axis : x y z
#
# Youngs Moduli (GPa) = 95.00834 72.57353 74.86752
#
# Poissons Ratio (x) = 0.15828 0.13009
# Poissons Ratio (y) = 0.20721 0.43591
# Poissons Ratio (z) = 0.16509 0.42255
#
# Static dielectric constant tensor:
#      x y z
#    x 4.064400 4.617280 4.096560 
#    y 4.617280 46.710650 39.533150 
#    z 4.096560 39.533150 40.614270 
# 
# 
# High freq. dielectric constant tensor:
#      x y z
#    x 1.786780 -0.005540 -0.004890 
#    y -0.005540 1.815200 0.002200 
#    z -0.004890 0.002200 1.844390 
# 
# From -- ./inp_files/105053.got.cif
#   From: 2010.06.25/outbox.cif.g09.slc.cpg/sg2_53_cif.got.tgz:105053.got - 2010.06.27 13:26:56.
