data_PCOD8000757
_publ_section_title
;
Structure prediction by ZEFSAII (Michael W. Deem and Ramdas Pophale) SiO2 
 PCOD8000757
Probable space group: P -1
;
_chemical_formula_sum "Si O2"
_cell_formula_units_Z 12
_cell_length_a 9.107451
_cell_length_b 10.843632
_cell_length_c 13.028512
_cell_angle_alpha 146.812063
_cell_angle_beta 99.151048
_cell_angle_gamma 102.163359
_cell_volume 536.493986
_symmetry_space_group_name_H-M "P -1"
_symmetry_group_IT_number 2
_symmetry_cell_setting 'triclinic'
loop_
_space_group_symop_operation_xyz
x,y,z
-x,-y,-z
loop_
_atom_site_type_symbol
_atom_site_label
_atom_site_fract_x
_atom_site_fract_y
_atom_site_fract_z
Si Si1 0.957256 0.197079 0.578637
Si Si2 0.026471 0.768302 0.640667
Si Si3 0.346048 0.344747 0.463055
Si Si4 0.309754 0.791929 0.112011
Si Si5 0.527675 0.734856 0.242109
Si Si6 0.459353 0.300496 0.078578
O O1 0.996262 0.236720 0.488709
O O2 0.737144 0.049516 0.472845
O O3 0.000000 0.000000 0.500000
O O4 0.092170 0.511957 0.866507
O O5 0.000000 0.500000 0.500000
O O6 0.863752 0.770074 0.675044
O O7 0.233296 0.054004 0.898940
O O8 0.500000 0.500000 0.500000
O O9 0.424694 0.598535 0.732383
O O10 0.325030 0.071764 0.309316
O O11 0.368778 0.770358 0.219348
O O12 0.459995 0.817406 0.068501
O O13 0.493965 0.592836 0.250012
O O14 0.500000 0.500000 0.000000
#
# Coordination Sequence:
#
# PCOD8000757 Si02
#       6
#     2   2   2   2   2   2
#     4  12  20  41  76 102 135 178 230 280 341 413
#     4  12  26  44  72 102 136 187 230 281 352 405
#     4  12  29  45  65 101 140 183 235 278 340 411
#     4  11  23  42  72 100 135 180 225 283 343 403
#     4  10  19  39  72 103 130 178 227 275 348 408
#     4  11  23  47  72  95 143 179 227 286 342 408
#
# _framework density 22.367446000000001
#
# number of rings (size 3 to 8) (size 9 to 14) (size 15 to 20)
#    0.000    0.667    8.333    1.000    2.333    4.000 
#    0.000    5.833    0.000    0.000    0.000    0.000 
#    0.000    0.000    0.000    0.000    0.000    0.000 
#
# Total GULP energy -148770.598948 kJ/mol
# GULP energy per Si atom -12397.549912 kJ/mol
# Density = 2.231654 g / cm^3
# Si number density = 22.367446 Si / 1000 Ang^3
#
#
#
# Elastic Constant Matrix: (Units=GPa)
#
#
# Indices 1 2 3 4 5 6 
#
# 1 116.3153 31.3152 60.4951 21.3498 18.8028 -11.7018
# 2 31.3152 107.0814 24.2320 19.0204 0.0718 -9.8255
# 3 60.4951 24.2320 109.5768 7.6358 44.5056 -0.4969
# 4 21.3498 19.0204 7.6358 29.3714 4.4097 2.8846
# 5 18.8028 0.0718 44.5056 4.4097 43.2418 10.1133
# 6 -11.7018 -9.8255 -0.4969 2.8846 10.1133 38.6480
#
#
#
# Elastic Compliance Matrix: (Units=1/GPa)
#
#
# Indices 1 2 3 4 5 6 
#
# 1 0.014767 -0.000464 -0.008154 -0.009028 0.001855 0.004437
# 2 -0.000464 0.011730 -0.003398 -0.007185 0.003870 0.002322
# 3 -0.008154 -0.003398 0.022301 0.005203 -0.020376 0.001898
# 4 -0.009028 -0.007185 0.005203 0.045237 -0.004463 -0.006701
# 5 0.001855 0.003870 -0.020376 -0.004463 0.046188 -0.010470
# 6 0.004437 0.002322 0.001898 -0.006701 -0.010470 0.031072
#
#
# Mechanical properties :
#
#
# Convention : Reuss Voigt Hill
#
# Bulk Modulus (GPa) = 40.37923 62.78423 51.58173
# Shear Modulus (GPa) = 24.56002 36.71431 30.63717
#
# Velocity S-wave (km/s) = 3.31724 4.05584 3.70499
# Velocity P-wave (km/s) = 5.72398 7.07556 6.43535
#
# Compressibility (1/GPa) = 0.02476521
#
# Stress axis : x y z
#
# Youngs Moduli (GPa) = 67.72069 85.25181 44.84061
#
# Poissons Ratio (x) = 0.03954 0.36563
# Poissons Ratio (y) = 0.03141 0.15239
# Poissons Ratio (z) = 0.55220 0.28973
#
# Static dielectric constant tensor:
#      x y z
#    x 4.107620 -0.294080 0.440780 
#    y -0.294080 4.063900 -0.217070 
#    z 0.440780 -0.217070 4.190640 
# 
# 
# High freq. dielectric constant tensor:
#      x y z
#    x 1.872160 -0.010970 0.021470 
#    y -0.010970 1.890450 0.003080 
#    z 0.021470 0.003080 1.891950 
# 
# From -- ./inp_files/300910.got.cif
#   From: 2010.06.25/outbox.cif.g09.slc.cpg/sg2_151_cif.got.tgz:300910.got - 2010.06.27 13:26:56.
