data_PCOD8000611
_publ_section_title
;
Structure prediction by ZEFSAII (Michael W. Deem and Ramdas Pophale) SiO2 
 PCOD8000611
Probable space group: P -1
;
_chemical_formula_sum "Si O2"
_cell_formula_units_Z 16
_cell_length_a 8.547323
_cell_length_b 9.187118
_cell_length_c 11.961941
_cell_angle_alpha 117.250869
_cell_angle_beta 66.009552
_cell_angle_gamma 108.143688
_cell_volume 753.799019
_symmetry_space_group_name_H-M "P -1"
_symmetry_group_IT_number 2
_symmetry_cell_setting 'triclinic'
loop_
_space_group_symop_operation_xyz
x,y,z
-x,-y,-z
loop_
_atom_site_type_symbol
_atom_site_label
_atom_site_fract_x
_atom_site_fract_y
_atom_site_fract_z
Si Si1 0.617349 0.120372 0.091443
Si Si2 0.974052 0.410584 0.802936
Si Si3 0.271235 0.318394 0.549206
Si Si4 0.691510 0.914457 0.199195
Si Si5 0.004965 0.749761 0.026660
Si Si6 0.551309 0.570201 0.684713
Si Si7 0.341561 0.685508 0.279686
Si Si8 0.298556 0.981923 0.531937
O O1 0.553196 0.297659 0.180558
O O2 0.612649 0.044203 0.190182
O O3 0.810217 0.135347 0.991814
O O4 0.500000 0.000000 0.000000
O O5 0.032071 0.313577 0.858621
O O6 0.772025 0.351098 0.812387
O O7 0.091238 0.380973 0.651991
O O8 0.006007 0.604342 0.886543
O O9 0.422920 0.420093 0.614272
O O10 0.311979 0.341670 0.414418
O O11 0.251821 0.123879 0.513441
O O12 0.536867 0.765915 0.220278
O O13 0.848763 0.845174 0.067787
O O14 0.779966 0.006127 0.317053
O O15 0.656343 0.489403 0.721029
O O16 0.241627 0.804554 0.427918
O O17 0.500000 0.000000 0.500000
#
# Coordination Sequence:
#
# PCOD8000611 Si02
#       8
#     2   2   2   2   2   2   2   2
#     4  12  27  45  66  98 134 169 220 271 322 389
#     4  11  24  42  66 100 131 168 224 270 321 381
#     4  11  21  42  67  92 132 175 214 268 323 391
#     4  11  23  44  67  95 130 175 220 260 330 389
#     4  11  24  44  68  92 133 176 215 268 327 390
#     4  11  23  41  68  95 128 174 219 263 330 381
#     4  11  24  40  68 100 130 171 216 275 318 387
#     4  10  19  39  65  93 126 167 215 262 324 379
#
# _framework density 21.225814
#
# number of rings (size 3 to 8) (size 9 to 14) (size 15 to 20)
#    0.000    1.000    5.000    2.625    5.250    1.500 
#    2.250    0.000    0.000    0.000    0.000    0.000 
#    0.000    0.000    0.000    0.000    0.000    0.000 
#
# Total GULP energy -198451.332106 kJ/mol
# GULP energy per Si atom -12403.208257 kJ/mol
# Density = 2.117750 g / cm^3
# Si number density = 21.225814 Si / 1000 Ang^3
#
#
#
# Elastic Constant Matrix: (Units=GPa)
#
#
# Indices 1 2 3 4 5 6 
#
# 1 90.0549 36.7900 39.6773 13.4617 -5.5952 1.9002
# 2 36.7900 98.8255 40.5911 7.6364 -2.2666 -21.8827
# 3 39.6773 40.5911 81.7344 1.3548 -20.4945 -3.9736
# 4 13.4617 7.6364 1.3548 28.9360 2.4719 -8.4896
# 5 -5.5952 -2.2666 -20.4945 2.4719 32.4399 2.8255
# 6 1.9002 -21.8827 -3.9736 -8.4896 2.8255 38.9669
#
#
#
# Elastic Compliance Matrix: (Units=1/GPa)
#
#
# Indices 1 2 3 4 5 6 
#
# 1 0.016967 -0.004382 -0.006258 -0.008089 -0.000223 -0.005673
# 2 -0.004382 0.016406 -0.006790 0.001177 -0.004802 0.009339
# 3 -0.006258 -0.006790 0.021545 0.002163 0.012042 -0.001713
# 4 -0.008089 0.001177 0.002163 0.041357 -0.004019 0.010578
# 5 -0.000223 -0.004802 0.012042 -0.004019 0.038815 -0.005148
# 6 -0.005673 0.009339 -0.001713 0.010578 -0.005148 0.033687
#
#
# Mechanical properties :
#
#
# Convention : Reuss Voigt Hill
#
# Bulk Modulus (GPa) = 49.85515 56.08130 52.96822
# Shear Modulus (GPa) = 23.77312 30.30565 27.03938
#
# Velocity S-wave (km/s) = 3.35029 3.78269 3.57303
# Velocity P-wave (km/s) = 6.20523 6.74959 6.48312
#
# Compressibility (1/GPa) = 0.02005811
#
# Stress axis : x y z
#
# Youngs Moduli (GPa) = 58.93912 60.95388 46.41490
#
# Poissons Ratio (x) = 0.26711 0.29045
# Poissons Ratio (y) = 0.25828 0.31515
# Poissons Ratio (z) = 0.36882 0.41387
#
# Static dielectric constant tensor:
#      x y z
#    x 3.601430 -0.018970 0.028980 
#    y -0.018970 3.845850 0.283110 
#    z 0.028980 0.283110 4.349770 
# 
# 
# High freq. dielectric constant tensor:
#      x y z
#    x 1.824580 -0.011580 -0.006430 
#    y -0.011580 1.829150 0.005530 
#    z -0.006430 0.005530 1.838040 
# 
# From -- ./inp_files/184939.got.cif
#   From: 2010.06.25/outbox.cif.g09.slc.cpg/sg2_93_cif.got.tgz:184939.got - 2010.06.27 13:26:56.
