data_PCOD8000192
_publ_section_title
;
Structure prediction by ZEFSAII (Michael W. Deem and Ramdas Pophale) SiO2 
 PCOD8000192
Probable space group: P 1
;
_chemical_formula_sum "Si O2"
_cell_formula_units_Z 8
_cell_length_a 10.686741
_cell_length_b 6.611157
_cell_length_c 8.240781
_cell_angle_alpha 106.971367
_cell_angle_beta 62.807730
_cell_angle_gamma 62.052994
_cell_volume 349.967917
_symmetry_space_group_name_H-M "P 1"
_symmetry_group_IT_number 1
_symmetry_cell_setting 'triclinic'
loop_
_space_group_symop_operation_xyz
x,y,z
loop_
_atom_site_type_symbol
_atom_site_label
_atom_site_fract_x
_atom_site_fract_y
_atom_site_fract_z
Si Si1 0.281040 0.520780 0.237820
Si Si2 0.465998 0.994504 0.783528
Si Si3 0.694388 0.513376 0.775532
Si Si4 0.091672 0.458137 0.910980
Si Si5 0.816606 0.468625 0.256439
Si Si6 0.970336 0.629495 0.671380
Si Si7 0.647829 0.332600 0.088479
Si Si8 0.001293 0.985319 0.273369
O O1 0.427596 0.465607 0.272035
O O2 0.119212 0.532591 0.413250
O O3 0.427079 0.254500 0.959386
O O4 0.171956 0.823406 0.272143
O O5 0.492330 0.788854 0.861262
O O6 0.674491 0.779529 0.512094
O O7 0.290145 0.141017 0.793171
O O8 0.853142 0.539098 0.682232
O O9 0.792092 0.212500 0.549792
O O10 0.639299 0.510297 0.989050
O O11 0.911186 0.488659 0.054231
O O12 0.033271 0.735694 0.099379
O O13 0.110933 0.462029 0.707796
O O14 0.690066 0.405491 0.249110
O O15 0.994502 0.190420 0.201104
O O16 0.814876 0.981656 0.875424
#
# Coordination Sequence:
#
# PCOD8000192 Si02
#       8
#     1   1   1   1   1   1   1   1
#     4  11  26  44  73 103 142 184 230 288 348 406
#     4  10  26  43  66 107 133 179 228 291 338 407
#     4  11  24  44  73  99 141 184 232 281 344 414
#     4  11  25  46  71  99 144 183 225 288 350 408
#     4  11  25  46  71 100 142 183 231 281 353 409
#     4  12  25  48  67 106 147 179 231 288 348 414
#     4  12  25  46  69 107 138 187 233 283 346 413
#     4  10  24  43  68 101 137 181 224 288 339 413
#
# _framework density 22.85924
#
# number of rings (size 3 to 8) (size 9 to 14) (size 15 to 20)
#    0.000    1.000    5.000    0.000   10.500    4.000 
#    0.000    0.000    0.000    0.000    0.000    0.000 
#    0.000    0.000    0.000    0.000    0.000    0.000 
#
# Total GULP energy -99161.353331 kJ/mol
# GULP energy per Si atom -12395.169166 kJ/mol
# Density = 2.280721 g / cm^3
# Si number density = 22.859240 Si / 1000 Ang^3
#
#
#
# Elastic Constant Matrix: (Units=GPa)
#
#
# Indices 1 2 3 4 5 6 
#
# 1 84.2885 31.1527 21.1956 2.4000 -6.6939 -15.7825
# 2 31.1527 121.6781 48.9975 8.8325 -8.4574 -31.2453
# 3 21.1956 48.9975 81.9526 7.7766 -1.8980 -4.5213
# 4 2.4000 8.8325 7.7766 43.2658 -0.4953 -4.2592
# 5 -6.6939 -8.4574 -1.8980 -0.4953 30.0550 -5.0705
# 6 -15.7825 -31.2453 -4.5213 -4.2592 -5.0705 43.3563
#
#
#
# Elastic Compliance Matrix: (Units=1/GPa)
#
#
# Indices 1 2 3 4 5 6 
#
# 1 0.014052 -0.001199 -0.002635 0.000412 0.003377 0.004412
# 2 -0.001199 0.014489 -0.007653 -0.000500 0.004961 0.009738
# 3 -0.002635 -0.007653 0.017299 -0.001938 -0.002550 -0.005159
# 4 0.000412 -0.000500 -0.001938 0.023742 0.000555 0.001984
# 5 0.003377 0.004961 -0.002550 0.000555 0.036769 0.008894
# 6 0.004412 0.009738 -0.005159 0.001984 0.008894 0.032386
#
#
# Mechanical properties :
#
#
# Convention : Reuss Voigt Hill
#
# Bulk Modulus (GPa) = 43.73128 54.51231 49.12179
# Shear Modulus (GPa) = 29.52757 35.77366 32.65062
#
# Velocity S-wave (km/s) = 3.59794 3.96024 3.78343
# Velocity P-wave (km/s) = 6.03593 6.69403 6.37348
#
# Compressibility (1/GPa) = 0.02286693
#
# Stress axis : x y z
#
# Youngs Moduli (GPa) = 71.16265 69.01898 57.80577
#
# Poissons Ratio (x) = 0.08275 0.15232
# Poissons Ratio (y) = 0.08532 0.44237
# Poissons Ratio (z) = 0.18752 0.52819
#
# Static dielectric constant tensor:
#      x y z
#    x 4.001430 -0.377220 0.071070 
#    y -0.377220 4.431910 0.143610 
#    z 0.071070 0.143610 3.995270 
# 
# 
# High freq. dielectric constant tensor:
#      x y z
#    x 1.891890 -0.023210 0.011340 
#    y -0.023210 1.917750 0.009860 
#    z 0.011340 0.009860 1.897710 
# 
# From -- ./inp_files/1613.got.cif
#   From: 2010.03.12/outbox.cif.g09.slc.cpg/sg1_1_cif.got.tgz:1613.got - 2010.03.29 11:57:58.
