data_PCOD8000677
_publ_section_title
;
Structure prediction by ZEFSAII (Michael W. Deem and Ramdas Pophale) SiO2 
 PCOD8000677
Probable space group: P -1
;
_chemical_formula_sum "Si O2"
_cell_formula_units_Z 16
_cell_length_a 22.651032
_cell_length_b 8.184355
_cell_length_c 7.832659
_cell_angle_alpha 61.699475
_cell_angle_beta 145.377273
_cell_angle_gamma 120.268058
_cell_volume 707.319583
_symmetry_space_group_name_H-M "P -1"
_symmetry_group_IT_number 2
_symmetry_cell_setting 'triclinic'
loop_
_space_group_symop_operation_xyz
x,y,z
-x,-y,-z
loop_
_atom_site_type_symbol
_atom_site_label
_atom_site_fract_x
_atom_site_fract_y
_atom_site_fract_z
Si Si1 0.381260 0.911963 0.210892
Si Si2 0.916551 0.434843 0.519180
Si Si3 0.380676 0.897667 0.816783
Si Si4 0.993977 0.820948 0.362708
Si Si5 0.213562 0.133288 0.299588
Si Si6 0.778891 0.448337 0.494813
Si Si7 0.238619 0.559002 0.161991
Si Si8 0.200768 0.116265 0.672189
O O1 0.348853 0.716337 0.337160
O O2 0.500000 0.000000 0.500000
O O3 0.371968 0.871883 0.009457
O O4 0.305148 0.050463 0.017577
O O5 0.995731 0.295082 0.734256
O O6 0.860221 0.374685 0.596782
O O7 0.973140 0.659845 0.542223
O O8 0.834930 0.387981 0.188297
O O9 0.340220 0.686073 0.744584
O O10 0.300115 0.022425 0.491950
O O11 0.500000 0.000000 0.000000
O O12 0.094639 0.988449 0.572305
O O13 0.892244 0.913795 0.046905
O O14 0.268049 0.357163 0.303296
O O15 0.182101 0.077442 0.446584
O O16 0.816931 0.437726 0.785735
O O17 0.779360 0.663844 0.335726
#
# Coordination Sequence:
#
# PCOD8000677 Si02
#       8
#     2   2   2   2   2   2   2   2
#     4  11  22  42  67  93 130 173 209 273 330 379
#     4  10  20  40  66  95 132 172 214 263 317 376
#     4  11  23  44  66  97 129 165 221 272 318 385
#     4  10  19  39  67  92 132 175 212 262 321 382
#     4   9  21  39  67  92 128 175 213 260 325 382
#     4  11  23  41  66  96 130 170 215 267 318 385
#     4  10  20  42  64  95 132 168 211 262 323 385
#     4  10  21  39  64  94 134 169 217 261 323 387
#
# _framework density 22.620609999999999
#
# number of rings (size 3 to 8) (size 9 to 14) (size 15 to 20)
#    0.000    1.750    2.500    1.875    0.000    1.500 
#    9.000   20.625    0.000    0.000    0.000    0.000 
#    0.000    0.000    0.000    0.000    0.000    0.000 
#
# Total GULP energy -198379.966661 kJ/mol
# GULP energy per Si atom -12398.747916 kJ/mol
# Density = 2.256912 g / cm^3
# Si number density = 22.620610 Si / 1000 Ang^3
#
#
#
# Elastic Constant Matrix: (Units=GPa)
#
#
# Indices 1 2 3 4 5 6 
#
# 1 98.0411 35.9695 28.0887 2.3667 4.8962 12.2601
# 2 35.9695 131.7747 51.1640 14.6032 11.2301 14.8155
# 3 28.0887 51.1640 118.7101 0.5220 19.7174 3.9797
# 4 2.3667 14.6032 0.5220 24.0638 4.0930 2.2051
# 5 4.8962 11.2301 19.7174 4.0930 33.5185 5.6650
# 6 12.2601 14.8155 3.9797 2.2051 5.6650 36.0977
#
#
#
# Elastic Compliance Matrix: (Units=1/GPa)
#
#
# Indices 1 2 3 4 5 6 
#
# 1 0.011903 -0.002302 -0.001818 0.000447 0.000556 -0.003012
# 2 -0.002302 0.010734 -0.004012 -0.005992 0.000316 -0.002865
# 3 -0.001818 -0.004012 0.011479 0.003197 -0.005823 0.001717
# 4 0.000447 -0.005992 0.003197 0.046023 -0.005562 0.000016
# 5 0.000556 0.000316 -0.005823 -0.005562 0.034557 -0.004760
# 6 -0.003012 -0.002865 0.001717 0.000016 -0.004760 0.030458
#
#
# Mechanical properties :
#
#
# Convention : Reuss Voigt Hill
#
# Bulk Modulus (GPa) = 56.01194 64.33003 60.17099
# Shear Modulus (GPa) = 29.87443 34.28957 32.08200
#
# Velocity S-wave (km/s) = 3.63805 3.89762 3.77007
# Velocity P-wave (km/s) = 6.51632 6.98253 6.75345
#
# Compressibility (1/GPa) = 0.01785334
#
# Stress axis : x y z
#
# Youngs Moduli (GPa) = 84.01144 93.16398 87.11780
#
# Poissons Ratio (x) = 0.21442 0.15837
# Poissons Ratio (y) = 0.19335 0.34949
# Poissons Ratio (z) = 0.15272 0.37375
#
# Static dielectric constant tensor:
#      x y z
#    x 4.000670 0.137820 -0.199910 
#    y 0.137820 4.265790 -0.433540 
#    z -0.199910 -0.433540 1.940530 
# 
# 
# High freq. dielectric constant tensor:
#      x y z
#    x 1.883260 0.013670 -0.002130 
#    y 0.013670 1.909910 0.001520 
#    z -0.002130 0.001520 1.870160 
# 
# From -- ./inp_files/351682.got.cif
#   From: 2010.06.25/outbox.cif.g09.slc.cpg/sg2_176_cif.got.tgz:351682.got - 2010.06.27 13:26:56.
