data_PCOD8000666
_publ_section_title
;
Structure prediction by ZEFSAII (Michael W. Deem and Ramdas Pophale) SiO2 
 PCOD8000666
Probable space group: P -1
;
_chemical_formula_sum "Si O2"
_cell_formula_units_Z 16
_cell_length_a 9.709692
_cell_length_b 27.003847
_cell_length_c 11.743810
_cell_angle_alpha 159.842394
_cell_angle_beta 133.682319
_cell_angle_gamma 48.126469
_cell_volume 765.108204
_symmetry_space_group_name_H-M "P -1"
_symmetry_group_IT_number 2
_symmetry_cell_setting 'triclinic'
loop_
_space_group_symop_operation_xyz
x,y,z
-x,-y,-z
loop_
_atom_site_type_symbol
_atom_site_label
_atom_site_fract_x
_atom_site_fract_y
_atom_site_fract_z
Si Si1 0.343646 0.246365 0.800918
Si Si2 0.938155 0.079095 0.824643
Si Si3 0.218392 0.478250 0.053680
Si Si4 0.452605 0.042906 0.740712
Si Si5 0.346314 0.738392 0.819200
Si Si6 0.992752 0.772112 0.248817
Si Si7 0.821922 0.763150 0.881987
Si Si8 0.275588 0.506465 0.890577
O O1 0.165290 0.252111 0.797669
O O2 0.389442 0.087760 0.428816
O O3 0.303389 0.339148 0.866971
O O4 0.527226 0.312065 0.107401
O O5 0.742255 0.021654 0.545678
O O6 0.871903 0.204665 0.148462
O O7 0.053061 0.938736 0.645414
O O8 0.051380 0.142982 0.923605
O O9 0.332669 0.614308 0.450871
O O10 0.232397 0.450661 0.869599
O O11 0.000000 0.500000 0.000000
O O12 0.535381 0.133188 0.881464
O O13 0.389919 0.149999 0.041492
O O14 0.179276 0.666157 0.154047
O O15 0.914873 0.739295 0.008066
O O16 0.806721 0.604125 0.483069
O O17 0.500000 0.500000 0.000000
#
# Coordination Sequence:
#
# PCOD8000666 Si02
#       8
#     2   2   2   2   2   2   2   2
#     4  11  21  41  70  99 121 163 219 271 312 374
#     4  10  20  37  67 104 126 153 209 277 324 368
#     4  12  26  43  61  92 136 176 212 259 310 375
#     4  10  19  39  67 101 124 155 211 274 321 365
#     4  11  20  40  68  96 127 163 216 265 315 376
#     4  11  21  43  70  95 125 164 216 266 322 373
#     4  11  23  42  69  96 128 167 211 263 321 381
#     4  12  28  46  61  91 138 176 211 255 318 385
#
# _framework density 20.912075000000002
#
# number of rings (size 3 to 8) (size 9 to 14) (size 15 to 20)
#    0.000    1.000    5.000    4.500    0.000    3.000 
#    0.000    7.500    0.000    0.000    0.000    0.000 
#    0.000    0.000    0.000    0.000    0.000    0.000 
#
# Total GULP energy -198295.617283 kJ/mol
# GULP energy per Si atom -12393.476080 kJ/mol
# Density = 2.086448 g / cm^3
# Si number density = 20.912075 Si / 1000 Ang^3
#
#
#
# Elastic Constant Matrix: (Units=GPa)
#
#
# Indices 1 2 3 4 5 6 
#
# 1 141.8412 52.1604 27.1244 17.7691 -10.1621 -0.9758
# 2 52.1604 116.3752 48.6561 30.6215 -4.5038 -4.9062
# 3 27.1244 48.6561 34.1654 29.7252 -3.8072 -2.1288
# 4 17.7691 30.6215 29.7252 32.2131 -2.8438 -4.5594
# 5 -10.1621 -4.5038 -3.8072 -2.8438 33.9568 3.1997
# 6 -0.9758 -4.9062 -2.1288 -4.5594 3.1997 36.1971
#
#
#
# Elastic Compliance Matrix: (Units=1/GPa)
#
#
# Indices 1 2 3 4 5 6 
#
# 1 0.008832 -0.001071 -0.010524 0.006029 0.001819 0.000073
# 2 -0.001071 0.041861 -0.128251 0.080057 -0.003242 0.008473
# 3 -0.010524 -0.128251 0.567009 -0.399387 0.013338 -0.035807
# 4 0.006029 0.080057 -0.399387 0.323555 -0.007990 0.028987
# 5 0.001819 -0.003242 0.013338 -0.007990 0.030703 -0.003326
# 6 0.000073 0.008473 -0.035807 0.028987 -0.003326 0.030616
#
#
# Mechanical properties :
#
#
# Convention : Reuss Voigt Hill
#
# Bulk Modulus (GPa) = 2.95851 60.91818 31.93834
# Shear Modulus (GPa) = 3.58438 31.43612 17.51025
#
# Velocity S-wave (km/s) = 1.31063 3.88139 2.89680
# Velocity P-wave (km/s) = 1.92565 7.02002 5.14727
#
# Compressibility (1/GPa) = 0.33800850
#
# Stress axis : x y z
#
# Youngs Moduli (GPa) = 113.22090 23.88859 1.76364
#
# Poissons Ratio (x) = 0.02559 0.01856
# Poissons Ratio (y) = 0.12130 0.22619
# Poissons Ratio (z) = 1.19159 3.06374
#
# Static dielectric constant tensor:
#      x y z
#    x 4.056790 -0.116670 -0.279630 
#    y -0.116670 3.663870 0.241800 
#    z -0.279630 0.241800 3.994770 
# 
# 
# High freq. dielectric constant tensor:
#      x y z
#    x 1.835690 -0.002190 -0.010010 
#    y -0.002190 1.800780 0.021580 
#    z -0.010010 0.021580 1.824160 
# 
# From -- ./inp_files/186738.got.cif
#   From: 2010.06.25/outbox.cif.g09.slc.cpg/sg2_94_cif.got.tgz:186738.got - 2010.06.27 13:26:56.
