data_PCOD8000403
_publ_section_title
;
Structure prediction by ZEFSAII (Michael W. Deem and Ramdas Pophale) SiO2 
 PCOD8000403
Probable space group: P -1
;
_chemical_formula_sum "Si O2"
_cell_formula_units_Z 14
_cell_length_a 17.735496
_cell_length_b 9.314219
_cell_length_c 21.047532
_cell_angle_alpha 33.651326
_cell_angle_beta 19.205081
_cell_angle_gamma 43.237560
_cell_volume 601.331713
_symmetry_space_group_name_H-M "P -1"
_symmetry_group_IT_number 2
_symmetry_cell_setting 'triclinic'
loop_
_space_group_symop_operation_xyz
x,y,z
-x,-y,-z
loop_
_atom_site_type_symbol
_atom_site_label
_atom_site_fract_x
_atom_site_fract_y
_atom_site_fract_z
Si Si1 0.569820 0.719202 0.779923
Si Si2 0.926398 0.216294 0.833570
Si Si3 0.818372 0.303793 0.305440
Si Si4 0.184066 0.582082 0.380796
Si Si5 0.811310 0.480832 0.374814
Si Si6 0.025983 0.020259 0.546555
Si Si7 0.274552 0.357580 0.852285
O O1 0.576340 0.461466 0.825136
O O2 0.669761 0.997767 0.556766
O O3 0.293655 0.660712 0.039319
O O4 0.727149 0.751382 0.708206
O O5 0.112162 0.379129 0.572699
O O6 0.049472 0.258601 0.789984
O O7 0.843720 0.896919 0.005706
O O8 0.795947 0.526434 0.294472
O O9 0.707880 0.371111 0.302504
O O10 0.102104 0.334674 0.058727
O O11 0.000000 0.500000 0.500000
O O12 0.198519 0.889075 0.279011
O O13 0.538685 0.359598 0.664456
O O14 0.965699 0.270398 0.330046
O O15 0.000000 0.000000 0.500000
#
# Coordination Sequence:
#
# PCOD8000403 Si02
#       7
#     2   2   2   2   2   2   2
#     4  10  22  40  65  92 128 165 212 263 312 385
#     4  12  23  40  68  93 127 171 209 262 319 374
#     4  10  22  44  67  95 127 167 211 259 331 373
#     4  10  22  39  62  88 127 168 212 253 311 374
#     4  11  24  42  63  97 130 161 218 263 309 385
#     4  10  19  39  61  87 127 163 209 260 307 368
#     4  11  23  44  69  90 130 170 206 269 317 379
#
# _framework density 23.281661
#
# number of rings (size 3 to 8) (size 9 to 14) (size 15 to 20)
#    0.000    1.429    5.714    0.429    0.000    4.000 
#    0.000    2.143    0.000    0.000    0.000    0.000 
#    0.000    0.000    0.000    0.000    0.000    0.000 
#
# Total GULP energy -173468.168660 kJ/mol
# GULP energy per Si atom -12390.583476 kJ/mol
# Density = 2.322867 g / cm^3
# Si number density = 23.281661 Si / 1000 Ang^3
#
#
#
# Elastic Constant Matrix: (Units=GPa)
#
#
# Indices 1 2 3 4 5 6 
#
# 1 70.5932 14.1750 9.6301 -2.2157 -2.1238 16.7417
# 2 14.1750 105.4900 21.7246 16.0160 -6.8706 17.6588
# 3 9.6301 21.7246 45.1221 14.4995 -11.3651 12.7475
# 4 -2.2157 16.0160 14.4995 37.1853 7.4802 6.7885
# 5 -2.1238 -6.8706 -11.3651 7.4802 21.9137 -5.6506
# 6 16.7417 17.6588 12.7475 6.7885 -5.6506 41.9384
#
#
#
# Elastic Compliance Matrix: (Units=1/GPa)
#
#
# Indices 1 2 3 4 5 6 
#
# 1 0.016464 -0.001436 -0.003704 0.004996 -0.004080 -0.006200
# 2 -0.001436 0.011407 -0.002379 -0.004240 0.003029 -0.002413
# 3 -0.003704 -0.002379 0.036238 -0.017473 0.022981 -0.002610
# 4 0.004996 -0.004240 -0.017473 0.041900 -0.025530 -0.005120
# 5 -0.004080 0.003029 0.022981 -0.025530 0.068558 0.006738
# 6 -0.006200 -0.002413 -0.002610 -0.005120 0.006738 0.029865
#
#
# Mechanical properties :
#
#
# Convention : Reuss Voigt Hill
#
# Bulk Modulus (GPa) = 20.37816 34.69609 27.53713
# Shear Modulus (GPa) = 21.20200 31.91919 26.56060
#
# Velocity S-wave (km/s) = 3.02101 3.70672 3.38129
# Velocity P-wave (km/s) = 4.57609 5.76670 5.20554
#
# Compressibility (1/GPa) = 0.04907213
#
# Stress axis : x y z
#
# Youngs Moduli (GPa) = 60.73930 87.66339 27.59528
#
# Poissons Ratio (x) = 0.12587 0.10221
# Poissons Ratio (y) = 0.08721 0.06564
# Poissons Ratio (z) = 0.22497 0.20853
#
# Static dielectric constant tensor:
#      x y z
#    x 7.138860 -2.000180 -0.240490 
#    y -2.000180 6.691820 0.643800 
#    z -0.240490 0.643800 3.884010 
# 
# 
# High freq. dielectric constant tensor:
#      x y z
#    x 1.920330 0.008120 0.007680 
#    y 0.008120 1.938210 0.021370 
#    z 0.007680 0.021370 1.884250 
# 
# From -- ./inp_files/337430.got.cif
#   From: 2010.06.25/outbox.cif.g09.slc.cpg/sg2_169_cif.got.tgz:337430.got - 2010.06.27 13:26:56.
