data_PCOD8000183
_publ_section_title
;
Structure prediction by ZEFSAII (Michael W. Deem and Ramdas Pophale) SiO2 
 PCOD8000183
Probable space group: P 1
;
_chemical_formula_sum "Si O2"
_cell_formula_units_Z 8
_cell_length_a 12.159600
_cell_length_b 7.375171
_cell_length_c 8.528927
_cell_angle_alpha 62.023907
_cell_angle_beta 30.121522
_cell_angle_gamma 71.436744
_cell_volume 332.325773
_symmetry_space_group_name_H-M "P 1"
_symmetry_group_IT_number 1
_symmetry_cell_setting 'triclinic'
loop_
_space_group_symop_operation_xyz
x,y,z
loop_
_atom_site_type_symbol
_atom_site_label
_atom_site_fract_x
_atom_site_fract_y
_atom_site_fract_z
Si Si1 0.378590 0.433850 0.350750
Si Si2 0.048454 0.720934 0.679512
Si Si3 0.378443 0.000520 0.376630
Si Si4 0.539588 0.952805 0.523554
Si Si5 0.628176 0.370869 0.357036
Si Si6 0.072761 0.956126 0.241984
Si Si7 0.718175 0.222069 0.622539
Si Si8 0.753692 0.633968 0.583395
O O1 0.184915 0.557316 0.506632
O O2 0.307813 0.210374 0.443143
O O3 0.419141 0.420229 0.493832
O O4 0.603852 0.567413 0.947115
O O5 0.037130 0.893049 0.492524
O O6 0.158730 0.841043 0.650619
O O7 0.807939 0.584730 0.071410
O O8 0.486311 0.893954 0.431472
O O9 0.559631 0.048023 0.994067
O O10 0.625982 0.759537 0.569486
O O11 0.712155 0.178990 0.235154
O O12 0.330850 0.015274 0.852192
O O13 0.564734 0.282997 0.646110
O O14 0.982153 0.771447 0.306555
O O15 0.929598 0.138897 0.322630
O O16 0.818273 0.430219 0.510304
#
# Coordination Sequence:
#
# PCOD8000183 Si02
#       8
#     1   1   1   1   1   1   1   1
#     4  10  23  47  69 103 144 184 232 293 352 415
#     4  12  25  44  75 103 141 185 237 291 354 416
#     4  10  26  47  69 104 141 187 235 290 347 420
#     4  11  25  48  75 100 149 188 235 292 353 419
#     4  11  25  44  71 103 142 188 231 289 351 420
#     4  12  25  47  73 105 143 187 236 294 354 418
#     4  11  26  46  71 105 143 184 236 291 351 417
#     4  11  23  47  73 103 143 189 234 290 354 419
#
# _framework density 24.072766000000001
#
# number of rings (size 3 to 8) (size 9 to 14) (size 15 to 20)
#    0.000    1.000    3.750    1.500    7.000    1.000 
#    2.250    0.000    0.000    0.000    0.000    0.000 
#    0.000    0.000    0.000    0.000    0.000    0.000 
#
# Total GULP energy -99182.476402 kJ/mol
# GULP energy per Si atom -12397.809550 kJ/mol
# Density = 2.401798 g / cm^3
# Si number density = 24.072766 Si / 1000 Ang^3
#
#
#
# Elastic Constant Matrix: (Units=GPa)
#
#
# Indices 1 2 3 4 5 6 
#
# 1 145.7849 18.2780 23.3660 -20.8370 17.2394 10.0747
# 2 18.2780 77.8433 15.5360 -13.4546 -12.0276 9.6319
# 3 23.3660 15.5360 64.1965 -12.6421 3.3146 5.9518
# 4 -20.8370 -13.4546 -12.6421 33.9735 0.5541 -2.0465
# 5 17.2394 -12.0276 3.3146 0.5541 36.8468 -12.9841
# 6 10.0747 9.6319 5.9518 -2.0465 -12.9841 44.9017
#
#
#
# Elastic Compliance Matrix: (Units=1/GPa)
#
#
# Indices 1 2 3 4 5 6 
#
# 1 0.008723 -0.001550 -0.001440 0.004119 -0.005521 -0.002842
# 2 -0.001550 0.015395 -0.002582 0.004045 0.005641 -0.000797
# 3 -0.001440 -0.002582 0.017974 0.004702 -0.002574 -0.002035
# 4 0.004119 0.004045 0.004702 0.035262 -0.002054 -0.001402
# 5 -0.005521 0.005641 -0.002574 -0.002054 0.035546 0.010555
# 6 -0.002842 -0.000797 -0.002035 -0.001402 0.010555 0.026338
#
#
# Mechanical properties :
#
#
# Convention : Reuss Voigt Hill
#
# Bulk Modulus (GPa) = 32.31365 44.68721 38.50043
# Shear Modulus (GPa) = 31.11450 38.52071 34.81760
#
# Velocity S-wave (km/s) = 3.59906 4.00456 3.80721
# Velocity P-wave (km/s) = 5.54287 6.32343 5.94597
#
# Compressibility (1/GPa) = 0.03094667
#
# Stress axis : x y z
#
# Youngs Moduli (GPa) = 114.64491 64.95579 55.63670
#
# Poissons Ratio (x) = 0.10069 0.08011
# Poissons Ratio (y) = 0.17772 0.14367
# Poissons Ratio (z) = 0.16508 0.16773
#
# Static dielectric constant tensor:
#      x y z
#    x 4.506350 -0.019150 0.115960 
#    y -0.019150 4.330990 -0.333260 
#    z 0.115960 -0.333260 4.121930 
# 
# 
# High freq. dielectric constant tensor:
#      x y z
#    x 1.974490 0.003410 0.006850 
#    y 0.003410 1.963730 -0.024570 
#    z 0.006850 -0.024570 1.931910 
# 
# From -- ./inp_files/2428.got.cif
#   From: 2010.03.12/outbox.cif.g09.slc.cpg/sg1_2_cif.got.tgz:2428.got - 2010.03.29 11:57:58.
