data_PCOD8000389
_publ_section_title
;
Structure prediction by ZEFSAII (Michael W. Deem and Ramdas Pophale) SiO2 
 PCOD8000389
Probable space group: P -1
;
_chemical_formula_sum "Si O2"
_cell_formula_units_Z 10
_cell_length_a 10.409809
_cell_length_b 7.351910
_cell_length_c 6.744313
_cell_angle_alpha 60.645888
_cell_angle_beta 111.815752
_cell_angle_gamma 116.408494
_cell_volume 395.061189
_symmetry_space_group_name_H-M "P -1"
_symmetry_group_IT_number 2
_symmetry_cell_setting 'triclinic'
loop_
_space_group_symop_operation_xyz
x,y,z
-x,-y,-z
loop_
_atom_site_type_symbol
_atom_site_label
_atom_site_fract_x
_atom_site_fract_y
_atom_site_fract_z
Si Si1 0.210096 0.220765 0.925976
Si Si2 0.017080 0.571537 0.245039
Si Si3 0.124430 0.907405 0.696843
Si Si4 0.679835 0.427382 0.536980
Si Si5 0.637097 0.799915 0.582174
O O1 0.062579 0.244389 0.932264
O O2 0.282696 0.436049 0.718957
O O3 0.172612 0.000241 0.892406
O O4 0.323210 0.197397 0.166555
O O5 0.940412 0.357024 0.176687
O O6 0.000000 0.500000 0.500000
O O7 0.807660 0.334775 0.735961
O O8 0.260905 0.977445 0.584970
O O9 0.000000 0.000000 0.500000
O O10 0.658749 0.584158 0.614433
O O11 0.533344 0.218631 0.529758
#
# Coordination Sequence:
#
# PCOD8000389 Si02
#       5
#     2   2   2   2   2
#     4  10  21  37  64  86 112 151 198 235 279 343
#     4  10  19  39  61  82 119 151 186 243 286 330
#     4  11  20  40  58  85 120 151 189 239 286 341
#     4   9  19  37  57  86 118 150 187 237 289 342
#     4  10  20  36  63  84 113 157 192 230 292 340
#
# _framework density 25.312538
#
# number of rings (size 3 to 8) (size 9 to 14) (size 15 to 20)
#    0.000    2.000    6.000    0.600    0.000    1.600 
#    0.000    8.000    0.000   27.600    0.000    0.000 
#    0.000    0.000    0.000    0.000    0.000    0.000 
#
# Total GULP energy -124022.745855 kJ/mol
# GULP energy per Si atom -12402.274585 kJ/mol
# Density = 2.525493 g / cm^3
# Si number density = 25.312538 Si / 1000 Ang^3
#
#
#
# Elastic Constant Matrix: (Units=GPa)
#
#
# Indices 1 2 3 4 5 6 
#
# 1 143.1602 59.0363 40.2143 15.5382 17.0514 41.8274
# 2 59.0363 119.1839 68.0511 16.3202 6.1768 18.7405
# 3 40.2143 68.0511 99.1566 24.8424 5.6362 15.7160
# 4 15.5382 16.3202 24.8424 40.6553 9.4948 0.6994
# 5 17.0514 6.1768 5.6362 9.4948 30.1059 5.2266
# 6 41.8274 18.7405 15.7160 0.6994 5.2266 46.6577
#
#
#
# Elastic Compliance Matrix: (Units=1/GPa)
#
#
# Indices 1 2 3 4 5 6 
#
# 1 0.011789 -0.004079 0.000048 -0.001867 -0.003786 -0.008494
# 2 -0.004079 0.015505 -0.009321 0.000905 0.000502 0.000499
# 3 0.000048 -0.009321 0.018826 -0.008053 0.001365 -0.002672
# 4 -0.001867 0.000905 -0.008053 0.031756 -0.008415 0.004490
# 5 -0.003786 0.000502 0.001365 -0.008415 0.037896 -0.001387
# 6 -0.008494 0.000499 -0.002672 0.004490 -0.001387 0.029835
#
#
# Mechanical properties :
#
#
# Convention : Reuss Voigt Hill
#
# Bulk Modulus (GPa) = 51.50592 77.34490 64.42541
# Shear Modulus (GPa) = 27.96661 36.43038 32.19850
#
# Velocity S-wave (km/s) = 3.32754 3.79782 3.57043
# Velocity P-wave (km/s) = 5.92921 7.06071 6.51955
#
# Compressibility (1/GPa) = 0.01941525
#
# Stress axis : x y z
#
# Youngs Moduli (GPa) = 84.82162 64.49738 53.11796
#
# Poissons Ratio (x) = 0.26311 -0.00253
# Poissons Ratio (y) = 0.34603 0.49509
# Poissons Ratio (z) = -0.00404 0.60115
#
# Static dielectric constant tensor:
#      x y z
#    x 5.308030 0.110990 -0.036900 
#    y 0.110990 4.923130 0.364530 
#    z -0.036900 0.364530 4.400020 
# 
# 
# High freq. dielectric constant tensor:
#      x y z
#    x 2.014610 0.005580 -0.011900 
#    y 0.005580 2.009470 0.018120 
#    z -0.011900 0.018120 2.012090 
# 
# From -- ./inp_files/29325.got.cif
#   From: 2010.06.25/outbox.cif.g09.slc.cpg/sg2_15_cif.got.tgz:29325.got - 2010.06.27 13:26:56.
