data_PCOD8000340
_publ_section_title
;
Structure prediction by ZEFSAII (Michael W. Deem and Ramdas Pophale) SiO2 
 PCOD8000340
Probable space group: P -1
;
_chemical_formula_sum "Si O2"
_cell_formula_units_Z 16
_cell_length_a 14.788177
_cell_length_b 9.911911
_cell_length_c 18.982798
_cell_angle_alpha 135.124910
_cell_angle_beta 148.327530
_cell_angle_gamma 66.606273
_cell_volume 856.649160
_symmetry_space_group_name_H-M "P -1"
_symmetry_group_IT_number 2
_symmetry_cell_setting 'triclinic'
loop_
_space_group_symop_operation_xyz
x,y,z
-x,-y,-z
loop_
_atom_site_type_symbol
_atom_site_label
_atom_site_fract_x
_atom_site_fract_y
_atom_site_fract_z
Si Si1 0.967986 0.702419 0.560792
Si Si2 0.887327 0.229312 0.012076
Si Si3 0.911537 0.957301 0.503193
Si Si4 0.412196 0.400878 0.646006
Si Si5 0.945094 0.286502 0.751223
Si Si6 0.538608 0.860413 0.298590
Si Si7 0.895765 0.897728 0.790165
Si Si8 0.177458 0.150654 0.951122
O O1 0.000000 0.500000 0.500000
O O2 0.745170 0.580081 0.403366
O O3 0.973793 0.797548 0.522318
O O4 0.135198 0.921638 0.799644
O O5 0.673530 0.178709 0.885048
O O6 0.828305 0.014066 0.844727
O O7 0.992979 0.455942 0.118050
O O8 0.048514 0.266776 0.193796
O O9 0.024636 0.209414 0.708121
O O10 0.660822 0.830076 0.302984
O O11 0.000000 0.000000 0.500000
O O12 0.515723 0.308399 0.732570
O O13 0.292445 0.238194 0.439673
O O14 0.581447 0.651636 0.821091
O O15 0.040393 0.242595 0.866046
O O16 0.694765 0.118921 0.528247
O O17 0.109637 0.090215 0.964918
#
# Coordination Sequence:
#
# PCOD8000340 Si02
#       8
#     2   2   2   2   2   2   2   2
#     4   9  19  35  57  84 121 144 185 240 286 330
#     4  11  22  39  58  82 121 149 185 241 303 327
#     4   8  17  35  57  81 112 143 186 232 276 333
#     4  10  19  39  61  80 116 154 194 235 276 342
#     4   9  19  36  61  81 113 148 191 239 277 334
#     4   9  19  37  61  82 112 150 192 235 280 338
#     4  10  24  38  54  89 118 147 188 245 286 342
#     4  10  19  39  59  83 113 154 194 233 279 338
#
# _framework density 18.677426000000001
#
# number of rings (size 3 to 8) (size 9 to 14) (size 15 to 20)
#    0.750    1.750    3.750    0.000    0.000    5.500 
#    2.250    3.125    2.750    0.000    0.000    0.000 
#    0.000    0.000    0.000    0.000    0.000    0.000 
#
# Total GULP energy -198216.254501 kJ/mol
# GULP energy per Si atom -12388.515906 kJ/mol
# Density = 1.863491 g / cm^3
# Si number density = 18.677426 Si / 1000 Ang^3
#
#
#
# Elastic Constant Matrix: (Units=GPa)
#
#
# Indices 1 2 3 4 5 6 
#
# 1 75.4274 35.8799 17.3491 -4.7021 4.9875 9.0575
# 2 35.8799 106.3148 23.9880 1.8702 -3.1600 -11.9814
# 3 17.3491 23.9880 66.5653 13.0121 11.9237 -1.5011
# 4 -4.7021 1.8702 13.0121 26.0181 8.4722 3.5011
# 5 4.9875 -3.1600 11.9237 8.4722 15.6059 0.1913
# 6 9.0575 -11.9814 -1.5011 3.5011 0.1913 28.0058
#
#
#
# Elastic Compliance Matrix: (Units=1/GPa)
#
#
# Indices 1 2 3 4 5 6 
#
# 1 0.020720 -0.008262 -0.002699 0.011231 -0.012186 -0.011701
# 2 -0.008262 0.014548 -0.003834 -0.005600 0.011442 0.009312
# 3 -0.002699 -0.003834 0.020611 -0.006786 -0.011993 0.001268
# 4 0.011231 -0.005600 -0.006786 0.055669 -0.029600 -0.013149
# 5 -0.012186 0.011442 -0.011993 -0.029600 0.095385 0.011242
# 6 -0.011701 0.009312 0.001268 -0.013149 0.011242 0.045110
#
#
# Mechanical properties :
#
#
# Convention : Reuss Voigt Hill
#
# Bulk Modulus (GPa) = 38.03995 44.74906 41.39451
# Shear Modulus (GPa) = 17.21785 25.33198 21.27492
#
# Velocity S-wave (km/s) = 3.03950 3.68678 3.37867
# Velocity P-wave (km/s) = 5.72093 6.49107 6.11813
#
# Compressibility (1/GPa) = 0.02628815
#
# Stress axis : x y z
#
# Youngs Moduli (GPa) = 48.26256 68.74021 48.51698
#
# Poissons Ratio (x) = 0.56795 0.13096
# Poissons Ratio (y) = 0.39875 0.18601
# Poissons Ratio (z) = 0.13028 0.26354
#
# Static dielectric constant tensor:
#      x y z
#    x 3.183730 0.084750 0.089590 
#    y 0.084750 3.484110 0.020680 
#    z 0.089590 0.020680 3.327640 
# 
# 
# High freq. dielectric constant tensor:
#      x y z
#    x 1.707870 0.007140 0.008690 
#    y 0.007140 1.727840 0.005550 
#    z 0.008690 0.005550 1.712590 
# 
# From -- ./inp_files/544162.got.cif
#   From: 2010.06.25/outbox.cif.g09.slc.cpg/sg2_273_cif.got.tgz:544162.got - 2010.06.27 13:26:56.
