data_PCOD8000495
_publ_section_title
;
Structure prediction by ZEFSAII (Michael W. Deem and Ramdas Pophale) SiO2 
 PCOD8000495
Probable space group: P -1
;
_chemical_formula_sum "Si O2"
_cell_formula_units_Z 16
_cell_length_a 7.417537
_cell_length_b 18.500225
_cell_length_c 9.208750
_cell_angle_alpha 51.251149
_cell_angle_beta 103.451912
_cell_angle_gamma 131.927773
_cell_volume 694.708033
_symmetry_space_group_name_H-M "P -1"
_symmetry_group_IT_number 2
_symmetry_cell_setting 'triclinic'
loop_
_space_group_symop_operation_xyz
x,y,z
-x,-y,-z
loop_
_atom_site_type_symbol
_atom_site_label
_atom_site_fract_x
_atom_site_fract_y
_atom_site_fract_z
Si Si1 0.602467 0.277202 0.497258
Si Si2 0.075604 0.745709 0.928756
Si Si3 0.371812 0.505634 0.691384
Si Si4 0.491276 0.096299 0.950549
Si Si5 0.578574 0.146525 0.407884
Si Si6 0.147287 0.387730 0.490667
Si Si7 0.034290 0.911583 0.558695
Si Si8 0.078781 0.867432 0.325503
O O1 0.544469 0.363532 0.409484
O O2 0.483902 0.176887 0.733443
O O3 0.480374 0.204389 0.408748
O O4 0.907723 0.366363 0.423349
O O5 0.221356 0.755441 0.802887
O O6 0.968937 0.812328 0.791606
O O7 0.259958 0.805064 0.027050
O O8 0.820829 0.599210 0.092335
O O9 0.236092 0.461038 0.566181
O O10 0.626624 0.529341 0.692717
O O11 0.500000 0.000000 0.000000
O O12 0.221253 0.003173 0.104480
O O13 0.707486 0.129031 0.577843
O O14 0.341974 0.009825 0.464008
O O15 0.083774 0.254232 0.661440
O O16 0.910234 0.849419 0.453544
O O17 0.000000 0.000000 0.500000
#
# Coordination Sequence:
#
# PCOD8000495 Si02
#       8
#     2   2   2   2   2   2   2   2
#     4  11  23  40  68  92 126 171 211 253 316 371
#     4  11  21  41  64  87 125 168 206 255 316 369
#     4  11  24  42  62  90 131 168 216 250 308 375
#     4  12  18  36  68  95 117 162 212 256 315 376
#     4  10  20  40  63  92 122 162 205 262 312 375
#     4  10  22  41  61  89 128 166 203 267 304 362
#     4  11  22  38  62  95 127 157 202 267 321 370
#     4  10  19  39  63  87 123 157 207 255 323 359
#
# _framework density 23.031258000000001
#
# number of rings (size 3 to 8) (size 9 to 14) (size 15 to 20)
#    0.000    1.250    6.250    1.125    1.750    0.500 
#    6.750    6.250    0.000    0.000    0.000    0.000 
#    0.000    0.000    0.000    0.000    0.000    0.000 
#
# Total GULP energy -198319.846574 kJ/mol
# GULP energy per Si atom -12394.990411 kJ/mol
# Density = 2.297884 g / cm^3
# Si number density = 23.031258 Si / 1000 Ang^3
#
#
#
# Elastic Constant Matrix: (Units=GPa)
#
#
# Indices 1 2 3 4 5 6 
#
# 1 19.5438 1.9769 18.4166 -0.7185 1.6909 -21.8260
# 2 1.9769 105.6446 32.0813 -2.7504 6.1982 -14.3291
# 3 18.4166 32.0813 142.0192 -13.2816 -13.7341 -6.7259
# 4 -0.7185 -2.7504 -13.2816 32.8271 2.2820 -4.7858
# 5 1.6909 6.1982 -13.7341 2.2820 29.2088 -7.8320
# 6 -21.8260 -14.3291 -6.7259 -4.7858 -7.8320 40.1785
#
#
#
# Elastic Compliance Matrix: (Units=1/GPa)
#
#
# Indices 1 2 3 4 5 6 
#
# 1 0.193642 0.018318 -0.022606 0.012465 0.002786 0.109968
# 2 0.018318 0.012537 -0.004654 0.001687 -0.002458 0.013365
# 3 -0.022606 -0.004654 0.011088 0.001687 0.004423 -0.011021
# 4 0.012465 0.001687 0.001687 0.033243 0.000244 0.011663
# 5 0.002786 -0.002458 0.004423 0.000244 0.039077 0.009024
# 6 0.109968 0.013365 -0.011021 0.011663 0.009024 0.090696
#
#
# Mechanical properties :
#
#
# Convention : Reuss Voigt Hill
#
# Bulk Modulus (GPa) = 5.01550 41.35080 23.18315
# Shear Modulus (GPa) = 10.76132 34.75840 22.75986
#
# Velocity S-wave (km/s) = 2.16394 3.88904 3.14700
# Velocity P-wave (km/s) = 2.90274 6.17732 4.82624
#
# Compressibility (1/GPa) = 0.19938188
#
# Stress axis : x y z
#
# Youngs Moduli (GPa) = 5.16418 79.76280 90.18996
#
# Poissons Ratio (x) = -1.46107 2.03880
# Poissons Ratio (y) = -0.09460 0.41978
# Poissons Ratio (z) = 0.11674 0.37125
#
# Static dielectric constant tensor:
#      x y z
#    x 4.533230 0.054740 -0.763090 
#    y 0.054740 4.814290 0.162720 
#    z -0.763090 0.162720 4.770360 
# 
# 
# High freq. dielectric constant tensor:
#      x y z
#    x 1.907500 -0.003610 -0.031730 
#    y -0.003610 1.933180 -0.002690 
#    z -0.031730 -0.002690 1.886790 
# 
# From -- ./inp_files/214772.got.cif
#   From: 2010.06.25/outbox.cif.g09.slc.cpg/sg2_108_cif.got.tgz:214772.got - 2010.06.27 13:26:56.
