data_PCOD8000604
_publ_section_title
;
Structure prediction by ZEFSAII (Michael W. Deem and Ramdas Pophale) SiO2 
 PCOD8000604
Probable space group: P -1
;
_chemical_formula_sum "Si O2"
_cell_formula_units_Z 16
_cell_length_a 22.170731
_cell_length_b 12.589038
_cell_length_c 8.995836
_cell_angle_alpha 115.809439
_cell_angle_beta 113.522980
_cell_angle_gamma 19.764155
_cell_volume 763.870929
_symmetry_space_group_name_H-M "P -1"
_symmetry_group_IT_number 2
_symmetry_cell_setting 'triclinic'
loop_
_space_group_symop_operation_xyz
x,y,z
-x,-y,-z
loop_
_atom_site_type_symbol
_atom_site_label
_atom_site_fract_x
_atom_site_fract_y
_atom_site_fract_z
Si Si1 0.926256 0.144482 0.790104
Si Si2 0.689671 0.216958 0.580182
Si Si3 0.671658 0.456811 0.532322
Si Si4 0.379447 0.115497 0.552667
Si Si5 0.961871 0.431825 0.653610
Si Si6 0.136291 0.607998 0.847492
Si Si7 0.852879 0.013417 0.195799
Si Si8 0.138937 0.127696 0.170145
O O1 0.819945 0.309079 0.627788
O O2 0.812983 0.394562 0.963612
O O3 0.006327 0.888326 0.772045
O O4 0.086582 0.964880 0.802591
O O5 0.500000 0.500000 0.500000
O O6 0.679731 0.375678 0.649966
O O7 0.704591 0.154502 0.728104
O O8 0.859966 0.873488 0.456684
O O9 0.708995 0.293684 0.346985
O O10 0.486431 0.821104 0.525254
O O11 0.199497 0.373868 0.454751
O O12 0.324463 0.271494 0.746231
O O13 0.500000 0.000000 0.500000
O O14 0.910838 0.652756 0.756965
O O15 0.993072 0.320508 0.777118
O O16 0.039996 0.647365 0.827247
O O17 0.777268 0.057341 0.016128
#
# Coordination Sequence:
#
# PCOD8000604 Si02
#       8
#     2   2   2   2   2   2   2   2
#     4  10  19  39  65  90 127 164 222 265 315 377
#     4  11  23  40  65  95 121 170 214 262 323 380
#     4  11  22  38  60  91 128 168 215 262 314 385
#     4  12  24  40  64  95 134 172 214 261 325 381
#     4  11  23  42  65  93 130 169 215 262 325 385
#     4  10  21  37  65  97 123 170 212 270 319 374
#     4  10  22  39  65  93 128 173 215 262 320 379
#     4  11  21  41  67  96 131 166 215 269 318 380
#
# _framework density 20.945948000000001
#
# number of rings (size 3 to 8) (size 9 to 14) (size 15 to 20)
#    0.000    1.250    2.500    4.125    1.750    0.500 
#    0.000    6.875    0.000    0.000    0.000    0.000 
#    0.000    0.000    0.000    0.000    0.000    0.000 
#
# Total GULP energy -198282.338142 kJ/mol
# GULP energy per Si atom -12392.646134 kJ/mol
# Density = 2.089827 g / cm^3
# Si number density = 20.945948 Si / 1000 Ang^3
#
#
#
# Elastic Constant Matrix: (Units=GPa)
#
#
# Indices 1 2 3 4 5 6 
#
# 1 86.5589 38.8389 32.7904 11.3701 5.0094 17.9041
# 2 38.8389 125.0163 70.4697 -1.1352 3.3396 10.3137
# 3 32.7904 70.4697 135.8770 -2.8229 3.1146 10.1304
# 4 11.3701 -1.1352 -2.8229 30.8491 4.8114 1.9131
# 5 5.0094 3.3396 3.1146 4.8114 28.0936 -3.7434
# 6 17.9041 10.3137 10.1304 1.9131 -3.7434 38.1314
#
#
#
# Elastic Compliance Matrix: (Units=1/GPa)
#
#
# Indices 1 2 3 4 5 6 
#
# 1 0.015803 -0.003497 -0.001618 -0.005404 -0.002094 -0.005979
# 2 -0.003497 0.012190 -0.005414 0.001341 -0.000499 -0.000333
# 3 -0.001618 -0.005414 0.010659 0.001513 -0.000608 -0.000743
# 4 -0.005404 0.001341 0.001513 0.035490 -0.005515 -0.000549
# 5 -0.002094 -0.000499 -0.000608 -0.005515 0.037741 0.005261
# 6 -0.005979 -0.000333 -0.000743 -0.000549 0.005261 0.029864
#
#
# Mechanical properties :
#
#
# Convention : Reuss Voigt Hill
#
# Bulk Modulus (GPa) = 56.84235 70.18333 63.51284
# Shear Modulus (GPa) = 29.64373 33.10502 31.37438
#
# Velocity S-wave (km/s) = 3.76606 3.97986 3.87444
# Velocity P-wave (km/s) = 6.79025 7.39585 7.09951
#
# Compressibility (1/GPa) = 0.01759252
#
# Stress axis : x y z
#
# Youngs Moduli (GPa) = 63.28037 82.03266 93.81856
#
# Poissons Ratio (x) = 0.28687 0.15184
# Poissons Ratio (y) = 0.22130 0.50795
# Poissons Ratio (z) = 0.10241 0.44414
#
# Static dielectric constant tensor:
#      x y z
#    x 4.121480 0.189020 -0.048900 
#    y 0.189020 3.657940 -0.008050 
#    z -0.048900 -0.008050 4.174320 
# 
# 
# High freq. dielectric constant tensor:
#      x y z
#    x 1.831730 0.019200 0.001610 
#    y 0.019200 1.803410 -0.005760 
#    z 0.001610 -0.005760 1.828700 
# 
# From -- ./inp_files/263522.got.cif
#   From: 2010.06.25/outbox.cif.g09.slc.cpg/sg2_132_cif.got.tgz:263522.got - 2010.06.27 13:26:56.
