data_PCOD8000293
_publ_section_title
;
Structure prediction by ZEFSAII (Michael W. Deem and Ramdas Pophale) SiO2 
 PCOD8000293
Probable space group: P 1
;
_chemical_formula_sum "Si O2"
_cell_formula_units_Z 8
_cell_length_a 12.272529
_cell_length_b 4.986301
_cell_length_c 16.096732
_cell_angle_alpha 61.683553
_cell_angle_beta 32.427094
_cell_angle_gamma 51.435341
_cell_volume 409.831502
_symmetry_space_group_name_H-M "P 1"
_symmetry_group_IT_number 1
_symmetry_cell_setting 'triclinic'
loop_
_space_group_symop_operation_xyz
x,y,z
loop_
_atom_site_type_symbol
_atom_site_label
_atom_site_fract_x
_atom_site_fract_y
_atom_site_fract_z
Si Si1 0.562380 0.633510 0.435830
Si Si2 0.050623 0.246247 0.242071
Si Si3 0.595621 0.306075 0.291372
Si Si4 0.119818 0.763930 0.794346
Si Si5 0.088529 0.094537 0.937993
Si Si6 0.271738 0.725557 0.034150
Si Si7 0.407094 0.691365 0.198357
Si Si8 0.628350 0.168845 0.990407
O O1 0.524769 0.436946 0.411219
O O2 0.339827 0.784768 0.614970
O O3 0.779885 0.370983 0.389491
O O4 0.607578 0.936612 0.327033
O O5 0.090987 0.575847 0.182739
O O6 0.186576 0.059062 0.098585
O O7 0.150242 0.979939 0.294661
O O8 0.403584 0.575451 0.312232
O O9 0.841659 0.280090 0.114986
O O10 0.157280 0.376864 0.818884
O O11 0.080454 0.867347 0.900610
O O12 0.900699 0.030596 0.842552
O O13 0.279564 0.841655 0.917883
O O14 0.528112 0.436620 0.938472
O O15 0.495563 0.355180 0.132694
O O16 0.585316 0.843275 0.049810
#
# Coordination Sequence:
#
# PCOD8000293 Si02
#       8
#     1   1   1   1   1   1   1   1
#     4  12  24  38  57  86 122 149 179 235 296 335
#     4  10  19  36  54  85 113 144 182 233 287 321
#     4  12  21  38  61  87 109 148 203 230 266 335
#     4  12  24  38  57  86 122 149 179 235 296 335
#     4  12  21  38  61  87 109 148 203 230 266 335
#     4  10  20  33  60  83 108 142 194 238 264 324
#     4  10  20  33  60  83 108 142 194 238 264 324
#     4  10  19  36  54  85 113 144 182 233 287 321
#
# _framework density 19.520216999999999
#
# number of rings (size 3 to 8) (size 9 to 14) (size 15 to 20)
#    0.000    1.000    5.000    3.000    0.000    0.000 
#    0.000    2.500    0.000    0.000    0.000    0.000 
#    0.000    0.000    0.000    0.000    0.000    0.000 
#
# Total GULP energy -99241.291646 kJ/mol
# GULP energy per Si atom -12405.161456 kJ/mol
# Density = 1.947579 g / cm^3
# Si number density = 19.520217 Si / 1000 Ang^3
#
#
#
# Elastic Constant Matrix: (Units=GPa)
#
#
# Indices 1 2 3 4 5 6 
#
# 1 122.6825 46.3163 30.0809 9.6945 -4.2270 -31.5994
# 2 46.3163 92.2709 25.2582 1.9049 -8.8430 -24.0978
# 3 30.0809 25.2582 62.8660 5.5364 -7.8001 -22.9134
# 4 9.6945 1.9049 5.5364 19.9653 0.0784 -4.9628
# 5 -4.2270 -8.8430 -7.8001 0.0784 22.8807 6.1869
# 6 -31.5994 -24.0978 -22.9134 -4.9628 6.1869 55.5536
#
#
#
# Elastic Compliance Matrix: (Units=1/GPa)
#
#
# Indices 1 2 3 4 5 6 
#
# 1 0.011483 -0.004246 -0.002333 -0.003638 -0.001260 0.003543
# 2 -0.004246 0.014664 -0.002666 0.002052 0.003246 0.002668
# 3 -0.002333 -0.002666 0.020844 -0.003074 0.004203 0.005371
# 4 -0.003638 0.002052 -0.003074 0.053138 -0.001785 0.002499
# 5 -0.001260 0.003246 0.004203 -0.001785 0.046967 -0.002966
# 6 0.003543 0.002668 0.005371 0.002499 -0.002966 0.023942
#
#
# Mechanical properties :
#
#
# Convention : Reuss Voigt Hill
#
# Bulk Modulus (GPa) = 35.08554 53.45891 44.27223
# Shear Modulus (GPa) = 25.12211 31.42421 28.27316
#
# Velocity S-wave (km/s) = 3.59134 4.01662 3.80992
# Velocity P-wave (km/s) = 5.93380 6.99692 6.48717
#
# Compressibility (1/GPa) = 0.02850177
#
# Stress axis : x y z
#
# Youngs Moduli (GPa) = 87.08822 68.19413 47.97505
#
# Poissons Ratio (x) = 0.28952 0.11194
# Poissons Ratio (y) = 0.36974 0.12789
# Poissons Ratio (z) = 0.20320 0.18178
#
# Static dielectric constant tensor:
#      x y z
#    x 3.917790 -0.188520 -0.076000 
#    y -0.188520 3.762890 0.044200 
#    z -0.076000 0.044200 2.950390 
# 
# 
# High freq. dielectric constant tensor:
#      x y z
#    x 1.786600 -0.001000 -0.004960 
#    y -0.001000 1.779490 0.002490 
#    z -0.004960 0.002490 1.699860 
# 
# From -- ./inp_files/1448.got.cif
#   From: 2010.03.12/outbox.cif.g09.slc.cpg/sg1_1_cif.got.tgz:1448.got - 2010.03.29 11:57:58.
