data_PCOD8000077
_publ_section_title
;
Structure prediction by ZEFSAII (Michael W. Deem and Ramdas Pophale) SiO2 
 PCOD8000077
Probable space group: P 1
;
_chemical_formula_sum "Si O2"
_cell_formula_units_Z 8
_cell_length_a 6.572877
_cell_length_b 8.078111
_cell_length_c 12.406647
_cell_angle_alpha 66.102650
_cell_angle_beta 124.154581
_cell_angle_gamma 73.310682
_cell_volume 365.347467
_symmetry_space_group_name_H-M "P 1"
_symmetry_group_IT_number 1
_symmetry_cell_setting 'triclinic'
loop_
_space_group_symop_operation_xyz
x,y,z
loop_
_atom_site_type_symbol
_atom_site_label
_atom_site_fract_x
_atom_site_fract_y
_atom_site_fract_z
Si Si1 0.848610 0.528720 0.634040
Si Si2 0.234177 0.795581 0.085218
Si Si3 0.757963 0.773540 0.325784
Si Si4 0.907359 0.103250 0.716636
Si Si5 0.293612 0.632566 0.811362
Si Si6 0.792588 0.383160 0.200784
Si Si7 0.206234 0.843859 0.504610
Si Si8 0.181264 0.524197 0.310758
O O1 0.804865 0.608282 0.478086
O O2 0.032137 0.242488 0.750898
O O3 0.481829 0.680601 0.536563
O O4 0.051932 0.577434 0.749724
O O5 0.387488 0.917717 0.130649
O O6 0.520032 0.540937 0.172962
O O7 0.129544 0.737825 0.175232
O O8 0.910069 0.991443 0.861055
O O9 0.840123 0.933897 0.349478
O O10 0.044925 0.597639 0.370665
O O11 0.565975 0.275504 0.503637
O O12 0.162806 0.869995 0.777139
O O13 0.370962 0.673127 0.705351
O O14 0.626502 0.396730 0.035447
O O15 0.975635 0.477072 0.196466
O O16 0.093893 0.107634 0.409281
#
# Coordination Sequence:
#
# PCOD8000077 Si02
#       8
#     1   1   1   1   1   1   1   1
#     4  11  23  44  65  96 132 167 214 265 321 377
#     4  10  22  41  63  98 124 166 216 258 320 381
#     4  10  21  41  62  92 131 161 214 261 313 382
#     4  11  22  43  69  92 128 172 207 269 318 374
#     4  10  25  43  62  99 130 165 217 260 319 384
#     4  10  24  40  65  93 127 171 207 267 316 378
#     4  11  22  42  64  93 130 169 207 266 320 376
#     4  11  21  42  64  93 128 165 216 258 317 382
#
# _framework density 21.896963
#
# number of rings (size 3 to 8) (size 9 to 14) (size 15 to 20)
#    0.000    1.500    2.500    1.500    3.500    4.000 
#    9.000    0.000    0.000    0.000    0.000    0.000 
#    0.000    0.000    0.000    0.000    0.000    0.000 
#
# Total GULP energy -99117.069546 kJ/mol
# GULP energy per Si atom -12389.633693 kJ/mol
# Density = 2.184712 g / cm^3
# Si number density = 21.896963 Si / 1000 Ang^3
#
#
#
# Elastic Constant Matrix: (Units=GPa)
#
#
# Indices 1 2 3 4 5 6 
#
# 1 119.0649 33.8123 41.7501 9.8100 -22.1354 9.5558
# 2 33.8123 96.2148 12.2817 6.5325 -3.3101 14.3340
# 3 41.7501 12.2817 103.8664 16.5829 -17.2200 4.1174
# 4 9.8100 6.5325 16.5829 29.8840 3.1497 -0.4635
# 5 -22.1354 -3.3101 -17.2200 3.1497 30.6971 11.8661
# 6 9.5558 14.3340 4.1174 -0.4635 11.8661 26.4574
#
#
#
# Elastic Compliance Matrix: (Units=1/GPa)
#
#
# Indices 1 2 3 4 5 6 
#
# 1 0.012925 -0.002381 -0.002046 -0.003930 0.011527 -0.008298
# 2 -0.002381 0.012573 0.000778 -0.002865 0.003310 -0.007607
# 3 -0.002046 0.000778 0.013426 -0.008025 0.009318 -0.006091
# 4 -0.003930 -0.002865 -0.008025 0.041791 -0.016752 0.012466
# 5 0.011527 0.003310 0.009318 -0.016752 0.061898 -0.035461
# 6 -0.008298 -0.007607 -0.006091 0.012466 -0.035461 0.061985
#
#
# Mechanical properties :
#
#
# Convention : Reuss Voigt Hill
#
# Bulk Modulus (GPa) = 31.62082 54.98157 43.30119
# Shear Modulus (GPa) = 22.47803 32.82785 27.65294
#
# Velocity S-wave (km/s) = 3.20744 3.87615 3.55754
# Velocity P-wave (km/s) = 5.30933 6.72283 6.05745
#
# Compressibility (1/GPa) = 0.03162474
#
# Stress axis : x y z
#
# Youngs Moduli (GPa) = 77.36719 79.53770 74.48341
#
# Poissons Ratio (x) = 0.18941 0.15242
# Poissons Ratio (y) = 0.18424 -0.05797
# Poissons Ratio (z) = 0.15833 -0.06190
#
# Static dielectric constant tensor:
#      x y z
#    x 4.009660 0.301870 -0.024840 
#    y 0.301870 3.992920 0.312440 
#    z -0.024840 0.312440 4.122040 
# 
# 
# High freq. dielectric constant tensor:
#      x y z
#    x 1.857620 0.015800 -0.012350 
#    y 0.015800 1.856570 0.018930 
#    z -0.012350 0.018930 1.866290 
# 
# From -- ./inp_files/991.got.cif
#   From: 2010.03.12/outbox.cif.g09.slc.cpg/sg1_1_cif.got.tgz:991.got - 2010.03.29 11:57:58.
