data_PCOD8000861
_publ_section_title
;
Structure prediction by ZEFSAII (Michael W. Deem and Ramdas Pophale) SiO2 
 PCOD8000861
Probable space group: P -1
;
_chemical_formula_sum "Si O2"
_cell_formula_units_Z 16
_cell_length_a 9.514988
_cell_length_b 11.208970
_cell_length_c 12.214841
_cell_angle_alpha 105.211337
_cell_angle_beta 134.430311
_cell_angle_gamma 60.836759
_cell_volume 805.865065
_symmetry_space_group_name_H-M "P -1"
_symmetry_group_IT_number 2
_symmetry_cell_setting 'triclinic'
loop_
_space_group_symop_operation_xyz
x,y,z
-x,-y,-z
loop_
_atom_site_type_symbol
_atom_site_label
_atom_site_fract_x
_atom_site_fract_y
_atom_site_fract_z
Si Si1 0.786018 0.901899 0.563060
Si Si2 0.932185 0.107283 0.086494
Si Si3 0.454973 0.195581 0.446251
Si Si4 0.890209 0.643914 0.103287
Si Si5 0.851415 0.148094 0.402901
Si Si6 0.560781 0.125828 0.048802
Si Si7 0.694977 0.349804 0.564597
Si Si8 0.051063 0.327711 0.104575
O O1 0.671940 0.805485 0.512352
O O2 0.876836 0.946226 0.731518
O O3 0.980725 0.813569 0.565842
O O4 0.603134 0.041761 0.443349
O O5 0.709510 0.116604 0.021834
O O6 0.911646 0.252792 0.061906
O O7 0.000000 0.000000 0.000000
O O8 0.616113 0.263327 0.582623
O O9 0.284682 0.280848 0.279567
O O10 0.079109 0.651814 0.280752
O O11 0.908424 0.491217 0.076531
O O12 0.661286 0.736883 0.058203
O O13 0.900892 0.705448 0.005278
O O14 0.674066 0.135806 0.224935
O O15 0.724115 0.273925 0.445358
O O16 0.000000 0.000000 0.500000
O O17 0.500000 0.000000 0.000000
O O18 0.500000 0.500000 0.500000
#
# Coordination Sequence:
#
# PCOD8000861 Si02
#       8
#     2   2   2   2   2   2   2   2
#     4   9  21  38  64  91 122 161 211 258 321 371
#     4  10  22  40  63  95 125 162 209 264 318 380
#     4  10  19  40  64  90 119 166 206 262 313 375
#     4  11  24  40  61  94 125 165 214 258 318 382
#     4  11  22  40  65  92 125 165 210 265 312 371
#     4  11  24  41  64  97 128 162 211 268 317 382
#     4  12  24  40  64  93 129 169 215 257 314 383
#     4  10  22  41  65  86 126 169 209 259 322 379
#
# _framework density 19.854441000000001
#
# number of rings (size 3 to 8) (size 9 to 14) (size 15 to 20)
#    0.000    1.500    2.500    2.250    5.250    1.500 
#    6.750    0.625    0.000    0.000    0.000    0.000 
#    0.000    0.000    0.000    0.000    0.000    0.000 
#
# Total GULP energy -198341.332003 kJ/mol
# GULP energy per Si atom -12396.333250 kJ/mol
# Density = 1.980925 g / cm^3
# Si number density = 19.854441 Si / 1000 Ang^3
#
#
#
# Elastic Constant Matrix: (Units=GPa)
#
#
# Indices 1 2 3 4 5 6 
#
# 1 156.4807 82.0786 41.5661 6.2291 20.6164 3.2922
# 2 82.0786 115.2794 41.8699 -1.9176 -0.2044 -8.8807
# 3 41.5661 41.8699 76.3688 -8.6910 6.8770 -9.5320
# 4 6.2291 -1.9176 -8.6910 33.7325 0.0473 3.9574
# 5 20.6164 -0.2044 6.8770 0.0473 31.1884 -0.0990
# 6 3.2922 -8.8807 -9.5320 3.9574 -0.0990 39.9302
#
#
#
# Elastic Compliance Matrix: (Units=1/GPa)
#
#
# Indices 1 2 3 4 5 6 
#
# 1 0.012706 -0.008536 -0.002264 -0.003027 -0.007962 -0.003206
# 2 -0.008536 0.016704 -0.004610 0.000948 0.006777 0.003241
# 3 -0.002264 -0.004610 0.017957 0.004434 -0.002491 0.003003
# 4 -0.003027 0.000948 0.004434 0.031588 0.000977 -0.001609
# 5 -0.007962 0.006777 -0.002491 0.000977 0.037923 0.001566
# 6 -0.003206 0.003241 0.003003 -0.001609 0.001566 0.026909
#
#
# Mechanical properties :
#
#
# Convention : Reuss Voigt Hill
#
# Bulk Modulus (GPa) = 60.42822 75.46201 67.94511
# Shear Modulus (GPa) = 27.75881 33.14450 30.45166
#
# Velocity S-wave (km/s) = 3.74320 4.09023 3.92055
# Velocity P-wave (km/s) = 7.01311 7.77154 7.40204
#
# Compressibility (1/GPa) = 0.01654856
#
# Stress axis : x y z
#
# Youngs Moduli (GPa) = 78.70187 59.86548 55.68723
#
# Poissons Ratio (x) = 0.51102 0.12605
# Poissons Ratio (y) = 0.67181 0.25672
# Poissons Ratio (z) = 0.17814 0.27598
#
# Static dielectric constant tensor:
#      x y z
#    x 3.971780 0.122020 0.071130 
#    y 0.122020 3.608070 -0.103310 
#    z 0.071130 -0.103310 3.736750 
# 
# 
# High freq. dielectric constant tensor:
#      x y z
#    x 1.790710 0.006490 0.012270 
#    y 0.006490 1.766450 -0.006970 
#    z 0.012270 -0.006970 1.773910 
# 
# From -- ./inp_files/390514.got.cif
#   From: 2010.06.25/outbox.cif.g09.slc.cpg/sg2_196_cif.got.tgz:390514.got - 2010.06.27 13:26:56.
