data_PCOD8000438
_publ_section_title
;
Structure prediction by ZEFSAII (Michael W. Deem and Ramdas Pophale) SiO2 
 PCOD8000438
Probable space group: P -1
;
_chemical_formula_sum "Si O2"
_cell_formula_units_Z 16
_cell_length_a 9.410551
_cell_length_b 11.577626
_cell_length_c 21.281562
_cell_angle_alpha 38.775080
_cell_angle_beta 140.981390
_cell_angle_gamma 143.399807
_cell_volume 791.769875
_symmetry_space_group_name_H-M "P -1"
_symmetry_group_IT_number 2
_symmetry_cell_setting 'triclinic'
loop_
_space_group_symop_operation_xyz
x,y,z
-x,-y,-z
loop_
_atom_site_type_symbol
_atom_site_label
_atom_site_fract_x
_atom_site_fract_y
_atom_site_fract_z
Si Si1 0.565919 0.870320 0.386632
Si Si2 0.574184 0.272546 0.731706
Si Si3 0.926897 0.702614 0.448532
Si Si4 0.372392 0.881601 0.908030
Si Si5 0.635767 0.790525 0.142291
Si Si6 0.916979 0.891204 0.599204
Si Si7 0.137935 0.437476 0.190240
Si Si8 0.100963 0.734058 0.359063
O O1 0.397551 0.703350 0.344149
O O2 0.690106 0.772242 0.519952
O O3 0.366389 0.915563 0.339235
O O4 0.809756 0.075117 0.350429
O O5 0.352663 0.327296 0.655774
O O6 0.840299 0.433776 0.791871
O O7 0.495420 0.031370 0.825987
O O8 0.905555 0.488947 0.559372
O O9 0.108987 0.780258 0.416214
O O10 0.050219 0.878578 0.471115
O O11 0.134169 0.652058 0.901992
O O12 0.275794 0.000763 0.872828
O O13 0.587016 0.841983 0.032798
O O14 0.368489 0.588537 0.159399
O O15 0.859305 0.729207 0.242996
O O16 0.844463 0.766311 0.693136
#
# Coordination Sequence:
#
# PCOD8000438 Si02
#       8
#     2   2   2   2   2   2   2   2
#     4  10  22  36  57  84 123 154 191 235 286 347
#     4  10  20  39  60  86 116 156 195 235 281 350
#     4  10  20  37  56  83 124 149 187 238 293 341
#     4  10  19  39  62  87 112 150 202 242 278 345
#     4  10  22  37  60  91 116 147 195 246 293 331
#     4  10  21  37  57  88 114 160 200 224 280 363
#     4  11  18  35  65  83 111 149 201 242 278 334
#     4  11  21  37  54  87 123 153 181 243 302 335
#
# _framework density 20.207892000000001
#
# number of rings (size 3 to 8) (size 9 to 14) (size 15 to 20)
#    0.000    1.750    5.000    1.125    1.750    6.000 
#    2.250    0.625    0.000    0.750    0.000    0.000 
#    0.000    0.000    0.000    0.000    0.000    0.000 
#
# Total GULP energy -198248.541794 kJ/mol
# GULP energy per Si atom -12390.533862 kJ/mol
# Density = 2.016190 g / cm^3
# Si number density = 20.207892 Si / 1000 Ang^3
#
#
#
# Elastic Constant Matrix: (Units=GPa)
#
#
# Indices 1 2 3 4 5 6 
#
# 1 90.9415 30.1184 30.9343 7.3308 -6.2166 4.5908
# 2 30.1184 102.8260 34.4809 20.3543 -3.9416 -1.9997
# 3 30.9343 34.4809 122.2433 11.7187 -7.4898 -0.2710
# 4 7.3308 20.3543 11.7187 33.2427 -5.7507 -6.1218
# 5 -6.2166 -3.9416 -7.4898 -5.7507 19.1304 10.3414
# 6 4.5908 -1.9997 -0.2710 -6.1218 10.3414 14.9944
#
#
#
# Elastic Compliance Matrix: (Units=1/GPa)
#
#
# Indices 1 2 3 4 5 6 
#
# 1 0.013973 -0.003084 -0.002049 -0.001008 0.008893 -0.011271
# 2 -0.003084 0.012596 -0.002281 -0.006315 -0.001915 0.001325
# 3 -0.002049 -0.002281 0.009695 -0.001417 0.003631 -0.002584
# 4 -0.001008 -0.006315 -0.001417 0.037466 0.001774 0.013513
# 5 0.008893 -0.001915 0.003631 0.001774 0.092328 -0.065865
# 6 -0.011271 0.001325 -0.002584 0.013513 -0.065865 0.121215
#
#
# Mechanical properties :
#
#
# Convention : Reuss Voigt Hill
#
# Bulk Modulus (GPa) = 46.65597 56.34199 51.49898
# Shear Modulus (GPa) = 16.16829 28.17199 22.17014
#
# Velocity S-wave (km/s) = 2.83167 3.73783 3.31585
# Velocity P-wave (km/s) = 5.81629 6.82423 6.34032
#
# Compressibility (1/GPa) = 0.02143348
#
# Stress axis : x y z
#
# Youngs Moduli (GPa) = 71.56790 79.38960 103.14528
#
# Poissons Ratio (x) = 0.24486 0.21139
# Poissons Ratio (y) = 0.22074 0.23532
# Poissons Ratio (z) = 0.14667 0.18112
#
# Static dielectric constant tensor:
#      x y z
#    x 3.487450 0.023040 -0.240230 
#    y 0.023040 3.682320 0.112290 
#    z -0.240230 0.112290 3.737430 
# 
# 
# High freq. dielectric constant tensor:
#      x y z
#    x 1.758770 0.002210 -0.035330 
#    y 0.002210 1.785120 0.013130 
#    z -0.035330 0.013130 1.783890 
# 
# From -- ./inp_files/589509.got.cif
#   From: 2010.06.25/outbox.cif.g09.slc.cpg/sg2_295_cif.got.tgz:589509.got - 2010.06.27 13:26:56.
