data_PCOD8000194
_publ_section_title
;
Structure prediction by ZEFSAII (Michael W. Deem and Ramdas Pophale) SiO2 
 PCOD8000194
Probable space group: P 1
;
_chemical_formula_sum "Si O2"
_cell_formula_units_Z 8
_cell_length_a 8.185755
_cell_length_b 7.416657
_cell_length_c 8.858295
_cell_angle_alpha 101.947197
_cell_angle_beta 109.148102
_cell_angle_gamma 126.516783
_cell_volume 346.304477
_symmetry_space_group_name_H-M "P 1"
_symmetry_group_IT_number 1
_symmetry_cell_setting 'triclinic'
loop_
_space_group_symop_operation_xyz
x,y,z
loop_
_atom_site_type_symbol
_atom_site_label
_atom_site_fract_x
_atom_site_fract_y
_atom_site_fract_z
Si Si1 0.514230 0.754840 0.273570
Si Si2 0.699721 0.281082 0.348834
Si Si3 0.360125 0.977402 0.670822
Si Si4 0.062318 0.066547 0.499189
Si Si5 0.253464 0.026927 0.976709
Si Si6 0.856861 0.440514 0.748992
Si Si7 0.175761 0.338077 0.872544
Si Si8 0.170771 0.474544 0.397507
O O1 0.286049 0.536933 0.278565
O O2 0.560288 0.005894 0.339732
O O3 0.423088 0.630158 0.056488
O O4 0.767659 0.841235 0.404580
O O5 0.835987 0.479574 0.569477
O O6 0.897049 0.358023 0.298216
O O7 0.488244 0.240778 0.196550
O O8 0.355903 0.009894 0.852901
O O9 0.346922 0.746938 0.596514
O O10 0.135445 0.906556 0.496775
O O11 0.600511 0.261664 0.726301
O O12 0.225263 0.292125 0.715875
O O13 0.141238 0.241637 0.406039
O O14 0.049571 0.731881 0.932931
O O15 0.120983 0.122607 0.929156
O O16 0.945205 0.299379 0.780902
#
# Coordination Sequence:
#
# PCOD8000194 Si02
#       8
#     1   1   1   1   1   1   1   1
#     4  11  23  43  68  94 136 171 218 269 329 389
#     4  11  23  42  68  96 134 174 217 269 324 392
#     4  11  24  41  71  96 129 176 219 268 327 391
#     4  10  24  45  62  99 133 170 219 272 321 392
#     4  11  26  42  67  99 133 177 218 269 331 384
#     4  12  23  47  66  95 141 169 222 273 322 392
#     4  11  23  43  67  96 132 175 214 271 326 387
#     4  11  22  43  67  95 128 176 215 267 332 379
#
# _framework density 23.101056
#
# number of rings (size 3 to 8) (size 9 to 14) (size 15 to 20)
#    0.000    1.000    6.250    0.000    3.500    4.000 
#    0.000    5.000    0.000    0.000    0.000    0.000 
#    0.000    0.000    0.000    0.000    0.000    0.000 
#
# Total GULP energy -99165.567064 kJ/mol
# GULP energy per Si atom -12395.695883 kJ/mol
# Density = 2.304848 g / cm^3
# Si number density = 23.101056 Si / 1000 Ang^3
#
#
#
# Elastic Constant Matrix: (Units=GPa)
#
#
# Indices 1 2 3 4 5 6 
#
# 1 62.2136 28.6995 20.4794 -5.9472 22.0322 2.5309
# 2 28.6995 90.4133 11.4802 -3.7945 15.4938 15.4226
# 3 20.4794 11.4802 112.2736 5.6301 16.3276 5.3736
# 4 -5.9472 -3.7945 5.6301 25.6399 -8.4553 2.1181
# 5 22.0322 15.4938 16.3276 -8.4553 33.7056 -0.3693
# 6 2.5309 15.4226 5.3736 2.1181 -0.3693 39.6545
#
#
#
# Elastic Compliance Matrix: (Units=1/GPa)
#
#
# Indices 1 2 3 4 5 6 
#
# 1 0.023361 -0.005231 -0.002149 0.001270 -0.011499 0.000660
# 2 -0.005231 0.014142 0.000212 0.000215 -0.003188 -0.005236
# 3 -0.002149 0.000212 0.010226 -0.004169 -0.004704 -0.001152
# 4 0.001270 0.000215 -0.004169 0.044425 0.012215 -0.001859
# 5 -0.011499 -0.003188 -0.004704 0.012215 0.044019 0.002369
# 6 0.000660 -0.005236 -0.001152 -0.001859 0.002369 0.027490
#
#
# Mechanical properties :
#
#
# Convention : Reuss Voigt Hill
#
# Bulk Modulus (GPa) = 29.94835 42.91321 36.43078
# Shear Modulus (GPa) = 26.43670 33.41611 29.92640
#
# Velocity S-wave (km/s) = 3.38656 3.80744 3.60315
# Velocity P-wave (km/s) = 5.31826 6.15998 5.75453
#
# Compressibility (1/GPa) = 0.03339082
#
# Stress axis : x y z
#
# Youngs Moduli (GPa) = 42.80633 70.70921 97.79465
#
# Poissons Ratio (x) = 0.36990 0.21019
# Poissons Ratio (y) = 0.22393 -0.02069
# Poissons Ratio (z) = 0.09201 -0.01496
#
# Static dielectric constant tensor:
#      x y z
#    x 4.037870 -0.191420 0.146670 
#    y -0.191420 4.147870 0.058840 
#    z 0.146670 0.058840 4.203120 
# 
# 
# High freq. dielectric constant tensor:
#      x y z
#    x 1.898530 -0.012720 0.008770 
#    y -0.012720 1.918120 0.009600 
#    z 0.008770 0.009600 1.907240 
# 
# From -- ./inp_files/4228.got.cif
#   From: 2010.03.12/outbox.cif.g09.slc.cpg/sg1_3_cif.got.tgz:4228.got - 2010.03.29 11:57:58.
