data_PCOD8000357
_publ_section_title
;
Structure prediction by ZEFSAII (Michael W. Deem and Ramdas Pophale) SiO2 
 PCOD8000357
Probable space group: P -1
;
_chemical_formula_sum "Si O2"
_cell_formula_units_Z 14
_cell_length_a 17.488250
_cell_length_b 21.003219
_cell_length_c 9.056397
_cell_angle_alpha 40.943504
_cell_angle_beta 131.733298
_cell_angle_gamma 162.195631
_cell_volume 642.333034
_symmetry_space_group_name_H-M "P -1"
_symmetry_group_IT_number 2
_symmetry_cell_setting 'triclinic'
loop_
_space_group_symop_operation_xyz
x,y,z
-x,-y,-z
loop_
_atom_site_type_symbol
_atom_site_label
_atom_site_fract_x
_atom_site_fract_y
_atom_site_fract_z
Si Si1 0.342725 0.565937 0.137111
Si Si2 0.798920 0.525494 0.200594
Si Si3 0.748225 0.305260 0.112291
Si Si4 0.160249 0.914863 0.231253
Si Si5 0.375095 0.311850 0.065553
Si Si6 0.846662 0.761343 0.328696
Si Si7 0.408507 0.843752 0.507117
O O1 0.293282 0.421387 0.405017
O O2 0.150020 0.409025 0.022760
O O3 0.302446 0.623669 0.093213
O O4 0.641996 0.826792 0.012568
O O5 0.745684 0.362976 0.439347
O O6 0.038713 0.764637 0.189381
O O7 0.540765 0.358705 0.205145
O O8 0.768697 0.294074 0.332628
O O9 0.497667 0.022247 0.229685
O O10 0.000000 0.500000 0.000000
O O11 0.943559 0.771794 0.307931
O O12 0.320784 0.971748 0.420862
O O13 0.362002 0.347188 0.822320
O O14 0.500000 0.500000 0.000000
O O15 0.083004 0.028804 0.235082
#
# Coordination Sequence:
#
# PCOD8000357 Si02
#       7
#     2   2   2   2   2   2   2
#     4  10  23  39  59  89 114 151 194 235 291 342
#     4  10  20  39  58  84 123 153 188 240 284 334
#     4   9  17  34  60  82 112 149 188 234 284 339
#     4  10  19  39  60  82 120 153 190 235 284 339
#     4  11  22  38  61  88 113 154 197 232 288 341
#     4  11  22  39  62  83 117 153 192 241 284 338
#     4   9  19  35  56  85 113 152 192 227 285 342
#
# _framework density 21.795546999999999
#
# number of rings (size 3 to 8) (size 9 to 14) (size 15 to 20)
#    0.000    2.286    4.286    0.857    0.000    1.714 
#    0.000   12.857    0.000   15.429    0.000    0.000 
#    0.000    0.000    0.000    0.000    0.000    0.000 
#
# Total GULP energy -173463.788742 kJ/mol
# GULP energy per Si atom -12390.270624 kJ/mol
# Density = 2.174594 g / cm^3
# Si number density = 21.795547 Si / 1000 Ang^3
#
#
#
# Elastic Constant Matrix: (Units=GPa)
#
#
# Indices 1 2 3 4 5 6 
#
# 1 71.3445 7.5857 -5.2755 -8.3258 -2.0383 -20.7548
# 2 7.5857 80.8220 20.0307 -2.9532 3.4082 -33.6433
# 3 -5.2755 20.0307 86.3608 -21.2700 12.1841 -18.4469
# 4 -8.3258 -2.9532 -21.2700 19.4923 -0.1734 7.5612
# 5 -2.0383 3.4082 12.1841 -0.1734 29.5645 -14.9783
# 6 -20.7548 -33.6433 -18.4469 7.5612 -14.9783 42.3086
#
#
#
# Elastic Compliance Matrix: (Units=1/GPa)
#
#
# Indices 1 2 3 4 5 6 
#
# 1 0.019617 0.003376 0.004741 0.008179 0.006823 0.015329
# 2 0.003376 0.021431 -0.003311 -0.007465 0.010358 0.022255
# 3 0.004741 -0.003311 0.019280 0.021703 -0.006058 0.002076
# 4 0.008179 -0.007465 0.021703 0.081753 -0.012945 -0.011654
# 5 0.006823 0.010358 -0.006058 -0.012945 0.050234 0.029040
# 6 0.015329 0.022255 0.002076 -0.011654 0.029040 0.062122
#
#
# Mechanical properties :
#
#
# Convention : Reuss Voigt Hill
#
# Bulk Modulus (GPa) = 14.29779 31.46770 22.88274
# Shear Modulus (GPa) = 18.64711 32.68549 25.66630
#
# Velocity S-wave (km/s) = 2.92815 3.87672 3.43533
# Velocity P-wave (km/s) = 4.24338 5.87432 5.12415
#
# Compressibility (1/GPa) = 0.06994087
#
# Stress axis : x y z
#
# Youngs Moduli (GPa) = 50.97664 46.66127 51.86628
#
# Poissons Ratio (x) = -0.15751 -0.24592
# Poissons Ratio (y) = -0.17208 0.17171
# Poissons Ratio (z) = -0.24170 0.15448
#
# Static dielectric constant tensor:
#      x y z
#    x 4.429890 -0.282330 0.203300 
#    y -0.282330 3.845980 -0.103880 
#    z 0.203300 -0.103880 3.856970 
# 
# 
# High freq. dielectric constant tensor:
#      x y z
#    x 1.879470 -0.007780 0.026740 
#    y -0.007780 1.836980 -0.016710 
#    z 0.026740 -0.016710 1.830990 
# 
# From -- ./inp_files/337599.got.cif
#   From: 2010.06.25/outbox.cif.g09.slc.cpg/sg2_169_cif.got.tgz:337599.got - 2010.06.27 13:26:56.
