data_PCOD8000413
_publ_section_title
;
Structure prediction by ZEFSAII (Michael W. Deem and Ramdas Pophale) SiO2 
 PCOD8000413
Probable space group: P -1
;
_chemical_formula_sum "Si O2"
_cell_formula_units_Z 16
_cell_length_a 15.897087
_cell_length_b 12.660188
_cell_length_c 11.925856
_cell_angle_alpha 94.725074
_cell_angle_beta 66.611612
_cell_angle_gamma 153.428367
_cell_volume 736.744015
_symmetry_space_group_name_H-M "P -1"
_symmetry_group_IT_number 2
_symmetry_cell_setting 'triclinic'
loop_
_space_group_symop_operation_xyz
x,y,z
-x,-y,-z
loop_
_atom_site_type_symbol
_atom_site_label
_atom_site_fract_x
_atom_site_fract_y
_atom_site_fract_z
Si Si1 0.943388 0.363356 0.744064
Si Si2 0.723562 0.261416 0.594663
Si Si3 0.569007 0.746793 0.510917
Si Si4 0.386310 0.656929 0.932271
Si Si5 0.897633 0.550821 0.733219
Si Si6 0.682541 0.650580 0.015772
Si Si7 0.249038 0.577511 0.764633
Si Si8 0.693795 0.722576 0.260830
O O1 0.196623 0.596604 0.553371
O O2 0.973707 0.334733 0.843920
O O3 0.964863 0.513908 0.759164
O O4 0.654330 0.020770 0.811236
O O5 0.680205 0.295624 0.724129
O O6 0.000000 0.500000 0.500000
O O7 0.469389 0.910291 0.680368
O O8 0.322543 0.562061 0.638867
O O9 0.603578 0.735763 0.366676
O O10 0.520804 0.599642 0.611982
O O11 0.838258 0.106843 0.431880
O O12 0.459368 0.613033 0.893022
O O13 0.199543 0.477033 0.906305
O O14 0.225507 0.503901 0.117119
O O15 0.677553 0.720708 0.134719
O O16 0.500000 0.500000 0.000000
O O17 0.996764 0.973189 0.839621
#
# Coordination Sequence:
#
# PCOD8000413 Si02
#       8
#     2   2   2   2   2   2   2   2
#     4  11  24  39  65  99 128 170 215 254 314 388
#     4  10  19  39  61  90 132 167 206 257 309 369
#     4  11  21  42  69  93 127 170 212 263 325 366
#     4  12  24  44  65  90 132 174 204 267 327 376
#     4  11  22  42  65  94 136 170 209 263 317 377
#     4  11  25  46  69  95 127 165 216 266 324 381
#     4  12  23  41  67  93 131 175 210 259 316 381
#     4  10  24  45  69  93 127 166 214 274 316 373
#
# _framework density 21.717175999999998
#
# number of rings (size 3 to 8) (size 9 to 14) (size 15 to 20)
#    0.000    1.000    7.500    0.750    1.750    0.500 
#    2.250    2.500    0.000    0.000    0.000    0.000 
#    0.000    0.000    0.000    0.000    0.000    0.000 
#
# Total GULP energy -198298.457629 kJ/mol
# GULP energy per Si atom -12393.653602 kJ/mol
# Density = 2.166775 g / cm^3
# Si number density = 21.717176 Si / 1000 Ang^3
#
#
#
# Elastic Constant Matrix: (Units=GPa)
#
#
# Indices 1 2 3 4 5 6 
#
# 1 82.5302 46.2679 2.0946 6.5106 14.7124 8.6704
# 2 46.2679 90.0369 28.0428 14.5986 -0.6427 -4.2756
# 3 2.0946 28.0428 73.6402 17.5654 1.6952 -0.3621
# 4 6.5106 14.5986 17.5654 37.5469 -7.3630 9.1834
# 5 14.7124 -0.6427 1.6952 -7.3630 24.7058 2.0016
# 6 8.6704 -4.2756 -0.3621 9.1834 2.0016 41.3907
#
#
#
# Elastic Compliance Matrix: (Units=1/GPa)
#
#
# Indices 1 2 3 4 5 6 
#
# 1 0.022772 -0.013221 0.005450 -0.003122 -0.014830 -0.004679
# 2 -0.013221 0.020769 -0.007195 -0.002075 0.007889 0.004931
# 3 0.005450 -0.007195 0.018293 -0.008221 -0.007174 0.000446
# 4 -0.003122 -0.002075 -0.008221 0.036630 0.013969 -0.008435
# 5 -0.014830 0.007889 -0.007174 0.013969 0.054320 -0.001867
# 6 -0.004679 0.004931 0.000446 -0.008435 -0.001867 0.027615
#
#
# Mechanical properties :
#
#
# Convention : Reuss Voigt Hill
#
# Bulk Modulus (GPa) = 31.34731 44.33534 37.84132
# Shear Modulus (GPa) = 22.62798 32.04880 27.33839
#
# Velocity S-wave (km/s) = 3.23141 3.84570 3.55186
# Velocity P-wave (km/s) = 5.32807 6.33864 5.85520
#
# Compressibility (1/GPa) = 0.03190066
#
# Stress axis : x y z
#
# Youngs Moduli (GPa) = 43.91342 48.14939 54.66606
#
# Poissons Ratio (x) = 0.63660 -0.29793
# Poissons Ratio (y) = 0.58060 0.39333
# Poissons Ratio (z) = -0.23933 0.34644
#
# Static dielectric constant tensor:
#      x y z
#    x 3.822290 -0.027840 0.272510 
#    y -0.027840 4.276360 0.395660 
#    z 0.272510 0.395660 4.210650 
# 
# 
# High freq. dielectric constant tensor:
#      x y z
#    x 1.829510 -0.020760 0.018770 
#    y -0.020760 1.860480 0.011040 
#    z 0.018770 0.011040 1.854210 
# 
# From -- ./inp_files/313294.got.cif
#   From: 2010.06.25/outbox.cif.g09.slc.cpg/sg2_157_cif.got.tgz:313294.got - 2010.06.27 13:26:56.
