data_PCOD8000647
_publ_section_title
;
Structure prediction by ZEFSAII (Michael W. Deem and Ramdas Pophale) SiO2 
 PCOD8000647
Probable space group: P -1
;
_chemical_formula_sum "Si O2"
_cell_formula_units_Z 16
_cell_length_a 12.271416
_cell_length_b 8.860035
_cell_length_c 14.197427
_cell_angle_alpha 34.159601
_cell_angle_beta 67.889791
_cell_angle_gamma 82.900217
_cell_volume 748.816668
_symmetry_space_group_name_H-M "P -1"
_symmetry_group_IT_number 2
_symmetry_cell_setting 'triclinic'
loop_
_space_group_symop_operation_xyz
x,y,z
-x,-y,-z
loop_
_atom_site_type_symbol
_atom_site_label
_atom_site_fract_x
_atom_site_fract_y
_atom_site_fract_z
Si Si1 0.393657 0.665459 0.581812
Si Si2 0.664779 0.853407 0.556360
Si Si3 0.858424 0.807974 0.653869
Si Si4 0.867637 0.208628 0.959896
Si Si5 0.654289 0.012631 0.273593
Si Si6 0.468200 0.272977 0.899984
Si Si7 0.865632 0.708179 0.098892
Si Si8 0.743211 0.661414 0.963031
O O1 0.508130 0.812768 0.393101
O O2 0.422690 0.409004 0.755809
O O3 0.244197 0.517616 0.680806
O O4 0.410175 0.933060 0.508194
O O5 0.787531 0.946564 0.533501
O O6 0.693893 0.876430 0.423836
O O7 0.587209 0.520259 0.780419
O O8 0.823126 0.835034 0.759981
O O9 0.834650 0.481861 0.798173
O O10 0.000000 0.000000 0.500000
O O11 0.752239 0.000316 0.168267
O O12 0.880717 0.033709 0.954084
O O13 0.000266 0.326645 0.912638
O O14 0.664729 0.337715 0.121963
O O15 0.353868 0.180232 0.060306
O O16 0.500000 0.000000 0.000000
O O17 0.830415 0.653719 0.028207
#
# Coordination Sequence:
#
# PCOD8000647 Si02
#       8
#     2   2   2   2   2   2   2   2
#     4  10  19  39  66  91 122 166 206 253 307 373
#     4  11  20  38  64  90 130 159 200 263 302 365
#     4  11  26  39  59  95 125 162 217 255 305 376
#     4  10  24  41  61  95 122 163 216 254 312 376
#     4  10  19  39  68  93 116 164 218 250 303 375
#     4  10  20  36  64  95 125 161 207 253 319 368
#     4  10  21  40  67  84 129 163 205 259 316 359
#     4  10  21  41  66  88 121 169 208 252 314 376
#
# _framework density 21.367044
#
# number of rings (size 3 to 8) (size 9 to 14) (size 15 to 20)
#    0.000    1.750    3.750    1.500    5.250    2.000 
#    0.000    8.125    0.000    0.000    0.000    0.000 
#    0.000    0.000    0.000    0.000    0.000    0.000 
#
# Total GULP energy -198231.709785 kJ/mol
# GULP energy per Si atom -12389.481862 kJ/mol
# Density = 2.131841 g / cm^3
# Si number density = 21.367044 Si / 1000 Ang^3
#
#
#
# Elastic Constant Matrix: (Units=GPa)
#
#
# Indices 1 2 3 4 5 6 
#
# 1 58.5162 -7.8827 16.0714 7.8210 -15.5123 -22.6661
# 2 -7.8827 62.5205 20.8245 -12.0459 4.5586 -23.7981
# 3 16.0714 20.8245 86.6624 4.9538 -15.3119 -20.6134
# 4 7.8210 -12.0459 4.9538 40.4325 -12.7940 -0.4290
# 5 -15.5123 4.5586 -15.3119 -12.7940 41.1376 0.6222
# 6 -22.6661 -23.7981 -20.6134 -0.4290 0.6222 30.0443
#
#
#
# Elastic Compliance Matrix: (Units=1/GPa)
#
#
# Indices 1 2 3 4 5 6 
#
# 1 0.045008 0.026020 0.000848 0.004237 0.014891 0.054899
# 2 0.026020 0.040525 -0.001914 0.010012 0.006960 0.050415
# 3 0.000848 -0.001914 0.015139 -0.000647 0.005824 0.009381
# 4 0.004237 0.010012 -0.000647 0.030077 0.009436 0.010917
# 5 0.014891 0.006960 0.005824 0.009436 0.033950 0.020175
# 6 0.054899 0.050415 0.009381 0.010917 0.020175 0.120810
#
#
# Mechanical properties :
#
#
# Convention : Reuss Voigt Hill
#
# Bulk Modulus (GPa) = 6.64102 29.52506 18.08304
# Shear Modulus (GPa) = 17.49514 34.23527 25.86521
#
# Velocity S-wave (km/s) = 2.86456 4.00715 3.48303
# Velocity P-wave (km/s) = 3.74910 5.93782 4.96555
#
# Compressibility (1/GPa) = 0.15057936
#
# Stress axis : x y z
#
# Youngs Moduli (GPa) = 22.21829 24.67627 66.05494
#
# Poissons Ratio (x) = -0.64207 -0.05602
# Poissons Ratio (y) = -0.57812 0.12644
# Poissons Ratio (z) = -0.01884 0.04723
#
# Static dielectric constant tensor:
#      x y z
#    x 3.988770 -0.188710 -0.276460 
#    y -0.188710 3.819160 -0.040200 
#    z -0.276460 -0.040200 4.021610 
# 
# 
# High freq. dielectric constant tensor:
#      x y z
#    x 1.838910 -0.014210 -0.020900 
#    y -0.014210 1.824580 -0.011980 
#    z -0.020900 -0.011980 1.832240 
# 
# From -- ./inp_files/218576.got.cif
#   From: 2010.06.25/outbox.cif.g09.slc.cpg/sg2_110_cif.got.tgz:218576.got - 2010.06.27 13:26:56.
