data_PCOD8000044
_publ_section_title
;
Structure prediction by ZEFSAII (Michael W. Deem and Ramdas Pophale) SiO2 
 PCOD8000044
Probable space group: P 1
;
_chemical_formula_sum "Si O2"
_cell_formula_units_Z 8
_cell_length_a 11.377799
_cell_length_b 7.601553
_cell_length_c 8.371603
_cell_angle_alpha 50.697286
_cell_angle_beta 39.146360
_cell_angle_gamma 55.550852
_cell_volume 349.575247
_symmetry_space_group_name_H-M "P 1"
_symmetry_group_IT_number 1
_symmetry_cell_setting 'triclinic'
loop_
_space_group_symop_operation_xyz
x,y,z
loop_
_atom_site_type_symbol
_atom_site_label
_atom_site_fract_x
_atom_site_fract_y
_atom_site_fract_z
Si Si1 0.052620 0.678280 0.284990
Si Si2 0.495799 0.392287 0.330055
Si Si3 0.522958 0.114312 0.155006
Si Si4 0.904436 0.908729 0.998886
Si Si5 0.918825 0.380189 0.861750
Si Si6 0.214050 0.133798 0.926231
Si Si7 0.283946 0.744665 0.554559
Si Si8 0.322982 0.357021 0.973304
O O1 0.189666 0.459354 0.200145
O O2 0.903492 0.775123 0.246694
O O3 0.949377 0.603620 0.595537
O O4 0.175958 0.878333 0.080932
O O5 0.488893 0.329411 0.187509
O O6 0.421821 0.178187 0.622525
O O7 0.362350 0.639951 0.360762
O O8 0.709921 0.414550 0.139189
O O9 0.519480 0.227128 0.916882
O O10 0.705007 0.928045 0.108060
O O11 0.343206 0.981661 0.413413
O O12 0.057866 0.773835 0.793246
O O13 0.946767 0.164871 0.836085
O O14 0.066451 0.330336 0.879952
O O15 0.210401 0.181939 0.093046
O O16 0.380940 0.551170 0.686271
#
# Coordination Sequence:
#
# PCOD8000044 Si02
#       8
#     1   1   1   1   1   1   1   1
#     4  10  20  41  70  92 122 171 212 255 319 374
#     4  10  22  40  65  93 126 164 208 261 315 369
#     4  11  22  40  62  92 129 163 204 260 315 371
#     4   9  21  40  65  95 128 164 210 262 312 373
#     4  10  21  41  66  96 129 165 210 264 318 371
#     4  10  22  42  64  91 131 165 208 265 311 371
#     4  10  22  42  63  89 125 167 211 256 312 372
#     4  10  22  38  63  94 122 165 213 253 310 375
#
# _framework density 22.884916
#
# number of rings (size 3 to 8) (size 9 to 14) (size 15 to 20)
#    0.000    2.000    0.000    3.750    0.000    8.000 
#    0.000   21.250    0.000    3.000    0.000    0.000 
#    0.000    0.000    0.000    0.000    0.000    0.000 
#
# Total GULP energy -99136.703945 kJ/mol
# GULP energy per Si atom -12392.087993 kJ/mol
# Density = 2.283283 g / cm^3
# Si number density = 22.884916 Si / 1000 Ang^3
#
#
#
# Elastic Constant Matrix: (Units=GPa)
#
#
# Indices 1 2 3 4 5 6 
#
# 1 139.5003 54.7888 46.9472 11.8997 9.4546 -17.3300
# 2 54.7888 94.2827 40.2543 14.0013 8.7836 -3.4768
# 3 46.9472 40.2543 108.9846 7.8901 -12.5710 -10.7385
# 4 11.8997 14.0013 7.8901 38.3251 -0.0558 4.3650
# 5 9.4546 8.7836 -12.5710 -0.0558 22.0834 -4.8399
# 6 -17.3300 -3.4768 -10.7385 4.3650 -4.8399 36.3682
#
#
#
# Elastic Compliance Matrix: (Units=1/GPa)
#
#
# Indices 1 2 3 4 5 6 
#
# 1 0.010656 -0.004172 -0.003045 -0.001556 -0.003884 0.003450
# 2 -0.004172 0.016454 -0.005266 -0.003338 -0.008352 -0.002681
# 3 -0.003045 -0.005266 0.014292 -0.000508 0.012404 0.003977
# 4 -0.001556 -0.003338 -0.000508 0.028415 0.000787 -0.004516
# 5 -0.003884 -0.008352 0.012404 0.000787 0.059260 0.008805
# 6 0.003450 -0.002681 0.003977 -0.004516 0.008805 0.031773
#
#
# Mechanical properties :
#
#
# Convention : Reuss Voigt Hill
#
# Bulk Modulus (GPa) = 60.84184 69.63870 65.24027
# Shear Modulus (GPa) = 26.13751 32.74052 29.43901
#
# Velocity S-wave (km/s) = 3.38321 3.78651 3.59052
# Velocity P-wave (km/s) = 6.47342 7.04364 6.76454
#
# Compressibility (1/GPa) = 0.01643606
#
# Stress axis : x y z
#
# Youngs Moduli (GPa) = 93.84041 60.77397 69.97091
#
# Poissons Ratio (x) = 0.25358 0.21304
# Poissons Ratio (y) = 0.39155 0.36847
# Poissons Ratio (z) = 0.28572 0.32004
#
# Static dielectric constant tensor:
#      x y z
#    x 4.295550 0.009030 0.042510 
#    y 0.009030 4.260880 0.048190 
#    z 0.042510 0.048190 3.908560 
# 
# 
# High freq. dielectric constant tensor:
#      x y z
#    x 1.907920 0.006910 0.004010 
#    y 0.006910 1.905990 -0.007700 
#    z 0.004010 -0.007700 1.880780 
# 
# From -- ./inp_files/4818.got.cif
#   From: 2010.03.12/outbox.cif.g09.slc.cpg/sg1_3_cif.got.tgz:4818.got - 2010.03.29 11:57:58.
