data_PCOD8000579
_publ_section_title
;
Structure prediction by ZEFSAII (Michael W. Deem and Ramdas Pophale) SiO2 
 PCOD8000579
Probable space group: P -1
;
_chemical_formula_sum "Si O2"
_cell_formula_units_Z 16
_cell_length_a 14.988469
_cell_length_b 23.005119
_cell_length_c 8.575090
_cell_angle_alpha 149.115350
_cell_angle_beta 51.465056
_cell_angle_gamma 149.004609
_cell_volume 707.047249
_symmetry_space_group_name_H-M "P -1"
_symmetry_group_IT_number 2
_symmetry_cell_setting 'triclinic'
loop_
_space_group_symop_operation_xyz
x,y,z
-x,-y,-z
loop_
_atom_site_type_symbol
_atom_site_label
_atom_site_fract_x
_atom_site_fract_y
_atom_site_fract_z
Si Si1 0.517669 0.784528 0.140777
Si Si2 0.975157 0.057989 0.810173
Si Si3 0.206991 0.794336 0.118395
Si Si4 0.427742 0.301875 0.439346
Si Si5 0.825705 0.168732 0.102337
Si Si6 0.392964 0.364971 0.157330
Si Si7 0.588963 0.244434 0.339898
Si Si8 0.831300 0.416091 0.772704
O O1 0.297995 0.648959 0.089797
O O2 0.655276 0.001510 0.491610
O O3 0.542507 0.742723 0.854539
O O4 0.572506 0.742946 0.129105
O O5 0.797341 0.870939 0.674862
O O6 0.947113 0.164069 0.030763
O O7 0.000000 0.000000 0.500000
O O8 0.165503 0.205628 0.048217
O O9 0.111516 0.754707 0.966551
O O10 0.321024 0.767333 0.914447
O O11 0.036660 0.641322 0.076459
O O12 0.515802 0.499174 0.780657
O O13 0.543688 0.330475 0.513986
O O14 0.862088 0.305618 0.488192
O O15 0.601068 0.964740 0.867965
O O16 0.500000 0.500000 0.500000
O O17 0.731868 0.375381 0.627423
#
# Coordination Sequence:
#
# PCOD8000579 Si02
#       8
#     2   2   2   2   2   2   2   2
#     4  11  23  44  62  94 133 171 218 261 331 395
#     4  11  25  43  70 102 129 170 229 279 324 388
#     4  11  21  36  66  96 129 176 210 264 326 394
#     4  10  26  44  67  94 132 176 213 277 331 386
#     4  10  19  39  64  99 135 167 210 279 324 384
#     4  10  25  45  68  90 135 179 219 267 333 394
#     4  10  19  40  64  93 135 167 215 266 325 386
#     4  11  22  37  67  99 129 174 212 265 331 398
#
# _framework density 22.629321999999998
#
# number of rings (size 3 to 8) (size 9 to 14) (size 15 to 20)
#    0.000    1.500    2.500    3.000    5.250    7.000 
#    0.000    0.625    0.000    0.000    0.000    0.000 
#    0.000    0.000    0.000    0.000    0.000    0.000 
#
# Total GULP energy -198428.503870 kJ/mol
# GULP energy per Si atom -12401.781492 kJ/mol
# Density = 2.257782 g / cm^3
# Si number density = 22.629322 Si / 1000 Ang^3
#
#
#
# Elastic Constant Matrix: (Units=GPa)
#
#
# Indices 1 2 3 4 5 6 
#
# 1 86.1313 27.2283 17.7839 12.5060 -12.7689 14.1543
# 2 27.2283 159.6842 59.4946 12.0690 -15.0823 12.0575
# 3 17.7839 59.4946 57.3726 13.3739 -4.2673 8.4302
# 4 12.5060 12.0690 13.3739 40.4195 -5.1346 0.0681
# 5 -12.7689 -15.0823 -4.2673 -5.1346 28.7898 4.7941
# 6 14.1543 12.0575 8.4302 0.0681 4.7941 33.7351
#
#
#
# Elastic Compliance Matrix: (Units=1/GPa)
#
#
# Indices 1 2 3 4 5 6 
#
# 1 0.014589 -0.000439 -0.001970 -0.002895 0.006496 -0.006389
# 2 -0.000439 0.010787 -0.010730 0.001016 0.004314 -0.001605
# 3 -0.001970 -0.010730 0.030937 -0.006757 -0.002669 -0.002676
# 4 -0.002895 0.001016 -0.006757 0.027932 0.002883 0.002074
# 5 0.006496 0.004314 -0.002669 0.002883 0.041579 -0.009515
# 6 -0.006389 -0.001605 -0.002676 0.002074 -0.009515 0.034914
#
#
# Mechanical properties :
#
#
# Convention : Reuss Voigt Hill
#
# Bulk Modulus (GPa) = 33.29414 56.91130 45.10272
# Shear Modulus (GPa) = 25.37719 33.83431 29.60575
#
# Velocity S-wave (km/s) = 3.35241 3.87092 3.62096
# Velocity P-wave (km/s) = 5.45249 6.72180 6.12014
#
# Compressibility (1/GPa) = 0.03003531
#
# Stress axis : x y z
#
# Youngs Moduli (GPa) = 68.54436 92.70637 32.32347
#
# Poissons Ratio (x) = 0.04067 0.06369
# Poissons Ratio (y) = 0.03007 0.34682
# Poissons Ratio (z) = 0.13507 0.99472
#
# Static dielectric constant tensor:
#      x y z
#    x 4.425790 0.047400 -0.482700 
#    y 0.047400 4.355850 0.188340 
#    z -0.482700 0.188340 4.043560 
# 
# 
# High freq. dielectric constant tensor:
#      x y z
#    x 1.892810 0.005110 -0.017710 
#    y 0.005110 1.899020 0.011270 
#    z -0.017710 0.011270 1.887200 
# 
# From -- ./inp_files/320352.got.cif
#   From: 2010.06.25/outbox.cif.g09.slc.cpg/sg2_161_cif.got.tgz:320352.got - 2010.06.27 13:26:56.
