data_PCOD8000401
_publ_section_title
;
Structure prediction by ZEFSAII (Michael W. Deem and Ramdas Pophale) SiO2 
 PCOD8000401
Probable space group: P -1
;
_chemical_formula_sum "Si O2"
_cell_formula_units_Z 16
_cell_length_a 16.125484
_cell_length_b 8.979893
_cell_length_c 10.980059
_cell_angle_alpha 126.629737
_cell_angle_beta 58.494729
_cell_angle_gamma 77.170011
_cell_volume 680.443738
_symmetry_space_group_name_H-M "P -1"
_symmetry_group_IT_number 2
_symmetry_cell_setting 'triclinic'
loop_
_space_group_symop_operation_xyz
x,y,z
-x,-y,-z
loop_
_atom_site_type_symbol
_atom_site_label
_atom_site_fract_x
_atom_site_fract_y
_atom_site_fract_z
Si Si1 0.572885 0.057273 0.634350
Si Si2 0.728802 0.562450 0.087949
Si Si3 0.665851 0.704451 0.609642
Si Si4 0.169416 0.972709 0.275224
Si Si5 0.873682 0.636585 0.838908
Si Si6 0.023766 0.670659 0.911751
Si Si7 0.638272 0.020982 0.991466
Si Si8 0.171991 0.065229 0.586973
O O1 0.656836 0.756480 0.358556
O O2 0.574610 0.998520 0.745833
O O3 0.657537 0.131190 0.587199
O O4 0.399590 0.333102 0.852748
O O5 0.838122 0.223232 0.871195
O O6 0.829110 0.573106 0.955355
O O7 0.836878 0.398102 0.272809
O O8 0.689577 0.760551 0.751196
O O9 0.549160 0.701495 0.704662
O O10 0.322604 0.850200 0.049072
O O11 0.176857 0.934442 0.397886
O O12 0.023489 0.313203 0.504894
O O13 0.729776 0.877941 0.978527
O O14 0.916944 0.774568 0.928543
O O15 0.102035 0.366241 0.749166
O O16 0.924304 0.897668 0.213584
#
# Coordination Sequence:
#
# PCOD8000401 Si02
#       8
#     2   2   2   2   2   2   2   2
#     4  10  19  39  61  87 115 168 196 245 297 378
#     4  11  23  36  61  93 127 147 204 254 312 344
#     4  10  20  36  61  85 115 164 210 239 285 372
#     4  11  23  37  58  98 122 154 195 265 298 347
#     4  11  20  37  60  90 121 163 200 243 298 369
#     4   9  17  32  60  88 111 155 212 240 283 358
#     4  11  21  37  61  89 120 162 207 239 300 365
#     4   9  17  34  58  87 118 152 202 246 299 347
#
# _framework density 23.514068000000002
#
# number of rings (size 3 to 8) (size 9 to 14) (size 15 to 20)
#    0.000    1.750    6.250    0.750    1.750    0.500 
#    0.000    0.625    0.000    2.250    0.000    0.000 
#    0.000    0.000    0.000    0.000    0.000    0.000 
#
# Total GULP energy -198304.731777 kJ/mol
# GULP energy per Si atom -12394.045736 kJ/mol
# Density = 2.346055 g / cm^3
# Si number density = 23.514068 Si / 1000 Ang^3
#
#
#
# Elastic Constant Matrix: (Units=GPa)
#
#
# Indices 1 2 3 4 5 6 
#
# 1 91.8213 27.4712 33.7870 -5.4146 -23.3542 -13.8387
# 2 27.4712 44.8028 29.9739 -20.1161 1.0271 -2.3434
# 3 33.7870 29.9739 93.0989 -31.8495 -17.5246 16.4320
# 4 -5.4146 -20.1161 -31.8495 33.8714 12.6709 -4.7123
# 5 -23.3542 1.0271 -17.5246 12.6709 37.4322 -3.3851
# 6 -13.8387 -2.3434 16.4320 -4.7123 -3.3851 23.7668
#
#
#
# Elastic Compliance Matrix: (Units=1/GPa)
#
#
# Indices 1 2 3 4 5 6 
#
# 1 0.028896 -0.020097 -0.011626 -0.023937 0.023178 0.021436
# 2 -0.020097 0.052905 -0.002250 0.036117 -0.027421 -0.001675
# 3 -0.011626 -0.002250 0.025208 0.018953 -0.003722 -0.021192
# 4 -0.023937 0.036117 0.018953 0.075808 -0.033914 -0.013280
# 5 0.023178 -0.027421 -0.003722 -0.033914 0.052949 0.014183
# 6 0.021436 -0.001675 -0.021192 -0.013280 0.014183 0.068431
#
#
# Mechanical properties :
#
#
# Convention : Reuss Voigt Hill
#
# Bulk Modulus (GPa) = 25.59919 45.79859 35.69889
# Shear Modulus (GPa) = 12.98148 28.24679 20.61413
#
# Velocity S-wave (km/s) = 2.35217 3.46970 2.96408
# Velocity P-wave (km/s) = 4.27637 5.96415 5.18934
#
# Compressibility (1/GPa) = 0.03906374
#
# Stress axis : x y z
#
# Youngs Moduli (GPa) = 34.60718 18.90166 39.66921
#
# Poissons Ratio (x) = 0.37987 0.46118
# Poissons Ratio (y) = 0.69551 0.08926
# Poissons Ratio (z) = 0.40233 0.04253
#
# Static dielectric constant tensor:
#      x y z
#    x 4.501950 -0.160670 -0.387200 
#    y -0.160670 3.711980 -0.499190 
#    z -0.387200 -0.499190 4.441750 
# 
# 
# High freq. dielectric constant tensor:
#      x y z
#    x 1.941570 -0.017330 -0.024140 
#    y -0.017330 1.881600 -0.036600 
#    z -0.024140 -0.036600 1.923810 
# 
# From -- ./inp_files/461524.got.cif
#   From: 2010.06.25/outbox.cif.g09.slc.cpg/sg2_231_cif.got.tgz:461524.got - 2010.06.27 13:26:56.
