data_PCOD8000846
_publ_section_title
;
Structure prediction by ZEFSAII (Michael W. Deem and Ramdas Pophale) SiO2 
 PCOD8000846
Probable space group: P -1
;
_chemical_formula_sum "Si O2"
_cell_formula_units_Z 14
_cell_length_a 13.947292
_cell_length_b 13.725988
_cell_length_c 10.972283
_cell_angle_alpha 117.813815
_cell_angle_beta 30.016366
_cell_angle_gamma 136.911432
_cell_volume 627.732048
_symmetry_space_group_name_H-M "P -1"
_symmetry_group_IT_number 2
_symmetry_cell_setting 'triclinic'
loop_
_space_group_symop_operation_xyz
x,y,z
-x,-y,-z
loop_
_atom_site_type_symbol
_atom_site_label
_atom_site_fract_x
_atom_site_fract_y
_atom_site_fract_z
Si Si1 0.382052 0.185469 0.576001
Si Si2 0.342502 0.824579 0.932718
Si Si3 0.189491 0.973045 0.885848
Si Si4 0.881645 0.482970 0.329459
Si Si5 0.884114 0.070309 0.634746
Si Si6 0.804374 0.228679 0.409211
Si Si7 0.820998 0.640847 0.688898
O O1 0.498403 0.125693 0.342894
O O2 0.274458 0.107968 0.782240
O O3 0.629584 0.378468 0.444921
O O4 0.105351 0.120733 0.773329
O O5 0.566879 0.919808 0.849601
O O6 0.149247 0.854646 0.171986
O O7 0.162335 0.635769 0.035525
O O8 0.466814 0.080893 0.730661
O O9 0.122349 0.837032 0.802468
O O10 0.907228 0.377561 0.306885
O O11 0.850444 0.558319 0.512094
O O12 0.093155 0.207542 0.380749
O O13 0.000000 0.000000 0.500000
O O14 0.973103 0.291942 0.385200
O O15 0.500000 0.500000 0.000000
#
# Coordination Sequence:
#
# PCOD8000846 Si02
#       7
#     2   2   2   2   2   2   2
#     4  10  19  40  63  93 127 174 214 267 330 380
#     4  10  22  43  65  93 131 175 216 266 328 398
#     4   9  20  37  63  93 132 166 221 271 319 393
#     4  10  22  38  62  92 136 169 210 278 317 390
#     4  10  24  46  66  95 133 171 220 271 325 396
#     4  10  20  38  60  96 130 171 214 276 328 374
#     4  11  23  40  67  96 128 174 220 270 329 388
#
# _framework density 22.302509000000001
#
# number of rings (size 3 to 8) (size 9 to 14) (size 15 to 20)
#    0.000    2.000    0.000    2.571    2.000    2.286 
#   20.571    0.714    0.000    0.000    0.000    0.000 
#    0.000    0.000    0.000    0.000    0.000    0.000 
#
# Total GULP energy -173458.276217 kJ/mol
# GULP energy per Si atom -12389.876873 kJ/mol
# Density = 2.225175 g / cm^3
# Si number density = 22.302509 Si / 1000 Ang^3
#
#
#
# Elastic Constant Matrix: (Units=GPa)
#
#
# Indices 1 2 3 4 5 6 
#
# 1 64.0741 33.6185 60.5946 6.3082 -24.6866 14.5295
# 2 33.6185 124.3173 59.1923 -5.8586 -19.0841 1.4651
# 3 60.5946 59.1923 144.1362 -8.7108 -16.7230 -0.2575
# 4 6.3082 -5.8586 -8.7108 34.0246 0.9446 -3.2890
# 5 -24.6866 -19.0841 -16.7230 0.9446 28.2616 -2.8105
# 6 14.5295 1.4651 -0.2575 -3.2890 -2.8105 38.3667
#
#
#
# Elastic Compliance Matrix: (Units=1/GPa)
#
#
# Indices 1 2 3 4 5 6 
#
# 1 0.053148 -0.000686 -0.019314 -0.017706 0.033205 -0.019316
# 2 -0.000686 0.010627 -0.003495 0.000961 0.004501 0.000243
# 3 -0.019314 -0.003495 0.015909 0.008042 -0.009334 0.007560
# 4 -0.017706 0.000961 0.008042 0.036060 -0.010363 0.009055
# 5 0.033205 0.004501 -0.009334 -0.010363 0.061335 -0.009205
# 6 -0.019316 0.000243 0.007560 0.009055 -0.009205 0.033523
#
#
# Mechanical properties :
#
#
# Convention : Reuss Voigt Hill
#
# Bulk Modulus (GPa) = 30.58604 71.03760 50.81182
# Shear Modulus (GPa) = 18.62262 32.07205 25.34734
#
# Velocity S-wave (km/s) = 2.89277 3.79627 3.37489
# Velocity P-wave (km/s) = 4.99014 7.15098 6.16596
#
# Compressibility (1/GPa) = 0.03269465
#
# Stress axis : x y z
#
# Youngs Moduli (GPa) = 18.81530 94.10076 62.85653
#
# Poissons Ratio (x) = 0.06456 1.21400
# Poissons Ratio (y) = 0.01291 0.21969
# Poissons Ratio (z) = 0.36339 0.32889
#
# Static dielectric constant tensor:
#      x y z
#    x 4.034330 -0.196690 0.169950 
#    y -0.196690 4.837690 -0.941850 
#    z 0.169950 -0.941850 5.647380 
# 
# 
# High freq. dielectric constant tensor:
#      x y z
#    x 1.855980 0.006980 -0.003880 
#    y 0.006980 1.897790 -0.008680 
#    z -0.003880 -0.008680 1.885710 
# 
# From -- ./inp_files/455772.got.cif
#   From: 2010.06.25/outbox.cif.g09.slc.cpg/sg2_228_cif.got.tgz:455772.got - 2010.06.27 13:26:56.
