data_PCOD8000149
_publ_section_title
;
Structure prediction by ZEFSAII (Michael W. Deem and Ramdas Pophale) SiO2 
 PCOD8000149
Probable space group: P 1
;
_chemical_formula_sum "Si O2"
_cell_formula_units_Z 6
_cell_length_a 10.100142
_cell_length_b 6.345363
_cell_length_c 5.168953
_cell_angle_alpha 102.743016
_cell_angle_beta 82.340099
_cell_angle_gamma 133.833892
_cell_volume 232.989106
_symmetry_space_group_name_H-M "P 1"
_symmetry_group_IT_number 1
_symmetry_cell_setting 'triclinic'
loop_
_space_group_symop_operation_xyz
x,y,z
loop_
_atom_site_type_symbol
_atom_site_label
_atom_site_fract_x
_atom_site_fract_y
_atom_site_fract_z
Si Si1 0.578120 0.348870 0.328590
Si Si2 0.302184 0.409295 0.420102
Si Si3 0.504351 0.001141 0.753952
Si Si4 0.882592 0.244425 0.621162
Si Si5 0.064220 0.375763 0.108571
Si Si6 0.995113 0.739731 0.415656
O O1 0.490536 0.487873 0.350090
O O2 0.798973 0.609270 0.323288
O O3 0.511560 0.189211 0.580445
O O4 0.498542 0.101126 0.063280
O O5 0.326551 0.648627 0.664476
O O6 0.244507 0.438458 0.158682
O O7 0.142818 0.091056 0.506536
O O8 0.671685 0.019661 0.691756
O O9 0.958576 0.577062 0.656080
O O10 0.914125 0.155648 0.316571
O O11 0.986006 0.220176 0.808684
O O12 0.085457 0.661756 0.175368
#
# Coordination Sequence:
#
# PCOD8000149 Si02
#       6
#     1   1   1   1   1   1
#     4  11  26  50  73 106 151 192 238 300 367 432
#     4  12  27  45  78 117 137 191 253 299 358 435
#     4  11  24  51  72 105 152 189 239 306 358 428
#     4   9  20  47  74  93 145 197 225 290 367 421
#     4  10  22  45  71 103 146 185 237 295 360 423
#     4   9  23  48  74 104 143 194 240 294 358 433
#
# _framework density 25.752275999999998
#
# number of rings (size 3 to 8) (size 9 to 14) (size 15 to 20)
#    1.000    0.667    1.667    1.000    2.333    5.333 
#    9.000    0.000    0.000    0.000    0.000    0.000 
#    0.000    0.000    0.000    0.000    0.000    0.000 
#
# Total GULP energy -74344.163344 kJ/mol
# GULP energy per Si atom -12390.693891 kJ/mol
# Density = 2.569366 g / cm^3
# Si number density = 25.752276 Si / 1000 Ang^3
#
#
#
# Elastic Constant Matrix: (Units=GPa)
#
#
# Indices 1 2 3 4 5 6 
#
# 1 192.6188 24.3984 22.7808 -5.0419 19.2443 -20.6767
# 2 24.3984 103.4102 9.7261 3.5666 5.5192 13.0251
# 3 22.7808 9.7261 106.7074 -3.3996 29.2197 2.1727
# 4 -5.0419 3.5666 -3.3996 24.7843 -6.8476 0.3766
# 5 19.2443 5.5192 29.2197 -6.8476 44.5725 -0.9551
# 6 -20.6767 13.0251 2.1727 0.3766 -0.9551 23.4648
#
#
#
# Elastic Compliance Matrix: (Units=1/GPa)
#
#
# Indices 1 2 3 4 5 6 
#
# 1 0.006527 -0.002288 -0.000835 0.000970 -0.001688 0.007015
# 2 -0.002288 0.011399 -0.000236 -0.002230 -0.000790 -0.008319
# 3 -0.000835 -0.000236 0.011605 -0.000543 -0.007344 -0.001969
# 4 0.000970 -0.002230 -0.000543 0.042645 0.006802 0.001735
# 5 -0.001688 -0.000790 -0.007344 0.006802 0.029136 0.000707
# 6 0.007015 -0.008319 -0.001969 0.001735 0.000707 0.053599
#
#
# Mechanical properties :
#
#
# Convention : Reuss Voigt Hill
#
# Bulk Modulus (GPa) = 43.83352 57.39411 50.61382
# Shear Modulus (GPa) = 29.54488 41.61971 35.58230
#
# Velocity S-wave (km/s) = 3.39082 4.02451 3.72117
# Velocity P-wave (km/s) = 5.69108 6.62804 6.17735
#
# Compressibility (1/GPa) = 0.02281359
#
# Stress axis : x y z
#
# Youngs Moduli (GPa) = 153.20357 87.72557 86.17135
#
# Poissons Ratio (x) = 0.20076 0.07191
# Poissons Ratio (y) = 0.35060 0.02033
# Poissons Ratio (z) = 0.12785 0.02069
#
# Static dielectric constant tensor:
#      x y z
#    x 5.008890 -0.107950 0.105370 
#    y -0.107950 4.328980 0.031870 
#    z 0.105370 0.031870 4.282000 
# 
# 
# High freq. dielectric constant tensor:
#      x y z
#    x 2.053030 -0.003500 0.002770 
#    y -0.003500 2.011830 -0.006390 
#    z 0.002770 -0.006390 2.010000 
# 
# From -- ./inp_files/1955.got.cif
#   From: 2010.03.12/outbox.cif.g09.slc.cpg/sg1_1_cif.got.tgz:1955.got - 2010.03.29 11:57:58.
