data_PCOD8000217
_publ_section_title
;
Structure prediction by ZEFSAII (Michael W. Deem and Ramdas Pophale) SiO2 
 PCOD8000217
Probable space group: P 1
;
_chemical_formula_sum "Si O2"
_cell_formula_units_Z 6
_cell_length_a 5.239847
_cell_length_b 11.485924
_cell_length_c 5.239859
_cell_angle_alpha 92.608706
_cell_angle_beta 84.271938
_cell_angle_gamma 117.141365
_cell_volume 279.230879
_symmetry_space_group_name_H-M "P 1"
_symmetry_group_IT_number 1
_symmetry_cell_setting 'triclinic'
loop_
_space_group_symop_operation_xyz
x,y,z
loop_
_atom_site_type_symbol
_atom_site_label
_atom_site_fract_x
_atom_site_fract_y
_atom_site_fract_z
Si Si1 0.609630 0.910140 0.741420
Si Si2 0.692084 0.801557 0.211424
Si Si3 0.398654 0.301564 0.418014
Si Si4 0.698262 0.410146 0.888012
Si Si5 0.760057 0.192970 0.609052
Si Si6 0.113497 0.692967 0.020405
O O1 0.749406 0.881472 0.474838
O O2 0.621685 0.051550 0.738376
O O3 0.786452 0.903954 0.974003
O O4 0.275745 0.801549 0.795089
O O5 0.352272 0.699157 0.203409
O O6 0.875591 0.721645 0.188840
O O7 0.501118 0.381467 0.154580
O O8 0.533673 0.199166 0.426040
O O9 0.055327 0.221647 0.440626
O O10 0.509106 0.403973 0.655407
O O11 0.969033 0.551551 0.891087
O O12 0.814959 0.301549 0.834367
#
# Coordination Sequence:
#
# PCOD8000217 Si02
#       6
#     1   1   1   1   1   1
#     4  10  26  42  69  94 131 166 216 262 320 376
#     4  10  26  38  68  94 132 164 212 258 322 376
#     4  10  26  38  68  94 132 164 212 258 322 376
#     4  10  26  42  69  94 131 166 216 262 320 376
#     4  10  26  42  69  94 131 166 216 262 320 376
#     4  10  26  42  69  94 131 166 216 262 320 376
#
# _framework density 21.487597999999998
#
# number of rings (size 3 to 8) (size 9 to 14) (size 15 to 20)
#    2.000    0.000    0.000    0.000   14.000    2.667 
#    0.000    0.000    0.000    0.000    0.000    0.000 
#    0.000    0.000    0.000    0.000    0.000    0.000 
#
# Total GULP energy -74353.956609 kJ/mol
# GULP energy per Si atom -12392.326102 kJ/mol
# Density = 2.143869 g / cm^3
# Si number density = 21.487598 Si / 1000 Ang^3
#
#
#
# Elastic Constant Matrix: (Units=GPa)
#
#
# Indices 1 2 3 4 5 6 
#
# 1 127.4349 31.7950 35.1914 -0.3085 -22.3118 5.1039
# 2 31.7950 150.5309 39.7653 -1.0089 -25.3740 -3.6987
# 3 35.1914 39.7653 139.4166 -3.1216 -11.4057 -0.8170
# 4 -0.3085 -1.0089 -3.1216 26.6825 -1.8541 -10.3619
# 5 -22.3118 -25.3740 -11.4057 -1.8541 18.3088 1.3473
# 6 5.1039 -3.6987 -0.8170 -10.3619 1.3473 23.8614
#
#
#
# Elastic Compliance Matrix: (Units=1/GPa)
#
#
# Indices 1 2 3 4 5 6 
#
# 1 0.010547 0.000219 -0.001751 -0.000455 0.012254 -0.003171
# 2 0.000219 0.009071 -0.001630 0.001475 0.011879 0.001273
# 3 -0.001751 -0.001630 0.008176 0.001283 0.000762 0.000916
# 4 -0.000455 0.001475 0.001283 0.045806 0.005459 0.019953
# 5 0.012254 0.011879 0.000762 0.005459 0.087286 -0.003312
# 6 -0.003171 0.001273 0.000916 0.019953 -0.003312 0.051667
#
#
# Mechanical properties :
#
#
# Convention : Reuss Voigt Hill
#
# Bulk Modulus (GPa) = 46.57601 70.09844 58.33722
# Shear Modulus (GPa) = 22.12038 34.47923 28.29981
#
# Velocity S-wave (km/s) = 3.21198 4.01010 3.63303
# Velocity P-wave (km/s) = 5.95639 7.35764 6.69378
#
# Compressibility (1/GPa) = 0.02147028
#
# Stress axis : x y z
#
# Youngs Moduli (GPa) = 94.81016 110.24138 122.30474
#
# Poissons Ratio (x) = -0.02419 0.21418
# Poissons Ratio (y) = -0.02080 0.19940
# Poissons Ratio (z) = 0.16603 0.17974
#
# Static dielectric constant tensor:
#      x y z
#    x 3.636890 -0.002940 -0.016630 
#    y -0.002940 3.682140 0.000570 
#    z -0.016630 0.000570 3.642340 
# 
# 
# High freq. dielectric constant tensor:
#      x y z
#    x 1.835870 0.000810 -0.007360 
#    y 0.000810 1.830320 -0.000990 
#    z -0.007360 -0.000990 1.838410 
# 
# From -- ./inp_files/103.got.cif
#   From: 2010.03.12/outbox.cif.g09.slc.cpg/sg1_1_cif.got.tgz:103.got - 2010.03.29 11:57:58.
