data_PCOD8000333
_publ_section_title
;
Structure prediction by ZEFSAII (Michael W. Deem and Ramdas Pophale) SiO2 
 PCOD8000333
Probable space group: P -1
;
_chemical_formula_sum "Si O2"
_cell_formula_units_Z 16
_cell_length_a 28.608334
_cell_length_b 14.274999
_cell_length_c 6.654726
_cell_angle_alpha 66.394438
_cell_angle_beta 113.566921
_cell_angle_gamma 161.866481
_cell_volume 773.283963
_symmetry_space_group_name_H-M "P -1"
_symmetry_group_IT_number 2
_symmetry_cell_setting 'triclinic'
loop_
_space_group_symop_operation_xyz
x,y,z
-x,-y,-z
loop_
_atom_site_type_symbol
_atom_site_label
_atom_site_fract_x
_atom_site_fract_y
_atom_site_fract_z
Si Si1 0.680620 0.214013 0.617270
Si Si2 0.467298 0.908028 0.802030
Si Si3 0.851804 0.028497 0.665634
Si Si4 0.993693 0.201614 0.376070
Si Si5 0.338022 0.224571 0.770180
Si Si6 0.270652 0.349934 0.887119
Si Si7 0.064607 0.723796 0.010702
Si Si8 0.560386 0.778399 0.873765
O O1 0.565061 0.046692 0.405568
O O2 0.852181 0.573668 0.554999
O O3 0.621380 0.144083 0.789300
O O4 0.669171 0.068262 0.712173
O O5 0.318958 0.557093 0.835402
O O6 0.500000 0.000000 0.000000
O O7 0.963243 0.186770 0.560547
O O8 0.930138 0.259777 0.751306
O O9 0.724721 0.855259 0.482471
O O10 0.793525 0.823917 0.873589
O O11 0.849858 0.872518 0.313526
O O12 0.040254 0.382754 0.154317
O O13 0.500582 0.585183 0.768715
O O14 0.353968 0.130491 0.889217
O O15 0.229292 0.055943 0.911483
O O16 0.420310 0.572296 0.900941
O O17 0.000000 0.500000 0.000000
#
# Coordination Sequence:
#
# PCOD8000333 Si02
#       8
#     2   2   2   2   2   2   2   2
#     4  10  23  42  63  87 124 153 195 259 304 350
#     4  10  24  42  65  93 115 155 204 246 314 368
#     4  10  20  36  60  86 120 167 200 240 303 359
#     4  10  21  39  60  89 118 161 202 243 310 358
#     4  10  20  34  57  89 120 159 209 237 299 358
#     4  10  21  40  61  87 124 156 201 260 295 359
#     4  10  20  37  55  85 127 160 204 253 287 351
#     4  10  19  39  58  87 123 159 197 257 293 348
#
# _framework density 20.690975999999999
#
# number of rings (size 3 to 8) (size 9 to 14) (size 15 to 20)
#    0.000    2.000    3.750    0.750    1.750    6.000 
#    0.000    3.750    0.000    0.000    0.000    0.000 
#    0.000    0.000    0.000    0.000    0.000    0.000 
#
# Total GULP energy -198236.968634 kJ/mol
# GULP energy per Si atom -12389.810540 kJ/mol
# Density = 2.064388 g / cm^3
# Si number density = 20.690976 Si / 1000 Ang^3
#
#
#
# Elastic Constant Matrix: (Units=GPa)
#
#
# Indices 1 2 3 4 5 6 
#
# 1 82.9348 47.1890 42.0548 7.2730 -3.9404 -12.4365
# 2 47.1890 89.1939 36.2890 6.3520 -16.4364 0.2338
# 3 42.0548 36.2890 109.3672 7.4713 -22.3621 -10.7658
# 4 7.2730 6.3520 7.4713 19.2759 -10.2078 2.0809
# 5 -3.9404 -16.4364 -22.3621 -10.2078 37.2012 3.6286
# 6 -12.4365 0.2338 -10.7658 2.0809 3.6286 40.1194
#
#
#
# Elastic Compliance Matrix: (Units=1/GPa)
#
#
# Indices 1 2 3 4 5 6 
#
# 1 0.022102 -0.010434 -0.005571 -0.007919 -0.008434 0.006590
# 2 -0.010434 0.018415 -0.001194 0.002797 0.007519 -0.004487
# 3 -0.005571 -0.001194 0.013146 0.000951 0.006935 0.001131
# 4 -0.007919 0.002797 0.000951 0.064653 0.019423 -0.007326
# 5 -0.008434 0.007519 0.006935 0.019423 0.039331 -0.005362
# 6 0.006590 -0.004487 0.001131 -0.007326 -0.005362 0.028163
#
#
# Mechanical properties :
#
#
# Convention : Reuss Voigt Hill
#
# Bulk Modulus (GPa) = 51.90578 59.17353 55.53965
# Shear Modulus (GPa) = 22.06238 29.71685 25.88961
#
# Velocity S-wave (km/s) = 3.26894 3.79386 3.54114
# Velocity P-wave (km/s) = 6.27603 6.91751 6.60457
#
# Compressibility (1/GPa) = 0.01926568
#
# Stress axis : x y z
#
# Youngs Moduli (GPa) = 45.24574 54.30232 76.06641
#
# Poissons Ratio (x) = 0.56658 0.42379
# Poissons Ratio (y) = 0.47208 0.09080
# Poissons Ratio (z) = 0.25208 0.06482
#
# Static dielectric constant tensor:
#      x y z
#    x 3.833950 -0.179630 0.267180 
#    y -0.179630 4.340900 -0.457610 
#    z 0.267180 -0.457610 4.055500 
# 
# 
# High freq. dielectric constant tensor:
#      x y z
#    x 1.805600 -0.000350 0.012350 
#    y -0.000350 1.807370 0.002140 
#    z 0.012350 0.002140 1.801010 
# 
# From -- ./inp_files/128643.got.cif
#   From: 2010.06.25/outbox.cif.g09.slc.cpg/sg2_65_cif.got.tgz:128643.got - 2010.06.27 13:26:56.
