data_PCOD8000109
_publ_section_title
;
Structure prediction by ZEFSAII (Michael W. Deem and Ramdas Pophale) SiO2 
 PCOD8000109
Probable space group: P 1
;
_chemical_formula_sum "Si O2"
_cell_formula_units_Z 8
_cell_length_a 14.682771
_cell_length_b 12.599334
_cell_length_c 7.698652
_cell_angle_alpha 53.348408
_cell_angle_beta 139.788900
_cell_angle_gamma 149.103460
_cell_volume 464.765814
_symmetry_space_group_name_H-M "P 1"
_symmetry_group_IT_number 1
_symmetry_cell_setting 'triclinic'
loop_
_space_group_symop_operation_xyz
x,y,z
loop_
_atom_site_type_symbol
_atom_site_label
_atom_site_fract_x
_atom_site_fract_y
_atom_site_fract_z
Si Si1 0.116910 0.619110 0.298680
Si Si2 0.597217 0.586722 0.879106
Si Si3 0.610854 0.068182 0.532244
Si Si4 0.980174 0.459966 0.879459
Si Si5 0.913857 0.052520 0.892617
Si Si6 0.174274 0.357818 0.659071
Si Si7 0.813759 0.465108 0.312182
Si Si8 0.196329 0.357373 0.311858
O O1 0.148471 0.493271 0.537358
O O2 0.958907 0.583835 0.233679
O O3 0.351815 0.865502 0.394221
O O4 0.002031 0.543195 0.016718
O O5 0.439462 0.514077 0.883722
O O6 0.456760 0.506416 0.572890
O O7 0.820843 0.836788 0.957522
O O8 0.660724 0.481152 0.095679
O O9 0.747886 0.205429 0.774097
O O10 0.706756 0.002829 0.653942
O O11 0.651361 0.217622 0.307561
O O12 0.979581 0.570746 0.618426
O O13 0.182536 0.502945 0.095644
O O14 0.053296 0.180478 0.797140
O O15 0.080877 0.180539 0.174630
O O16 0.069423 0.252756 0.417209
#
# Coordination Sequence:
#
# PCOD8000109 Si02
#       8
#     1   1   1   1   1   1   1   1
#     4  11  17  39  60  78 112 152 180 227 276 324
#     4  10  22  39  53  87 119 135 185 240 268 322
#     4   9  19  35  60  82 108 144 189 223 268 331
#     4   8  18  37  56  83 109 140 195 223 256 351
#     4  11  17  39  60  78 112 152 180 227 276 324
#     4   9  19  35  60  82 108 144 189 223 268 331
#     4  10  22  39  53  87 119 135 185 240 268 322
#     4   8  18  37  56  83 109 140 195 223 256 351
#
# _framework density 17.212971
#
# number of rings (size 3 to 8) (size 9 to 14) (size 15 to 20)
#    1.500    1.000    2.500    0.000    0.000    1.000 
#    9.000    1.250    0.000    0.000    0.000    0.000 
#    0.000    0.000    0.000    0.000    0.000    0.000 
#
# Total GULP energy -99121.813234 kJ/mol
# GULP energy per Si atom -12390.226654 kJ/mol
# Density = 1.717379 g / cm^3
# Si number density = 17.212971 Si / 1000 Ang^3
#
#
#
# Elastic Constant Matrix: (Units=GPa)
#
#
# Indices 1 2 3 4 5 6 
#
# 1 66.2230 25.2395 37.6489 1.9189 -3.6206 3.6972
# 2 25.2395 73.8257 31.0396 2.4891 -2.9223 5.5356
# 3 37.6489 31.0396 106.1150 0.7564 -1.5313 -8.0971
# 4 1.9189 2.4891 0.7564 21.8175 -6.6156 -0.1798
# 5 -3.6206 -2.9223 -1.5313 -6.6156 27.2171 0.1544
# 6 3.6972 5.5356 -8.0971 -0.1798 0.1544 24.2492
#
#
#
# Elastic Compliance Matrix: (Units=1/GPa)
#
#
# Indices 1 2 3 4 5 6 
#
# 1 0.020644 -0.003902 -0.006491 -0.000626 0.001835 -0.004441
# 2 -0.003902 0.016937 -0.003899 -0.001248 0.000803 -0.004588
# 3 -0.006491 -0.003899 0.013341 0.000468 -0.000454 0.006341
# 4 -0.000626 -0.001248 0.000468 0.049621 0.011866 0.000829
# 5 0.001835 0.000803 -0.000454 0.011866 0.039935 -0.000781
# 6 -0.004441 -0.004588 0.006341 0.000829 -0.000781 0.045091
#
#
# Mechanical properties :
#
#
# Convention : Reuss Voigt Hill
#
# Bulk Modulus (GPa) = 44.76756 48.22439 46.49598
# Shear Modulus (GPa) = 22.56319 24.80580 23.68449
#
# Velocity S-wave (km/s) = 3.62446 3.80031 3.71343
# Velocity P-wave (km/s) = 6.60152 6.87995 6.74217
#
# Compressibility (1/GPa) = 0.02233760
#
# Stress axis : x y z
#
# Youngs Moduli (GPa) = 48.43957 59.04315 74.95562
#
# Poissons Ratio (x) = 0.23039 0.48653
# Poissons Ratio (y) = 0.18901 0.29228
# Poissons Ratio (z) = 0.31442 0.23023
#
# Static dielectric constant tensor:
#      x y z
#    x 2.977540 -0.040930 -0.055970 
#    y -0.040930 2.943330 0.036230 
#    z -0.055970 0.036230 3.137060 
# 
# 
# High freq. dielectric constant tensor:
#      x y z
#    x 1.649040 -0.003870 -0.001610 
#    y -0.003870 1.645850 0.000990 
#    z -0.001610 0.000990 1.658160 
# 
# From -- ./inp_files/5044.got.cif
#   From: 2010.03.12/outbox.cif.g09.slc.cpg/sg1_3_cif.got.tgz:5044.got - 2010.03.29 11:57:58.
