data_PCOD8000038
_publ_section_title
;
Structure prediction by ZEFSAII (Michael W. Deem and Ramdas Pophale) SiO2 
 PCOD8000038
Probable space group: P 1
;
_chemical_formula_sum "Si O2"
_cell_formula_units_Z 8
_cell_length_a 9.768726
_cell_length_b 8.905108
_cell_length_c 9.399611
_cell_angle_alpha 82.586050
_cell_angle_beta 111.891733
_cell_angle_gamma 43.186557
_cell_volume 402.697532
_symmetry_space_group_name_H-M "P 1"
_symmetry_group_IT_number 1
_symmetry_cell_setting 'triclinic'
loop_
_space_group_symop_operation_xyz
x,y,z
loop_
_atom_site_type_symbol
_atom_site_label
_atom_site_fract_x
_atom_site_fract_y
_atom_site_fract_z
Si Si1 0.902950 0.146270 0.984490
Si Si2 0.693265 0.695541 0.105588
Si Si3 0.147858 0.183124 0.528894
Si Si4 0.305060 0.552495 0.718846
Si Si5 0.939283 0.066371 0.335426
Si Si6 0.767999 0.607508 0.828657
Si Si7 0.205727 0.307243 0.816537
Si Si8 0.372252 0.657321 0.013390
O O1 0.627026 0.288076 0.836506
O O2 0.843798 0.365412 0.878504
O O3 0.004367 0.056365 0.198401
O O4 0.145751 0.862643 0.021874
O O5 0.531179 0.676437 0.043136
O O6 0.958297 0.467470 0.337227
O O7 0.805757 0.634734 0.999571
O O8 0.488857 0.007009 0.039322
O O9 0.137378 0.235191 0.684326
O O10 0.026971 0.121382 0.471621
O O11 0.457428 0.911765 0.619917
O O12 0.243122 0.432160 0.737124
O O13 0.233100 0.719708 0.806514
O O14 0.109381 0.770557 0.484325
O O15 0.608253 0.330333 0.190500
O O16 0.966599 0.529920 0.812443
#
# Coordination Sequence:
#
# PCOD8000038 Si02
#       8
#     1   1   1   1   1   1   1   1
#     4  11  21  38  67  88 112 158 203 243 290 345
#     4  10  20  41  61  89 120 150 200 250 287 344
#     4  10  21  38  61  90 117 152 197 249 283 348
#     4  11  23  43  56  88 128 156 189 246 295 353
#     4  10  21  39  62  88 121 149 202 249 285 343
#     4  11  20  38  61  93 114 152 203 240 290 349
#     4  11  25  37  62  88 125 158 189 240 306 348
#     4  10  21  38  64  90 113 155 203 245 288 344
#
# _framework density 19.866026000000002
#
# number of rings (size 3 to 8) (size 9 to 14) (size 15 to 20)
#    0.000    1.500    6.250    0.750    0.000    8.000 
#    0.000    1.250    0.000    0.000    0.000    0.000 
#    0.000    0.000    0.000    0.000    0.000    0.000 
#
# Total GULP energy -99190.594079 kJ/mol
# GULP energy per Si atom -12398.824260 kJ/mol
# Density = 1.982081 g / cm^3
# Si number density = 19.866026 Si / 1000 Ang^3
#
#
#
# Elastic Constant Matrix: (Units=GPa)
#
#
# Indices 1 2 3 4 5 6 
#
# 1 69.5813 27.9596 28.3838 -6.7442 -11.4544 -12.4154
# 2 27.9596 99.7326 41.6733 -7.7683 -0.7816 -32.5170
# 3 28.3838 41.6733 124.1749 -30.5304 -3.6713 -7.9122
# 4 -6.7442 -7.7683 -30.5304 33.5190 2.5346 -3.5336
# 5 -11.4544 -0.7816 -3.6713 2.5346 15.6448 -7.6230
# 6 -12.4154 -32.5170 -7.9122 -3.5336 -7.6230 33.7441
#
#
#
# Elastic Compliance Matrix: (Units=1/GPa)
#
#
# Indices 1 2 3 4 5 6 
#
# 1 0.021297 -0.000943 -0.003045 0.000925 0.019952 0.010817
# 2 -0.000943 0.018053 -0.004073 0.001596 0.007777 0.018019
# 3 -0.003045 -0.004073 0.012335 0.009655 -0.001864 -0.001563
# 4 0.000925 0.001596 0.009655 0.040028 0.000672 0.008486
# 5 0.019952 0.007777 -0.001864 0.000672 0.095984 0.036152
# 6 0.010817 0.018019 -0.001563 0.008486 0.036152 0.059667
#
#
# Mechanical properties :
#
#
# Convention : Reuss Voigt Hill
#
# Bulk Modulus (GPa) = 28.11844 54.39134 41.25489
# Shear Modulus (GPa) = 18.15939 29.61305 23.88622
#
# Velocity S-wave (km/s) = 3.02668 3.86507 3.47128
# Velocity P-wave (km/s) = 5.13801 6.88163 6.07272
#
# Compressibility (1/GPa) = 0.03556384
#
# Stress axis : x y z
#
# Youngs Moduli (GPa) = 46.95534 55.39238 81.06914
#
# Poissons Ratio (x) = 0.05223 0.24687
# Poissons Ratio (y) = 0.04427 0.33016
# Poissons Ratio (z) = 0.14299 0.22559
#
# Static dielectric constant tensor:
#      x y z
#    x 3.299250 -0.130820 0.033130 
#    y -0.130820 3.746980 -0.291840 
#    z 0.033130 -0.291840 3.927430 
# 
# 
# High freq. dielectric constant tensor:
#      x y z
#    x 1.745660 -0.008020 -0.000820 
#    y -0.008020 1.776910 -0.015440 
#    z -0.000820 -0.015440 1.784960 
# 
# From -- ./inp_files/4091.got.cif
#   From: 2010.03.12/outbox.cif.g09.slc.cpg/sg1_3_cif.got.tgz:4091.got - 2010.03.29 11:57:58.
