data_PCOD8000359
_publ_section_title
;
Structure prediction by ZEFSAII (Michael W. Deem and Ramdas Pophale) SiO2 
 PCOD8000359
Probable space group: P -1
;
_chemical_formula_sum "Si O2"
_cell_formula_units_Z 16
_cell_length_a 9.794580
_cell_length_b 9.022362
_cell_length_c 12.842237
_cell_angle_alpha 50.975851
_cell_angle_beta 110.848436
_cell_angle_gamma 110.057011
_cell_volume 812.815431
_symmetry_space_group_name_H-M "P -1"
_symmetry_group_IT_number 2
_symmetry_cell_setting 'triclinic'
loop_
_space_group_symop_operation_xyz
x,y,z
-x,-y,-z
loop_
_atom_site_type_symbol
_atom_site_label
_atom_site_fract_x
_atom_site_fract_y
_atom_site_fract_z
Si Si1 0.786057 0.247976 0.831544
Si Si2 0.649628 0.647777 0.979594
Si Si3 0.957764 0.600008 0.047164
Si Si4 0.719504 0.883217 0.102683
Si Si5 0.313579 0.068402 0.331997
Si Si6 0.043545 0.961554 0.195273
Si Si7 0.481862 0.252690 0.485312
Si Si8 0.531525 0.684656 0.317183
O O1 0.846603 0.126853 0.811389
O O2 0.646552 0.337394 0.714834
O O3 0.916448 0.425569 0.821919
O O4 0.731587 0.107837 0.976819
O O5 0.786392 0.524549 0.063012
O O6 0.647804 0.797353 0.818429
O O7 0.500000 0.500000 0.000000
O O8 0.660645 0.752967 0.046504
O O9 0.973298 0.831096 0.945584
O O10 0.000000 0.500000 0.000000
O O11 0.603617 0.840538 0.184039
O O12 0.879054 0.836698 0.209215
O O13 0.352599 0.193137 0.391618
O O14 0.134741 0.988929 0.317465
O O15 0.398761 0.887853 0.430970
O O16 0.566093 0.472110 0.391370
O O17 0.407483 0.243199 0.584117
#
# Coordination Sequence:
#
# PCOD8000359 Si02
#       8
#     2   2   2   2   2   2   2   2
#     4  11  19  38  62  84 121 158 181 231 303 357
#     4  11  21  35  60  94 121 142 183 241 306 342
#     4  10  21  34  54  88 122 148 186 225 286 370
#     4  11  20  37  58  91 121 143 188 240 298 358
#     4  10  20  39  63  77 114 162 193 229 291 346
#     4  10  19  39  60  83 116 162 180 225 308 359
#     4  10  22  40  57  81 111 158 210 233 271 336
#     4  11  23  36  61  87 113 151 204 244 272 331
#
# _framework density 19.684664000000001
#
# number of rings (size 3 to 8) (size 9 to 14) (size 15 to 20)
#    0.000    1.500    5.000    1.875    5.250    0.000 
#    2.250    1.250    0.000    0.000    0.000    0.000 
#    0.000    0.000    0.000    0.000    0.000    0.000 
#
# Total GULP energy -198275.787954 kJ/mol
# GULP energy per Si atom -12392.236747 kJ/mol
# Density = 1.963986 g / cm^3
# Si number density = 19.684664 Si / 1000 Ang^3
#
#
#
# Elastic Constant Matrix: (Units=GPa)
#
#
# Indices 1 2 3 4 5 6 
#
# 1 105.2257 41.9990 28.4740 14.3991 8.0044 19.1358
# 2 41.9990 103.7933 31.2984 31.5732 8.2453 14.7962
# 3 28.4740 31.2984 70.0371 24.2216 8.6893 8.8265
# 4 14.3991 31.5732 24.2216 38.1384 4.0004 9.6809
# 5 8.0044 8.2453 8.6893 4.0004 22.3801 9.8615
# 6 19.1358 14.7962 8.8265 9.6809 9.8615 34.1045
#
#
#
# Elastic Compliance Matrix: (Units=1/GPa)
#
#
# Indices 1 2 3 4 5 6 
#
# 1 0.012663 -0.003973 -0.003429 0.001963 0.000162 -0.005098
# 2 -0.003973 0.014778 -0.001437 -0.009492 -0.001464 -0.000692
# 3 -0.003429 -0.001437 0.020288 -0.010298 -0.005016 0.001671
# 4 0.001963 -0.009492 -0.010298 0.041339 0.002374 -0.006739
# 5 0.000162 -0.001464 -0.005016 0.002374 0.052914 -0.014131
# 6 -0.005098 -0.000692 0.001671 -0.006739 -0.014131 0.038049
#
#
# Mechanical properties :
#
#
# Convention : Reuss Voigt Hill
#
# Bulk Modulus (GPa) = 33.27811 53.62210 43.45011
# Shear Modulus (GPa) = 24.06992 30.74359 27.40675
#
# Velocity S-wave (km/s) = 3.50061 3.95625 3.73539
# Velocity P-wave (km/s) = 5.76900 6.94038 6.38163
#
# Compressibility (1/GPa) = 0.03004978
#
# Stress axis : x y z
#
# Youngs Moduli (GPa) = 78.96782 67.66798 49.29037
#
# Poissons Ratio (x) = 0.26887 0.16903
# Poissons Ratio (y) = 0.31377 0.07084
# Poissons Ratio (z) = 0.27081 0.09725
#
# Static dielectric constant tensor:
#      x y z
#    x 4.131630 -0.150310 0.647120 
#    y -0.150310 4.412050 -0.109720 
#    z 0.647120 -0.109720 3.863390 
# 
# 
# High freq. dielectric constant tensor:
#      x y z
#    x 1.763480 0.003460 0.030060 
#    y 0.003460 1.777690 0.023460 
#    z 0.030060 0.023460 1.743360 
# 
# From -- ./inp_files/239045.got.cif
#   From: 2010.06.25/outbox.cif.g09.slc.cpg/sg2_120_cif.got.tgz:239045.got - 2010.06.27 13:26:56.
