data_PCOD8000670
_publ_section_title
;
Structure prediction by ZEFSAII (Michael W. Deem and Ramdas Pophale) SiO2 
 PCOD8000670
Probable space group: P -1
;
_chemical_formula_sum "Si O2"
_cell_formula_units_Z 16
_cell_length_a 8.632219
_cell_length_b 12.439922
_cell_length_c 15.146917
_cell_angle_alpha 59.165084
_cell_angle_beta 63.054691
_cell_angle_gamma 114.409485
_cell_volume 669.042617
_symmetry_space_group_name_H-M "P -1"
_symmetry_group_IT_number 2
_symmetry_cell_setting 'triclinic'
loop_
_space_group_symop_operation_xyz
x,y,z
-x,-y,-z
loop_
_atom_site_type_symbol
_atom_site_label
_atom_site_fract_x
_atom_site_fract_y
_atom_site_fract_z
Si Si1 0.068655 0.903101 0.553842
Si Si2 0.890963 0.070592 0.020137
Si Si3 0.192653 0.723813 0.304879
Si Si4 0.212740 0.475153 0.100760
Si Si5 0.706266 0.527604 0.375994
Si Si6 0.840361 0.178388 0.159331
Si Si7 0.375848 0.055341 0.235926
Si Si8 0.580512 0.216150 0.438219
O O1 0.135309 0.880649 0.452116
O O2 0.391115 0.108853 0.441305
O O3 0.788408 0.654441 0.785229
O O4 0.000000 0.000000 0.500000
O O5 0.554563 0.891384 0.130944
O O6 0.885805 0.086517 0.121031
O O7 0.000000 0.000000 0.000000
O O8 0.165786 0.325757 0.804274
O O9 0.000000 0.500000 0.500000
O O10 0.004024 0.638212 0.300214
O O11 0.212550 0.872944 0.280231
O O12 0.151424 0.403347 0.043304
O O13 0.951921 0.411181 0.238579
O O14 0.558926 0.760607 0.890992
O O15 0.500000 0.500000 0.500000
O O16 0.500219 0.290593 0.486002
O O17 0.734461 0.225858 0.100962
O O18 0.555331 0.981653 0.386430
#
# Coordination Sequence:
#
# PCOD8000670 Si02
#       8
#     2   2   2   2   2   2   2   2
#     4  11  25  42  65 102 141 174 226 291 361 413
#     4  11  24  44  68 104 137 188 238 293 359 428
#     4  11  25  46  70  99 144 188 236 297 355 420
#     4  11  22  41  72 101 133 180 232 285 351 433
#     4  12  26  44  69 102 139 187 240 293 354 422
#     4  10  19  39  67 102 134 172 232 288 343 425
#     4  11  22  41  70  99 135 179 231 286 352 422
#     4  11  21  42  72  97 131 184 229 284 352 425
#
# _framework density 23.914770999999998
#
# number of rings (size 3 to 8) (size 9 to 14) (size 15 to 20)
#    0.000    1.000    2.500    6.000    3.500    0.500 
#    0.000    0.000    0.000    0.000    0.000    0.000 
#    0.000    0.000    0.000    0.000    0.000    0.000 
#
# Total GULP energy -198222.266435 kJ/mol
# GULP energy per Si atom -12388.891652 kJ/mol
# Density = 2.386034 g / cm^3
# Si number density = 23.914771 Si / 1000 Ang^3
#
#
#
# Elastic Constant Matrix: (Units=GPa)
#
#
# Indices 1 2 3 4 5 6 
#
# 1 81.1247 24.1830 20.3172 1.8398 20.7036 -16.0709
# 2 24.1830 100.8893 25.4388 -1.1743 7.7240 -17.3985
# 3 20.3172 25.4388 72.1085 -12.4942 29.5615 16.9828
# 4 1.8398 -1.1743 -12.4942 44.1454 -11.0104 5.7233
# 5 20.7036 7.7240 29.5615 -11.0104 40.6182 0.3910
# 6 -16.0709 -17.3985 16.9828 5.7233 0.3910 24.4660
#
#
#
# Elastic Compliance Matrix: (Units=1/GPa)
#
#
# Indices 1 2 3 4 5 6 
#
# 1 0.021928 0.003546 -0.014117 -0.009703 -0.004487 0.029066
# 2 0.003546 0.017972 -0.017555 -0.007042 0.005365 0.028858
# 3 -0.014117 -0.017555 0.049235 0.016738 -0.020188 -0.059526
# 4 -0.009703 -0.007042 0.016738 0.032368 0.003171 -0.030622
# 5 -0.004487 0.005365 -0.020188 0.003171 0.041309 0.013479
# 6 0.029066 0.028858 -0.059526 -0.030622 0.013479 0.128754
#
#
# Mechanical properties :
#
#
# Convention : Reuss Voigt Hill
#
# Bulk Modulus (GPa) = 30.41021 43.77781 37.09401
# Shear Modulus (GPa) = 13.93614 34.12484 24.03049
#
# Velocity S-wave (km/s) = 2.41662 3.78158 3.17336
# Velocity P-wave (km/s) = 4.53105 6.11659 5.38252
#
# Compressibility (1/GPa) = 0.03288369
#
# Stress axis : x y z
#
# Youngs Moduli (GPa) = 45.60315 55.64167 20.31087
#
# Poissons Ratio (x) = -0.19733 0.28672
# Poissons Ratio (y) = -0.16173 0.35657
# Poissons Ratio (z) = 0.64377 0.97681
#
# Static dielectric constant tensor:
#      x y z
#    x 4.271920 -0.078370 0.178730 
#    y -0.078370 4.311510 -0.125870 
#    z 0.178730 -0.125870 3.963600 
# 
# 
# High freq. dielectric constant tensor:
#      x y z
#    x 1.939170 -0.014760 0.021680 
#    y -0.014760 1.959120 0.005330 
#    z 0.021680 0.005330 1.947330 
# 
# From -- ./inp_files/268622.got.cif
#   From: 2010.06.25/outbox.cif.g09.slc.cpg/sg2_135_cif.got.tgz:268622.got - 2010.06.27 13:26:56.
