data_PCOD8000902
_publ_section_title
;
Structure prediction by ZEFSAII (Michael W. Deem and Ramdas Pophale) SiO2 
 PCOD8000902
Probable space group: P -1
;
_chemical_formula_sum "Si O2"
_cell_formula_units_Z 16
_cell_length_a 9.418205
_cell_length_b 14.975948
_cell_length_c 10.915894
_cell_angle_alpha 147.484242
_cell_angle_beta 78.705540
_cell_angle_gamma 113.213507
_cell_volume 730.988585
_symmetry_space_group_name_H-M "P -1"
_symmetry_group_IT_number 2
_symmetry_cell_setting 'triclinic'
loop_
_space_group_symop_operation_xyz
x,y,z
-x,-y,-z
loop_
_atom_site_type_symbol
_atom_site_label
_atom_site_fract_x
_atom_site_fract_y
_atom_site_fract_z
Si Si1 0.278656 0.293112 0.827976
Si Si2 0.343114 0.095031 0.384403
Si Si3 0.465989 0.511123 0.266752
Si Si4 0.470404 0.867674 0.966381
Si Si5 0.238536 0.229395 0.146859
Si Si6 0.251995 0.497103 0.649023
Si Si7 0.021910 0.015552 0.728662
Si Si8 0.076047 0.385702 0.783186
O O1 0.343756 0.155542 0.595449
O O2 0.122935 0.175815 0.800993
O O3 0.230771 0.395415 0.844206
O O4 0.422696 0.444354 0.056618
O O5 0.460142 0.268777 0.482760
O O6 0.418819 0.950452 0.190459
O O7 0.161401 0.014457 0.270866
O O8 0.307785 0.412569 0.262226
O O9 0.593239 0.448384 0.228405
O O10 0.634089 0.851848 0.944444
O O11 0.313491 0.669590 0.743375
O O12 0.500000 0.000000 0.000000
O O13 0.192191 0.299714 0.362172
O O14 0.087043 0.072190 0.921776
O O15 0.115448 0.478296 0.748174
O O16 0.038977 0.831613 0.470011
O O17 0.000000 0.500000 0.000000
#
# Coordination Sequence:
#
# PCOD8000902 Si02
#       8
#     2   2   2   2   2   2   2   2
#     4  10  22  39  66  87 129 166 207 251 316 377
#     4  11  20  37  65  94 122 160 208 258 316 363
#     4  10  19  40  65  92 116 170 206 254 309 376
#     4  11  24  39  63  93 123 163 215 267 306 368
#     4  10  23  44  65  88 127 166 214 249 317 374
#     4  11  22  41  66  87 124 171 206 255 313 374
#     4  10  23  43  65  93 125 172 203 259 311 376
#     4  11  24  39  63  96 130 162 206 258 313 369
#
# _framework density 21.888168
#
# number of rings (size 3 to 8) (size 9 to 14) (size 15 to 20)
#    0.000    1.500    2.500    4.875    3.500    1.500 
#    0.000    2.500    0.000    0.000    0.000    0.000 
#    0.000    0.000    0.000    0.000    0.000    0.000 
#
# Total GULP energy -198262.450749 kJ/mol
# GULP energy per Si atom -12391.403172 kJ/mol
# Density = 2.183835 g / cm^3
# Si number density = 21.888168 Si / 1000 Ang^3
#
#
#
# Elastic Constant Matrix: (Units=GPa)
#
#
# Indices 1 2 3 4 5 6 
#
# 1 47.0355 24.3554 58.0841 -17.2634 -3.1796 4.5774
# 2 24.3554 92.1830 40.2717 -7.4528 0.6560 -4.7244
# 3 58.0841 40.2717 144.4780 -24.3216 -11.8705 3.0551
# 4 -17.2634 -7.4528 -24.3216 45.7666 5.9740 -0.0008
# 5 -3.1796 0.6560 -11.8705 5.9740 37.9872 -6.3609
# 6 4.5774 -4.7244 3.0551 -0.0008 -6.3609 23.4429
#
#
#
# Elastic Compliance Matrix: (Units=1/GPa)
#
#
# Indices 1 2 3 4 5 6 
#
# 1 0.048543 -0.005273 -0.016641 0.009139 -0.004070 -0.009476
# 2 -0.005273 0.013162 -0.001792 -0.000735 -0.000479 0.003786
# 3 -0.016641 -0.001792 0.014461 0.000676 0.003372 0.001918
# 4 0.009139 -0.000735 0.000676 0.026007 -0.003603 -0.002998
# 5 -0.004070 -0.000479 0.003372 -0.003603 0.028972 0.008120
# 6 -0.009476 0.003786 0.001918 -0.002998 0.008120 0.047223
#
#
# Mechanical properties :
#
#
# Convention : Reuss Voigt Hill
#
# Bulk Modulus (GPa) = 34.77828 58.79099 46.78463
# Shear Modulus (GPa) = 21.24352 32.17170 26.70761
#
# Velocity S-wave (km/s) = 3.11874 3.83798 3.49690
# Velocity P-wave (km/s) = 5.37516 6.82336 6.14209
#
# Compressibility (1/GPa) = 0.02875358
#
# Stress axis : x y z
#
# Youngs Moduli (GPa) = 20.60041 75.97603 69.14927
#
# Poissons Ratio (x) = 0.40063 1.15072
# Poissons Ratio (y) = 0.10863 0.12392
# Poissons Ratio (z) = 0.34281 0.13615
#
# Static dielectric constant tensor:
#      x y z
#    x 3.623100 0.082450 0.133010 
#    y 0.082450 4.300600 0.055970 
#    z 0.133010 0.055970 4.261430 
# 
# 
# High freq. dielectric constant tensor:
#      x y z
#    x 1.821470 0.015880 0.011270 
#    y 0.015880 1.879180 -0.003120 
#    z 0.011270 -0.003120 1.871680 
# 
# From -- ./inp_files/400014.got.cif
#   From: 2010.06.25/outbox.cif.g09.slc.cpg/sg2_201_cif.got.tgz:400014.got - 2010.06.27 13:26:56.
