data_PCOD8000635
_publ_section_title
;
Structure prediction by ZEFSAII (Michael W. Deem and Ramdas Pophale) SiO2 
 PCOD8000635
Probable space group: P -1
;
_chemical_formula_sum "Si O2"
_cell_formula_units_Z 16
_cell_length_a 9.613934
_cell_length_b 10.021390
_cell_length_c 15.237816
_cell_angle_alpha 80.087733
_cell_angle_beta 132.879415
_cell_angle_gamma 70.174608
_cell_volume 821.166199
_symmetry_space_group_name_H-M "P -1"
_symmetry_group_IT_number 2
_symmetry_cell_setting 'triclinic'
loop_
_space_group_symop_operation_xyz
x,y,z
-x,-y,-z
loop_
_atom_site_type_symbol
_atom_site_label
_atom_site_fract_x
_atom_site_fract_y
_atom_site_fract_z
Si Si1 0.221132 0.463115 0.862275
Si Si2 0.132311 0.467719 0.153246
Si Si3 0.723518 0.294148 0.836997
Si Si4 0.765565 0.234277 0.145426
Si Si5 0.991457 0.141370 0.432226
Si Si6 0.175974 0.509473 0.634061
Si Si7 0.103938 0.014400 0.170537
Si Si8 0.527200 0.940721 0.617544
O O1 0.207580 0.618414 0.883038
O O2 0.124890 0.500575 0.716451
O O3 0.064622 0.437395 0.862316
O O4 0.503840 0.289611 0.001089
O O5 0.269962 0.549692 0.199315
O O6 0.335375 0.264211 0.287890
O O7 0.000000 0.500000 0.000000
O O8 0.456821 0.362681 0.744014
O O9 0.810856 0.171697 0.802915
O O10 0.905160 0.177000 0.006400
O O11 0.794638 0.206480 0.264215
O O12 0.978643 0.055268 0.207492
O O13 0.893241 0.303447 0.435112
O O14 0.256303 0.059709 0.522441
O O15 0.000000 0.000000 0.500000
O O16 0.000000 0.500000 0.500000
O O17 0.337648 0.005774 0.274444
O O18 0.500000 0.000000 0.500000
#
# Coordination Sequence:
#
# PCOD8000635 Si02
#       8
#     2   2   2   2   2   2   2   2
#     4  10  21  38  68  94 120 164 223 258 318 381
#     4  12  24  41  66 104 130 163 219 278 324 376
#     4  11  24  40  67  94 131 167 216 268 319 388
#     4  10  19  39  66  88 123 167 211 264 309 386
#     4  11  24  37  62  94 124 161 211 268 322 369
#     4  11  23  45  64  89 129 177 213 254 325 396
#     4  11  21  42  64  93 126 174 215 259 322 385
#     4  12  22  40  65  92 129 168 215 262 319 387
#
# _framework density 19.484483000000001
#
# number of rings (size 3 to 8) (size 9 to 14) (size 15 to 20)
#    0.000    1.000    5.000    2.250    5.250    0.000 
#    2.250    1.875    0.000    0.000    0.000    0.000 
#    0.000    0.000    0.000    0.000    0.000    0.000 
#
# Total GULP energy -198404.112392 kJ/mol
# GULP energy per Si atom -12400.257024 kJ/mol
# Density = 1.944014 g / cm^3
# Si number density = 19.484483 Si / 1000 Ang^3
#
#
#
# Elastic Constant Matrix: (Units=GPa)
#
#
# Indices 1 2 3 4 5 6 
#
# 1 78.7767 25.0684 31.9327 7.9268 -1.5411 -4.0250
# 2 25.0684 112.1719 48.5616 6.5892 -12.5270 -0.8574
# 3 31.9327 48.5616 115.0617 6.4381 4.8607 7.7531
# 4 7.9268 6.5892 6.4381 34.2238 5.0100 0.8262
# 5 -1.5411 -12.5270 4.8607 5.0100 26.0600 -6.9778
# 6 -4.0250 -0.8574 7.7531 0.8262 -6.9778 32.6867
#
#
#
# Elastic Compliance Matrix: (Units=1/GPa)
#
#
# Indices 1 2 3 4 5 6 
#
# 1 0.015172 -0.001244 -0.003849 -0.002996 0.002492 0.003356
# 2 -0.001244 0.012649 -0.005435 -0.002431 0.008376 0.003317
# 3 -0.003849 -0.005435 0.012639 0.000660 -0.006678 -0.005057
# 4 -0.002996 -0.002431 0.000660 0.031562 -0.008387 -0.003178
# 5 0.002492 0.008376 -0.006678 -0.008387 0.048817 0.012744
# 6 0.003356 0.003317 -0.005057 -0.003178 0.012744 0.035094
#
#
# Mechanical properties :
#
#
# Convention : Reuss Voigt Hill
#
# Bulk Modulus (GPa) = 51.53617 57.45954 54.49786
# Shear Modulus (GPa) = 27.25423 31.95727 29.60575
#
# Velocity S-wave (km/s) = 3.74406 4.05426 3.90224
# Velocity P-wave (km/s) = 6.72294 7.17425 6.95226
#
# Compressibility (1/GPa) = 0.01940385
#
# Stress axis : x y z
#
# Youngs Moduli (GPa) = 65.91033 79.05565 79.12109
#
# Poissons Ratio (x) = 0.09837 0.30456
# Poissons Ratio (y) = 0.08201 0.42999
# Poissons Ratio (z) = 0.25371 0.42964
#
# Static dielectric constant tensor:
#      x y z
#    x 3.427660 -0.196730 0.212630 
#    y -0.196730 3.575560 0.013330 
#    z 0.212630 0.013330 3.665890 
# 
# 
# High freq. dielectric constant tensor:
#      x y z
#    x 1.758220 -0.013490 0.010360 
#    y -0.013490 1.751690 -0.000740 
#    z 0.010360 -0.000740 1.772530 
# 
# From -- ./inp_files/244727.got.cif
#   From: 2010.06.25/outbox.cif.g09.slc.cpg/sg2_123_cif.got.tgz:244727.got - 2010.06.27 13:26:56.
