data_PCOD8000078
_publ_section_title
;
Structure prediction by ZEFSAII (Michael W. Deem and Ramdas Pophale) SiO2 
 PCOD8000078
Probable space group: P 1
;
_chemical_formula_sum "Si O2"
_cell_formula_units_Z 8
_cell_length_a 9.981831
_cell_length_b 5.113018
_cell_length_c 13.146237
_cell_angle_alpha 70.307714
_cell_angle_beta 148.688673
_cell_angle_gamma 106.855903
_cell_volume 328.288345
_symmetry_space_group_name_H-M "P 1"
_symmetry_group_IT_number 1
_symmetry_cell_setting 'triclinic'
loop_
_space_group_symop_operation_xyz
x,y,z
loop_
_atom_site_type_symbol
_atom_site_label
_atom_site_fract_x
_atom_site_fract_y
_atom_site_fract_z
Si Si1 0.765520 0.287020 0.352500
Si Si2 0.742756 0.480758 0.092138
Si Si3 0.278218 0.093324 0.153082
Si Si4 0.452329 0.189580 0.645524
Si Si5 0.732790 0.775410 0.508460
Si Si6 0.800883 0.174490 0.687499
Si Si7 0.931877 0.070978 0.113584
Si Si8 0.258518 0.607632 0.621077
O O1 0.682256 0.316705 0.177593
O O2 0.501723 0.327017 0.243211
O O3 0.878528 0.976831 0.493520
O O4 0.979206 0.513474 0.493553
O O5 0.939031 0.295289 0.178194
O O6 0.898616 0.763767 0.179484
O O7 0.473723 0.525578 0.853914
O O8 0.425328 0.794241 0.279891
O O9 0.187816 0.123273 0.206787
O O10 0.049139 0.100962 0.924079
O O11 0.551204 0.229874 0.589233
O O12 0.311137 0.456148 0.566292
O O13 0.251031 0.934106 0.550327
O O14 0.693434 0.111988 0.879820
O O15 0.766831 0.915862 0.624308
O O16 0.845163 0.465481 0.617934
#
# Coordination Sequence:
#
# PCOD8000078 Si02
#       8
#     1   1   1   1   1   1   1   1
#     4  10  25  44  63 103 130 178 217 271 328 403
#     4  10  22  41  67  91 129 177 213 271 333 380
#     4   9  24  46  67 103 133 172 224 280 325 402
#     4   9  20  38  68  93 126 172 218 270 327 388
#     4  10  26  40  65 101 130 176 221 265 332 397
#     4  11  22  46  68  97 133 177 218 279 335 377
#     4   9  20  42  66  95 126 170 223 270 326 388
#     4  10  21  41  62  95 131 166 220 270 322 401
#
# _framework density 24.368818999999998
#
# number of rings (size 3 to 8) (size 9 to 14) (size 15 to 20)
#    0.750    1.500    0.000    0.750    1.750   11.000 
#    4.500    0.000    0.000    0.000    0.000    0.000 
#    0.000    0.000    0.000    0.000    0.000    0.000 
#
# Total GULP energy -99138.573849 kJ/mol
# GULP energy per Si atom -12392.321731 kJ/mol
# Density = 2.431335 g / cm^3
# Si number density = 24.368819 Si / 1000 Ang^3
#
#
#
# Elastic Constant Matrix: (Units=GPa)
#
#
# Indices 1 2 3 4 5 6 
#
# 1 72.7584 12.8606 21.3599 24.2390 -1.4924 27.5218
# 2 12.8606 72.8839 25.0881 -1.9367 -5.8589 9.0268
# 3 21.3599 25.0881 84.7223 -4.9374 -5.8432 2.3230
# 4 24.2390 -1.9367 -4.9374 19.5624 6.0184 5.1928
# 5 -1.4924 -5.8589 -5.8432 6.0184 34.4303 2.1269
# 6 27.5218 9.0268 2.3230 5.1928 2.1269 42.9537
#
#
#
# Elastic Compliance Matrix: (Units=1/GPa)
#
#
# Indices 1 2 3 4 5 6 
#
# 1 0.045163 -0.001493 -0.012928 -0.056967 0.010800 -0.021572
# 2 -0.001493 0.015877 -0.003989 0.002581 0.001667 -0.002559
# 3 -0.012928 -0.003989 0.017044 0.018955 -0.002031 0.006009
# 4 -0.056967 0.002581 0.018955 0.128209 -0.022493 0.020547
# 5 0.010800 0.001667 -0.002031 -0.022493 0.033761 -0.006113
# 6 -0.021572 -0.002559 0.006009 0.020547 -0.006113 0.035134
#
#
# Mechanical properties :
#
#
# Convention : Reuss Voigt Hill
#
# Bulk Modulus (GPa) = 24.23479 38.77574 31.50527
# Shear Modulus (GPa) = 15.34861 30.79303 23.07082
#
# Velocity S-wave (km/s) = 2.51240 3.55861 3.08024
# Velocity P-wave (km/s) = 4.28751 5.72988 5.06035
#
# Compressibility (1/GPa) = 0.04126299
#
# Stress axis : x y z
#
# Youngs Moduli (GPa) = 22.14203 62.98571 58.67259
#
# Poissons Ratio (x) = 0.09403 0.75851
# Poissons Ratio (y) = 0.03306 0.23407
# Poissons Ratio (z) = 0.28625 0.25128
#
# Static dielectric constant tensor:
#      x y z
#    x 4.495010 0.107940 -0.080970 
#    y 0.107940 4.264380 -0.062330 
#    z -0.080970 -0.062330 4.406010 
# 
# 
# High freq. dielectric constant tensor:
#      x y z
#    x 1.968220 0.009300 -0.011080 
#    y 0.009300 1.955730 -0.001340 
#    z -0.011080 -0.001340 1.985390 
# 
# From -- ./inp_files/7213.got.cif
#   From: 2010.03.12/outbox.cif.g09.slc.cpg/sg1_4_cif.got.tgz:7213.got - 2010.03.29 11:57:58.
