data_PCOD8000009
_publ_section_title
;
Structure prediction by ZEFSAII (Michael W. Deem and Ramdas Pophale) SiO2 
 PCOD8000009
Probable space group: P 1
;
_chemical_formula_sum "Si O2"
_cell_formula_units_Z 8
_cell_length_a 6.332470
_cell_length_b 11.230942
_cell_length_c 8.571463
_cell_angle_alpha 113.525103
_cell_angle_beta 69.640694
_cell_angle_gamma 61.677008
_cell_volume 367.167192
_symmetry_space_group_name_H-M "P 1"
_symmetry_group_IT_number 1
_symmetry_cell_setting 'triclinic'
loop_
_space_group_symop_operation_xyz
x,y,z
loop_
_atom_site_type_symbol
_atom_site_label
_atom_site_fract_x
_atom_site_fract_y
_atom_site_fract_z
Si Si1 0.586690 0.956930 0.036680
Si Si2 0.150371 0.782106 0.988099
Si Si3 0.674004 0.245719 0.782795
Si Si4 0.833840 0.616501 0.643014
Si Si5 0.737919 0.478815 0.072355
Si Si6 0.207978 0.464308 0.771581
Si Si7 0.155698 0.321938 0.158352
Si Si8 0.266231 0.885144 0.307392
O O1 0.489494 0.899600 0.172620
O O2 0.275121 0.165209 0.169770
O O3 0.721593 0.813094 0.782954
O O4 0.872986 0.935245 0.012456
O O5 0.517635 0.657980 0.774931
O O6 0.095069 0.651976 0.954755
O O7 0.072520 0.887250 0.223872
O O8 0.574456 0.298892 0.651992
O O9 0.630494 0.400790 0.959013
O O10 0.462216 0.232460 0.929233
O O11 0.038608 0.046734 0.577914
O O12 0.124541 0.474295 0.618143
O O13 0.001188 0.511314 0.382575
O O14 0.458837 0.701150 0.264528
O O15 0.860835 0.385246 0.164107
O O16 0.039952 0.420947 0.887034
#
# Coordination Sequence:
#
# PCOD8000009 Si02
#       8
#     1   1   1   1   1   1   1   1
#     4  10  24  42  65 103 130 170 226 274 320 397
#     4  10  19  40  70  96 127 164 226 271 325 368
#     4  11  26  41  67  99 136 178 215 270 335 391
#     4  10  22  42  67  95 133 174 216 275 323 390
#     4  11  23  46  63  96 138 174 219 269 328 396
#     4  10  19  41  67  98 126 167 226 267 316 392
#     4  11  28  42  63  99 142 174 213 270 340 391
#     4  11  23  40  72  98 126 177 227 272 317 393
#
# _framework density 21.788440999999999
#
# number of rings (size 3 to 8) (size 9 to 14) (size 15 to 20)
#    0.000    1.500    5.000    0.000    5.250    8.000 
#    0.000    0.000    0.000    0.000    0.000    0.000 
#    0.000    0.000    0.000    0.000    0.000    0.000 
#
# Total GULP energy -99112.002929 kJ/mol
# GULP energy per Si atom -12389.000366 kJ/mol
# Density = 2.173885 g / cm^3
# Si number density = 21.788441 Si / 1000 Ang^3
#
#
#
# Elastic Constant Matrix: (Units=GPa)
#
#
# Indices 1 2 3 4 5 6 
#
# 1 101.1736 41.1682 11.5084 -1.4819 4.7428 -20.3573
# 2 41.1682 105.1732 23.3049 21.0291 -0.4656 -25.2834
# 3 11.5084 23.3049 99.5032 12.4636 -2.2450 -8.8867
# 4 -1.4819 21.0291 12.4636 26.5360 -5.1942 0.1708
# 5 4.7428 -0.4656 -2.2450 -5.1942 17.4965 -1.7632
# 6 -20.3573 -25.2834 -8.8867 0.1708 -1.7632 36.0768
#
#
#
# Elastic Compliance Matrix: (Units=1/GPa)
#
#
# Indices 1 2 3 4 5 6 
#
# 1 0.012836 -0.004961 -0.000623 0.004528 -0.001995 0.003494
# 2 -0.004961 0.016269 -0.000881 -0.013078 -0.001374 0.008380
# 3 -0.000623 -0.000881 0.011057 -0.004459 0.000421 0.001796
# 4 0.004528 -0.013078 -0.004459 0.052956 0.012835 -0.007333
# 5 -0.001995 -0.001374 0.000421 0.012835 0.061620 0.000966
# 6 0.003494 0.008380 0.001796 -0.007333 0.000966 0.036088
#
#
# Mechanical properties :
#
#
# Convention : Reuss Voigt Hill
#
# Bulk Modulus (GPa) = 36.72033 50.86810 43.79422
# Shear Modulus (GPa) = 23.49273 31.34641 27.41957
#
# Velocity S-wave (km/s) = 3.28719 3.79710 3.55131
# Velocity P-wave (km/s) = 5.59439 6.52847 6.07940
#
# Compressibility (1/GPa) = 0.02723287
#
# Stress axis : x y z
#
# Youngs Moduli (GPa) = 77.90406 61.46842 90.44236
#
# Poissons Ratio (x) = 0.30492 0.05633
# Poissons Ratio (y) = 0.38645 0.07967
# Poissons Ratio (z) = 0.04852 0.05415
#
# Static dielectric constant tensor:
#      x y z
#    x 4.303490 -0.456600 0.120510 
#    y -0.456600 4.051810 0.117030 
#    z 0.120510 0.117030 3.606460 
# 
# 
# High freq. dielectric constant tensor:
#      x y z
#    x 1.869100 -0.019310 0.007320 
#    y -0.019310 1.850410 0.016210 
#    z 0.007320 0.016210 1.833900 
# 
# From -- ./inp_files/1061.got.cif
#   From: 2010.03.12/outbox.cif.g09.slc.cpg/sg1_1_cif.got.tgz:1061.got - 2010.03.29 11:57:58.
