data_PCOD8000890
_publ_section_title
;
Structure prediction by ZEFSAII (Michael W. Deem and Ramdas Pophale) SiO2 
 PCOD8000890
Probable space group: P -1
;
_chemical_formula_sum "Si O2"
_cell_formula_units_Z 16
_cell_length_a 8.630810
_cell_length_b 10.982463
_cell_length_c 8.167906
_cell_angle_alpha 71.685476
_cell_angle_beta 63.860285
_cell_angle_gamma 87.297262
_cell_volume 656.028797
_symmetry_space_group_name_H-M "P -1"
_symmetry_group_IT_number 2
_symmetry_cell_setting 'triclinic'
loop_
_space_group_symop_operation_xyz
x,y,z
-x,-y,-z
loop_
_atom_site_type_symbol
_atom_site_label
_atom_site_fract_x
_atom_site_fract_y
_atom_site_fract_z
Si Si1 0.265890 0.838419 0.368559
Si Si2 0.457763 0.726678 0.601956
Si Si3 0.660474 0.909899 0.650483
Si Si4 0.765142 0.768721 0.968522
Si Si5 0.877702 0.238792 0.047510
Si Si6 0.488591 0.537387 0.178379
Si Si7 0.116434 0.624430 0.335707
Si Si8 0.678466 0.023370 0.050793
O O1 0.398988 0.753093 0.434393
O O2 0.099459 0.743623 0.421403
O O3 0.209884 0.953808 0.468952
O O4 0.358056 0.909218 0.135449
O O5 0.616280 0.837032 0.530575
O O6 0.525518 0.586958 0.643600
O O7 0.297076 0.725388 0.802017
O O8 0.728069 0.806025 0.783727
O O9 0.486197 0.968593 0.762450
O O10 0.655850 0.632700 0.115048
O O11 0.969673 0.755627 0.893074
O O12 0.717248 0.876471 0.073153
O O13 0.939082 0.344055 0.835012
O O14 0.843354 0.100378 0.032563
O O15 0.319626 0.609548 0.251796
O O16 0.500000 0.500000 0.000000
O O17 0.000000 0.500000 0.500000
#
# Coordination Sequence:
#
# PCOD8000890 Si02
#       8
#     2   2   2   2   2   2   2   2
#     4  10  21  38  65  91 121 159 211 256 309 361
#     4  11  23  40  64  94 127 166 205 256 312 382
#     4  10  19  40  65  89 124 163 207 258 309 373
#     4  11  20  35  67  95 116 164 210 253 304 371
#     4  10  22  40  65  92 126 164 209 255 317 372
#     4  12  23  43  66  90 127 170 213 248 314 382
#     4  11  25  46  62  90 130 167 208 266 311 363
#     4   9  19  40  64  89 126 159 207 261 310 367
#
# _framework density 24.389171999999999
#
# number of rings (size 3 to 8) (size 9 to 14) (size 15 to 20)
#    0.000    1.500    2.500    4.500    1.750    2.000 
#    4.500    2.500    2.750    0.000    0.000    0.000 
#    0.000    0.000    0.000    0.000    0.000    0.000 
#
# Total GULP energy -198341.447225 kJ/mol
# GULP energy per Si atom -12396.340452 kJ/mol
# Density = 2.433366 g / cm^3
# Si number density = 24.389172 Si / 1000 Ang^3
#
#
#
# Elastic Constant Matrix: (Units=GPa)
#
#
# Indices 1 2 3 4 5 6 
#
# 1 92.7314 18.9711 6.0013 -0.0668 7.6376 13.8119
# 2 18.9711 113.9150 20.3463 -26.0131 -3.8993 23.9116
# 3 6.0013 20.3463 42.2457 -10.0266 6.2438 16.1162
# 4 -0.0668 -26.0131 -10.0266 31.8889 2.7790 -0.0728
# 5 7.6376 -3.8993 6.2438 2.7790 29.8293 -8.2439
# 6 13.8119 23.9116 16.1162 -0.0728 -8.2439 38.6906
#
#
#
# Elastic Compliance Matrix: (Units=1/GPa)
#
#
# Indices 1 2 3 4 5 6 
#
# 1 0.012169 -0.001446 0.001665 -0.000200 -0.005079 -0.005226
# 2 -0.001446 0.013070 -0.000625 0.010517 -0.000831 -0.007458
# 3 0.001665 -0.000625 0.035447 0.011817 -0.013984 -0.017931
# 4 -0.000200 0.010517 0.011817 0.044392 -0.008816 -0.013146
# 5 -0.005079 -0.000831 -0.013984 -0.008816 0.043260 0.017353
# 6 -0.005226 -0.007458 -0.017931 -0.013146 0.017353 0.043462
#
#
# Mechanical properties :
#
#
# Convention : Reuss Voigt Hill
#
# Bulk Modulus (GPa) = 16.70222 37.72552 27.21387
# Shear Modulus (GPa) = 23.52163 33.65331 28.58747
#
# Velocity S-wave (km/s) = 3.10890 3.71866 3.42736
# Velocity P-wave (km/s) = 4.44410 5.82577 5.18120
#
# Compressibility (1/GPa) = 0.05987227
#
# Stress axis : x y z
#
# Youngs Moduli (GPa) = 82.17883 76.51277 28.21089
#
# Poissons Ratio (x) = 0.11068 -0.04696
# Poissons Ratio (y) = 0.11887 0.01763
# Poissons Ratio (z) = -0.13681 0.04782
#
# Static dielectric constant tensor:
#      x y z
#    x 4.340650 0.399920 0.197100 
#    y 0.399920 4.915820 -0.156590 
#    z 0.197100 -0.156590 4.121770 
# 
# 
# High freq. dielectric constant tensor:
#      x y z
#    x 1.961540 0.024340 0.023480 
#    y 0.024340 1.983930 -0.015420 
#    z 0.023480 -0.015420 1.946690 
# 
# From -- ./inp_files/185762.got.cif
#   From: 2010.06.25/outbox.cif.g09.slc.cpg/sg2_93_cif.got.tgz:185762.got - 2010.06.27 13:26:56.
