data_PCOD8000760
_publ_section_title
;
Structure prediction by ZEFSAII (Michael W. Deem and Ramdas Pophale) SiO2 
 PCOD8000760
Probable space group: P -1
;
_chemical_formula_sum "Si O2"
_cell_formula_units_Z 16
_cell_length_a 8.939397
_cell_length_b 8.524211
_cell_length_c 12.175353
_cell_angle_alpha 54.210720
_cell_angle_beta 116.094587
_cell_angle_gamma 100.130533
_cell_volume 671.650450
_symmetry_space_group_name_H-M "P -1"
_symmetry_group_IT_number 2
_symmetry_cell_setting 'triclinic'
loop_
_space_group_symop_operation_xyz
x,y,z
-x,-y,-z
loop_
_atom_site_type_symbol
_atom_site_label
_atom_site_fract_x
_atom_site_fract_y
_atom_site_fract_z
Si Si1 0.560093 0.338409 0.227347
Si Si2 0.438129 0.294688 0.583395
Si Si3 0.206449 0.288136 0.183554
Si Si4 0.311396 0.851791 0.440477
Si Si5 0.668839 0.139351 0.914125
Si Si6 0.545288 0.761922 0.993201
Si Si7 0.979113 0.375343 0.882895
Si Si8 0.892625 0.468566 0.584451
O O1 0.378810 0.385555 0.207310
O O2 0.683642 0.224975 0.401374
O O3 0.628022 0.539842 0.129963
O O4 0.534986 0.205244 0.167793
O O5 0.500000 0.500000 0.500000
O O6 0.504063 0.157073 0.556350
O O7 0.513178 0.214850 0.755115
O O8 0.235669 0.335963 0.511311
O O9 0.074871 0.416585 0.163336
O O10 0.224650 0.070134 0.324383
O O11 0.146853 0.285206 0.037297
O O12 0.204572 0.719511 0.386865
O O13 0.614662 0.189007 0.000150
O O14 0.840388 0.224651 0.907809
O O15 0.689603 0.904115 0.002013
O O16 0.013084 0.420374 0.748151
O O17 0.000000 0.500000 0.500000
#
# Coordination Sequence:
#
# PCOD8000760 Si02
#       8
#     2   2   2   2   2   2   2   2
#     4  11  22  42  64 101 140 169 232 300 344 417
#     4  10  19  39  73  98 134 177 235 287 344 405
#     4  11  25  43  71 103 134 193 233 292 362 418
#     4  11  23  45  73 104 134 188 243 288 351 427
#     4  11  20  43  65 100 134 186 240 282 340 426
#     4  10  23  36  65 101 131 176 226 291 354 396
#     4  11  24  46  69  96 150 185 234 293 356 425
#     4  11  25  45  70 106 143 187 226 297 356 419
#
# _framework density 23.821916000000002
#
# number of rings (size 3 to 8) (size 9 to 14) (size 15 to 20)
#    0.000    1.250    3.750    3.375    0.000    4.500 
#    6.750    0.625    0.000    0.000    0.000    0.000 
#    0.000    0.000    0.000    0.000    0.000    0.000 
#
# Total GULP energy -198389.986797 kJ/mol
# GULP energy per Si atom -12399.374175 kJ/mol
# Density = 2.376770 g / cm^3
# Si number density = 23.821916 Si / 1000 Ang^3
#
#
#
# Elastic Constant Matrix: (Units=GPa)
#
#
# Indices 1 2 3 4 5 6 
#
# 1 56.8789 8.7177 20.1131 -5.5514 -13.3512 -4.8395
# 2 8.7177 100.1933 40.9217 -7.8062 -5.2062 -0.7045
# 3 20.1131 40.9217 173.8867 7.3976 -12.6951 -2.9970
# 4 -5.5514 -7.8062 7.3976 38.1317 -6.4092 -7.3280
# 5 -13.3512 -5.2062 -12.6951 -6.4092 34.9549 10.1342
# 6 -4.8395 -0.7045 -2.9970 -7.3280 10.1342 30.0357
#
#
#
# Elastic Compliance Matrix: (Units=1/GPa)
#
#
# Indices 1 2 3 4 5 6 
#
# 1 0.020725 -0.000202 -0.001979 0.004976 0.007557 0.001801
# 2 -0.000202 0.011403 -0.002705 0.003081 0.001104 0.000344
# 3 -0.001979 -0.002705 0.006774 -0.002085 0.001088 -0.000582
# 4 0.004976 0.003081 -0.002085 0.030071 0.005316 0.006209
# 5 0.007557 0.001104 0.001088 0.005316 0.035759 -0.009416
# 6 0.001801 0.000344 -0.000582 0.006209 -0.009416 0.038226
#
#
# Mechanical properties :
#
#
# Convention : Reuss Voigt Hill
#
# Bulk Modulus (GPa) = 34.32735 52.27377 43.30056
# Shear Modulus (GPa) = 30.78072 38.03820 34.40946
#
# Velocity S-wave (km/s) = 3.59850 4.00030 3.80471
# Velocity P-wave (km/s) = 5.63089 6.58238 6.12514
#
# Compressibility (1/GPa) = 0.02913129
#
# Stress axis : x y z
#
# Youngs Moduli (GPa) = 48.25156 87.69762 147.61572
#
# Poissons Ratio (x) = 0.01772 0.29206
# Poissons Ratio (y) = 0.00975 0.39925
# Poissons Ratio (z) = 0.09547 0.23719
#
# Static dielectric constant tensor:
#      x y z
#    x 4.404460 -0.146010 -0.031390 
#    y -0.146010 4.382240 0.088480 
#    z -0.031390 0.088480 4.381750 
# 
# 
# High freq. dielectric constant tensor:
#      x y z
#    x 1.919940 -0.008240 -0.019780 
#    y -0.008240 1.951410 0.003120 
#    z -0.019780 0.003120 1.953790 
# 
# From -- ./inp_files/381456.got.cif
#   From: 2010.06.25/outbox.cif.g09.slc.cpg/sg2_191_cif.got.tgz:381456.got - 2010.06.27 13:26:56.
