data_PCOD8000577
_publ_section_title
;
Structure prediction by ZEFSAII (Michael W. Deem and Ramdas Pophale) SiO2 
 PCOD8000577
Probable space group: P -1
;
_chemical_formula_sum "Si O2"
_cell_formula_units_Z 16
_cell_length_a 18.020368
_cell_length_b 11.794641
_cell_length_c 8.914563
_cell_angle_alpha 105.066906
_cell_angle_beta 140.200174
_cell_angle_gamma 45.654180
_cell_volume 690.411689
_symmetry_space_group_name_H-M "P -1"
_symmetry_group_IT_number 2
_symmetry_cell_setting 'triclinic'
loop_
_space_group_symop_operation_xyz
x,y,z
-x,-y,-z
loop_
_atom_site_type_symbol
_atom_site_label
_atom_site_fract_x
_atom_site_fract_y
_atom_site_fract_z
Si Si1 0.300740 0.604605 0.173990
Si Si2 0.305714 0.171166 0.054935
Si Si3 0.080693 0.722738 0.174356
Si Si4 0.900192 0.497911 0.668693
Si Si5 0.280368 0.103534 0.431038
Si Si6 0.032755 0.991219 0.372779
Si Si7 0.767809 0.937795 0.339368
Si Si8 0.189027 0.485054 0.795303
O O1 0.500000 0.500000 0.500000
O O2 0.183853 0.657524 0.155428
O O3 0.172318 0.803693 0.951257
O O4 0.347368 0.451626 0.090014
O O5 0.517632 0.041978 0.399981
O O6 0.346263 0.019373 0.968864
O O7 0.207289 0.343959 0.848765
O O8 0.141368 0.285714 0.967182
O O9 0.175688 0.529390 0.331681
O O10 0.109436 0.808252 0.358186
O O11 0.847685 0.894069 0.841939
O O12 0.848937 0.672331 0.690220
O O13 0.796824 0.540981 0.369853
O O14 0.346894 0.005619 0.667598
O O15 0.206294 0.943672 0.597096
O O16 0.000000 0.000000 0.500000
O O17 0.982419 0.705996 0.602801
#
# Coordination Sequence:
#
# PCOD8000577 Si02
#       8
#     2   2   2   2   2   2   2   2
#     4  11  25  45  69 102 138 180 232 287 347 410
#     4  11  21  37  69 100 130 181 228 274 339 408
#     4  12  25  45  68  97 140 183 216 290 353 397
#     4  11  23  45  64  99 144 177 226 280 344 410
#     4  12  23  39  67 104 136 175 227 280 341 412
#     4  11  24  47  72  95 134 187 235 280 343 414
#     4  10  19  39  64  96 135 171 227 280 333 401
#     4  10  19  40  68  92 136 183 222 279 344 400
#
# _framework density 23.174579999999999
#
# number of rings (size 3 to 8) (size 9 to 14) (size 15 to 20)
#    0.000    1.000    5.000    4.125    1.750    0.500 
#    4.500    1.250    0.000    0.000    0.000    0.000 
#    0.000    0.000    0.000    0.000    0.000    0.000 
#
# Total GULP energy -198428.304574 kJ/mol
# GULP energy per Si atom -12401.769036 kJ/mol
# Density = 2.312183 g / cm^3
# Si number density = 23.174580 Si / 1000 Ang^3
#
#
#
# Elastic Constant Matrix: (Units=GPa)
#
#
# Indices 1 2 3 4 5 6 
#
# 1 125.2145 37.3489 30.7542 -2.2127 -8.7777 14.8017
# 2 37.3489 89.6823 11.0999 27.0244 4.5551 11.2124
# 3 30.7542 11.0999 70.6958 19.1703 21.0952 4.7526
# 4 -2.2127 27.0244 19.1703 33.7029 7.3734 2.3542
# 5 -8.7777 4.5551 21.0952 7.3734 33.3773 4.7028
# 6 14.8017 11.2124 4.7526 2.3542 4.7028 31.8622
#
#
#
# Elastic Compliance Matrix: (Units=1/GPa)
#
#
# Indices 1 2 3 4 5 6 
#
# 1 0.014569 -0.008242 -0.010916 0.011936 0.009864 -0.004577
# 2 -0.008242 0.020106 0.007365 -0.019623 -0.004926 -0.002168
# 3 -0.010916 0.007365 0.027974 -0.018818 -0.017725 0.002313
# 4 0.011936 -0.019623 -0.018818 0.055742 0.005504 -0.000764
# 5 0.009864 -0.004926 -0.017725 0.005504 0.044219 -0.007138
# 6 -0.004577 -0.002168 0.002313 -0.000764 -0.007138 0.035040
#
#
# Mechanical properties :
#
#
# Convention : Reuss Voigt Hill
#
# Bulk Modulus (GPa) = 25.59954 49.33319 37.46636
# Shear Modulus (GPa) = 21.34423 33.54780 27.44601
#
# Velocity S-wave (km/s) = 3.03812 3.80888 3.44512
# Velocity P-wave (km/s) = 4.83501 6.37787 5.65926
#
# Compressibility (1/GPa) = 0.03906321
#
# Stress axis : x y z
#
# Youngs Moduli (GPa) = 68.63752 49.73743 35.74792
#
# Poissons Ratio (x) = 0.40993 0.39023
# Poissons Ratio (y) = 0.56570 -0.26330
# Poissons Ratio (z) = 0.74926 -0.36633
#
# Static dielectric constant tensor:
#      x y z
#    x 4.286370 0.267600 0.111300 
#    y 0.267600 4.630030 0.582690 
#    z 0.111300 0.582690 4.401000 
# 
# 
# High freq. dielectric constant tensor:
#      x y z
#    x 1.920360 0.009370 -0.006580 
#    y 0.009370 1.911480 0.022390 
#    z -0.006580 0.022390 1.913630 
# 
# From -- ./inp_files/333449.got.cif
#   From: 2010.06.25/outbox.cif.g09.slc.cpg/sg2_167_cif.got.tgz:333449.got - 2010.06.27 13:26:56.
