data_PCOD8000370
_publ_section_title
;
Structure prediction by ZEFSAII (Michael W. Deem and Ramdas Pophale) SiO2 
 PCOD8000370
Probable space group: P -1
;
_chemical_formula_sum "Si O2"
_cell_formula_units_Z 16
_cell_length_a 9.228160
_cell_length_b 25.363409
_cell_length_c 9.113395
_cell_angle_alpha 117.602396
_cell_angle_beta 48.196709
_cell_angle_gamma 149.665427
_cell_volume 766.712101
_symmetry_space_group_name_H-M "P -1"
_symmetry_group_IT_number 2
_symmetry_cell_setting 'triclinic'
loop_
_space_group_symop_operation_xyz
x,y,z
-x,-y,-z
loop_
_atom_site_type_symbol
_atom_site_label
_atom_site_fract_x
_atom_site_fract_y
_atom_site_fract_z
Si Si1 0.586662 0.956043 0.325836
Si Si2 0.851689 0.993323 0.878772
Si Si3 0.365225 0.600583 0.297723
Si Si4 0.385252 0.394339 0.126688
Si Si5 0.302200 0.772682 0.820386
Si Si6 0.206079 0.383680 0.808290
Si Si7 0.571025 0.787535 0.383284
Si Si8 0.989585 0.283981 0.521495
O O1 0.212439 0.824949 0.418908
O O2 0.890481 0.998452 0.266535
O O3 0.500000 0.000000 0.500000
O O4 0.725862 0.992235 0.112235
O O5 0.046799 0.095169 0.787409
O O6 0.506217 0.883909 0.880831
O O7 0.659278 0.644373 0.256420
O O8 0.508797 0.702452 0.302436
O O9 0.000000 0.500000 0.500000
O O10 0.309694 0.558900 0.116876
O O11 0.491013 0.490200 0.199746
O O12 0.031518 0.294595 0.140592
O O13 0.317147 0.348363 0.275185
O O14 0.565500 0.801849 0.578380
O O15 0.165166 0.699006 0.959062
O O16 0.136374 0.362144 0.654907
O O17 0.261981 0.739848 0.438327
#
# Coordination Sequence:
#
# PCOD8000370 Si02
#       8
#     2   2   2   2   2   2   2   2
#     4  10  22  39  63  92 130 162 205 259 315 368
#     4  10  21  40  63  90 126 169 205 256 312 373
#     4  11  22  39  59  89 121 158 206 257 310 366
#     4  10  22  38  62  86 121 162 200 259 308 367
#     4  10  19  39  60  86 119 163 203 243 313 366
#     4  11  21  40  64  86 119 165 208 248 312 373
#     4  10  22  38  62  89 126 159 200 260 309 362
#     4  10  21  41  62  89 120 162 204 252 311 370
#
# _framework density 20.868328000000002
#
# number of rings (size 3 to 8) (size 9 to 14) (size 15 to 20)
#    0.000    1.750    1.250    4.500    1.750    1.000 
#    0.000    6.250    0.000    0.000    0.000    0.000 
#    0.000    0.000    0.000    0.000    0.000    0.000 
#
# Total GULP energy -198303.420750 kJ/mol
# GULP energy per Si atom -12393.963797 kJ/mol
# Density = 2.082083 g / cm^3
# Si number density = 20.868328 Si / 1000 Ang^3
#
#
#
# Elastic Constant Matrix: (Units=GPa)
#
#
# Indices 1 2 3 4 5 6 
#
# 1 40.6941 44.0773 41.6849 3.8155 11.3174 -6.5409
# 2 44.0773 156.3977 67.5238 -0.9569 8.5778 -6.8841
# 3 41.6849 67.5238 183.6700 -6.0319 33.1970 -6.8527
# 4 3.8155 -0.9569 -6.0319 41.9332 -8.5858 8.0795
# 5 11.3174 8.5778 33.1970 -8.5858 36.3328 7.9337
# 6 -6.5409 -6.8841 -6.8527 8.0795 7.9337 30.1286
#
#
#
# Elastic Compliance Matrix: (Units=1/GPa)
#
#
# Indices 1 2 3 4 5 6 
#
# 1 0.046782 -0.010058 -0.004303 -0.010454 -0.013634 0.013273
# 2 -0.010058 0.009815 -0.001953 0.001912 0.003446 -0.001805
# 3 -0.004303 -0.001953 0.008371 -0.000191 -0.006385 0.002256
# 4 -0.010454 0.001912 -0.000191 0.030050 0.012997 -0.013357
# 5 -0.013634 0.003446 -0.006385 0.012997 0.043941 -0.018681
# 6 0.013273 -0.001805 0.002256 -0.013357 -0.018681 0.044674
#
#
# Mechanical properties :
#
#
# Convention : Reuss Voigt Hill
#
# Bulk Modulus (GPa) = 30.92306 76.37044 53.64675
# Shear Modulus (GPa) = 22.02236 36.84398 29.43317
#
# Velocity S-wave (km/s) = 3.25206 4.20640 3.75963
# Velocity P-wave (km/s) = 5.38067 7.76321 6.67904
#
# Compressibility (1/GPa) = 0.03233832
#
# Stress axis : x y z
#
# Youngs Moduli (GPa) = 21.37585 101.88340 119.45794
#
# Poissons Ratio (x) = 1.02479 0.51407
# Poissons Ratio (y) = 0.21501 0.23331
# Poissons Ratio (z) = 0.09199 0.19899
#
# Static dielectric constant tensor:
#      x y z
#    x 3.446290 -0.045690 0.288370 
#    y -0.045690 3.833000 -0.281200 
#    z 0.288370 -0.281200 4.844590 
# 
# 
# High freq. dielectric constant tensor:
#      x y z
#    x 1.778040 -0.003000 0.027860 
#    y -0.003000 1.828970 -0.009180 
#    z 0.027860 -0.009180 1.841430 
# 
# From -- ./inp_files/226372.got.cif
#   From: 2010.06.25/outbox.cif.g09.slc.cpg/sg2_114_cif.got.tgz:226372.got - 2010.06.27 13:26:56.
