data_PCOD8000740
_publ_section_title
;
Structure prediction by ZEFSAII (Michael W. Deem and Ramdas Pophale) SiO2 
 PCOD8000740
Probable space group: P -1
;
_chemical_formula_sum "Si O2"
_cell_formula_units_Z 16
_cell_length_a 10.764702
_cell_length_b 8.068981
_cell_length_c 16.318935
_cell_angle_alpha 103.047934
_cell_angle_beta 51.572209
_cell_angle_gamma 64.618004
_cell_volume 720.951280
_symmetry_space_group_name_H-M "P -1"
_symmetry_group_IT_number 2
_symmetry_cell_setting 'triclinic'
loop_
_space_group_symop_operation_xyz
x,y,z
-x,-y,-z
loop_
_atom_site_type_symbol
_atom_site_label
_atom_site_fract_x
_atom_site_fract_y
_atom_site_fract_z
Si Si1 0.900481 0.211760 0.469422
Si Si2 0.762045 0.344622 0.714469
Si Si3 0.882789 0.716891 0.345190
Si Si4 0.420017 0.452634 0.663721
Si Si5 0.595840 0.907932 0.328033
Si Si6 0.952723 0.295832 0.284947
Si Si7 0.208397 0.980039 0.857925
Si Si8 0.223283 0.850947 0.008227
O O1 0.805356 0.386198 0.609480
O O2 0.707430 0.224619 0.518342
O O3 0.939471 0.309686 0.390238
O O4 0.151423 0.920559 0.355247
O O5 0.488945 0.569873 0.877798
O O6 0.917007 0.308495 0.716924
O O7 0.748631 0.875661 0.334150
O O8 0.027015 0.425477 0.242574
O O9 0.683925 0.850141 0.512061
O O10 0.340403 0.344972 0.734106
O O11 0.340923 0.690877 0.765362
O O12 0.308782 0.534830 0.627346
O O13 0.651717 0.969891 0.229911
O O14 0.146739 0.005447 0.140757
O O15 0.189221 0.019370 0.968428
O O16 0.950073 0.170671 0.942118
#
# Coordination Sequence:
#
# PCOD8000740 Si02
#       8
#     2   2   2   2   2   2   2   2
#     4  11  22  40  64  96 123 170 209 265 328 369
#     4  11  24  40  64  90 137 164 206 267 319 392
#     4  10  22  39  62  99 129 156 217 272 309 386
#     4  10  19  39  69  98 125 154 225 277 299 379
#     4  10  21  39  67 101 124 164 216 272 320 363
#     4  10  23  39  65  91 126 172 212 261 319 374
#     4  10  21  42  69  90 128 175 212 261 323 371
#     4  10  23  42  62  93 131 171 214 253 316 400
#
# _framework density 22.192900000000002
#
# number of rings (size 3 to 8) (size 9 to 14) (size 15 to 20)
#    0.000    1.750    2.500    1.125    3.500    1.500 
#    0.000   10.000    0.000    0.000    0.000    0.000 
#    0.000    0.000    0.000    0.000    0.000    0.000 
#
# Total GULP energy -198312.589377 kJ/mol
# GULP energy per Si atom -12394.536836 kJ/mol
# Density = 2.214239 g / cm^3
# Si number density = 22.192900 Si / 1000 Ang^3
#
#
#
# Elastic Constant Matrix: (Units=GPa)
#
#
# Indices 1 2 3 4 5 6 
#
# 1 49.4088 5.2666 11.5241 15.9880 -8.3702 -2.9938
# 2 5.2666 80.3054 25.4468 -1.7044 -2.0768 8.2559
# 3 11.5241 25.4468 81.9503 19.7579 -19.8722 0.8054
# 4 15.9880 -1.7044 19.7579 39.7590 -8.0612 -1.4261
# 5 -8.3702 -2.0768 -19.8722 -8.0612 32.1464 -0.2602
# 6 -2.9938 8.2559 0.8054 -1.4261 -0.2602 26.2546
#
#
#
# Elastic Compliance Matrix: (Units=1/GPa)
#
#
# Indices 1 2 3 4 5 6 
#
# 1 0.024188 -0.002110 0.000424 -0.009076 0.004172 0.002957
# 2 -0.002110 0.014894 -0.005719 0.003713 -0.002228 -0.004569
# 3 0.000424 -0.005719 0.017870 -0.007451 0.008928 0.000982
# 4 -0.009076 0.003713 -0.007451 0.032969 0.001537 -0.000168
# 5 0.004172 -0.002228 0.008928 0.001537 0.037965 0.001362
# 6 0.002957 -0.004569 0.000982 -0.000168 0.001362 0.039837
#
#
# Mechanical properties :
#
#
# Convention : Reuss Voigt Hill
#
# Bulk Modulus (GPa) = 23.72792 32.90440 28.31616
# Shear Modulus (GPa) = 25.43520 30.92714 28.18117
#
# Velocity S-wave (km/s) = 3.38908 3.73709 3.56733
# Velocity P-wave (km/s) = 5.10190 5.78618 5.45478
#
# Compressibility (1/GPa) = 0.04214444
#
# Stress axis : x y z
#
# Youngs Moduli (GPa) = 41.34290 67.14198 55.95930
#
# Poissons Ratio (x) = 0.14164 -0.02375
# Poissons Ratio (y) = 0.08721 0.32001
# Poissons Ratio (z) = -0.01755 0.38396
#
# Static dielectric constant tensor:
#      x y z
#    x 3.972820 -0.141860 0.007050 
#    y -0.141860 3.792040 0.145840 
#    z 0.007050 0.145840 3.980370 
# 
# 
# High freq. dielectric constant tensor:
#      x y z
#    x 1.857650 -0.013030 0.001720 
#    y -0.013030 1.862700 0.013810 
#    z 0.001720 0.013810 1.861510 
# 
# From -- ./inp_files/566015.got.cif
#   From: 2010.06.25/outbox.cif.g09.slc.cpg/sg2_284_cif.got.tgz:566015.got - 2010.06.27 13:26:56.
