data_PCOD8000793
_publ_section_title
;
Structure prediction by ZEFSAII (Michael W. Deem and Ramdas Pophale) SiO2 
 PCOD8000793
Probable space group: P -1
;
_chemical_formula_sum "Si O2"
_cell_formula_units_Z 16
_cell_length_a 10.635907
_cell_length_b 16.155597
_cell_length_c 13.471513
_cell_angle_alpha 80.180617
_cell_angle_beta 159.354859
_cell_angle_gamma 102.543847
_cell_volume 793.065951
_symmetry_space_group_name_H-M "P -1"
_symmetry_group_IT_number 2
_symmetry_cell_setting 'triclinic'
loop_
_space_group_symop_operation_xyz
x,y,z
-x,-y,-z
loop_
_atom_site_type_symbol
_atom_site_label
_atom_site_fract_x
_atom_site_fract_y
_atom_site_fract_z
Si Si1 0.163404 0.028329 0.300984
Si Si2 0.106643 0.153054 0.868108
Si Si3 0.797533 0.476269 0.148537
Si Si4 0.084869 0.312522 0.061652
Si Si5 0.251187 0.868131 0.176277
Si Si6 0.307120 0.741857 0.610390
Si Si7 0.133406 0.415019 0.575942
Si Si8 0.357453 0.583086 0.413674
O O1 0.325542 0.091029 0.499120
O O2 0.500000 0.000000 0.500000
O O3 0.914000 0.941658 0.175294
O O4 0.931563 0.071867 0.043000
O O5 0.937972 0.142276 0.854998
O O6 0.883126 0.207746 0.622664
O O7 0.522327 0.198143 0.183593
O O8 0.013597 0.407596 0.373913
O O9 0.074675 0.558959 0.300619
O O10 0.500000 0.500000 0.000000
O O11 0.571533 0.428980 0.899279
O O12 0.368495 0.298449 0.189063
O O13 0.308434 0.346702 0.317789
O O14 0.808337 0.225226 0.899474
O O15 0.846670 0.381025 0.834985
O O16 0.013076 0.667524 0.451858
O O17 0.000000 0.500000 0.500000
O O18 0.500000 0.500000 0.500000
#
# Coordination Sequence:
#
# PCOD8000793 Si02
#       8
#     2   2   2   2   2   2   2   2
#     4  10  16  27  40  62  94 130 169 202 244 303
#     4  10  18  27  42  66 100 133 164 209 254 300
#     4  10  19  34  52  71  93 129 169 206 248 301
#     4  11  20  34  49  69  97 131 174 214 249 302
#     4  10  18  27  44  64  88 131 175 206 238 299
#     4  11  19  30  47  72  97 132 175 211 248 298
#     4  10  19  30  47  68  92 124 166 210 241 283
#     4  12  24  37  53  74 102 136 172 218 262 296
#
# _framework density 20.174868
#
# number of rings (size 3 to 8) (size 9 to 14) (size 15 to 20)
#    0.000    1.500    0.000   12.375    0.000    0.000 
#    0.000    0.000    0.000    0.000    0.000    0.000 
#    0.000    0.000    0.000   78.750    0.000   52.750 
#
# Total GULP energy -198244.636812 kJ/mol
# GULP energy per Si atom -12390.289801 kJ/mol
# Density = 2.012895 g / cm^3
# Si number density = 20.174868 Si / 1000 Ang^3
#
#
#
# Elastic Constant Matrix: (Units=GPa)
#
#
# Indices 1 2 3 4 5 6 
#
# 1 16.0663 18.0204 26.1008 -1.5524 -7.5487 1.8254
# 2 18.0204 141.5684 64.8444 10.5216 -12.0371 12.9783
# 3 26.1008 64.8444 164.8639 3.2794 -46.9845 9.1411
# 4 -1.5524 10.5216 3.2794 49.8989 3.0394 -15.4562
# 5 -7.5487 -12.0371 -46.9845 3.0394 24.8250 -4.0528
# 6 1.8254 12.9783 9.1411 -15.4562 -4.0528 19.8752
#
#
#
# Elastic Compliance Matrix: (Units=1/GPa)
#
#
# Indices 1 2 3 4 5 6 
#
# 1 0.089667 -0.007419 -0.010869 0.007343 0.003510 0.008034
# 2 -0.007419 0.010533 -0.003944 -0.004693 -0.005535 -0.009160
# 3 -0.010869 -0.003944 0.017364 -0.002571 0.027841 -0.000734
# 4 0.007343 -0.004693 -0.002571 0.029672 -0.004335 0.025763
# 5 0.003510 -0.005535 0.027841 -0.004335 0.092877 0.006055
# 6 0.008034 -0.009160 -0.000734 0.025763 0.006055 0.077165
#
#
# Mechanical properties :
#
#
# Convention : Reuss Voigt Hill
#
# Bulk Modulus (GPa) = 13.68016 60.04773 36.86394
# Shear Modulus (GPa) = 12.94974 33.15536 23.05255
#
# Velocity S-wave (km/s) = 2.53627 4.05828 3.38396
# Velocity P-wave (km/s) = 3.92077 7.19637 5.79483
#
# Compressibility (1/GPa) = 0.07309858
#
# Stress axis : x y z
#
# Youngs Moduli (GPa) = 11.15239 94.94240 57.59065
#
# Poissons Ratio (x) = 0.70440 0.62595
# Poissons Ratio (y) = 0.08274 0.22715
# Poissons Ratio (z) = 0.12122 0.37448
#
# Static dielectric constant tensor:
#      x y z
#    x 2.963710 -0.070250 -0.333530 
#    y -0.070250 4.666090 0.940660 
#    z -0.333530 0.940660 4.255780 
# 
# 
# High freq. dielectric constant tensor:
#      x y z
#    x 1.706820 0.021130 -0.045310 
#    y 0.021130 1.800870 0.016650 
#    z -0.045310 0.016650 1.815330 
# 
# From -- ./inp_files/77708.got.cif
#   From: 2010.06.25/outbox.cif.g09.slc.cpg/sg2_39_cif.got.tgz:77708.got - 2010.06.27 13:26:56.
