data_PCOD8000317
_publ_section_title
;
Structure prediction by ZEFSAII (Michael W. Deem and Ramdas Pophale) SiO2 
 PCOD8000317
Probable space group: P -1
;
_chemical_formula_sum "Si O2"
_cell_formula_units_Z 16
_cell_length_a 15.919460
_cell_length_b 11.535011
_cell_length_c 11.062574
_cell_angle_alpha 76.641147
_cell_angle_beta 63.820421
_cell_angle_gamma 131.532166
_cell_volume 855.070666
_symmetry_space_group_name_H-M "P -1"
_symmetry_group_IT_number 2
_symmetry_cell_setting 'triclinic'
loop_
_space_group_symop_operation_xyz
x,y,z
-x,-y,-z
loop_
_atom_site_type_symbol
_atom_site_label
_atom_site_fract_x
_atom_site_fract_y
_atom_site_fract_z
Si Si1 0.119167 0.252716 0.228122
Si Si2 0.052620 0.448791 0.821404
Si Si3 0.140262 0.991614 0.980921
Si Si4 0.270170 0.491825 0.577360
Si Si5 0.416421 0.431277 0.862762
Si Si6 0.780799 0.696604 0.588765
Si Si7 0.377140 0.205096 0.569245
Si Si8 0.019747 0.673066 0.834125
O O1 0.130458 0.275466 0.360687
O O2 0.093607 0.354827 0.164464
O O3 0.322250 0.425859 0.008907
O O4 0.936409 0.966633 0.375814
O O5 0.231152 0.590989 0.595733
O O6 0.023683 0.555004 0.782673
O O7 0.094610 0.477419 0.931796
O O8 0.860307 0.155600 0.981404
O O9 0.245435 0.152638 0.995944
O O10 0.245367 0.146396 0.751216
O O11 0.913568 0.781136 0.174700
O O12 0.274984 0.460027 0.441537
O O13 0.471925 0.689763 0.463594
O O14 0.586768 0.548962 0.793574
O O15 0.510178 0.589669 0.645608
O O16 0.243054 0.959606 0.645490
#
# Coordination Sequence:
#
# PCOD8000317 Si02
#       8
#     2   2   2   2   2   2   2   2
#     4  11  23  39  57  80 117 153 189 228 280 329
#     4   8  19  36  60  83 110 150 182 229 290 322
#     4   9  20  34  53  86 116 146 173 231 284 339
#     4  10  20  36  55  85 110 149 185 224 289 320
#     4  12  21  35  58  86 115 144 187 234 284 336
#     4  11  23  38  57  82 114 154 190 230 273 337
#     4  11  21  31  58  91 114 143 182 232 287 343
#     4  10  19  39  57  84 115 147 186 231 277 338
#
# _framework density 18.711903
#
# number of rings (size 3 to 8) (size 9 to 14) (size 15 to 20)
#    0.750    1.000    3.750    1.500    0.000    1.000 
#    0.000    1.875    0.000    0.750    0.000    0.000 
#    0.000    0.000    0.000    0.000    0.000    0.000 
#
# Total GULP energy -198264.296238 kJ/mol
# GULP energy per Si atom -12391.518515 kJ/mol
# Density = 1.866931 g / cm^3
# Si number density = 18.711903 Si / 1000 Ang^3
#
#
#
# Elastic Constant Matrix: (Units=GPa)
#
#
# Indices 1 2 3 4 5 6 
#
# 1 105.2744 51.8773 32.9524 12.2196 -4.3762 -10.6384
# 2 51.8773 80.1591 17.3405 4.0752 -4.8428 -7.0233
# 3 32.9524 17.3405 69.1983 4.4706 -19.2226 -1.3409
# 4 12.2196 4.0752 4.4706 21.8844 -1.0521 -5.7872
# 5 -4.3762 -4.8428 -19.2226 -1.0521 27.3385 -0.6425
# 6 -10.6384 -7.0233 -1.3409 -5.7872 -0.6425 23.6037
#
#
#
# Elastic Compliance Matrix: (Units=1/GPa)
#
#
# Indices 1 2 3 4 5 6 
#
# 1 0.016801 -0.009180 -0.006234 -0.005778 -0.003472 0.002975
# 2 -0.009180 0.018562 0.000193 0.002261 0.002089 0.002008
# 3 -0.006234 0.000193 0.021252 -0.000572 0.013926 -0.001306
# 4 -0.005778 0.002261 -0.000572 0.051510 0.001307 0.010701
# 5 -0.003472 0.002089 0.013926 0.001307 0.046269 0.001427
# 6 0.002975 0.002008 -0.001306 0.010701 0.001427 0.046893
#
#
# Mechanical properties :
#
#
# Convention : Reuss Voigt Hill
#
# Bulk Modulus (GPa) = 38.20751 50.99689 44.60220
# Shear Modulus (GPa) = 20.79421 24.72942 22.76182
#
# Velocity S-wave (km/s) = 3.33721 3.63931 3.49153
# Velocity P-wave (km/s) = 5.94243 6.70614 6.33580
#
# Compressibility (1/GPa) = 0.02617287
#
# Stress axis : x y z
#
# Youngs Moduli (GPa) = 59.51987 53.87438 47.05501
#
# Poissons Ratio (x) = 0.49457 0.29334
# Poissons Ratio (y) = 0.54640 -0.00909
# Poissons Ratio (z) = 0.37104 -0.01041
#
# Static dielectric constant tensor:
#      x y z
#    x 3.229470 -0.065500 -0.246610 
#    y -0.065500 3.445430 -0.009120 
#    z -0.246610 -0.009120 3.507210 
# 
# 
# High freq. dielectric constant tensor:
#      x y z
#    x 1.697770 -0.002130 -0.022270 
#    y -0.002130 1.723130 0.003420 
#    z -0.022270 0.003420 1.723530 
# 
# From -- ./inp_files/449984.got.cif
#   From: 2010.06.25/outbox.cif.g09.slc.cpg/sg2_225_cif.got.tgz:449984.got - 2010.06.27 13:26:56.
