data_PCOD8000830
_publ_section_title
;
Structure prediction by ZEFSAII (Michael W. Deem and Ramdas Pophale) SiO2 
 PCOD8000830
Probable space group: P -1
;
_chemical_formula_sum "Si O2"
_cell_formula_units_Z 16
_cell_length_a 9.599363
_cell_length_b 13.294834
_cell_length_c 15.804260
_cell_angle_alpha 42.687874
_cell_angle_beta 38.798812
_cell_angle_gamma 62.147770
_cell_volume 829.934604
_symmetry_space_group_name_H-M "P -1"
_symmetry_group_IT_number 2
_symmetry_cell_setting 'triclinic'
loop_
_space_group_symop_operation_xyz
x,y,z
-x,-y,-z
loop_
_atom_site_type_symbol
_atom_site_label
_atom_site_fract_x
_atom_site_fract_y
_atom_site_fract_z
Si Si1 0.279415 0.646169 0.515631
Si Si2 0.551064 0.943020 0.420026
Si Si3 0.459045 0.289555 0.823463
Si Si4 0.071867 0.096377 0.031940
Si Si5 0.019882 0.333284 0.772029
Si Si6 0.563161 0.623895 0.556306
Si Si7 0.377159 0.859467 0.005453
Si Si8 0.238258 0.957910 0.404657
O O1 0.407360 0.701757 0.333490
O O2 0.069567 0.496687 0.694790
O O3 0.458032 0.607578 0.521574
O O4 0.176843 0.779637 0.519556
O O5 0.505533 0.757963 0.556845
O O6 0.383027 0.991440 0.402056
O O7 0.500000 0.000000 0.500000
O O8 0.811900 0.017816 0.226346
O O9 0.194792 0.197240 0.991101
O O10 0.468836 0.460278 0.748883
O O11 0.578891 0.196939 0.887839
O O12 0.084471 0.204025 0.878756
O O13 0.210083 0.972339 0.019131
O O14 0.164941 0.345048 0.608602
O O15 0.752431 0.284446 0.902208
O O16 0.619117 0.940527 0.799861
O O17 0.000000 0.000000 0.500000
#
# Coordination Sequence:
#
# PCOD8000830 Si02
#       8
#     2   2   2   2   2   2   2   2
#     4  10  20  38  64  90 122 164 199 244 309 364
#     4  11  25  42  65  89 118 165 210 250 296 363
#     4  11  22  36  63  97 126 154 199 258 307 355
#     4  12  20  40  66  91 119 160 210 249 294 367
#     4  11  19  38  65  91 120 157 204 251 302 361
#     4  10  19  40  62  91 125 159 202 247 307 358
#     4  12  24  37  61 100 124 156 202 259 305 350
#     4  11  25  44  61  88 128 162 199 250 313 362
#
# _framework density 19.278628999999999
#
# number of rings (size 3 to 8) (size 9 to 14) (size 15 to 20)
#    0.000    1.000    6.250    2.250    1.750    2.000 
#    2.250    2.500    0.000    0.000    0.000    0.000 
#    0.000    0.000    0.000    0.000    0.000    0.000 
#
# Total GULP energy -198414.025091 kJ/mol
# GULP energy per Si atom -12400.876568 kJ/mol
# Density = 1.923475 g / cm^3
# Si number density = 19.278629 Si / 1000 Ang^3
#
#
#
# Elastic Constant Matrix: (Units=GPa)
#
#
# Indices 1 2 3 4 5 6 
#
# 1 118.1503 47.2796 53.8840 -7.5727 -3.2038 -3.0400
# 2 47.2796 106.1468 59.6537 -4.1821 -3.7061 6.2849
# 3 53.8840 59.6537 106.1504 -9.3450 -17.3259 -3.7584
# 4 -7.5727 -4.1821 -9.3450 30.9930 1.0964 -6.8485
# 5 -3.2038 -3.7061 -17.3259 1.0964 34.3336 2.0848
# 6 -3.0400 6.2849 -3.7584 -6.8485 2.0848 28.1475
#
#
#
# Elastic Compliance Matrix: (Units=1/GPa)
#
#
# Indices 1 2 3 4 5 6 
#
# 1 0.011717 -0.002844 -0.004404 0.001611 -0.001598 0.001823
# 2 -0.002844 0.015237 -0.007839 -0.002050 -0.002202 -0.005092
# 3 -0.004404 -0.007839 0.017739 0.003848 0.007327 0.004037
# 4 0.001611 -0.002050 0.003848 0.035708 0.000134 0.009824
# 5 -0.001598 -0.002202 0.007327 0.000134 0.032498 -0.001077
# 6 0.001823 -0.005092 0.004037 0.009824 -0.001077 0.039870
#
#
# Mechanical properties :
#
#
# Convention : Reuss Voigt Hill
#
# Bulk Modulus (GPa) = 68.87763 72.45355 70.66559
# Shear Modulus (GPa) = 26.62633 30.00350 28.31492
#
# Velocity S-wave (km/s) = 3.72039 3.94929 3.83655
# Velocity P-wave (km/s) = 7.36614 7.64590 7.50732
#
# Compressibility (1/GPa) = 0.01451850
#
# Stress axis : x y z
#
# Youngs Moduli (GPa) = 85.34394 65.62858 56.37264
#
# Poissons Ratio (x) = 0.18667 0.24827
# Poissons Ratio (y) = 0.24275 0.44192
# Poissons Ratio (z) = 0.37586 0.51448
#
# Static dielectric constant tensor:
#      x y z
#    x 3.596190 0.117520 -0.152430 
#    y 0.117520 3.559300 -0.457610 
#    z -0.152430 -0.457610 3.878110 
# 
# 
# High freq. dielectric constant tensor:
#      x y z
#    x 1.753230 0.004770 -0.008270 
#    y 0.004770 1.737170 -0.033700 
#    z -0.008270 -0.033700 1.748360 
# 
# From -- ./inp_files/177696.got.cif
#   From: 2010.06.25/outbox.cif.g09.slc.cpg/sg2_89_cif.got.tgz:177696.got - 2010.06.27 13:26:56.
