data_PCOD8000947
_publ_section_title
;
Structure prediction by ZEFSAII (Michael W. Deem and Ramdas Pophale) SiO2 
 PCOD8000947
Probable space group: P -1
;
_chemical_formula_sum "Si O2"
_cell_formula_units_Z 16
_cell_length_a 15.676316
_cell_length_b 11.705606
_cell_length_c 7.555357
_cell_angle_alpha 102.550344
_cell_angle_beta 125.034418
_cell_angle_gamma 45.307877
_cell_volume 764.496597
_symmetry_space_group_name_H-M "P -1"
_symmetry_group_IT_number 2
_symmetry_cell_setting 'triclinic'
loop_
_space_group_symop_operation_xyz
x,y,z
-x,-y,-z
loop_
_atom_site_type_symbol
_atom_site_label
_atom_site_fract_x
_atom_site_fract_y
_atom_site_fract_z
Si Si1 0.259840 0.778526 0.232813
Si Si2 0.709410 0.720338 0.984267
Si Si3 0.583396 0.172230 0.318586
Si Si4 0.885418 0.697183 0.899695
Si Si5 0.997547 0.155091 0.963466
Si Si6 0.886584 0.372228 0.228733
Si Si7 0.405476 0.501366 0.022138
Si Si8 0.190114 0.207430 0.565590
O O1 0.376372 0.771167 0.459152
O O2 0.364954 0.610504 0.182106
O O3 0.137543 0.952957 0.033662
O O4 0.161949 0.778572 0.257241
O O5 0.812994 0.519437 0.043489
O O6 0.722449 0.763829 0.212524
O O7 0.539662 0.823218 0.765138
O O8 0.752502 0.781867 0.910284
O O9 0.513733 0.303608 0.120627
O O10 0.730134 0.981912 0.369863
O O11 0.965528 0.755211 0.066277
O O12 0.816985 0.754991 0.639111
O O13 0.000000 0.500000 0.000000
O O14 0.974946 0.201957 0.162442
O O15 0.017661 0.334148 0.480627
O O16 0.755958 0.420983 0.213663
O O17 0.500000 0.500000 0.000000
#
# Coordination Sequence:
#
# PCOD8000947 Si02
#       8
#     2   2   2   2   2   2   2   2
#     4  10  19  40  67  86 124 170 211 261 324 379
#     4  11  23  39  63  94 134 172 212 266 328 384
#     4  11  23  43  60  92 132 171 211 268 335 382
#     4  11  21  39  65  97 125 162 223 262 315 391
#     4   9  18  36  67  94 118 162 218 270 306 383
#     4   9  18  39  64  87 128 166 210 265 322 379
#     4  10  23  41  61  92 127 166 214 266 324 394
#     4  11  22  42  64  93 131 173 214 268 325 379
#
# _framework density 20.928806000000002
#
# number of rings (size 3 to 8) (size 9 to 14) (size 15 to 20)
#    0.000    1.750    5.000    1.125    0.000    1.500 
#    6.750    0.625    0.000    0.000    0.000    0.000 
#    0.000    0.000    0.000    0.000    0.000    0.000 
#
# Total GULP energy -198230.360576 kJ/mol
# GULP energy per Si atom -12389.397536 kJ/mol
# Density = 2.088117 g / cm^3
# Si number density = 20.928806 Si / 1000 Ang^3
#
#
#
# Elastic Constant Matrix: (Units=GPa)
#
#
# Indices 1 2 3 4 5 6 
#
# 1 172.7585 33.5893 54.2930 -6.6487 33.0323 12.7049
# 2 33.5893 77.8709 25.9809 -8.8666 0.3349 16.0427
# 3 54.2930 25.9809 110.4485 4.9892 33.9622 0.3989
# 4 -6.6487 -8.8666 4.9892 33.2823 3.8040 6.2225
# 5 33.0323 0.3349 33.9622 3.8040 37.0809 3.0343
# 6 12.7049 16.0427 0.3989 6.2225 3.0343 26.6692
#
#
#
# Elastic Compliance Matrix: (Units=1/GPa)
#
#
# Indices 1 2 3 4 5 6 
#
# 1 0.008124 -0.002022 -0.001932 0.002484 -0.005494 -0.002580
# 2 -0.002022 0.019246 -0.006144 0.007221 0.007584 -0.013070
# 3 -0.001932 -0.006144 0.015460 -0.004179 -0.012510 0.006783
# 4 0.002484 0.007221 -0.004179 0.035767 -0.000999 -0.013696
# 5 -0.005494 0.007584 -0.012510 -0.000999 0.043887 -0.006518
# 6 -0.002580 -0.013070 0.006783 -0.013696 -0.006518 0.050423
#
#
# Mechanical properties :
#
#
# Convention : Reuss Voigt Hill
#
# Bulk Modulus (GPa) = 44.18053 65.42270 54.80162
# Shear Modulus (GPa) = 24.91925 35.88746 30.40335
#
# Velocity S-wave (km/s) = 3.45435 4.14543 3.81557
# Velocity P-wave (km/s) = 6.08817 7.36480 6.75670
#
# Compressibility (1/GPa) = 0.02263441
#
# Stress axis : x y z
#
# Youngs Moduli (GPa) = 123.08679 51.95848 64.68417
#
# Poissons Ratio (x) = 0.10506 0.12495
# Poissons Ratio (y) = 0.24888 0.39743
# Poissons Ratio (z) = 0.23777 0.31924
#
# Static dielectric constant tensor:
#      x y z
#    x 3.997440 0.176410 0.531840 
#    y 0.176410 3.958560 -0.064080 
#    z 0.531840 -0.064080 3.798810 
# 
# 
# High freq. dielectric constant tensor:
#      x y z
#    x 1.802730 0.017480 0.045200 
#    y 0.017480 1.833610 -0.008050 
#    z 0.045200 -0.008050 1.800330 
# 
# From -- ./inp_files/223036.got.cif
#   From: 2010.06.25/outbox.cif.g09.slc.cpg/sg2_112_cif.got.tgz:223036.got - 2010.06.27 13:26:56.
