data_PCOD8000818
_publ_section_title
;
Structure prediction by ZEFSAII (Michael W. Deem and Ramdas Pophale) SiO2 
 PCOD8000818
Probable space group: P -1
;
_chemical_formula_sum "Si O2"
_cell_formula_units_Z 16
_cell_length_a 15.373861
_cell_length_b 12.479160
_cell_length_c 20.720879
_cell_angle_alpha 28.118743
_cell_angle_beta 150.697696
_cell_angle_gamma 150.840254
_cell_volume 818.190533
_symmetry_space_group_name_H-M "P -1"
_symmetry_group_IT_number 2
_symmetry_cell_setting 'triclinic'
loop_
_space_group_symop_operation_xyz
x,y,z
-x,-y,-z
loop_
_atom_site_type_symbol
_atom_site_label
_atom_site_fract_x
_atom_site_fract_y
_atom_site_fract_z
Si Si1 0.845480 0.046711 0.294403
Si Si2 0.959031 0.305418 0.782762
Si Si3 0.513809 0.925435 0.396325
Si Si4 0.522956 0.233844 0.347269
Si Si5 0.126462 0.512273 0.013738
Si Si6 0.824688 0.113909 0.389072
Si Si7 0.094499 0.157771 0.076381
Si Si8 0.532039 0.531393 0.306614
O O1 0.857730 0.256752 0.141650
O O2 0.771544 0.100665 0.286442
O O3 0.693679 0.769351 0.320952
O O4 0.062220 0.057048 0.434164
O O5 0.722325 0.172839 0.712860
O O6 0.037839 0.593327 0.656196
O O7 0.011672 0.145976 0.846465
O O8 0.071221 0.307660 0.920054
O O9 0.551717 0.710269 0.571241
O O10 0.615722 0.191996 0.362588
O O11 0.618091 0.989470 0.360460
O O12 0.323021 0.245098 0.192110
O O13 0.635785 0.480413 0.335754
O O14 0.500000 0.000000 0.500000
O O15 0.016904 0.246146 0.043244
O O16 0.347615 0.580580 0.142403
O O17 0.000000 0.500000 0.000000
#
# Coordination Sequence:
#
# PCOD8000818 Si02
#       8
#     2   2   2   2   2   2   2   2
#     4  11  23  40  56  87 123 156 197 245 298 344
#     4  10  19  40  62  86 120 152 193 251 297 343
#     4  10  20  38  63  91 113 157 199 239 305 347
#     4   8  17  35  60  84 115 153 191 241 293 343
#     4  11  22  38  59  85 122 159 200 239 289 361
#     4  11  23  39  62  88 122 151 199 254 286 356
#     4   9  19  36  62  82 118 159 190 243 304 334
#     4  10  20  38  61  82 121 162 192 243 296 349
#
# _framework density 19.555347000000001
#
# number of rings (size 3 to 8) (size 9 to 14) (size 15 to 20)
#    0.000    2.000    2.500    1.125    0.000    1.500 
#    2.250    6.250    0.000    0.000    0.000    0.000 
#    0.000    0.000    0.000    0.000    0.000    0.000 
#
# Total GULP energy -198229.691623 kJ/mol
# GULP energy per Si atom -12389.355726 kJ/mol
# Density = 1.951084 g / cm^3
# Si number density = 19.555347 Si / 1000 Ang^3
#
#
#
# Elastic Constant Matrix: (Units=GPa)
#
#
# Indices 1 2 3 4 5 6 
#
# 1 146.4805 53.2350 32.5935 -19.3021 4.7016 -12.3040
# 2 53.2350 79.0638 0.8982 -17.5086 7.9657 -10.8043
# 3 32.5935 0.8982 76.5892 -16.9006 1.6549 16.9914
# 4 -19.3021 -17.5086 -16.9006 22.9986 -4.0983 7.6617
# 5 4.7016 7.9657 1.6549 -4.0983 22.0128 -6.7270
# 6 -12.3040 -10.8043 16.9914 7.6617 -6.7270 25.6188
#
#
#
# Elastic Compliance Matrix: (Units=1/GPa)
#
#
# Indices 1 2 3 4 5 6 
#
# 1 0.011556 -0.007743 -0.008248 -0.005064 0.003092 0.010081
# 2 -0.007743 0.021187 0.008557 0.017286 -0.005608 -0.007101
# 3 -0.008248 0.008557 0.030718 0.031521 -0.007600 -0.032149
# 4 -0.005064 0.017286 0.031521 0.089417 -0.004319 -0.043924
# 5 0.003092 -0.005608 -0.007600 -0.004319 0.052438 0.019221
# 6 0.010081 -0.007101 -0.032149 -0.043924 0.019221 0.080386
#
#
# Mechanical properties :
#
#
# Convention : Reuss Voigt Hill
#
# Bulk Modulus (GPa) = 20.57825 52.84298 36.71062
# Shear Modulus (GPa) = 15.78446 28.48649 22.13548
#
# Velocity S-wave (km/s) = 2.84415 3.82083 3.36808
# Velocity P-wave (km/s) = 4.61861 6.82246 5.82570
#
# Compressibility (1/GPa) = 0.04859499
#
# Stress axis : x y z
#
# Youngs Moduli (GPa) = 86.53339 47.19980 32.55372
#
# Poissons Ratio (x) = 0.36545 0.26850
# Poissons Ratio (y) = 0.66999 -0.27858
# Poissons Ratio (z) = 0.71372 -0.40391
#
# Static dielectric constant tensor:
#      x y z
#    x 3.779340 -0.703990 0.184220 
#    y -0.703990 3.598400 -0.143800 
#    z 0.184220 -0.143800 3.901410 
# 
# 
# High freq. dielectric constant tensor:
#      x y z
#    x 1.750580 -0.046040 0.003470 
#    y -0.046040 1.743260 -0.002520 
#    z 0.003470 -0.002520 1.787250 
# 
# From -- ./inp_files/354096.got.cif
#   From: 2010.06.25/outbox.cif.g09.slc.cpg/sg2_178_cif.got.tgz:354096.got - 2010.06.27 13:26:56.
