data_PCOD8000993
_publ_section_title
;
Structure prediction by ZEFSAII (Michael W. Deem and Ramdas Pophale) SiO2 
 PCOD8000993
Probable space group: P -1
;
_chemical_formula_sum "Si O2"
_cell_formula_units_Z 16
_cell_length_a 6.848410
_cell_length_b 23.175084
_cell_length_c 11.977661
_cell_angle_alpha 144.424064
_cell_angle_beta 113.494370
_cell_angle_gamma 66.971028
_cell_volume 1006.266749
_symmetry_space_group_name_H-M "P -1"
_symmetry_group_IT_number 2
_symmetry_cell_setting 'triclinic'
loop_
_space_group_symop_operation_xyz
x,y,z
-x,-y,-z
loop_
_atom_site_type_symbol
_atom_site_label
_atom_site_fract_x
_atom_site_fract_y
_atom_site_fract_z
Si Si1 0.334115 0.147565 0.210298
Si Si2 0.868496 0.713237 0.933901
Si Si3 0.631498 0.663365 0.595076
Si Si4 0.588997 0.315072 0.201140
Si Si5 0.110596 0.884715 0.027410
Si Si6 0.102777 0.062526 0.714183
Si Si7 0.467858 0.986662 0.155254
Si Si8 0.181621 0.546252 0.679736
O O1 0.396736 0.261171 0.398093
O O2 0.425692 0.097681 0.267853
O O3 0.079230 0.142758 0.139467
O O4 0.451504 0.093374 0.045889
O O5 0.923573 0.822173 0.149566
O O6 0.827191 0.703395 0.774529
O O7 0.650174 0.693387 0.916256
O O8 0.073114 0.629055 0.874412
O O9 0.427393 0.668283 0.641345
O O10 0.681965 0.549782 0.381028
O O11 0.668417 0.408419 0.304766
O O12 0.744705 0.214607 0.052790
O O13 0.016482 0.947334 0.211487
O O14 0.247126 0.957746 0.107405
O O15 0.353132 0.017957 0.714291
O O16 0.000000 0.000000 0.500000
O O17 0.000000 0.500000 0.500000
#
# Coordination Sequence:
#
# PCOD8000993 Si02
#       8
#     2   2   2   2   2   2   2   2
#     4  10  18  30  47  65 100 125 156 186 228 285
#     4   9  17  30  41  64  95 121 151 189 230 271
#     4   9  16  28  42  67  96 127 151 181 226 278
#     4  10  16  27  43  64 100 122 151 186 224 288
#     4  11  16  31  48  67  93 127 157 189 240 274
#     4  11  21  34  49  66  93 126 163 203 234 270
#     4  10  19  32  45  69  92 128 157 191 231 278
#     4  10  17  25  43  64  95 129 149 181 228 280
#
# _framework density 15.900357
#
# number of rings (size 3 to 8) (size 9 to 14) (size 15 to 20)
#    0.750    1.250    6.250    1.500    0.000    0.500 
#    0.000    0.000    0.000    0.000    0.000    0.875 
#    0.000    2.000    0.000    0.000    0.000    0.000 
#
# Total GULP energy -198245.098517 kJ/mol
# GULP energy per Si atom -12390.318657 kJ/mol
# Density = 1.586417 g / cm^3
# Si number density = 15.900357 Si / 1000 Ang^3
#
#
#
# Elastic Constant Matrix: (Units=GPa)
#
#
# Indices 1 2 3 4 5 6 
#
# 1 100.2843 33.9925 28.9063 14.9935 3.8859 8.5534
# 2 33.9925 83.2333 41.5975 34.7709 5.2737 4.1972
# 3 28.9063 41.5975 70.5607 22.4259 5.4890 -2.2699
# 4 14.9935 34.7709 22.4259 28.9981 0.1789 4.2424
# 5 3.8859 5.2737 5.4890 0.1789 17.7915 10.6506
# 6 8.5534 4.1972 -2.2699 4.2424 10.6506 20.0010
#
#
#
# Elastic Compliance Matrix: (Units=1/GPa)
#
#
# Indices 1 2 3 4 5 6 
#
# 1 0.012690 -0.004102 -0.004301 0.002841 0.004593 -0.008103
# 2 -0.004102 0.028731 -0.004937 -0.029416 -0.009750 0.006596
# 3 -0.004301 -0.004937 0.024782 -0.013342 -0.014984 0.016497
# 4 0.002841 -0.029416 -0.013342 0.082759 0.029109 -0.029610
# 5 0.004593 -0.009750 -0.014984 0.029109 0.098482 -0.060235
# 6 -0.008103 0.006596 0.016497 -0.029610 -0.060235 0.092307
#
#
# Mechanical properties :
#
#
# Convention : Reuss Voigt Hill
#
# Bulk Modulus (GPa) = 25.30285 51.45234 38.37760
# Shear Modulus (GPa) = 13.17153 23.33025 18.25089
#
# Velocity S-wave (km/s) = 2.88128 3.83466 3.39164
# Velocity P-wave (km/s) = 5.19779 7.21358 6.28700
#
# Compressibility (1/GPa) = 0.03952124
#
# Stress axis : x y z
#
# Youngs Moduli (GPa) = 78.79997 34.80529 40.35230
#
# Poissons Ratio (x) = 0.14278 0.17357
# Poissons Ratio (y) = 0.32326 0.19924
# Poissons Ratio (z) = 0.33894 0.17185
#
# Static dielectric constant tensor:
#      x y z
#    x 3.266720 -0.132500 -0.164070 
#    y -0.132500 3.022480 0.531180 
#    z -0.164070 0.531180 2.785280 
# 
# 
# High freq. dielectric constant tensor:
#      x y z
#    x 1.630280 0.004940 -0.005460 
#    y 0.004940 1.580100 0.053140 
#    z -0.005460 0.053140 1.563560 
# 
# From -- ./inp_files/370912.got.cif
#   From: 2010.06.25/outbox.cif.g09.slc.cpg/sg2_186_cif.got.tgz:370912.got - 2010.06.27 13:26:56.
