data_PCOD8000302
_publ_section_title
;
Structure prediction by ZEFSAII (Michael W. Deem and Ramdas Pophale) SiO2 
 PCOD8000302
Probable space group: P -1
;
_chemical_formula_sum "Si O2"
_cell_formula_units_Z 14
_cell_length_a 16.212876
_cell_length_b 7.503054
_cell_length_c 11.434793
_cell_angle_alpha 104.131290
_cell_angle_beta 132.916623
_cell_angle_gamma 42.705392
_cell_volume 591.868867
_symmetry_space_group_name_H-M "P -1"
_symmetry_group_IT_number 2
_symmetry_cell_setting 'triclinic'
loop_
_space_group_symop_operation_xyz
x,y,z
-x,-y,-z
loop_
_atom_site_type_symbol
_atom_site_label
_atom_site_fract_x
_atom_site_fract_y
_atom_site_fract_z
Si Si1 0.733199 0.681845 0.402426
Si Si2 0.179299 0.802310 0.956632
Si Si3 0.002273 0.146115 0.427267
Si Si4 0.392648 0.787145 0.739428
Si Si5 0.426620 0.951542 0.016010
Si Si6 0.112581 0.492701 0.225925
Si Si7 0.145175 0.496023 0.008070
O O1 0.597736 0.689394 0.230712
O O2 0.772964 0.598830 0.563857
O O3 0.917819 0.438875 0.457411
O O4 0.615867 0.020444 0.319978
O O5 0.121979 0.743374 0.999643
O O6 0.134007 0.739649 0.789169
O O7 0.400728 0.568281 0.138501
O O8 0.068255 0.137937 0.905168
O O9 0.214922 0.896490 0.545132
O O10 0.000000 0.000000 0.500000
O O11 0.365943 0.854777 0.865178
O O12 0.500000 0.000000 0.000000
O O13 0.253853 0.255307 0.970191
O O14 0.052641 0.356998 0.156378
O O15 0.235764 0.357309 0.204176
#
# Coordination Sequence:
#
# PCOD8000302 Si02
#       7
#     2   2   2   2   2   2   2
#     4  11  20  42  63  99 132 174 222 274 339 392
#     4  12  23  47  68  99 136 176 224 279 335 397
#     4  12  24  38  64 104 137 168 225 283 330 399
#     4  11  23  41  70  97 136 177 216 280 343 395
#     4  10  19  38  70  96 127 177 218 272 339 396
#     4  11  26  41  71  97 132 183 226 276 327 403
#     4  11  23  46  67  95 135 180 228 269 338 399
#
# _framework density 23.653886
#
# number of rings (size 3 to 8) (size 9 to 14) (size 15 to 20)
#    0.000    0.857    5.714    3.429    0.000    2.286 
#    0.000    0.000    0.000    3.429    0.000    0.000 
#    0.000    0.000    0.000    0.000    0.000    0.000 
#
# Total GULP energy -173465.891486 kJ/mol
# GULP energy per Si atom -12390.420820 kJ/mol
# Density = 2.360005 g / cm^3
# Si number density = 23.653886 Si / 1000 Ang^3
#
#
#
# Elastic Constant Matrix: (Units=GPa)
#
#
# Indices 1 2 3 4 5 6 
#
# 1 75.0185 -1.0037 26.2871 4.5990 -12.1981 -10.3867
# 2 -1.0037 58.5925 0.8118 -5.5715 -10.9082 -9.9384
# 3 26.2871 0.8118 102.9211 -1.8710 -11.2923 0.3596
# 4 4.5990 -5.5715 -1.8710 37.4536 -5.5817 -8.4501
# 5 -12.1981 -10.9082 -11.2923 -5.5817 31.3994 10.5392
# 6 -10.3867 -9.9384 0.3596 -8.4501 10.5392 27.9415
#
#
#
# Elastic Compliance Matrix: (Units=1/GPa)
#
#
# Indices 1 2 3 4 5 6 
#
# 1 0.015997 0.001898 -0.003708 -0.000130 0.003769 0.005208
# 2 0.001898 0.019961 0.000119 0.005265 0.006294 0.007022
# 3 -0.003708 0.000119 0.011086 0.000992 0.003618 -0.002543
# 4 -0.000130 0.005265 0.000992 0.030306 0.004395 0.009319
# 5 0.003769 0.006294 0.003618 0.004395 0.041137 -0.010594
# 6 0.005208 0.007022 -0.002543 0.009319 -0.010594 0.047070
#
#
# Mechanical properties :
#
#
# Convention : Reuss Voigt Hill
#
# Bulk Modulus (GPa) = 22.90228 32.08028 27.49128
# Shear Modulus (GPa) = 27.24927 33.38803 30.31865
#
# Velocity S-wave (km/s) = 3.39779 3.76110 3.58405
# Velocity P-wave (km/s) = 5.00965 5.69675 5.36421
#
# Compressibility (1/GPa) = 0.04366378
#
# Stress axis : x y z
#
# Youngs Moduli (GPa) = 62.51337 50.09686 90.20302
#
# Poissons Ratio (x) = -0.09509 0.33444
# Poissons Ratio (y) = -0.11866 -0.01078
# Poissons Ratio (z) = 0.23178 -0.00599
#
# Static dielectric constant tensor:
#      x y z
#    x 3.961560 0.431430 -0.610920 
#    y 0.431430 3.536730 0.688760 
#    z -0.610920 0.688760 5.012510 
# 
# 
# High freq. dielectric constant tensor:
#      x y z
#    x 1.933790 -0.002090 -0.011410 
#    y -0.002090 1.918050 0.001770 
#    z -0.011410 0.001770 1.939370 
# 
# From -- ./inp_files/427037.got.cif
#   From: 2010.06.25/outbox.cif.g09.slc.cpg/sg2_214_cif.got.tgz:427037.got - 2010.06.27 13:26:56.
