data_PCOD8000952
_publ_section_title
;
Structure prediction by ZEFSAII (Michael W. Deem and Ramdas Pophale) SiO2 
 PCOD8000952
Probable space group: P -1
;
_chemical_formula_sum "Si O2"
_cell_formula_units_Z 16
_cell_length_a 7.832073
_cell_length_b 15.397818
_cell_length_c 13.434357
_cell_angle_alpha 126.104069
_cell_angle_beta 34.156899
_cell_angle_gamma 129.721384
_cell_volume 692.779599
_symmetry_space_group_name_H-M "P -1"
_symmetry_group_IT_number 2
_symmetry_cell_setting 'triclinic'
loop_
_space_group_symop_operation_xyz
x,y,z
-x,-y,-z
loop_
_atom_site_type_symbol
_atom_site_label
_atom_site_fract_x
_atom_site_fract_y
_atom_site_fract_z
Si Si1 0.610005 0.220613 0.189866
Si Si2 0.628200 0.457738 0.677831
Si Si3 0.305597 0.301307 0.218774
Si Si4 0.125707 0.119718 0.810875
Si Si5 0.630230 0.619847 0.462674
Si Si6 0.219358 0.076081 0.027066
Si Si7 0.776561 0.292538 0.629567
Si Si8 0.840203 0.019287 0.690948
O O1 0.578834 0.278488 0.139195
O O2 0.587072 0.303755 0.347177
O O3 0.320179 0.102112 0.260948
O O4 0.948510 0.198390 0.005104
O O5 0.547777 0.573649 0.817829
O O6 0.406001 0.393397 0.648089
O O7 0.583991 0.378850 0.744835
O O8 0.000000 0.500000 0.500000
O O9 0.205401 0.204190 0.116560
O O10 0.998826 0.288152 0.426887
O O11 0.500424 0.169810 0.697284
O O12 0.102524 0.111341 0.696330
O O13 0.941799 0.987369 0.837101
O O14 0.500000 0.500000 0.500000
O O15 0.007117 0.674209 0.351958
O O16 0.580172 0.080440 0.836572
O O17 0.000000 0.000000 0.000000
O O18 0.000000 0.000000 0.500000
#
# Coordination Sequence:
#
# PCOD8000952 Si02
#       8
#     2   2   2   2   2   2   2   2
#     4  10  20  41  67  86 128 179 204 269 333 378
#     4  10  20  38  68  94 125 168 223 266 321 389
#     4  10  19  40  67  90 125 175 213 264 327 378
#     4  11  23  44  62  91 139 168 211 273 333 391
#     4  11  20  39  67  93 123 168 228 262 320 392
#     4  11  24  42  65  96 129 172 215 261 334 390
#     4  10  24  38  63  99 126 172 217 266 329 379
#     4  11  24  40  65  96 124 173 219 267 324 395
#
# _framework density 23.095367
#
# number of rings (size 3 to 8) (size 9 to 14) (size 15 to 20)
#    0.000    1.500    6.250    0.750    3.500    5.500 
#    0.000    1.250    2.750    0.000    0.000    0.000 
#    0.000    0.000    0.000    0.000    0.000    0.000 
#
# Total GULP energy -198254.432137 kJ/mol
# GULP energy per Si atom -12390.902009 kJ/mol
# Density = 2.304280 g / cm^3
# Si number density = 23.095367 Si / 1000 Ang^3
#
#
#
# Elastic Constant Matrix: (Units=GPa)
#
#
# Indices 1 2 3 4 5 6 
#
# 1 118.3302 34.4570 35.1533 11.0225 4.3783 32.5984
# 2 34.4570 89.2090 52.1891 28.3977 1.0909 24.3109
# 3 35.1533 52.1891 68.9029 18.2133 4.8144 15.8123
# 4 11.0225 28.3977 18.2133 51.2308 5.2698 -5.1972
# 5 4.3783 1.0909 4.8144 5.2698 19.5974 3.0833
# 6 32.5984 24.3109 15.8123 -5.1972 3.0833 47.8199
#
#
#
# Elastic Compliance Matrix: (Units=1/GPa)
#
#
# Indices 1 2 3 4 5 6 
#
# 1 0.011679 0.000509 -0.004192 -0.002025 0.000047 -0.007057
# 2 0.000509 0.026116 -0.015301 -0.010870 0.006716 -0.010179
# 3 -0.004192 -0.015301 0.028218 0.000079 -0.005427 0.001665
# 4 -0.002025 -0.010870 0.000079 0.027842 -0.008089 0.010428
# 5 0.000047 0.006716 -0.005427 -0.008089 0.055108 -0.006084
# 6 -0.007057 -0.010179 0.001665 0.010428 -0.006084 0.031873
#
#
# Mechanical properties :
#
#
# Convention : Reuss Voigt Hill
#
# Bulk Modulus (GPa) = 35.65777 57.78232 46.72004
# Shear Modulus (GPa) = 21.91496 34.03914 27.97705
#
# Velocity S-wave (km/s) = 3.08375 3.84324 3.48425
# Velocity P-wave (km/s) = 5.30587 6.69084 6.03819
#
# Compressibility (1/GPa) = 0.02804438
#
# Stress axis : x y z
#
# Youngs Moduli (GPa) = 85.62141 38.29004 35.43847
#
# Poissons Ratio (x) = -0.01948 0.14857
# Poissons Ratio (y) = -0.04357 0.54225
# Poissons Ratio (z) = 0.35896 0.58588
#
# Static dielectric constant tensor:
#      x y z
#    x 3.449560 0.324370 -0.516730 
#    y 0.324370 4.253670 0.665720 
#    z -0.516730 0.665720 3.992940 
# 
# 
# High freq. dielectric constant tensor:
#      x y z
#    x 1.915450 0.002780 -0.008310 
#    y 0.002780 1.916710 0.021620 
#    z -0.008310 0.021620 1.886800 
# 
# From -- ./inp_files/461185.got.cif
#   From: 2010.06.25/outbox.cif.g09.slc.cpg/sg2_231_cif.got.tgz:461185.got - 2010.06.27 13:26:56.
