data_PCOD8000122
_publ_section_title
;
Structure prediction by ZEFSAII (Michael W. Deem and Ramdas Pophale) SiO2 
 PCOD8000122
Probable space group: P 1
;
_chemical_formula_sum "Si O2"
_cell_formula_units_Z 8
_cell_length_a 5.307111
_cell_length_b 14.288105
_cell_length_c 14.773027
_cell_angle_alpha 20.105383
_cell_angle_beta 56.984219
_cell_angle_gamma 54.957263
_cell_volume 315.203952
_symmetry_space_group_name_H-M "P 1"
_symmetry_group_IT_number 1
_symmetry_cell_setting 'triclinic'
loop_
_space_group_symop_operation_xyz
x,y,z
loop_
_atom_site_type_symbol
_atom_site_label
_atom_site_fract_x
_atom_site_fract_y
_atom_site_fract_z
Si Si1 0.705310 0.909060 0.790230
Si Si2 0.720046 0.038121 0.873064
Si Si3 0.634816 0.352129 0.256750
Si Si4 0.457916 0.319813 0.952436
Si Si5 0.904669 0.582372 0.381222
Si Si6 0.262439 0.467454 0.044409
Si Si7 0.287581 0.783903 0.429008
Si Si8 0.093898 0.975236 0.113769
O O1 0.072744 0.783406 0.816212
O O2 0.659396 0.058232 0.760152
O O3 0.548598 0.130579 0.544145
O O4 0.520605 0.659680 0.044509
O O5 0.942687 0.249208 0.665886
O O6 0.888494 0.726534 0.153883
O O7 0.387206 0.120171 0.914689
O O8 0.475149 0.334463 0.207373
O O9 0.006683 0.286885 0.234631
O O10 0.297658 0.059937 0.233581
O O11 0.474603 0.461989 0.918528
O O12 0.242649 0.542174 0.725659
O O13 0.794553 0.221187 0.928876
O O14 0.592360 0.702018 0.385160
O O15 0.154161 0.703177 0.281919
O O16 0.028389 0.865457 0.327479
#
# Coordination Sequence:
#
# PCOD8000122 Si02
#       8
#     1   1   1   1   1   1   1   1
#     4  10  25  45  70 102 138 183 234 291 349 423
#     4  11  23  44  68 101 138 182 228 289 347 421
#     4  10  25  46  73 101 143 179 238 290 357 411
#     4  11  25  40  69  99 133 180 231 281 348 420
#     4  10  22  41  65 100 137 177 233 276 345 419
#     4  10  27  46  72 104 139 185 234 295 349 422
#     4  10  23  42  62  97 135 177 225 280 339 416
#     4  10  24  44  69 100 143 183 227 288 354 416
#
# _framework density 25.380393999999999
#
# number of rings (size 3 to 8) (size 9 to 14) (size 15 to 20)
#    0.750    1.000    0.000    3.000    5.250   10.000 
#    0.000    2.500    0.000    0.000    0.000    0.000 
#    0.000    0.000    0.000    0.000    0.000    0.000 
#
# Total GULP energy -99125.095112 kJ/mol
# GULP energy per Si atom -12390.636889 kJ/mol
# Density = 2.532263 g / cm^3
# Si number density = 25.380394 Si / 1000 Ang^3
#
#
#
# Elastic Constant Matrix: (Units=GPa)
#
#
# Indices 1 2 3 4 5 6 
#
# 1 97.1592 23.8446 33.4845 8.0599 8.4822 31.0638
# 2 23.8446 117.4676 46.9568 15.3979 15.1893 28.6017
# 3 33.4845 46.9568 170.3324 1.1606 23.7845 15.3530
# 4 8.0599 15.3979 1.1606 30.4523 14.0839 9.1025
# 5 8.4822 15.1893 23.7845 14.0839 26.6593 13.5955
# 6 31.0638 28.6017 15.3530 9.1025 13.5955 34.2388
#
#
#
# Elastic Compliance Matrix: (Units=1/GPa)
#
#
# Indices 1 2 3 4 5 6 
#
# 1 0.015729 0.001410 -0.002937 -0.003025 0.006529 -0.015920
# 2 0.001410 0.012133 -0.003117 -0.004822 0.003036 -0.009940
# 3 -0.002937 -0.003117 0.008229 0.005207 -0.009380 0.003919
# 4 -0.003025 -0.004822 0.005207 0.047829 -0.027563 0.002667
# 5 0.006529 0.003036 -0.009380 -0.027563 0.069048 -0.024344
# 6 -0.015920 -0.009940 0.003919 0.002667 -0.024344 0.059153
#
#
# Mechanical properties :
#
#
# Convention : Reuss Voigt Hill
#
# Bulk Modulus (GPa) = 37.31061 65.94788 51.62925
# Shear Modulus (GPa) = 21.70675 36.98163 29.34419
#
# Velocity S-wave (km/s) = 2.92765 3.82133 3.40395
# Velocity P-wave (km/s) = 5.11475 6.74613 5.98627
#
# Compressibility (1/GPa) = 0.02680203
#
# Stress axis : x y z
#
# Youngs Moduli (GPa) = 63.57519 82.42304 121.52794
#
# Poissons Ratio (x) = -0.11618 0.35691
# Poissons Ratio (y) = -0.08962 0.37880
# Poissons Ratio (z) = 0.18671 0.25691
#
# Static dielectric constant tensor:
#      x y z
#    x 4.730650 0.581950 0.085560 
#    y 0.581950 4.775410 0.001480 
#    z 0.085560 0.001480 4.554810 
# 
# 
# High freq. dielectric constant tensor:
#      x y z
#    x 1.996930 0.019880 0.012080 
#    y 0.019880 2.004420 0.003450 
#    z 0.012080 0.003450 2.007450 
# 
# From -- ./inp_files/7053.got.cif
#   From: 2010.03.12/outbox.cif.g09.slc.cpg/sg1_4_cif.got.tgz:7053.got - 2010.03.29 11:57:58.
