data_PCOD8000233
_publ_section_title
;
Structure prediction by ZEFSAII (Michael W. Deem and Ramdas Pophale) SiO2 
 PCOD8000233
Probable space group: P 1
;
_chemical_formula_sum "Si O2"
_cell_formula_units_Z 8
_cell_length_a 14.069195
_cell_length_b 12.075597
_cell_length_c 6.906593
_cell_angle_alpha 137.022775
_cell_angle_beta 125.498058
_cell_angle_gamma 27.324114
_cell_volume 358.054302
_symmetry_space_group_name_H-M "P 1"
_symmetry_group_IT_number 1
_symmetry_cell_setting 'triclinic'
loop_
_space_group_symop_operation_xyz
x,y,z
loop_
_atom_site_type_symbol
_atom_site_label
_atom_site_fract_x
_atom_site_fract_y
_atom_site_fract_z
Si Si1 0.906560 0.435460 0.877130
Si Si2 0.948433 0.427904 0.472746
Si Si3 0.317608 0.750907 0.933592
Si Si4 0.000208 0.843642 0.602324
Si Si5 0.607532 0.907030 0.424666
Si Si6 0.696804 0.332166 0.562653
Si Si7 0.626850 0.257511 0.975324
Si Si8 0.164018 0.333870 0.297868
O O1 0.823316 0.349413 0.681099
O O2 0.933130 0.464946 0.728625
O O3 0.747849 0.748520 0.192093
O O4 0.126210 0.209549 0.968964
O O5 0.007724 0.524792 0.547606
O O6 0.715502 0.661442 0.401991
O O7 0.134657 0.091336 0.200714
O O8 0.197503 0.735193 0.687419
O O9 0.488784 0.615119 0.805340
O O10 0.435727 0.570862 0.042069
O O11 0.112797 0.538315 0.351838
O O12 0.855658 0.028577 0.477393
O O13 0.852151 0.042454 0.870028
O O14 0.571543 0.130540 0.744171
O O15 0.395249 0.064102 0.314627
O O16 0.626376 0.320248 0.273268
#
# Coordination Sequence:
#
# PCOD8000233 Si02
#       8
#     1   1   1   1   1   1   1   1
#     4  11  25  47  70 102 141 186 230 281 347 412
#     4  11  25  44  72 100 141 186 229 281 349 407
#     4  11  25  46  71 104 139 185 228 289 344 410
#     4  11  22  45  70 103 142 177 226 289 343 407
#     4  11  24  46  69 104 142 178 229 287 343 408
#     4  11  27  45  74 102 141 182 236 282 346 411
#     4  11  24  45  71 105 139 178 230 288 342 409
#     4  11  24  44  71 102 141 180 228 285 344 408
#
# _framework density 22.342981000000002
#
# number of rings (size 3 to 8) (size 9 to 14) (size 15 to 20)
#    0.000    1.000    3.750    3.000    1.750   10.000 
#    2.250    0.000    0.000    0.000    0.000    0.000 
#    0.000    0.000    0.000    0.000    0.000    0.000 
#
# Total GULP energy -99147.212908 kJ/mol
# GULP energy per Si atom -12393.401613 kJ/mol
# Density = 2.229213 g / cm^3
# Si number density = 22.342981 Si / 1000 Ang^3
#
#
#
# Elastic Constant Matrix: (Units=GPa)
#
#
# Indices 1 2 3 4 5 6 
#
# 1 96.0111 47.6752 53.7422 -22.3403 0.6147 -2.1394
# 2 47.6752 170.3937 66.9461 -24.9665 -4.0235 -3.1893
# 3 53.7422 66.9461 146.1672 -31.9328 -7.2885 7.7763
# 4 -22.3403 -24.9665 -31.9328 37.9311 9.8443 7.6303
# 5 0.6147 -4.0235 -7.2885 9.8443 38.9843 -10.9752
# 6 -2.1394 -3.1893 7.7763 7.6303 -10.9752 36.7482
#
#
#
# Elastic Compliance Matrix: (Units=1/GPa)
#
#
# Indices 1 2 3 4 5 6 
#
# 1 0.014520 -0.002053 -0.003393 0.005065 -0.002468 -0.000404
# 2 -0.002053 0.007650 -0.002441 0.001561 0.000195 0.000795
# 3 -0.003393 -0.002441 0.010854 0.006713 -0.001112 -0.004432
# 4 0.005065 0.001561 0.006713 0.042197 -0.013172 -0.013686
# 5 -0.002468 0.000195 -0.001112 -0.013172 0.032349 0.012505
# 6 -0.000404 0.000795 -0.004432 -0.013686 0.012505 0.034772
#
#
# Mechanical properties :
#
#
# Convention : Reuss Voigt Hill
#
# Bulk Modulus (GPa) = 57.97063 83.25544 70.61304
# Shear Modulus (GPa) = 30.51275 39.01330 34.76302
#
# Velocity S-wave (km/s) = 3.69948 4.18318 3.94875
# Velocity P-wave (km/s) = 6.65209 7.78944 7.24312
#
# Compressibility (1/GPa) = 0.01725011
#
# Stress axis : x y z
#
# Youngs Moduli (GPa) = 68.87195 130.71401 92.13441
#
# Poissons Ratio (x) = 0.26836 0.31263
# Poissons Ratio (y) = 0.14139 0.22486
# Poissons Ratio (z) = 0.23370 0.31902
#
# Static dielectric constant tensor:
#      x y z
#    x 4.315440 -0.061960 0.046560 
#    y -0.061960 4.530880 -0.122170 
#    z 0.046560 -0.122170 3.808410 
# 
# 
# High freq. dielectric constant tensor:
#      x y z
#    x 1.886850 -0.000520 0.006040 
#    y -0.000520 1.906790 -0.010570 
#    z 0.006040 -0.010570 1.858810 
# 
# From -- ./inp_files/2809.got.cif
#   From: 2010.03.12/outbox.cif.g09.slc.cpg/sg1_2_cif.got.tgz:2809.got - 2010.03.29 11:57:58.
