data_PCOD8000133
_publ_section_title
;
Structure prediction by ZEFSAII (Michael W. Deem and Ramdas Pophale) SiO2 
 PCOD8000133
Probable space group: P 1
;
_chemical_formula_sum "Si O2"
_cell_formula_units_Z 8
_cell_length_a 5.341932
_cell_length_b 13.355616
_cell_length_c 10.660674
_cell_angle_alpha 32.766110
_cell_angle_beta 80.444771
_cell_angle_gamma 95.482995
_cell_volume 364.405317
_symmetry_space_group_name_H-M "P 1"
_symmetry_group_IT_number 1
_symmetry_cell_setting 'triclinic'
loop_
_space_group_symop_operation_xyz
x,y,z
loop_
_atom_site_type_symbol
_atom_site_label
_atom_site_fract_x
_atom_site_fract_y
_atom_site_fract_z
Si Si1 0.581430 0.542070 0.814180
Si Si2 0.604076 0.385490 0.710357
Si Si3 0.551006 0.587734 0.268234
Si Si4 0.800152 0.381508 0.289957
Si Si5 0.907473 0.048427 0.749875
Si Si6 0.356310 0.138115 0.400891
Si Si7 0.165286 0.709517 0.742229
Si Si8 0.056871 0.249711 0.768959
O O1 0.663789 0.515296 0.695084
O O2 0.411639 0.681504 0.675903
O O3 0.875216 0.650820 0.751707
O O4 0.359147 0.322841 0.120952
O O5 0.719514 0.546611 0.414496
O O6 0.265037 0.239531 0.872458
O O7 0.765986 0.239767 0.858124
O O8 0.603474 0.485242 0.245869
O O9 0.217940 0.471365 0.449611
O O10 0.641091 0.827840 0.986065
O O11 0.663658 0.227641 0.345643
O O12 0.826742 0.238406 0.547102
O O13 0.094696 0.567093 0.023628
O O14 0.132452 0.069420 0.604029
O O15 0.013567 0.067304 0.865424
O O16 0.302193 0.947913 0.516616
#
# Coordination Sequence:
#
# PCOD8000133 Si02
#       8
#     1   1   1   1   1   1   1   1
#     4  11  25  46  65  92 132 169 219 264 308 375
#     4  10  22  47  64  88 134 170 209 271 307 367
#     4  10  23  39  64  96 127 170 204 263 320 381
#     4  11  22  39  63  96 136 160 209 264 324 381
#     4  12  21  39  67  97 127 167 206 262 330 382
#     4  11  24  39  67  97 126 173 206 265 325 379
#     4  11  25  42  66  96 128 171 215 261 318 377
#     4  10  22  43  64  96 128 166 212 262 318 374
#
# _framework density 21.953576999999999
#
# number of rings (size 3 to 8) (size 9 to 14) (size 15 to 20)
#    0.750    0.500    5.000    0.750    1.750    2.000 
#    4.500    0.000    0.000    0.000    0.000    0.000 
#    0.000    0.000    0.000    0.000    0.000    0.000 
#
# Total GULP energy -99139.665139 kJ/mol
# GULP energy per Si atom -12392.458142 kJ/mol
# Density = 2.190361 g / cm^3
# Si number density = 21.953577 Si / 1000 Ang^3
#
#
#
# Elastic Constant Matrix: (Units=GPa)
#
#
# Indices 1 2 3 4 5 6 
#
# 1 118.2142 38.6828 20.2797 -19.6122 6.0188 -8.5344
# 2 38.6828 131.0551 26.3531 -26.3839 0.6030 -3.2578
# 3 20.2797 26.3531 62.4609 -29.9442 -4.4985 10.1781
# 4 -19.6122 -26.3839 -29.9442 33.4865 2.1282 -1.8916
# 5 6.0188 0.6030 -4.4985 2.1282 21.1860 -5.7656
# 6 -8.5344 -3.2578 10.1781 -1.8916 -5.7656 35.3930
#
#
#
# Elastic Compliance Matrix: (Units=1/GPa)
#
#
# Indices 1 2 3 4 5 6 
#
# 1 0.010245 -0.001960 -0.001419 0.003506 -0.002849 0.002421
# 2 -0.001960 0.009546 -0.000820 0.005705 -0.000214 0.000912
# 3 -0.001419 -0.000820 0.030117 0.024891 0.002315 -0.007371
# 4 0.003506 0.005705 0.024891 0.058660 -0.002603 -0.003076
# 5 -0.002849 -0.000214 0.002315 -0.002603 0.050602 0.006731
# 6 0.002421 0.000912 -0.007371 -0.003076 0.006731 0.031974
#
#
# Mechanical properties :
#
#
# Convention : Reuss Voigt Hill
#
# Bulk Modulus (GPa) = 24.08990 53.59570 38.84280
# Shear Modulus (GPa) = 23.43248 33.10741 28.26994
#
# Velocity S-wave (km/s) = 3.27060 3.88759 3.59237
# Velocity P-wave (km/s) = 5.02587 6.67962 5.91087
#
# Compressibility (1/GPa) = 0.04151117
#
# Stress axis : x y z
#
# Youngs Moduli (GPa) = 97.60531 104.75626 33.20337
#
# Poissons Ratio (x) = 0.20529 0.04711
# Poissons Ratio (y) = 0.19128 0.02723
# Poissons Ratio (z) = 0.13848 0.08593
#
# Static dielectric constant tensor:
#      x y z
#    x 3.791140 0.099530 -0.035480 
#    y 0.099530 3.875990 -0.036670 
#    z -0.035480 -0.036670 3.794570 
# 
# 
# High freq. dielectric constant tensor:
#      x y z
#    x 1.854720 0.003370 -0.005700 
#    y 0.003370 1.871000 -0.010670 
#    z -0.005700 -0.010670 1.839220 
# 
# From -- ./inp_files/363.got.cif
#   From: 2010.03.12/outbox.cif.g09.slc.cpg/sg1_1_cif.got.tgz:363.got - 2010.03.29 11:57:58.
