data_PCOD8000784
_publ_section_title
;
Structure prediction by ZEFSAII (Michael W. Deem and Ramdas Pophale) SiO2 
 PCOD8000784
Probable space group: P -1
;
_chemical_formula_sum "Si O2"
_cell_formula_units_Z 16
_cell_length_a 8.957370
_cell_length_b 11.026759
_cell_length_c 9.266072
_cell_angle_alpha 86.808646
_cell_angle_beta 50.770704
_cell_angle_gamma 77.215953
_cell_volume 687.057099
_symmetry_space_group_name_H-M "P -1"
_symmetry_group_IT_number 2
_symmetry_cell_setting 'triclinic'
loop_
_space_group_symop_operation_xyz
x,y,z
-x,-y,-z
loop_
_atom_site_type_symbol
_atom_site_label
_atom_site_fract_x
_atom_site_fract_y
_atom_site_fract_z
Si Si1 0.073900 0.733220 0.833820
Si Si2 0.276154 0.924245 0.225157
Si Si3 0.698791 0.537331 0.331640
Si Si4 0.728055 0.239239 0.019701
Si Si5 0.638578 0.583876 0.851440
Si Si6 0.348431 0.261486 0.889599
Si Si7 0.961371 0.820578 0.591161
Si Si8 0.002265 0.375863 0.648985
O O1 0.095998 0.768984 0.651613
O O2 0.148065 0.583263 0.821783
O O3 0.849269 0.782139 0.023787
O O4 0.194501 0.802573 0.864121
O O5 0.293958 0.881212 0.050354
O O6 0.467767 0.858692 0.205664
O O7 0.086709 0.885195 0.405587
O O8 0.238456 0.075518 0.245878
O O9 0.500000 0.500000 0.500000
O O10 0.614370 0.642839 0.258727
O O11 0.811796 0.589947 0.388056
O O12 0.877079 0.310350 0.840639
O O13 0.506758 0.326521 0.178030
O O14 0.843983 0.497137 0.668879
O O15 0.500000 0.500000 0.000000
O O16 0.698076 0.669173 0.933769
O O17 0.904158 0.709956 0.540522
#
# Coordination Sequence:
#
# PCOD8000784 Si02
#       8
#     2   2   2   2   2   2   2   2
#     4  12  23  38  63  97 127 159 208 264 313 363
#     4   9  21  45  67  86 123 170 211 249 310 377
#     4  12  24  38  61  95 135 167 203 257 318 377
#     4   9  19  36  67  92 121 162 206 259 310 366
#     4   9  17  33  62  89 119 162 204 246 312 373
#     4  11  21  40  65  90 123 165 210 261 307 367
#     4  10  23  41  65  91 126 166 208 257 309 376
#     4  10  19  40  60  90 129 170 205 246 313 380
#
# _framework density 23.287728999999999
#
# number of rings (size 3 to 8) (size 9 to 14) (size 15 to 20)
#    0.000    1.750    2.500    3.375    0.000    2.500 
#    6.750    0.625    2.750    0.000    0.000    0.000 
#    0.000    0.000    0.000    0.000    0.000    0.000 
#
# Total GULP energy -198332.635395 kJ/mol
# GULP energy per Si atom -12395.789712 kJ/mol
# Density = 2.323473 g / cm^3
# Si number density = 23.287729 Si / 1000 Ang^3
#
#
#
# Elastic Constant Matrix: (Units=GPa)
#
#
# Indices 1 2 3 4 5 6 
#
# 1 171.2405 67.3672 50.7808 29.0043 8.6952 -18.5243
# 2 67.3672 111.4900 38.4473 43.2024 5.0251 -12.1583
# 3 50.7808 38.4473 66.2071 25.1835 4.4609 -6.6811
# 4 29.0043 43.2024 25.1835 38.5943 -4.5011 -5.0200
# 5 8.6952 5.0251 4.4609 -4.5011 43.9084 -2.5185
# 6 -18.5243 -12.1583 -6.6811 -5.0200 -2.5185 28.1995
#
#
#
# Elastic Compliance Matrix: (Units=1/GPa)
#
#
# Indices 1 2 3 4 5 6 
#
# 1 0.008922 -0.003750 -0.004627 0.000865 -0.000593 0.003249
# 2 -0.003750 0.018743 -0.000879 -0.017681 -0.003011 0.001993
# 3 -0.004627 -0.000879 0.023606 -0.011246 -0.002537 -0.000054
# 4 0.000865 -0.017681 -0.011246 0.053455 0.008506 0.000556
# 5 -0.000593 -0.003011 -0.002537 0.008506 0.024447 0.001409
# 6 0.003249 0.001993 -0.000054 0.000556 0.001409 0.038667
#
#
# Mechanical properties :
#
#
# Convention : Reuss Voigt Hill
#
# Bulk Modulus (GPa) = 30.52438 73.56981 52.04710
# Shear Modulus (GPa) = 25.34578 34.96326 30.15452
#
# Velocity S-wave (km/s) = 3.30263 3.87894 3.60233
# Velocity P-wave (km/s) = 5.26109 7.19179 6.30083
#
# Compressibility (1/GPa) = 0.03276070
#
# Stress axis : x y z
#
# Youngs Moduli (GPa) = 112.08195 53.35434 42.36143
#
# Poissons Ratio (x) = 0.20006 0.19600
# Poissons Ratio (y) = 0.42026 0.03722
# Poissons Ratio (z) = 0.51860 0.04688
#
# Static dielectric constant tensor:
#      x y z
#    x 4.396310 -0.135390 -0.049670 
#    y -0.135390 4.463910 0.330340 
#    z -0.049670 0.330340 4.116490 
# 
# 
# High freq. dielectric constant tensor:
#      x y z
#    x 1.930960 -0.005390 -0.009520 
#    y -0.005390 1.907530 0.005150 
#    z -0.009520 0.005150 1.919240 
# 
# From -- ./inp_files/187229.got.cif
#   From: 2010.06.25/outbox.cif.g09.slc.cpg/sg2_94_cif.got.tgz:187229.got - 2010.06.27 13:26:56.
