data_PCOD8000916
_publ_section_title
;
Structure prediction by ZEFSAII (Michael W. Deem and Ramdas Pophale) SiO2 
 PCOD8000916
Probable space group: P -1
;
_chemical_formula_sum "Si O2"
_cell_formula_units_Z 16
_cell_length_a 8.000315
_cell_length_b 14.616644
_cell_length_c 14.714517
_cell_angle_alpha 35.295351
_cell_angle_beta 68.697729
_cell_angle_gamma 92.828636
_cell_volume 709.798491
_symmetry_space_group_name_H-M "P -1"
_symmetry_group_IT_number 2
_symmetry_cell_setting 'triclinic'
loop_
_space_group_symop_operation_xyz
x,y,z
-x,-y,-z
loop_
_atom_site_type_symbol
_atom_site_label
_atom_site_fract_x
_atom_site_fract_y
_atom_site_fract_z
Si Si1 0.517691 0.968935 0.829504
Si Si2 0.513751 0.608398 0.739671
Si Si3 0.034951 0.865577 0.497250
Si Si4 0.070678 0.147708 0.736751
Si Si5 0.602813 0.418214 0.735590
Si Si6 0.630048 0.833717 0.183252
Si Si7 0.251139 0.977277 0.719623
Si Si8 0.942039 0.755767 0.797454
O O1 0.788063 0.101630 0.640093
O O2 0.520940 0.118989 0.775009
O O3 0.352076 0.905805 0.826636
O O4 0.397092 0.750857 0.078555
O O5 0.442874 0.450585 0.798443
O O6 0.533083 0.799724 0.545820
O O7 0.763235 0.695620 0.660900
O O8 0.302286 0.479239 0.958017
O O9 0.062757 0.786309 0.651567
O O10 0.114911 0.090688 0.313582
O O11 0.142371 0.351954 0.507050
O O12 0.245742 0.209618 0.734526
O O13 0.075765 0.004268 0.780734
O O14 0.811551 0.025086 0.924854
O O15 0.526090 0.363794 0.690188
O O16 0.114137 0.806601 0.805332
#
# Coordination Sequence:
#
# PCOD8000916 Si02
#       8
#     2   2   2   2   2   2   2   2
#     4  11  23  41  54  92 128 154 185 260 300 335
#     4  10  20  39  63  87 111 159 205 241 283 363
#     4  10  22  38  62  89 122 148 200 251 297 347
#     4   9  20  38  62  87 113 160 200 239 280 358
#     4  11  21  36  61  83 118 156 199 234 292 351
#     4  10  21  39  59  84 123 154 197 241 295 344
#     4   9  21  39  61  87 124 151 198 245 295 350
#     4  10  19  40  66  86 110 164 201 238 294 363
#
# _framework density 22.541606999999999
#
# number of rings (size 3 to 8) (size 9 to 14) (size 15 to 20)
#    0.000    2.000    1.250    1.875    3.500    1.000 
#    4.500    0.625    0.000    0.000    0.000    0.000 
#    0.000    0.000    0.000    0.000    0.000    0.000 
#
# Total GULP energy -198345.598623 kJ/mol
# GULP energy per Si atom -12396.599914 kJ/mol
# Density = 2.249030 g / cm^3
# Si number density = 22.541607 Si / 1000 Ang^3
#
#
#
# Elastic Constant Matrix: (Units=GPa)
#
#
# Indices 1 2 3 4 5 6 
#
# 1 36.3313 -6.6521 23.9132 -12.6072 4.7886 6.6115
# 2 -6.6521 50.9922 23.7756 2.7803 2.8396 10.2304
# 3 23.9132 23.7756 118.6792 11.5699 -1.7731 -0.9054
# 4 -12.6072 2.7803 11.5699 30.4722 1.3814 -3.9290
# 5 4.7886 2.8396 -1.7731 1.3814 20.7178 8.9340
# 6 6.6115 10.2304 -0.9054 -3.9290 8.9340 32.1458
#
#
#
# Elastic Compliance Matrix: (Units=1/GPa)
#
#
# Indices 1 2 3 4 5 6 
#
# 1 0.055065 0.016546 -0.017349 0.027227 -0.014049 -0.009848
# 2 0.016546 0.028362 -0.009828 0.006817 -0.004417 -0.010645
# 3 -0.017349 -0.009828 0.015153 -0.011762 0.005665 0.004111
# 4 0.027227 0.006817 -0.011762 0.048619 -0.011981 0.001172
# 5 -0.014049 -0.004417 0.005665 -0.011981 0.059210 -0.013465
# 6 -0.009848 -0.010645 0.004111 0.001172 -0.013465 0.040523
#
#
# Mechanical properties :
#
#
# Convention : Reuss Voigt Hill
#
# Bulk Modulus (GPa) = 12.93352 32.00844 22.47098
# Shear Modulus (GPa) = 17.00875 27.66490 22.33682
#
# Velocity S-wave (km/s) = 2.74989 3.50706 3.15130
# Velocity P-wave (km/s) = 3.97902 5.53442 4.81988
#
# Compressibility (1/GPa) = 0.07731850
#
# Stress axis : x y z
#
# Youngs Moduli (GPa) = 18.16035 35.25903 65.99221
#
# Poissons Ratio (x) = -0.58341 1.14492
# Poissons Ratio (y) = -0.30049 0.64854
# Poissons Ratio (z) = 0.31507 0.34651
#
# Static dielectric constant tensor:
#      x y z
#    x 3.685430 0.263280 0.144780 
#    y 0.263280 4.300870 0.303380 
#    z 0.144780 0.303380 4.120520 
# 
# 
# High freq. dielectric constant tensor:
#      x y z
#    x 1.856150 0.021620 0.007900 
#    y 0.021620 1.896420 0.015350 
#    z 0.007900 0.015350 1.895890 
# 
# From -- ./inp_files/299638.got.cif
#   From: 2010.06.25/outbox.cif.g09.slc.cpg/sg2_150_cif.got.tgz:299638.got - 2010.06.27 13:26:56.
