data_PCOD8000124
_publ_section_title
;
Structure prediction by ZEFSAII (Michael W. Deem and Ramdas Pophale) SiO2 
 PCOD8000124
Probable space group: P 1
;
_chemical_formula_sum "Si O2"
_cell_formula_units_Z 8
_cell_length_a 9.909655
_cell_length_b 5.050252
_cell_length_c 9.014719
_cell_angle_alpha 98.167295
_cell_angle_beta 127.014426
_cell_angle_gamma 105.758213
_cell_volume 318.114411
_symmetry_space_group_name_H-M "P 1"
_symmetry_group_IT_number 1
_symmetry_cell_setting 'triclinic'
loop_
_space_group_symop_operation_xyz
x,y,z
loop_
_atom_site_type_symbol
_atom_site_label
_atom_site_fract_x
_atom_site_fract_y
_atom_site_fract_z
Si Si1 0.538940 0.469900 0.593740
Si Si2 0.258722 0.815759 0.928260
Si Si3 0.785754 0.130554 0.757423
Si Si4 0.969965 0.510575 0.177014
Si Si5 0.945480 0.236169 0.562192
Si Si6 0.384585 0.428630 0.167959
Si Si7 0.155574 0.168209 0.444630
Si Si8 0.642155 0.265754 0.152785
O O1 0.640745 0.259659 0.624430
O O2 0.423355 0.470428 0.370998
O O3 0.384168 0.333880 0.612260
O O4 0.686457 0.814338 0.753850
O O5 0.299507 0.647507 0.079196
O O6 0.226767 0.086129 0.000925
O O7 0.449149 0.962402 0.962409
O O8 0.077179 0.594405 0.697458
O O9 0.877430 0.079068 0.663811
O O10 0.949584 0.373611 0.988504
O O11 0.083182 0.394847 0.348620
O O12 0.756977 0.411359 0.090540
O O13 0.080531 0.868910 0.272619
O O14 0.765959 0.179328 0.340424
O O15 0.074368 0.099632 0.554764
O O16 0.580520 0.496063 0.214893
#
# Coordination Sequence:
#
# PCOD8000124 Si02
#       8
#     1   1   1   1   1   1   1   1
#     4  12  25  46  72 103 145 188 230 298 361 420
#     4  10  24  39  70 101 140 181 238 280 352 421
#     4  12  27  44  76 103 144 180 249 284 362 419
#     4  11  26  45  71 103 145 186 230 301 353 423
#     4  11  25  47  73 109 138 190 241 295 348 432
#     4  10  22  41  66 100 138 184 226 287 352 414
#     4  11  28  46  73 100 149 183 238 286 373 408
#     4   9  23  44  69  97 147 180 230 285 363 403
#
# _framework density 25.148185000000002
#
# number of rings (size 3 to 8) (size 9 to 14) (size 15 to 20)
#    0.750    0.500    1.250    3.000   10.500    4.000 
#    0.000    0.000    0.000    0.000    0.000    0.000 
#    0.000    0.000    0.000    0.000    0.000    0.000 
#
# Total GULP energy -99199.860815 kJ/mol
# GULP energy per Si atom -12399.982602 kJ/mol
# Density = 2.509095 g / cm^3
# Si number density = 25.148185 Si / 1000 Ang^3
#
#
#
# Elastic Constant Matrix: (Units=GPa)
#
#
# Indices 1 2 3 4 5 6 
#
# 1 113.1147 32.7062 15.9004 5.3661 -8.9208 22.3348
# 2 32.7062 86.6948 -0.9338 21.1044 3.4251 2.3274
# 3 15.9004 -0.9338 58.5230 23.6723 -9.8432 13.6601
# 4 5.3661 21.1044 23.6723 41.5578 6.5922 -0.9734
# 5 -8.9208 3.4251 -9.8432 6.5922 39.0523 6.5822
# 6 22.3348 2.3274 13.6601 -0.9734 6.5822 31.6779
#
#
#
# Elastic Compliance Matrix: (Units=1/GPa)
#
#
# Indices 1 2 3 4 5 6 
#
# 1 0.012432 -0.004681 -0.000635 0.000192 0.004591 -0.009096
# 2 -0.004681 0.016256 0.006978 -0.011908 0.001542 -0.001589
# 3 -0.000635 0.006978 0.035320 -0.026558 0.015901 -0.019416
# 4 0.000192 -0.011908 -0.026558 0.048254 -0.016639 0.017132
# 5 0.004591 0.001542 0.015901 -0.016639 0.036419 -0.018286
# 6 -0.009096 -0.001589 -0.019416 0.017132 -0.018286 0.050796
#
#
# Mechanical properties :
#
#
# Convention : Reuss Voigt Hill
#
# Bulk Modulus (GPa) = 14.85154 39.29758 27.07456
# Shear Modulus (GPa) = 22.87309 36.50157 29.68733
#
# Velocity S-wave (km/s) = 3.01912 3.81394 3.43956
# Velocity P-wave (km/s) = 4.25110 5.92074 5.15398
#
# Compressibility (1/GPa) = 0.06733308
#
# Stress axis : x y z
#
# Youngs Moduli (GPa) = 80.43589 61.51452 28.31248
#
# Poissons Ratio (x) = 0.28795 0.01798
# Poissons Ratio (y) = 0.37652 -0.19757
# Poissons Ratio (z) = 0.05107 -0.42925
#
# Static dielectric constant tensor:
#      x y z
#    x 4.707630 0.229700 0.027870 
#    y 0.229700 4.337660 0.180780 
#    z 0.027870 0.180780 4.314210 
# 
# 
# High freq. dielectric constant tensor:
#      x y z
#    x 2.007510 0.003740 0.007160 
#    y 0.003740 1.997140 0.009190 
#    z 0.007160 0.009190 1.993360 
# 
# From -- ./inp_files/5169.got.cif
#   From: 2010.03.12/outbox.cif.g09.slc.cpg/sg1_3_cif.got.tgz:5169.got - 2010.03.29 11:57:58.
