data_PCOD8000290
_publ_section_title
;
Structure prediction by ZEFSAII (Michael W. Deem and Ramdas Pophale) SiO2 
 PCOD8000290
Probable space group: P 1
;
_chemical_formula_sum "Si O2"
_cell_formula_units_Z 8
_cell_length_a 7.617736
_cell_length_b 9.201829
_cell_length_c 11.816636
_cell_angle_alpha 140.002660
_cell_angle_beta 107.828264
_cell_angle_gamma 90.886721
_cell_volume 462.591486
_symmetry_space_group_name_H-M "P 1"
_symmetry_group_IT_number 1
_symmetry_cell_setting 'triclinic'
loop_
_space_group_symop_operation_xyz
x,y,z
loop_
_atom_site_type_symbol
_atom_site_label
_atom_site_fract_x
_atom_site_fract_y
_atom_site_fract_z
Si Si1 0.819690 0.200440 0.897130
Si Si2 0.792544 0.570759 0.927704
Si Si3 0.592590 0.929948 0.134794
Si Si4 0.229444 0.259213 0.115176
Si Si5 0.135897 0.814240 0.984826
Si Si6 0.621642 0.636888 0.489469
Si Si7 0.760206 0.426016 0.593751
Si Si8 0.605245 0.220113 0.096234
O O1 0.804254 0.386344 0.913857
O O2 0.727462 0.927838 0.662290
O O3 0.692332 0.204877 0.983727
O O4 0.053659 0.283993 0.023061
O O5 0.679442 0.416749 0.701367
O O6 0.668183 0.715299 0.042307
O O7 0.019005 0.765684 0.053638
O O8 0.355433 0.819572 0.049933
O O9 0.710227 0.151426 0.376850
O O10 0.636099 0.024545 0.070431
O O11 0.378718 0.529080 0.355476
O O12 0.364412 0.156095 0.002136
O O13 0.141849 0.071772 0.090888
O O14 0.003767 0.589778 0.739250
O O15 0.654647 0.566764 0.581723
O O16 0.716010 0.496661 0.337811
#
# Coordination Sequence:
#
# PCOD8000290 Si02
#       8
#     1   1   1   1   1   1   1   1
#     4  12  20  40  53  80 131 140 173 230 276 348
#     4  10  24  34  55  88 115 154 171 218 292 338
#     4  10  18  40  59  80 113 140 193 238 262 316
#     4   9  19  37  61  84 102 145 195 232 269 312
#     4   9  18  38  58  85 106 141 195 229 272 315
#     4   9  19  37  61  84 102 145 195 232 269 312
#     4   9  18  38  58  85 106 141 195 229 272 315
#     4   8  20  36  59  86  97 146 195 228 268 312
#
# _framework density 17.293876999999998
#
# number of rings (size 3 to 8) (size 9 to 14) (size 15 to 20)
#    1.500    1.000    2.500    1.500    0.000    2.000 
#    6.750    2.500    0.000    0.000    0.000    0.000 
#    0.000    0.000    0.000    0.000    0.000    0.000 
#
# Total GULP energy -99119.351446 kJ/mol
# GULP energy per Si atom -12389.918931 kJ/mol
# Density = 1.725451 g / cm^3
# Si number density = 17.293877 Si / 1000 Ang^3
#
#
#
# Elastic Constant Matrix: (Units=GPa)
#
#
# Indices 1 2 3 4 5 6 
#
# 1 60.9115 29.2835 16.5671 4.1179 6.5177 -10.9259
# 2 29.2835 90.6389 25.5234 14.7918 -0.3759 -22.4855
# 3 16.5671 25.5234 57.2034 9.7064 11.9095 -5.0559
# 4 4.1179 14.7918 9.7064 13.7022 -1.8292 -7.0042
# 5 6.5177 -0.3759 11.9095 -1.8292 28.9599 0.8289
# 6 -10.9259 -22.4855 -5.0559 -7.0042 0.8289 21.2889
#
#
#
# Elastic Compliance Matrix: (Units=1/GPa)
#
#
# Indices 1 2 3 4 5 6 
#
# 1 0.020890 -0.004981 -0.003292 0.004141 -0.003327 0.006171
# 2 -0.004981 0.018606 -0.004832 -0.008095 0.002461 0.013188
# 3 -0.003292 -0.004832 0.024927 -0.015725 -0.010404 -0.005642
# 4 0.004141 -0.008095 -0.015725 0.105451 0.011401 0.024091
# 5 -0.003327 0.002461 -0.010404 0.011401 0.040293 0.000603
# 6 0.006171 0.013188 -0.005642 0.024091 0.000603 0.070632
#
#
# Mechanical properties :
#
#
# Convention : Reuss Voigt Hill
#
# Bulk Modulus (GPa) = 26.16980 39.05576 32.61278
# Shear Modulus (GPa) = 15.63736 21.94887 18.79312
#
# Velocity S-wave (km/s) = 3.01028 3.56641 3.30008
# Velocity P-wave (km/s) = 5.21993 6.29219 5.78097
#
# Compressibility (1/GPa) = 0.03821198
#
# Stress axis : x y z
#
# Youngs Moduli (GPa) = 47.86927 53.74663 40.11758
#
# Poissons Ratio (x) = 0.26771 0.13208
# Poissons Ratio (y) = 0.23843 0.19386
# Poissons Ratio (z) = 0.15760 0.25971
#
# Static dielectric constant tensor:
#      x y z
#    x 3.066530 -0.034240 0.122410 
#    y -0.034240 3.018940 0.028670 
#    z 0.122410 0.028670 3.199740 
# 
# 
# High freq. dielectric constant tensor:
#      x y z
#    x 1.655090 -0.003720 0.007620 
#    y -0.003720 1.656210 0.002960 
#    z 0.007620 0.002960 1.662410 
# 
# From -- ./inp_files/3652.got.cif
#   From: 2010.03.12/outbox.cif.g09.slc.cpg/sg1_2_cif.got.tgz:3652.got - 2010.03.29 11:57:58.
