data_PCOD8000442
_publ_section_title
;
Structure prediction by ZEFSAII (Michael W. Deem and Ramdas Pophale) SiO2 
 PCOD8000442
Probable space group: P -1
;
_chemical_formula_sum "Si O2"
_cell_formula_units_Z 16
_cell_length_a 13.493812
_cell_length_b 8.558686
_cell_length_c 15.385438
_cell_angle_alpha 140.137730
_cell_angle_beta 45.035240
_cell_angle_gamma 116.044782
_cell_volume 784.585792
_symmetry_space_group_name_H-M "P -1"
_symmetry_group_IT_number 2
_symmetry_cell_setting 'triclinic'
loop_
_space_group_symop_operation_xyz
x,y,z
-x,-y,-z
loop_
_atom_site_type_symbol
_atom_site_label
_atom_site_fract_x
_atom_site_fract_y
_atom_site_fract_z
Si Si1 0.937190 0.968834 0.619061
Si Si2 0.385517 0.911145 0.883382
Si Si3 0.717275 0.772897 0.574951
Si Si4 0.712181 0.368119 0.018094
Si Si5 0.768096 0.102397 0.522155
Si Si6 0.661583 0.937496 0.344509
Si Si7 0.348622 0.681501 0.641042
Si Si8 0.553840 0.581434 0.910382
O O1 0.822650 0.795775 0.600420
O O2 0.861932 0.234629 0.822568
O O3 0.000000 0.000000 0.500000
O O4 0.071675 0.848194 0.546120
O O5 0.557701 0.807625 0.728138
O O6 0.309553 0.763121 0.934779
O O7 0.302699 0.875015 0.830494
O O8 0.354731 0.206991 0.046243
O O9 0.761520 0.496159 0.386527
O O10 0.723414 0.964893 0.575632
O O11 0.710464 0.660098 0.155535
O O12 0.589084 0.312363 0.008994
O O13 0.652988 0.363055 0.700147
O O14 0.761939 0.954237 0.372859
O O15 0.500000 0.000000 0.500000
O O16 0.659064 0.152020 0.368107
O O17 0.500000 0.500000 0.500000
O O18 0.500000 0.500000 0.000000
#
# Coordination Sequence:
#
# PCOD8000442 Si02
#       8
#     2   2   2   2   2   2   2   2
#     4  10  23  43  63  91 129 176 211 252 322 391
#     4  11  21  37  62  97 125 159 215 266 320 369
#     4  10  19  39  62  87 130 167 208 256 320 377
#     4  12  24  39  68  92 129 167 212 266 319 377
#     4  11  23  39  65  94 127 170 212 260 315 381
#     4  12  22  39  63  97 129 160 217 268 317 375
#     4  10  22  35  59  91 129 163 199 265 329 370
#     4  12  21  37  62  94 125 161 214 266 307 365
#
# _framework density 20.392927
#
# number of rings (size 3 to 8) (size 9 to 14) (size 15 to 20)
#    0.000    1.000    3.750    5.625    0.000    0.500 
#    0.000    2.500    0.000    4.500    0.000    0.000 
#    0.000    0.000    0.000    0.000    0.000    0.000 
#
# Total GULP energy -198289.504101 kJ/mol
# GULP energy per Si atom -12393.094006 kJ/mol
# Density = 2.034651 g / cm^3
# Si number density = 20.392927 Si / 1000 Ang^3
#
#
#
# Elastic Constant Matrix: (Units=GPa)
#
#
# Indices 1 2 3 4 5 6 
#
# 1 117.9842 24.1053 31.7358 -3.7689 14.0548 6.1704
# 2 24.1053 83.9117 25.4356 11.3732 3.1269 0.7395
# 3 31.7358 25.4356 87.5872 -5.6295 8.4291 10.9493
# 4 -3.7689 11.3732 -5.6295 29.8047 6.7743 9.0371
# 5 14.0548 3.1269 8.4291 6.7743 33.5994 5.0187
# 6 6.1704 0.7395 10.9493 9.0371 5.0187 32.5323
#
#
#
# Elastic Compliance Matrix: (Units=1/GPa)
#
#
# Indices 1 2 3 4 5 6 
#
# 1 0.010231 -0.002538 -0.002213 0.003162 -0.003915 -0.001412
# 2 -0.002538 0.015123 -0.004690 -0.008581 0.001995 0.003792
# 3 -0.002213 -0.004690 0.015047 0.006825 -0.002894 -0.005987
# 4 0.003162 -0.008581 0.006825 0.044768 -0.009214 -0.013716
# 5 -0.003915 0.001995 -0.002894 -0.009214 0.033948 -0.001006
# 6 -0.001412 0.003792 -0.005987 -0.013716 -0.001006 0.036901
#
#
# Mechanical properties :
#
#
# Convention : Reuss Voigt Hill
#
# Bulk Modulus (GPa) = 46.47212 50.22630 48.34921
# Shear Modulus (GPa) = 27.46137 33.06771 30.26454
#
# Velocity S-wave (km/s) = 3.67360 4.03119 3.85654
# Velocity P-wave (km/s) = 6.38996 6.80809 6.60234
#
# Compressibility (1/GPa) = 0.02151828
#
# Stress axis : x y z
#
# Youngs Moduli (GPa) = 97.74308 66.12309 66.45997
#
# Poissons Ratio (x) = 0.16785 0.14709
# Poissons Ratio (y) = 0.24811 0.31167
# Poissons Ratio (z) = 0.21633 0.31009
#
# Static dielectric constant tensor:
#      x y z
#    x 5.536540 0.610240 0.367240 
#    y 0.610240 3.718870 0.280830 
#    z 0.367240 0.280830 3.771020 
# 
# 
# High freq. dielectric constant tensor:
#      x y z
#    x 1.804450 0.000410 0.031010 
#    y 0.000410 1.789040 0.010130 
#    z 0.031010 0.010130 1.790320 
# 
# From -- ./inp_files/516351.got.cif
#   From: 2010.06.25/outbox.cif.g09.slc.cpg/sg2_259_cif.got.tgz:516351.got - 2010.06.27 13:26:56.
