data_PCOD8000999
_publ_section_title
;
Structure prediction by ZEFSAII (Michael W. Deem and Ramdas Pophale) SiO2 
 PCOD8000999
Probable space group: P -1
;
_chemical_formula_sum "Si O2"
_cell_formula_units_Z 16
_cell_length_a 12.129028
_cell_length_b 8.774908
_cell_length_c 11.895161
_cell_angle_alpha 101.204713
_cell_angle_beta 130.928108
_cell_angle_gamma 55.561926
_cell_volume 756.692750
_symmetry_space_group_name_H-M "P -1"
_symmetry_group_IT_number 2
_symmetry_cell_setting 'triclinic'
loop_
_space_group_symop_operation_xyz
x,y,z
-x,-y,-z
loop_
_atom_site_type_symbol
_atom_site_label
_atom_site_fract_x
_atom_site_fract_y
_atom_site_fract_z
Si Si1 0.414963 0.336538 0.096148
Si Si2 0.314314 0.018612 0.875308
Si Si3 0.776270 0.266489 0.869003
Si Si4 0.746885 0.655287 0.450555
Si Si5 0.449917 0.099514 0.297077
Si Si6 0.848445 0.919790 0.981571
Si Si7 0.151154 0.403705 0.734520
Si Si8 0.495026 0.341531 0.538666
O O1 0.615015 0.196865 0.150036
O O2 0.382350 0.520788 0.160966
O O3 0.423385 0.193955 0.172248
O O4 0.250756 0.417160 0.909860
O O5 0.209940 0.074279 0.930038
O O6 0.181009 0.196320 0.727652
O O7 0.500000 0.000000 0.000000
O O8 0.692734 0.209274 0.707984
O O9 0.943412 0.261690 0.929326
O O10 0.840806 0.111054 0.988105
O O11 0.769749 0.578830 0.327117
O O12 0.653440 0.576807 0.448956
O O13 0.939159 0.575499 0.623821
O O14 0.630852 0.885880 0.401434
O O15 0.452330 0.225477 0.413218
O O16 0.278687 0.091654 0.193254
O O17 0.500000 0.500000 0.500000
#
# Coordination Sequence:
#
# PCOD8000999 Si02
#       8
#     2   2   2   2   2   2   2   2
#     4  11  22  41  72 101 131 174 231 279 334 399
#     4  10  19  40  69 102 129 171 230 286 328 392
#     4  11  27  43  63 104 143 174 223 287 341 395
#     4  11  24  42  67 100 136 177 224 277 339 405
#     4  12  22  43  73  97 130 182 231 269 337 405
#     4  11  24  44  70 100 134 178 232 281 331 404
#     4  10  22  40  71 101 130 172 233 281 327 401
#     4  12  27  42  63  96 142 179 212 280 346 399
#
# _framework density 21.144646000000002
#
# number of rings (size 3 to 8) (size 9 to 14) (size 15 to 20)
#    0.000    1.000    6.250    1.125    3.500    2.000 
#    0.000    0.000    0.000    3.000    0.000    0.000 
#    0.000    0.000    0.000    0.000    0.000    0.000 
#
# Total GULP energy -198242.314349 kJ/mol
# GULP energy per Si atom -12390.144647 kJ/mol
# Density = 2.109652 g / cm^3
# Si number density = 21.144646 Si / 1000 Ang^3
#
#
#
# Elastic Constant Matrix: (Units=GPa)
#
#
# Indices 1 2 3 4 5 6 
#
# 1 136.1821 52.3959 61.4478 -2.1977 -5.4685 -1.5225
# 2 52.3959 96.6429 36.1337 5.1293 2.7369 -7.8103
# 3 61.4478 36.1337 123.9416 -5.4558 -0.1495 -11.6878
# 4 -2.1977 5.1293 -5.4558 27.5850 3.7634 -3.9712
# 5 -5.4685 2.7369 -0.1495 3.7634 30.0912 -8.1597
# 6 -1.5225 -7.8103 -11.6878 -3.9712 -8.1597 28.9171
#
#
#
# Elastic Compliance Matrix: (Units=1/GPa)
#
#
# Indices 1 2 3 4 5 6 
#
# 1 0.011143 -0.004646 -0.004324 0.000376 0.001882 -0.001833
# 2 -0.004646 0.013839 -0.001658 -0.002806 -0.001190 0.002102
# 3 -0.004324 -0.001658 0.011224 0.002771 0.000243 0.004310
# 4 0.000376 -0.002806 0.002771 0.038472 -0.003182 0.004767
# 5 0.001882 -0.001190 0.000243 -0.003182 0.036741 0.009806
# 6 -0.001833 0.002102 0.004310 0.004767 0.009806 0.040217
#
#
# Mechanical properties :
#
#
# Convention : Reuss Voigt Hill
#
# Bulk Modulus (GPa) = 66.88982 72.96904 69.92943
# Shear Modulus (GPa) = 28.10983 31.10460 29.60722
#
# Velocity S-wave (km/s) = 3.65006 3.83957 3.74601
# Velocity P-wave (km/s) = 7.03328 7.36484 7.20096
#
# Compressibility (1/GPa) = 0.01494996
#
# Stress axis : x y z
#
# Youngs Moduli (GPa) = 89.74394 72.26188 89.09365
#
# Poissons Ratio (x) = 0.33572 0.38524
# Poissons Ratio (y) = 0.41694 0.14771
# Poissons Ratio (z) = 0.38805 0.11980
#
# Static dielectric constant tensor:
#      x y z
#    x 4.073470 -0.156280 -0.170830 
#    y -0.156280 4.113890 -0.173190 
#    z -0.170830 -0.173190 3.932840 
# 
# 
# High freq. dielectric constant tensor:
#      x y z
#    x 1.830930 -0.005330 -0.017240 
#    y -0.005330 1.821730 -0.018050 
#    z -0.017240 -0.018050 1.828670 
# 
# From -- ./inp_files/419559.got.cif
#   From: 2010.06.25/outbox.cif.g09.slc.cpg/sg2_210_cif.got.tgz:419559.got - 2010.06.27 13:26:56.
