data_PCOD8000694
_publ_section_title
;
Structure prediction by ZEFSAII (Michael W. Deem and Ramdas Pophale) SiO2 
 PCOD8000694
Probable space group: P -1
;
_chemical_formula_sum "Si O2"
_cell_formula_units_Z 14
_cell_length_a 8.608997
_cell_length_b 9.471247
_cell_length_c 11.096161
_cell_angle_alpha 40.615537
_cell_angle_beta 109.751588
_cell_angle_gamma 114.971250
_cell_volume 533.687232
_symmetry_space_group_name_H-M "P -1"
_symmetry_group_IT_number 2
_symmetry_cell_setting 'triclinic'
loop_
_space_group_symop_operation_xyz
x,y,z
-x,-y,-z
loop_
_atom_site_type_symbol
_atom_site_label
_atom_site_fract_x
_atom_site_fract_y
_atom_site_fract_z
Si Si1 0.267749 0.578224 0.561809
Si Si2 0.604644 0.932100 0.466158
Si Si3 0.240466 0.110628 0.990698
Si Si4 0.572453 0.318107 0.060561
Si Si5 0.960630 0.664588 0.541781
Si Si6 0.964815 0.086900 0.135965
Si Si7 0.149865 0.349636 0.217727
O O1 0.466360 0.719150 0.504044
O O2 0.247106 0.348104 0.777613
O O3 0.171806 0.538905 0.432685
O O4 0.159949 0.708271 0.530931
O O5 0.773386 0.864396 0.598644
O O6 0.500000 0.000000 0.500000
O O7 0.671367 0.164564 0.258173
O O8 0.422532 0.123752 0.086544
O O9 0.112182 0.050466 0.109221
O O10 0.191262 0.921036 0.993543
O O11 0.500000 0.500000 0.000000
O O12 0.692767 0.438414 0.907084
O O13 0.945509 0.603424 0.718662
O O14 0.906775 0.890037 0.348081
O O15 0.027655 0.310194 0.090656
#
# Coordination Sequence:
#
# PCOD8000694 Si02
#       7
#     2   2   2   2   2   2   2
#     4  10  21  42  68  94 130 186 228 276 343 414
#     4  12  23  40  73  98 133 184 230 271 346 408
#     4  10  19  39  67  99 130 181 231 270 328 414
#     4  12  22  41  69 101 138 179 229 278 338 407
#     4  10  23  42  66  96 138 178 229 283 341 402
#     4  10  21  38  65  95 134 179 219 275 336 396
#     4  12  24  43  69 103 141 174 227 292 333 399
#
# _framework density 26.232589999999998
#
# number of rings (size 3 to 8) (size 9 to 14) (size 15 to 20)
#    0.000    1.143    4.286    2.143    0.000    1.714 
#    2.571    1.429    0.000    0.000    0.000    0.000 
#    0.000    0.000    0.000    0.000    0.000    0.000 
#
# Total GULP energy -173507.732317 kJ/mol
# GULP energy per Si atom -12393.409451 kJ/mol
# Density = 2.617288 g / cm^3
# Si number density = 26.232590 Si / 1000 Ang^3
#
#
#
# Elastic Constant Matrix: (Units=GPa)
#
#
# Indices 1 2 3 4 5 6 
#
# 1 39.5849 33.6859 2.8552 9.2294 -16.2841 3.0941
# 2 33.6859 145.1370 18.9582 30.2828 -14.0586 9.5026
# 3 2.8552 18.9582 128.9296 13.4596 -20.6659 -9.7212
# 4 9.2294 30.2828 13.4596 41.2574 -5.6375 -1.3535
# 5 -16.2841 -14.0586 -20.6659 -5.6375 34.7282 5.0019
# 6 3.0941 9.5026 -9.7212 -1.3535 5.0019 36.1552
#
#
#
# Elastic Compliance Matrix: (Units=1/GPa)
#
#
# Indices 1 2 3 4 5 6 
#
# 1 0.038925 -0.007080 0.002934 -0.002217 0.017225 -0.003147
# 2 -0.007080 0.009930 -0.000978 -0.005524 -0.000431 -0.002414
# 3 0.002934 -0.000978 0.009104 -0.002060 0.005837 0.001569
# 4 -0.002217 -0.005524 -0.002060 0.029529 -0.000024 0.002197
# 5 0.017225 -0.000431 0.005837 -0.000024 0.040953 -0.005458
# 6 -0.003147 -0.002414 0.001569 0.002197 -0.005458 0.029822
#
#
# Mechanical properties :
#
#
# Convention : Reuss Voigt Hill
#
# Bulk Modulus (GPa) = 20.95965 47.18335 34.07150
# Shear Modulus (GPa) = 27.11295 39.63829 33.37562
#
# Velocity S-wave (km/s) = 3.21839 3.89142 3.57080
# Velocity P-wave (km/s) = 4.67097 6.18194 5.47880
#
# Compressibility (1/GPa) = 0.04771072
#
# Stress axis : x y z
#
# Youngs Moduli (GPa) = 25.69067 100.70568 109.84268
#
# Poissons Ratio (x) = 0.71303 -0.32231
# Poissons Ratio (y) = 0.18190 0.10740
# Poissons Ratio (z) = -0.07538 0.09847
#
# Static dielectric constant tensor:
#      x y z
#    x 4.574830 0.482430 0.022690 
#    y 0.482430 5.181370 0.258190 
#    z 0.022690 0.258190 4.581070 
# 
# 
# High freq. dielectric constant tensor:
#      x y z
#    x 2.021200 0.024350 -0.006160 
#    y 0.024350 2.059530 0.005360 
#    z -0.006160 0.005360 2.070150 
# 
# From -- ./inp_files/377740.got.cif
#   From: 2010.06.25/outbox.cif.g09.slc.cpg/sg2_189_cif.got.tgz:377740.got - 2010.06.27 13:26:56.
