data_PCOD8000619
_publ_section_title
;
Structure prediction by ZEFSAII (Michael W. Deem and Ramdas Pophale) SiO2 
 PCOD8000619
Probable space group: P -1
;
_chemical_formula_sum "Si O2"
_cell_formula_units_Z 16
_cell_length_a 10.537009
_cell_length_b 6.394622
_cell_length_c 11.623566
_cell_angle_alpha 87.882468
_cell_angle_beta 69.549844
_cell_angle_gamma 106.470360
_cell_volume 695.617515
_symmetry_space_group_name_H-M "P -1"
_symmetry_group_IT_number 2
_symmetry_cell_setting 'triclinic'
loop_
_space_group_symop_operation_xyz
x,y,z
-x,-y,-z
loop_
_atom_site_type_symbol
_atom_site_label
_atom_site_fract_x
_atom_site_fract_y
_atom_site_fract_z
Si Si1 0.693960 0.061079 0.341975
Si Si2 0.060042 0.517257 0.751214
Si Si3 0.379222 0.664870 0.069136
Si Si4 0.474533 0.551790 0.818816
Si Si5 0.614134 0.930837 0.618507
Si Si6 0.189367 0.228046 0.852474
Si Si7 0.822530 0.155452 0.740124
Si Si8 0.858239 0.776449 0.878037
O O1 0.784119 0.317214 0.338536
O O2 0.669210 0.926424 0.471966
O O3 0.540634 0.031248 0.332555
O O4 0.786390 0.961570 0.230661
O O5 0.068299 0.318122 0.834904
O O6 0.956587 0.383794 0.682165
O O7 0.983824 0.669358 0.837312
O O8 0.484746 0.658266 0.140794
O O9 0.285093 0.820029 0.124612
O O10 0.292109 0.406620 0.090028
O O11 0.460051 0.726611 0.919773
O O12 0.325493 0.447619 0.804675
O O13 0.591860 0.692127 0.688200
O O14 0.736766 0.112667 0.647899
O O15 0.140261 0.124507 0.996091
O O16 0.878649 0.956784 0.767004
#
# Coordination Sequence:
#
# PCOD8000619 Si02
#       8
#     2   2   2   2   2   2   2   2
#     4  11  26  45  65  95 128 174 222 259 312 380
#     4  11  24  44  63  97 133 166 214 267 321 381
#     4   9  20  36  62 102 132 159 207 264 333 384
#     4  10  19  39  65  97 132 163 209 272 318 381
#     4  11  24  45  67  93 132 170 219 268 305 379
#     4  11  23  41  68  97 130 173 209 264 326 381
#     4  11  23  41  68  96 128 171 207 266 331 375
#     4  10  22  39  67 100 131 162 213 265 327 388
#
# _framework density 23.001144
#
# number of rings (size 3 to 8) (size 9 to 14) (size 15 to 20)
#    0.000    1.500    2.500    1.875    1.750    4.500 
#    2.250    2.500    0.000    0.000    0.000    0.000 
#    0.000    0.000    0.000    0.000    0.000    0.000 
#
# Total GULP energy -198305.214722 kJ/mol
# GULP energy per Si atom -12394.075920 kJ/mol
# Density = 2.294879 g / cm^3
# Si number density = 23.001144 Si / 1000 Ang^3
#
#
#
# Elastic Constant Matrix: (Units=GPa)
#
#
# Indices 1 2 3 4 5 6 
#
# 1 123.0419 45.2130 27.0203 7.8786 14.7837 10.2931
# 2 45.2130 73.5662 30.1894 6.1217 13.3427 10.7913
# 3 27.0203 30.1894 75.5194 -4.2120 22.0023 7.1212
# 4 7.8786 6.1217 -4.2120 27.5963 -1.9844 -2.7538
# 5 14.7837 13.3427 22.0023 -1.9844 23.2380 6.6155
# 6 10.2931 10.7913 7.1212 -2.7538 6.6155 48.1990
#
#
#
# Elastic Compliance Matrix: (Units=1/GPa)
#
#
# Indices 1 2 3 4 5 6 
#
# 1 0.010907 -0.005505 -0.000918 -0.002311 -0.002909 -0.000694
# 2 -0.005505 0.020400 -0.005379 -0.004219 -0.002778 -0.002457
# 3 -0.000918 -0.005379 0.020370 0.003520 -0.015519 0.000722
# 4 -0.002311 -0.004219 0.003520 0.038864 0.003106 0.002712
# 5 -0.002909 -0.002778 -0.015519 0.003106 0.062836 -0.004911
# 6 -0.000694 -0.002457 0.000722 0.002712 -0.004911 0.022168
#
#
# Mechanical properties :
#
#
# Convention : Reuss Voigt Hill
#
# Bulk Modulus (GPa) = 35.62220 52.99697 44.30959
# Shear Modulus (GPa) = 23.97998 31.12031 27.55014
#
# Velocity S-wave (km/s) = 3.23237 3.68229 3.46464
# Velocity P-wave (km/s) = 5.42694 6.41639 5.94230
#
# Compressibility (1/GPa) = 0.02807238
#
# Stress axis : x y z
#
# Youngs Moduli (GPa) = 91.68118 49.02073 49.09131
#
# Poissons Ratio (x) = 0.26987 0.04506
# Poissons Ratio (y) = 0.50472 0.26408
# Poissons Ratio (z) = 0.08414 0.26370
#
# Static dielectric constant tensor:
#      x y z
#    x 4.413500 0.335050 0.076820 
#    y 0.335050 3.962750 -0.027000 
#    z 0.076820 -0.027000 3.807110 
# 
# 
# High freq. dielectric constant tensor:
#      x y z
#    x 1.933540 0.017000 0.007340 
#    y 0.017000 1.901950 -0.005740 
#    z 0.007340 -0.005740 1.873090 
# 
# From -- ./inp_files/410488.got.cif
#   From: 2010.06.25/outbox.cif.g09.slc.cpg/sg2_206_cif.got.tgz:410488.got - 2010.06.27 13:26:56.
