data_PCOD8000695
_publ_section_title
;
Structure prediction by ZEFSAII (Michael W. Deem and Ramdas Pophale) SiO2 
 PCOD8000695
Probable space group: P -1
;
_chemical_formula_sum "Si O2"
_cell_formula_units_Z 16
_cell_length_a 18.552786
_cell_length_b 18.478360
_cell_length_c 9.943830
_cell_angle_alpha 34.727397
_cell_angle_beta 46.700857
_cell_angle_gamma 22.307761
_cell_volume 691.952004
_symmetry_space_group_name_H-M "P -1"
_symmetry_group_IT_number 2
_symmetry_cell_setting 'triclinic'
loop_
_space_group_symop_operation_xyz
x,y,z
-x,-y,-z
loop_
_atom_site_type_symbol
_atom_site_label
_atom_site_fract_x
_atom_site_fract_y
_atom_site_fract_z
Si Si1 0.530145 0.951055 0.876548
Si Si2 0.785280 0.091619 0.311060
Si Si3 0.146436 0.718756 0.163973
Si Si4 0.461361 0.442570 0.400569
Si Si5 0.035622 0.597953 0.867634
Si Si6 0.747349 0.066029 0.046550
Si Si7 0.250484 0.051868 0.051849
Si Si8 0.502423 0.231207 0.313617
O O1 0.566630 0.044054 0.613228
O O2 0.331797 0.103528 0.838930
O O3 0.725178 0.647998 0.053749
O O4 0.500000 0.000000 0.000000
O O5 0.661295 0.268469 0.332397
O O6 0.612153 0.240516 0.202437
O O7 0.950699 0.798456 0.569655
O O8 0.908451 0.073447 0.119515
O O9 0.301275 0.540602 0.364285
O O10 0.263628 0.523179 0.185656
O O11 0.935159 0.877052 0.201645
O O12 0.550570 0.246038 0.696221
O O13 0.359107 0.679856 0.236072
O O14 0.932953 0.731448 0.940051
O O15 0.000000 0.500000 0.000000
O O16 0.592023 0.128283 0.204083
O O17 0.834620 0.917279 0.021297
#
# Coordination Sequence:
#
# PCOD8000695 Si02
#       8
#     2   2   2   2   2   2   2   2
#     4  12  24  45  73  96 129 184 236 283 342 403
#     4  10  19  39  68 100 131 173 233 288 331 389
#     4  11  22  40  71 100 132 182 235 274 347 396
#     4  10  20  44  67  99 139 179 232 283 325 410
#     4  11  22  43  70 100 136 172 237 292 327 401
#     4  12  25  42  65 103 146 181 223 279 348 411
#     4  11  27  44  66 103 140 184 227 278 347 408
#     4  11  23  41  67  98 138 175 229 291 333 403
#
# _framework density 23.122993000000001
#
# number of rings (size 3 to 8) (size 9 to 14) (size 15 to 20)
#    0.000    1.000    5.000    3.000    1.750    3.500 
#    0.000    2.500    0.000    0.000    0.000    0.000 
#    0.000    0.000    0.000    0.000    0.000    0.000 
#
# Total GULP energy -198317.845701 kJ/mol
# GULP energy per Si atom -12394.865356 kJ/mol
# Density = 2.307036 g / cm^3
# Si number density = 23.122993 Si / 1000 Ang^3
#
#
#
# Elastic Constant Matrix: (Units=GPa)
#
#
# Indices 1 2 3 4 5 6 
#
# 1 88.4024 32.7812 24.0570 0.3503 -2.2157 15.0267
# 2 32.7812 125.9122 34.7996 -4.9313 -7.9541 6.6575
# 3 24.0570 34.7996 97.1120 -1.7706 -0.5698 5.5812
# 4 0.3503 -4.9313 -1.7706 39.5589 0.6489 -3.0023
# 5 -2.2157 -7.9541 -0.5698 0.6489 20.0888 -0.6223
# 6 15.0267 6.6575 5.5812 -3.0023 -0.6223 38.3816
#
#
#
# Elastic Compliance Matrix: (Units=1/GPa)
#
#
# Indices 1 2 3 4 5 6 
#
# 1 0.013719 -0.002749 -0.002162 -0.000918 0.000249 -0.004648
# 2 -0.002749 0.009676 -0.002744 0.001047 0.003414 -0.000066
# 3 -0.002162 -0.002744 0.011837 0.000193 -0.001008 -0.000400
# 4 -0.000918 0.001047 0.000193 0.025596 -0.000442 0.002145
# 5 0.000249 0.003414 -0.001008 -0.000442 0.051152 0.000252
# 6 -0.004648 -0.000066 -0.000400 0.002145 0.000252 0.028115
#
#
# Mechanical properties :
#
#
# Convention : Reuss Voigt Hill
#
# Bulk Modulus (GPa) = 50.19080 54.96692 52.57886
# Shear Modulus (GPa) = 30.85562 34.25844 32.55703
#
# Velocity S-wave (km/s) = 3.65692 3.85330 3.75639
# Velocity P-wave (km/s) = 6.29158 6.60457 6.44997
#
# Compressibility (1/GPa) = 0.01992397
#
# Stress axis : x y z
#
# Youngs Moduli (GPa) = 72.88933 103.34709 84.48340
#
# Poissons Ratio (x) = 0.28408 0.18263
# Poissons Ratio (y) = 0.20036 0.23178
# Poissons Ratio (z) = 0.15757 0.28354
#
# Static dielectric constant tensor:
#      x y z
#    x 3.739480 0.134430 -0.109320 
#    y 0.134430 4.713090 -0.004480 
#    z -0.109320 -0.004480 4.185270 
# 
# 
# High freq. dielectric constant tensor:
#      x y z
#    x 1.869080 0.008970 -0.012020 
#    y 0.008970 1.945860 -0.000620 
#    z -0.012020 -0.000620 1.912400 
# 
# From -- ./inp_files/472712.got.cif
#   From: 2010.06.25/outbox.cif.g09.slc.cpg/sg2_237_cif.got.tgz:472712.got - 2010.06.27 13:26:56.
