data_PCOD8000491
_publ_section_title
;
Structure prediction by ZEFSAII (Michael W. Deem and Ramdas Pophale) SiO2 
 PCOD8000491
Probable space group: P -1
;
_chemical_formula_sum "Si O2"
_cell_formula_units_Z 16
_cell_length_a 13.196165
_cell_length_b 9.321857
_cell_length_c 25.490167
_cell_angle_alpha 139.437793
_cell_angle_beta 22.068720
_cell_angle_gamma 134.264593
_cell_volume 765.856197
_symmetry_space_group_name_H-M "P -1"
_symmetry_group_IT_number 2
_symmetry_cell_setting 'triclinic'
loop_
_space_group_symop_operation_xyz
x,y,z
-x,-y,-z
loop_
_atom_site_type_symbol
_atom_site_label
_atom_site_fract_x
_atom_site_fract_y
_atom_site_fract_z
Si Si1 0.535247 0.541497 0.157214
Si Si2 0.826276 0.740255 0.810443
Si Si3 0.778345 0.338461 0.310128
Si Si4 0.160615 0.236030 0.651905
Si Si5 0.180990 0.183488 0.989864
Si Si6 0.009410 0.799548 0.162171
Si Si7 0.450334 0.096683 0.668091
Si Si8 0.563904 0.244002 0.907380
O O1 0.257790 0.453961 0.242117
O O2 0.443332 0.699582 0.292795
O O3 0.704504 0.675038 0.071929
O O4 0.733980 0.338680 0.021893
O O5 0.078777 0.649363 0.698363
O O6 0.570122 0.820027 0.990783
O O7 0.908559 0.950391 0.795190
O O8 0.647500 0.581484 0.421772
O O9 0.005918 0.340487 0.155898
O O10 0.627038 0.106868 0.312674
O O11 0.113619 0.301402 0.753384
O O12 0.883742 0.200934 0.743608
O O13 0.320783 0.001276 0.507934
O O14 0.432856 0.098554 0.882530
O O15 0.000000 0.000000 0.000000
O O16 0.797040 0.802495 0.217929
O O17 0.500000 0.500000 0.000000
#
# Coordination Sequence:
#
# PCOD8000491 Si02
#       8
#     2   2   2   2   2   2   2   2
#     4  12  20  38  61  89 119 150 196 250 293 335
#     4  10  20  37  64  90 108 150 210 242 278 346
#     4  10  19  39  63  87 115 155 198 237 288 361
#     4  12  21  40  64  85 118 161 197 235 292 354
#     4  11  19  34  63  94 117 142 194 252 295 333
#     4  11  23  40  63  82 115 165 204 236 280 355
#     4  11  26  37  57  91 126 150 192 249 300 339
#     4  11  18  36  65  89 111 152 202 240 280 352
#
# _framework density 20.891649999999998
#
# number of rings (size 3 to 8) (size 9 to 14) (size 15 to 20)
#    0.000    1.000    7.500    1.500    0.000    0.000 
#    0.000    3.125    2.750    0.000    0.000    0.000 
#    0.000    0.000    0.000    0.000    0.000    0.000 
#
# Total GULP energy -198321.588923 kJ/mol
# GULP energy per Si atom -12395.099308 kJ/mol
# Density = 2.084410 g / cm^3
# Si number density = 20.891650 Si / 1000 Ang^3
#
#
#
# Elastic Constant Matrix: (Units=GPa)
#
#
# Indices 1 2 3 4 5 6 
#
# 1 88.9584 48.7621 16.1781 17.3851 1.7724 19.6043
# 2 48.7621 101.3657 0.1907 10.9237 2.9059 11.5234
# 3 16.1781 0.1907 49.0381 25.5291 -1.7415 5.4963
# 4 17.3851 10.9237 25.5291 24.7326 0.6899 4.2958
# 5 1.7724 2.9059 -1.7415 0.6899 26.8516 1.0049
# 6 19.6043 11.5234 5.4963 4.2958 1.0049 46.1817
#
#
#
# Elastic Compliance Matrix: (Units=1/GPa)
#
#
# Indices 1 2 3 4 5 6 
#
# 1 0.018022 -0.007400 -0.001998 -0.006472 -0.000166 -0.004961
# 2 -0.007400 0.014299 0.006385 -0.007611 -0.000432 -0.000469
# 3 -0.001998 0.006385 0.047547 -0.050289 0.003884 -0.001811
# 4 -0.006472 -0.007611 -0.050289 0.100135 -0.004636 0.001418
# 5 -0.000166 -0.000432 0.003884 -0.004636 0.037696 -0.000673
# 6 -0.004961 -0.000469 -0.001811 0.001418 -0.000673 0.023975
#
#
# Mechanical properties :
#
#
# Convention : Reuss Voigt Hill
#
# Bulk Modulus (GPa) = 13.54196 41.06932 27.30564
# Shear Modulus (GPa) = 18.36134 31.16861 24.76498
#
# Velocity S-wave (km/s) = 2.96781 3.86672 3.44670
# Velocity P-wave (km/s) = 4.27083 6.29574 5.37942
#
# Compressibility (1/GPa) = 0.07384457
#
# Stress axis : x y z
#
# Youngs Moduli (GPa) = 55.48851 69.93604 21.03160
#
# Poissons Ratio (x) = 0.51749 0.04201
# Poissons Ratio (y) = 0.41059 -0.13429
# Poissons Ratio (z) = 0.11084 -0.44656
#
# Static dielectric constant tensor:
#      x y z
#    x 3.924600 0.101330 -0.081340 
#    y 0.101330 4.219180 0.007920 
#    z -0.081340 0.007920 3.853920 
# 
# 
# High freq. dielectric constant tensor:
#      x y z
#    x 1.817850 -0.004840 -0.009560 
#    y -0.004840 1.822960 -0.008670 
#    z -0.009560 -0.008670 1.801140 
# 
# From -- ./inp_files/208966.got.cif
#   From: 2010.06.25/outbox.cif.g09.slc.cpg/sg2_105_cif.got.tgz:208966.got - 2010.06.27 13:26:56.
