data_PCOD8000868
_publ_section_title
;
Structure prediction by ZEFSAII (Michael W. Deem and Ramdas Pophale) SiO2 
 PCOD8000868
Probable space group: P -1
;
_chemical_formula_sum "Si O2"
_cell_formula_units_Z 16
_cell_length_a 11.349153
_cell_length_b 14.724474
_cell_length_c 9.334374
_cell_angle_alpha 101.813701
_cell_angle_beta 107.757629
_cell_angle_gamma 31.662069
_cell_volume 775.066939
_symmetry_space_group_name_H-M "P -1"
_symmetry_group_IT_number 2
_symmetry_cell_setting 'triclinic'
loop_
_space_group_symop_operation_xyz
x,y,z
-x,-y,-z
loop_
_atom_site_type_symbol
_atom_site_label
_atom_site_fract_x
_atom_site_fract_y
_atom_site_fract_z
Si Si1 0.979507 0.281396 0.291674
Si Si2 0.532843 0.110373 0.303139
Si Si3 0.361025 0.857344 0.917592
Si Si4 0.577565 0.030687 0.798960
Si Si5 0.772975 0.703696 0.493364
Si Si6 0.506131 0.601650 0.091360
Si Si7 0.994311 0.139145 0.481804
Si Si8 0.135770 0.863873 0.288248
O O1 0.770728 0.460391 0.183918
O O2 0.152017 0.240947 0.422922
O O3 0.859858 0.290075 0.368112
O O4 0.159545 0.113122 0.201771
O O5 0.513577 0.204656 0.208343
O O6 0.372592 0.248350 0.416167
O O7 0.456457 0.056294 0.204009
O O8 0.794902 0.936111 0.398503
O O9 0.447852 0.892036 0.045263
O O10 0.434754 0.713928 0.971184
O O11 0.084730 0.031718 0.849669
O O12 0.384834 0.192434 0.671641
O O13 0.000000 0.500000 0.500000
O O14 0.352061 0.717788 0.213509
O O15 0.500000 0.500000 0.000000
O O16 0.825185 0.219669 0.576995
O O17 0.092748 0.993499 0.374038
#
# Coordination Sequence:
#
# PCOD8000868 Si02
#       8
#     2   2   2   2   2   2   2   2
#     4  11  21  37  63  87 122 162 207 248 311 367
#     4  10  21  40  64  94 124 159 206 257 311 373
#     4  11  23  41  64  91 124 169 206 256 314 369
#     4  11  20  41  66  93 124 161 209 250 316 380
#     4  11  22  38  61  96 121 162 200 252 310 374
#     4  12  25  41  58  91 130 171 212 256 314 372
#     4  10  19  40  64  92 117 163 210 265 307 362
#     4  10  23  39  64  89 123 162 218 259 309 362
#
# _framework density 20.643377000000001
#
# number of rings (size 3 to 8) (size 9 to 14) (size 15 to 20)
#    0.000    1.250    2.500    4.500    1.750    0.500 
#    2.250    6.875    0.000    0.000    0.000    0.000 
#    0.000    0.000    0.000    0.000    0.000    0.000 
#
# Total GULP energy -198294.318791 kJ/mol
# GULP energy per Si atom -12393.394924 kJ/mol
# Density = 2.059639 g / cm^3
# Si number density = 20.643377 Si / 1000 Ang^3
#
#
#
# Elastic Constant Matrix: (Units=GPa)
#
#
# Indices 1 2 3 4 5 6 
#
# 1 79.6783 12.9785 34.9106 -2.0852 -19.5349 -1.8607
# 2 12.9785 73.1006 31.7852 -10.5780 -21.1843 -10.7556
# 3 34.9106 31.7852 92.2494 -3.2141 -8.1632 -5.3532
# 4 -2.0852 -10.5780 -3.2141 27.8078 -0.1981 5.9921
# 5 -19.5349 -21.1843 -8.1632 -0.1981 47.9184 -2.0211
# 6 -1.8607 -10.7556 -5.3532 5.9921 -2.0211 28.9355
#
#
#
# Elastic Compliance Matrix: (Units=1/GPa)
#
#
# Indices 1 2 3 4 5 6 
#
# 1 0.016675 0.002011 -0.006324 0.001143 0.006651 0.000878
# 2 0.002011 0.020502 -0.006470 0.005985 0.009057 0.005946
# 3 -0.006324 -0.006470 0.015170 -0.001212 -0.002857 0.000046
# 4 0.001143 0.005985 -0.001212 0.039476 0.002819 -0.005904
# 5 0.006651 0.009057 -0.002857 0.002819 0.027303 0.004589
# 6 0.000878 0.005946 0.000046 -0.005904 0.004589 0.038378
#
#
# Mechanical properties :
#
#
# Convention : Reuss Voigt Hill
#
# Bulk Modulus (GPa) = 32.48738 44.93078 38.70908
# Shear Modulus (GPa) = 26.40900 31.95594 29.18247
#
# Velocity S-wave (km/s) = 3.58061 3.93873 3.76393
# Velocity P-wave (km/s) = 5.73288 6.51899 6.13853
#
# Compressibility (1/GPa) = 0.03078118
#
# Stress axis : x y z
#
# Youngs Moduli (GPa) = 59.97053 48.77680 65.91785
#
# Poissons Ratio (x) = -0.09811 0.41687
# Poissons Ratio (y) = -0.12063 0.42650
# Poissons Ratio (z) = 0.37926 0.31559
#
# Static dielectric constant tensor:
#      x y z
#    x 3.909790 -0.128310 -0.141990 
#    y -0.128310 3.206750 -0.130170 
#    z -0.141990 -0.130170 3.867600 
# 
# 
# High freq. dielectric constant tensor:
#      x y z
#    x 1.821540 0.000840 0.001210 
#    y 0.000840 1.782690 0.000740 
#    z 0.001210 0.000740 1.822570 
# 
# From -- ./inp_files/273172.got.cif
#   From: 2010.06.25/outbox.cif.g09.slc.cpg/sg2_137_cif.got.tgz:273172.got - 2010.06.27 13:26:56.
