data_PCOD8000049
_publ_section_title
;
Structure prediction by ZEFSAII (Michael W. Deem and Ramdas Pophale) SiO2 
 PCOD8000049
Probable space group: P 1
;
_chemical_formula_sum "Si O2"
_cell_formula_units_Z 6
_cell_length_a 8.357644
_cell_length_b 6.966712
_cell_length_c 4.932799
_cell_angle_alpha 79.760363
_cell_angle_beta 90.263367
_cell_angle_gamma 88.377136
_cell_volume 282.512294
_symmetry_space_group_name_H-M "P 1"
_symmetry_group_IT_number 1
_symmetry_cell_setting 'triclinic'
loop_
_space_group_symop_operation_xyz
x,y,z
loop_
_atom_site_type_symbol
_atom_site_label
_atom_site_fract_x
_atom_site_fract_y
_atom_site_fract_z
Si Si1 0.056790 0.179330 0.445070
Si Si2 0.854047 0.807719 0.634341
Si Si3 0.268361 0.177451 0.946182
Si Si4 0.566134 0.305211 0.159691
Si Si5 0.847773 0.553598 0.178145
Si Si6 0.572303 0.052136 0.756176
O O1 0.160555 0.257389 0.677372
O O2 0.943699 0.357438 0.304828
O O3 0.162721 0.100695 0.212854
O O4 0.954491 0.002067 0.596620
O O5 0.853887 0.720046 0.359829
O O6 0.672156 0.860029 0.716735
O O7 0.923941 0.645546 0.885015
O O8 0.390935 0.005209 0.872669
O O9 0.385753 0.345352 0.024792
O O10 0.662339 0.503220 0.137955
O O11 0.554430 0.204360 0.473982
O O12 0.660696 0.160290 0.981946
#
# Coordination Sequence:
#
# PCOD8000049 Si02
#       6
#     1   1   1   1   1   1
#     4  12  24  44  70  94 146 170 212 282 336 396
#     4  12  26  42  71 103 130 176 229 272 327 397
#     4  10  22  40  74  94 128 190 208 268 352 382
#     4  10  20  42  69  98 123 176 228 260 331 386
#     4  12  26  42  71 103 130 176 229 272 327 397
#     4  10  20  42  69  98 123 176 228 260 331 386
#
# _framework density 21.238015000000001
#
# number of rings (size 3 to 8) (size 9 to 14) (size 15 to 20)
#    1.000    0.000    3.333    4.000    2.333    0.000 
#    0.000    6.667    0.000    0.000    0.000    0.000 
#    0.000    0.000    0.000    0.000    0.000    0.000 
#
# Total GULP energy -74340.944514 kJ/mol
# GULP energy per Si atom -12390.157419 kJ/mol
# Density = 2.118968 g / cm^3
# Si number density = 21.238015 Si / 1000 Ang^3
#
#
#
# Elastic Constant Matrix: (Units=GPa)
#
#
# Indices 1 2 3 4 5 6 
#
# 1 112.5897 39.6048 42.0821 -8.6025 -1.7034 4.8226
# 2 39.6048 70.8892 22.9301 -12.0745 -0.8340 8.7987
# 3 42.0821 22.9301 117.1934 -4.0685 -10.4203 3.4393
# 4 -8.6025 -12.0745 -4.0685 37.9890 -2.1222 -3.2459
# 5 -1.7034 -0.8340 -10.4203 -2.1222 32.3042 9.7996
# 6 4.8226 8.7987 3.4393 -3.2459 9.7996 15.0521
#
#
#
# Elastic Compliance Matrix: (Units=1/GPa)
#
#
# Indices 1 2 3 4 5 6 
#
# 1 0.012128 -0.005718 -0.003312 0.000603 -0.000799 0.000864
# 2 -0.005718 0.019721 -0.001041 0.004131 0.003417 -0.010792
# 3 -0.003312 -0.001041 0.010399 -0.000027 0.004196 -0.003444
# 4 0.000603 0.004131 -0.000027 0.028065 0.001155 0.002699
# 5 -0.000799 0.003417 0.004196 0.001155 0.041339 -0.029365
# 6 0.000864 -0.010792 -0.003444 0.002699 -0.029365 0.092954
#
#
# Mechanical properties :
#
#
# Convention : Reuss Voigt Hill
#
# Bulk Modulus (GPa) = 45.23712 56.65625 50.94669
# Shear Modulus (GPa) = 21.54073 30.13941 25.84007
#
# Velocity S-wave (km/s) = 3.18819 3.77122 3.49189
# Velocity P-wave (km/s) = 5.90754 6.75999 6.34809
#
# Compressibility (1/GPa) = 0.02210574
#
# Stress axis : x y z
#
# Youngs Moduli (GPa) = 82.45319 50.70622 96.16337
#
# Poissons Ratio (x) = 0.28996 0.31845
# Poissons Ratio (y) = 0.47151 0.10014
# Poissons Ratio (z) = 0.27305 0.05280
#
# Static dielectric constant tensor:
#      x y z
#    x 3.987100 0.036350 -0.021060 
#    y 0.036350 3.439500 0.217550 
#    z -0.021060 0.217550 4.158120 
# 
# 
# High freq. dielectric constant tensor:
#      x y z
#    x 1.831670 0.003160 -0.001700 
#    y 0.003160 1.789180 0.017520 
#    z -0.001700 0.017520 1.864820 
# 
# From -- ./inp_files/58.got.cif
#   From: 2010.03.12/outbox.cif.g09.slc.cpg/sg1_1_cif.got.tgz:58.got - 2010.03.29 11:57:58.
