data_PCOD8000396
_publ_section_title
;
Structure prediction by ZEFSAII (Michael W. Deem and Ramdas Pophale) SiO2 
 PCOD8000396
Probable space group: P -1
;
_chemical_formula_sum "Si O2"
_cell_formula_units_Z 16
_cell_length_a 8.835086
_cell_length_b 20.618140
_cell_length_c 9.150729
_cell_angle_alpha 140.155165
_cell_angle_beta 50.309561
_cell_angle_gamma 122.942102
_cell_volume 817.000428
_symmetry_space_group_name_H-M "P -1"
_symmetry_group_IT_number 2
_symmetry_cell_setting 'triclinic'
loop_
_space_group_symop_operation_xyz
x,y,z
-x,-y,-z
loop_
_atom_site_type_symbol
_atom_site_label
_atom_site_fract_x
_atom_site_fract_y
_atom_site_fract_z
Si Si1 0.660531 0.336032 0.414526
Si Si2 0.939190 0.220174 0.595120
Si Si3 0.348074 0.159904 0.227384
Si Si4 0.616628 0.548179 0.874153
Si Si5 0.354047 0.711271 0.328015
Si Si6 0.046131 0.295732 0.955342
Si Si7 0.382560 0.942340 0.342327
Si Si8 0.317885 0.122619 0.505914
O O1 0.451904 0.273340 0.395124
O O2 0.651203 0.455165 0.582472
O O3 0.710078 0.331110 0.546899
O O4 0.828792 0.285738 0.138756
O O5 0.841207 0.278640 0.627417
O O6 0.781276 0.140501 0.635366
O O7 0.123142 0.166765 0.323417
O O8 0.027283 0.302580 0.803405
O O9 0.343468 0.097194 0.274274
O O10 0.459001 0.106674 0.940280
O O11 0.827787 0.603290 0.889641
O O12 0.500000 0.500000 0.000000
O O13 0.486659 0.631795 0.028202
O O14 0.478337 0.821364 0.457237
O O15 0.142881 0.193522 0.760516
O O16 0.500000 0.000000 0.500000
O O17 0.268300 0.018489 0.445495
#
# Coordination Sequence:
#
# PCOD8000396 Si02
#       8
#     2   2   2   2   2   2   2   2
#     4  10  19  39  61  86 114 156 196 236 281 351
#     4  11  22  40  58  86 122 155 187 244 297 334
#     4  10  23  40  59  84 119 155 195 239 286 344
#     4   9  18  36  62  85 115 154 193 233 286 349
#     4   9  19  37  57  83 120 152 189 241 292 336
#     4  10  20  36  62  88 116 151 196 237 284 345
#     4  12  23  39  61  85 118 153 197 243 291 343
#     4   9  20  39  58  83 116 156 194 238 288 341
#
# _framework density 19.583832999999998
#
# number of rings (size 3 to 8) (size 9 to 14) (size 15 to 20)
#    0.000    2.000    2.500    3.000    0.000    3.500 
#    4.500    6.250    0.000    0.000    0.000    0.000 
#    0.000    0.000    0.000    0.000    0.000    0.000 
#
# Total GULP energy -198364.918586 kJ/mol
# GULP energy per Si atom -12397.807412 kJ/mol
# Density = 1.953926 g / cm^3
# Si number density = 19.583833 Si / 1000 Ang^3
#
#
#
# Elastic Constant Matrix: (Units=GPa)
#
#
# Indices 1 2 3 4 5 6 
#
# 1 117.6682 21.8323 47.8432 2.6725 -13.0747 -10.5514
# 2 21.8323 61.4624 29.6205 0.3406 -6.5920 -1.2612
# 3 47.8432 29.6205 123.0391 -4.4670 -8.8062 -3.9877
# 4 2.6725 0.3406 -4.4670 25.7154 8.8544 -7.3520
# 5 -13.0747 -6.5920 -8.8062 8.8544 28.2629 -2.2309
# 6 -10.5514 -1.2612 -3.9877 -7.3520 -2.2309 21.3733
#
#
#
# Elastic Compliance Matrix: (Units=1/GPa)
#
#
# Indices 1 2 3 4 5 6 
#
# 1 0.011234 -0.001665 -0.003558 -0.002083 0.004712 0.004559
# 2 -0.001665 0.019021 -0.003812 -0.002015 0.003047 -0.000786
# 3 -0.003558 -0.003812 0.010549 0.002480 0.000042 0.000844
# 4 -0.002083 -0.002015 0.002480 0.048823 -0.014807 0.014564
# 5 0.004712 0.003047 0.000042 -0.014807 0.043076 0.001917
# 6 0.004559 -0.000786 0.000844 0.014564 0.001917 0.054359
#
#
# Mechanical properties :
#
#
# Convention : Reuss Voigt Hill
#
# Bulk Modulus (GPa) = 43.98869 55.64019 49.81444
# Shear Modulus (GPa) = 23.50621 28.59525 26.05073
#
# Velocity S-wave (km/s) = 3.46827 3.82533 3.65117
# Velocity P-wave (km/s) = 6.20879 6.92704 6.57772
#
# Compressibility (1/GPa) = 0.02273312
#
# Stress axis : x y z
#
# Youngs Moduli (GPa) = 89.01717 52.57443 94.79528
#
# Poissons Ratio (x) = 0.08755 0.33727
# Poissons Ratio (y) = 0.14824 0.36136
# Poissons Ratio (z) = 0.31671 0.20042
#
# Static dielectric constant tensor:
#      x y z
#    x 3.644010 0.126150 -0.060500 
#    y 0.126150 3.789970 0.378220 
#    z -0.060500 0.378220 3.984630 
# 
# 
# High freq. dielectric constant tensor:
#      x y z
#    x 1.758030 0.013920 -0.008090 
#    y 0.013920 1.751430 0.004170 
#    z -0.008090 0.004170 1.767900 
# 
# From -- ./inp_files/196961.got.cif
#   From: 2010.06.25/outbox.cif.g09.slc.cpg/sg2_99_cif.got.tgz:196961.got - 2010.06.27 13:26:56.
