data_PCOD8000106
_publ_section_title
;
Structure prediction by ZEFSAII (Michael W. Deem and Ramdas Pophale) SiO2 
 PCOD8000106
Probable space group: P 1
;
_chemical_formula_sum "Si O2"
_cell_formula_units_Z 8
_cell_length_a 16.270955
_cell_length_b 5.217352
_cell_length_c 8.969813
_cell_angle_alpha 81.360424
_cell_angle_beta 31.679276
_cell_angle_gamma 73.468297
_cell_volume 376.915009
_symmetry_space_group_name_H-M "P 1"
_symmetry_group_IT_number 1
_symmetry_cell_setting 'triclinic'
loop_
_space_group_symop_operation_xyz
x,y,z
loop_
_atom_site_type_symbol
_atom_site_label
_atom_site_fract_x
_atom_site_fract_y
_atom_site_fract_z
Si Si1 0.817100 0.135400 0.443500
Si Si2 0.086465 0.206887 0.210096
Si Si3 0.741895 0.379172 0.226951
Si Si4 0.011261 0.038320 0.652258
Si Si5 0.147422 0.728029 0.958660
Si Si6 0.311860 0.722428 0.395789
Si Si7 0.680940 0.961271 0.158382
Si Si8 0.516502 0.120106 0.088827
O O1 0.744227 0.341224 0.403709
O O2 0.900352 0.286287 0.423941
O O3 0.676384 0.036112 0.745927
O O4 0.957461 0.868182 0.188048
O O5 0.169107 0.439548 0.027494
O O6 0.084133 0.171273 0.393850
O O7 0.195561 0.926312 0.987572
O O8 0.659255 0.694476 0.292273
O O9 0.632800 0.207695 0.331712
O O10 0.928008 0.272458 0.882457
O O11 0.151979 0.798317 0.532534
O O12 0.870901 0.911461 0.817888
O O13 0.266525 0.682999 0.638848
O O14 0.434080 0.441857 0.173128
O O15 0.394282 0.961756 0.232825
O O16 0.561837 0.035342 0.195879
#
# Coordination Sequence:
#
# PCOD8000106 Si02
#       8
#     1   1   1   1   1   1   1   1
#     4  10  23  41  68 100 124 176 227 266 318 391
#     4  10  22  35  73  91 125 162 237 265 303 377
#     4  10  22  35  73  91 125 162 237 265 303 377
#     4  10  23  41  68 100 124 176 227 266 318 391
#     4  10  22  42  64  96 125 178 222 260 318 402
#     4  12  27  44  67  99 142 172 210 277 349 384
#     4  10  22  42  64  96 125 178 222 260 318 402
#     4  12  27  44  67  99 142 172 210 277 349 384
#
# _framework density 21.224945000000002
#
# number of rings (size 3 to 8) (size 9 to 14) (size 15 to 20)
#    1.500    0.000    2.500    1.500   10.500    0.000 
#    0.000    7.500    0.000    0.000    0.000    0.000 
#    0.000    0.000    0.000    0.000    0.000    0.000 
#
# Total GULP energy -99183.983749 kJ/mol
# GULP energy per Si atom -12397.997969 kJ/mol
# Density = 2.117664 g / cm^3
# Si number density = 21.224945 Si / 1000 Ang^3
#
#
#
# Elastic Constant Matrix: (Units=GPa)
#
#
# Indices 1 2 3 4 5 6 
#
# 1 60.1010 29.8308 -6.3828 -1.0891 4.1161 -7.3795
# 2 29.8308 135.2970 8.8743 -14.7885 9.0143 14.5047
# 3 -6.3828 8.8743 56.0817 -7.9858 11.1400 9.3982
# 4 -1.0891 -14.7885 -7.9858 25.7911 -11.8389 5.2852
# 5 4.1161 9.0143 11.1400 -11.8389 28.2075 -6.1496
# 6 -7.3795 14.5047 9.3982 5.2852 -6.1496 33.1727
#
#
#
# Elastic Compliance Matrix: (Units=1/GPa)
#
#
# Indices 1 2 3 4 5 6 
#
# 1 0.020587 -0.005705 0.001956 -0.004215 -0.002246 0.006775
# 2 -0.005705 0.010189 0.000090 0.006486 -0.001267 -0.007018
# 3 0.001956 0.000090 0.021792 0.004507 -0.008800 -0.008127
# 4 -0.004215 0.006486 0.004507 0.053656 0.017005 -0.010447
# 5 -0.002246 -0.001267 -0.008800 0.017005 0.048731 0.008872
# 6 0.006775 -0.007018 -0.008127 -0.010447 0.008872 0.040333
#
#
# Mechanical properties :
#
#
# Convention : Reuss Voigt Hill
#
# Bulk Modulus (GPa) = 22.09968 35.12490 28.61229
# Shear Modulus (GPa) = 22.96861 32.04477 27.50669
#
# Velocity S-wave (km/s) = 3.29318 3.88979 3.60385
# Velocity P-wave (km/s) = 4.98946 6.06290 5.55218
#
# Compressibility (1/GPa) = 0.04524952
#
# Stress axis : x y z
#
# Youngs Moduli (GPa) = 48.57350 98.14725 45.88943
#
# Poissons Ratio (x) = 0.55993 -0.08977
# Poissons Ratio (y) = 0.27711 -0.00411
# Poissons Ratio (z) = -0.09502 -0.00880
#
# Static dielectric constant tensor:
#      x y z
#    x 3.583150 -0.009600 0.029830 
#    y -0.009600 3.633070 -0.029490 
#    z 0.029830 -0.029490 3.564580 
# 
# 
# High freq. dielectric constant tensor:
#      x y z
#    x 1.819820 -0.005170 0.007110 
#    y -0.005170 1.833730 -0.009020 
#    z 0.007110 -0.009020 1.817050 
# 
# From -- ./inp_files/1849.got.cif
#   From: 2010.03.12/outbox.cif.g09.slc.cpg/sg1_1_cif.got.tgz:1849.got - 2010.03.29 11:57:58.
