data_PCOD8000443
_publ_section_title
;
Structure prediction by ZEFSAII (Michael W. Deem and Ramdas Pophale) SiO2 
 PCOD8000443
Probable space group: P -1
;
_chemical_formula_sum "Si O2"
_cell_formula_units_Z 16
_cell_length_a 22.803079
_cell_length_b 24.591980
_cell_length_c 16.708892
_cell_angle_alpha 26.254781
_cell_angle_beta 163.026227
_cell_angle_gamma 162.854194
_cell_volume 790.333985
_symmetry_space_group_name_H-M "P -1"
_symmetry_group_IT_number 2
_symmetry_cell_setting 'triclinic'
loop_
_space_group_symop_operation_xyz
x,y,z
-x,-y,-z
loop_
_atom_site_type_symbol
_atom_site_label
_atom_site_fract_x
_atom_site_fract_y
_atom_site_fract_z
Si Si1 0.276275 0.412527 0.623189
Si Si2 0.213067 0.132509 0.969341
Si Si3 0.758214 0.069889 0.114388
Si Si4 0.552105 0.079790 0.548925
Si Si5 0.248119 0.891521 0.558285
Si Si6 0.926952 0.606247 0.785413
Si Si7 0.313337 0.227523 0.533138
Si Si8 0.892079 0.804952 0.864210
O O1 0.397502 0.330678 0.907440
O O2 0.117397 0.337866 0.427544
O O3 0.569626 0.637678 0.710869
O O4 0.013750 0.325239 0.462943
O O5 0.904052 0.042542 0.726656
O O6 0.438900 0.169324 0.279021
O O7 0.112538 0.995107 0.949787
O O8 0.812234 0.202847 0.074798
O O9 0.087583 0.177698 0.370376
O O10 0.596285 0.873561 0.199427
O O11 0.546853 0.028586 0.823934
O O12 0.500000 0.000000 0.500000
O O13 0.350196 0.911908 0.573680
O O14 0.914273 0.233637 0.841339
O O15 0.611546 0.453261 0.626346
O O16 0.000000 0.500000 0.000000
O O17 0.158195 0.157805 0.335966
#
# Coordination Sequence:
#
# PCOD8000443 Si02
#       8
#     2   2   2   2   2   2   2   2
#     4   9  22  36  58  87 124 149 202 239 295 358
#     4   9  21  37  63  83 120 151 199 253 301 353
#     4  11  22  38  61  89 124 167 200 245 300 362
#     4  10  20  39  67  86 114 158 201 250 312 359
#     4  10  21  39  60  90 118 157 201 246 302 363
#     4  11  23  37  60  90 126 162 201 248 295 362
#     4  10  22  38  60  87 128 159 206 243 299 360
#     4  10  19  39  62  88 118 160 196 249 300 354
#
# _framework density 20.244605
#
# number of rings (size 3 to 8) (size 9 to 14) (size 15 to 20)
#    0.750    1.250    1.250    2.250    3.500    1.500 
#    0.000    2.500    8.250    0.000    0.000    0.000 
#    0.000    0.000    0.000    0.000    0.000    0.000 
#
# Total GULP energy -198216.247463 kJ/mol
# GULP energy per Si atom -12388.515466 kJ/mol
# Density = 2.019853 g / cm^3
# Si number density = 20.244605 Si / 1000 Ang^3
#
#
#
# Elastic Constant Matrix: (Units=GPa)
#
#
# Indices 1 2 3 4 5 6 
#
# 1 89.4184 30.9702 24.1059 -6.4285 -6.9127 19.6756
# 2 30.9702 50.6046 3.1915 -10.2574 -6.8999 13.8346
# 3 24.1059 3.1915 98.9114 -8.6101 0.7810 8.2134
# 4 -6.4285 -10.2574 -8.6101 22.0360 1.7006 -0.8132
# 5 -6.9127 -6.8999 0.7810 1.7006 24.2032 -6.8377
# 6 19.6756 13.8346 8.2134 -0.8132 -6.8377 31.7016
#
#
#
# Elastic Compliance Matrix: (Units=1/GPa)
#
#
# Indices 1 2 3 4 5 6 
#
# 1 0.016114 -0.008191 -0.003279 -0.000661 0.000894 -0.005402
# 2 -0.008191 0.029478 0.002679 0.011868 0.003020 -0.007519
# 3 -0.003279 0.002679 0.011444 0.004795 -0.001530 -0.002306
# 4 -0.000661 0.011868 0.004795 0.052558 -0.002098 -0.005116
# 5 0.000894 0.003020 -0.001530 -0.002098 0.044936 0.008162
# 6 -0.005402 -0.007519 -0.002306 -0.005116 0.008162 0.040405
#
#
# Mechanical properties :
#
#
# Convention : Reuss Voigt Hill
#
# Bulk Modulus (GPa) = 25.34620 39.49661 32.42140
# Shear Modulus (GPa) = 22.15645 27.63262 24.89453
#
# Velocity S-wave (km/s) = 3.31182 3.69851 3.51049
# Velocity P-wave (km/s) = 5.21261 6.14742 5.69921
#
# Compressibility (1/GPa) = 0.03945365
#
# Stress axis : x y z
#
# Youngs Moduli (GPa) = 62.05650 33.92390 87.38430
#
# Poissons Ratio (x) = 0.27786 0.28654
# Poissons Ratio (y) = 0.50828 -0.23407
# Poissons Ratio (z) = 0.20349 -0.09087
#
# Static dielectric constant tensor:
#      x y z
#    x 3.482410 0.321440 0.080860 
#    y 0.321440 3.480630 -0.068850 
#    z 0.080860 -0.068850 4.299630 
# 
# 
# High freq. dielectric constant tensor:
#      x y z
#    x 1.779130 0.028300 -0.000660 
#    y 0.028300 1.765300 -0.002020 
#    z -0.000660 -0.002020 1.811450 
# 
# From -- ./inp_files/541763.got.cif
#   From: 2010.06.25/outbox.cif.g09.slc.cpg/sg2_271_cif.got.tgz:541763.got - 2010.06.27 13:26:56.
