data_PCOD8000321
_publ_section_title
;
Structure prediction by ZEFSAII (Michael W. Deem and Ramdas Pophale) SiO2 
 PCOD8000321
Probable space group: P -1
;
_chemical_formula_sum "Si O2"
_cell_formula_units_Z 16
_cell_length_a 7.742178
_cell_length_b 9.533374
_cell_length_c 11.286931
_cell_angle_alpha 65.044675
_cell_angle_beta 102.493055
_cell_angle_gamma 103.646899
_cell_volume 727.500134
_symmetry_space_group_name_H-M "P -1"
_symmetry_group_IT_number 2
_symmetry_cell_setting 'triclinic'
loop_
_space_group_symop_operation_xyz
x,y,z
-x,-y,-z
loop_
_atom_site_type_symbol
_atom_site_label
_atom_site_fract_x
_atom_site_fract_y
_atom_site_fract_z
Si Si1 0.924478 0.662406 0.439799
Si Si2 0.719927 0.837470 0.954584
Si Si3 0.869213 0.835172 0.601250
Si Si4 0.540348 0.686234 0.752721
Si Si5 0.440353 0.050719 0.832843
Si Si6 0.363938 0.952256 0.600926
Si Si7 0.372672 0.352186 0.779112
Si Si8 0.974982 0.990489 0.218215
O O1 0.930210 0.713040 0.560683
O O2 0.728530 0.616847 0.367980
O O3 0.000000 0.500000 0.500000
O O4 0.019137 0.819120 0.326753
O O5 0.630627 0.722716 0.879985
O O6 0.571096 0.939480 0.948433
O O7 0.895125 0.950870 0.892917
O O8 0.765463 0.728505 0.108990
O O9 0.675536 0.752157 0.645645
O O10 0.998049 0.882069 0.715715
O O11 0.832017 0.998601 0.471590
O O12 0.358202 0.765260 0.686330
O O13 0.490833 0.502652 0.797605
O O14 0.454517 0.041044 0.697052
O O15 0.228886 0.012148 0.853826
O O16 0.509864 0.232545 0.810688
O O17 0.500000 0.000000 0.500000
#
# Coordination Sequence:
#
# PCOD8000321 Si02
#       8
#     2   2   2   2   2   2   2   2
#     4  11  25  37  56  94 129 162 194 254 327 361
#     4  10  22  42  66  89 116 169 222 243 304 369
#     4  10  19  39  57  87 122 162 210 243 299 386
#     4   9  21  35  62  89 119 162 203 260 309 358
#     4  10  21  38  60  94 117 159 211 251 311 355
#     4   9  17  34  57  86 115 157 207 236 292 374
#     4  11  22  40  60  89 130 160 201 266 308 362
#     4  10  22  40  67  88 121 167 207 260 293 368
#
# _framework density 21.993123000000001
#
# number of rings (size 3 to 8) (size 9 to 14) (size 15 to 20)
#    0.000    2.000    2.500    1.875    1.750    4.500 
#    0.000    1.250    0.000    6.000    0.000    0.000 
#    0.000    0.000    0.000    0.000    0.000    0.000 
#
# Total GULP energy -198230.521606 kJ/mol
# GULP energy per Si atom -12389.407600 kJ/mol
# Density = 2.194307 g / cm^3
# Si number density = 21.993123 Si / 1000 Ang^3
#
#
#
# Elastic Constant Matrix: (Units=GPa)
#
#
# Indices 1 2 3 4 5 6 
#
# 1 75.4836 43.4033 21.1493 -3.0279 4.9422 -3.3738
# 2 43.4033 170.7119 34.9414 -7.1609 5.9742 -10.8723
# 3 21.1493 34.9414 70.8817 -1.9487 13.7777 2.5611
# 4 -3.0279 -7.1609 -1.9487 17.8092 1.8014 -3.5607
# 5 4.9422 5.9742 13.7777 1.8014 36.6018 -4.8933
# 6 -3.3738 -10.8723 2.5611 -3.5607 -4.8933 20.5548
#
#
#
# Elastic Compliance Matrix: (Units=1/GPa)
#
#
# Indices 1 2 3 4 5 6 
#
# 1 0.016173 -0.003304 -0.003146 0.001403 -0.000334 0.001462
# 2 -0.003304 0.007720 -0.003061 0.003054 0.000809 0.004644
# 3 -0.003146 -0.003061 0.018060 -0.000320 -0.006664 -0.006027
# 4 0.001403 0.003054 -0.000320 0.060147 -0.001944 0.011842
# 5 -0.000334 0.000809 -0.006664 -0.001944 0.030939 0.008232
# 6 0.001462 0.004644 -0.006027 0.011842 0.008232 0.056109
#
#
# Mechanical properties :
#
#
# Convention : Reuss Voigt Hill
#
# Bulk Modulus (GPa) = 43.61031 57.34060 50.47546
# Shear Modulus (GPa) = 23.16821 29.49868 26.33345
#
# Velocity S-wave (km/s) = 3.24918 3.66631 3.46403
# Velocity P-wave (km/s) = 5.82652 6.63710 6.24497
#
# Compressibility (1/GPa) = 0.02293036
#
# Stress axis : x y z
#
# Youngs Moduli (GPa) = 61.83188 129.53376 55.37169
#
# Poissons Ratio (x) = 0.42802 0.17421
# Poissons Ratio (y) = 0.20431 0.16948
# Poissons Ratio (z) = 0.19453 0.39647
#
# Static dielectric constant tensor:
#      x y z
#    x 3.983240 -0.239510 0.047900 
#    y -0.239510 4.233630 0.119590 
#    z 0.047900 0.119590 4.161350 
# 
# 
# High freq. dielectric constant tensor:
#      x y z
#    x 1.842910 -0.008560 -0.002510 
#    y -0.008560 1.878050 0.026430 
#    z -0.002510 0.026430 1.877490 
# 
# From -- ./inp_files/205578.got.cif
#   From: 2010.06.25/outbox.cif.g09.slc.cpg/sg2_103_cif.got.tgz:205578.got - 2010.06.27 13:26:56.
