data_PCOD8000664
_publ_section_title
;
Structure prediction by ZEFSAII (Michael W. Deem and Ramdas Pophale) SiO2 
 PCOD8000664
Probable space group: P -1
;
_chemical_formula_sum "Si O2"
_cell_formula_units_Z 16
_cell_length_a 20.279627
_cell_length_b 11.818238
_cell_length_c 12.037399
_cell_angle_alpha 142.648453
_cell_angle_beta 29.984674
_cell_angle_gamma 147.337358
_cell_volume 754.675826
_symmetry_space_group_name_H-M "P -1"
_symmetry_group_IT_number 2
_symmetry_cell_setting 'triclinic'
loop_
_space_group_symop_operation_xyz
x,y,z
-x,-y,-z
loop_
_atom_site_type_symbol
_atom_site_label
_atom_site_fract_x
_atom_site_fract_y
_atom_site_fract_z
Si Si1 0.903607 0.402382 0.828379
Si Si2 0.652290 0.159320 0.627852
Si Si3 0.052805 0.893561 0.608656
Si Si4 0.136828 0.091483 0.284843
Si Si5 0.825240 0.545204 0.834075
Si Si6 0.689951 0.172728 0.149889
Si Si7 0.178950 0.091082 0.787387
Si Si8 0.241983 0.571653 0.529077
O O1 0.868380 0.167933 0.652341
O O2 0.894477 0.538824 0.847057
O O3 0.071481 0.530698 0.736363
O O4 0.781544 0.356957 0.067603
O O5 0.710174 0.310413 0.770380
O O6 0.656517 0.293263 0.618464
O O7 0.480758 0.975647 0.761124
O O8 0.756249 0.052765 0.369174
O O9 0.933707 0.951829 0.771397
O O10 0.962212 0.677531 0.649567
O O11 0.184699 0.089270 0.641850
O O12 0.244095 0.347735 0.351741
O O13 0.000000 0.000000 0.500000
O O14 0.233235 0.972664 0.056352
O O15 0.734359 0.673873 0.096436
O O16 0.682869 0.292119 0.363852
O O17 0.000000 0.000000 0.000000
#
# Coordination Sequence:
#
# PCOD8000664 Si02
#       8
#     2   2   2   2   2   2   2   2
#     4  11  21  42  69  96 131 172 223 277 325 382
#     4  12  25  45  64 100 143 169 220 273 337 396
#     4  10  19  39  66  99 125 160 230 278 309 383
#     4  11  23  41  66  98 129 170 223 271 323 386
#     4  11  22  40  69  98 128 172 220 279 331 377
#     4  12  28  42  65 100 140 183 208 271 340 394
#     4  10  23  37  68 100 123 168 225 278 319 384
#     4  11  24  43  69  94 133 179 227 269 316 404
#
# _framework density 21.201156000000001
#
# number of rings (size 3 to 8) (size 9 to 14) (size 15 to 20)
#    0.000    1.000    6.250    2.625    5.250    2.000 
#    0.000    0.625    0.000    0.000    0.000    0.000 
#    0.000    0.000    0.000    0.000    0.000    0.000 
#
# Total GULP energy -198343.107820 kJ/mol
# GULP energy per Si atom -12396.444239 kJ/mol
# Density = 2.115290 g / cm^3
# Si number density = 21.201156 Si / 1000 Ang^3
#
#
#
# Elastic Constant Matrix: (Units=GPa)
#
#
# Indices 1 2 3 4 5 6 
#
# 1 72.0057 17.2732 12.0154 1.1344 4.5473 -12.3414
# 2 17.2732 65.4173 18.2812 9.7597 1.3111 0.8840
# 3 12.0154 18.2812 48.5113 14.4991 -2.9810 -0.1996
# 4 1.1344 9.7597 14.4991 48.7043 -0.8185 3.2599
# 5 4.5473 1.3111 -2.9810 -0.8185 22.5094 8.0410
# 6 -12.3414 0.8840 -0.1996 3.2599 8.0410 35.8451
#
#
#
# Elastic Compliance Matrix: (Units=1/GPa)
#
#
# Indices 1 2 3 4 5 6 
#
# 1 0.016943 -0.003605 -0.003417 0.000756 -0.006220 0.007230
# 2 -0.003605 0.018054 -0.005403 -0.001841 -0.000601 -0.001414
# 3 -0.003417 -0.005403 0.025662 -0.006307 0.004665 -0.001373
# 4 0.000756 -0.001841 -0.006307 0.022903 0.000652 -0.001958
# 5 -0.006220 -0.000601 0.004665 0.000652 0.051236 -0.013654
# 6 0.007230 -0.001414 -0.001373 -0.001958 -0.013654 0.033655
#
#
# Mechanical properties :
#
#
# Convention : Reuss Voigt Hill
#
# Bulk Modulus (GPa) = 27.92536 31.23043 29.57789
# Shear Modulus (GPa) = 24.36181 30.63607 27.49894
#
# Velocity S-wave (km/s) = 3.39348 3.80546 3.60536
# Velocity P-wave (km/s) = 5.34364 5.83706 5.59579
#
# Compressibility (1/GPa) = 0.03580974
#
# Stress axis : x y z
#
# Youngs Moduli (GPa) = 59.02246 55.38928 38.96785
#
# Poissons Ratio (x) = 0.19966 0.13314
# Poissons Ratio (y) = 0.21276 0.21055
# Poissons Ratio (z) = 0.20165 0.29928
#
# Static dielectric constant tensor:
#      x y z
#    x 4.150510 0.061220 0.303030 
#    y 0.061220 3.995220 0.536300 
#    z 0.303030 0.536300 4.034210 
# 
# 
# High freq. dielectric constant tensor:
#      x y z
#    x 1.839500 -0.006210 0.017480 
#    y -0.006210 1.818040 0.029040 
#    z 0.017480 0.029040 1.817960 
# 
# From -- ./inp_files/401831.got.cif
#   From: 2010.06.25/outbox.cif.g09.slc.cpg/sg2_201_cif.got.tgz:401831.got - 2010.06.27 13:26:56.
