data_PCOD8000758
_publ_section_title
;
Structure prediction by ZEFSAII (Michael W. Deem and Ramdas Pophale) SiO2 
 PCOD8000758
Probable space group: P -1
;
_chemical_formula_sum "Si O2"
_cell_formula_units_Z 12
_cell_length_a 9.847284
_cell_length_b 17.236523
_cell_length_c 7.130359
_cell_angle_alpha 29.687385
_cell_angle_beta 60.332765
_cell_angle_gamma 60.280213
_cell_volume 514.710518
_symmetry_space_group_name_H-M "P -1"
_symmetry_group_IT_number 2
_symmetry_cell_setting 'triclinic'
loop_
_space_group_symop_operation_xyz
x,y,z
-x,-y,-z
loop_
_atom_site_type_symbol
_atom_site_label
_atom_site_fract_x
_atom_site_fract_y
_atom_site_fract_z
Si Si1 0.338623 0.263105 0.847168
Si Si2 0.638625 0.582056 0.133451
Si Si3 0.321989 0.857005 0.224097
Si Si4 0.632396 0.378810 0.998956
Si Si5 0.169981 0.725114 0.269645
Si Si6 0.111719 0.103413 0.097844
O O1 0.323126 0.274362 0.062301
O O2 0.494280 0.137362 0.957547
O O3 0.344123 0.438835 0.395382
O O4 0.184926 0.202747 0.997909
O O5 0.500000 0.500000 0.500000
O O6 0.555554 0.638667 0.873223
O O7 0.795409 0.449380 0.290527
O O8 0.224122 0.853283 0.106283
O O9 0.250917 0.004662 0.089392
O O10 0.315428 0.693383 0.684244
O O11 0.735610 0.274458 0.990734
O O12 0.986216 0.776296 0.236915
O O13 0.000000 0.000000 0.500000
#
# Coordination Sequence:
#
# PCOD8000758 Si02
#       6
#     2   2   2   2   2   2
#     4  10  21  40  68  94 121 166 213 257 305 370
#     4   8  16  36  66  92 120 150 206 266 303 350
#     4  12  21  41  71  89 125 168 208 254 311 379
#     4  10  19  39  73  95 120 155 212 269 309 360
#     4  10  20  41  63  91 128 161 205 259 313 361
#     4  12  26  42  58  93 136 172 201 251 321 370
#
# _framework density 23.314074000000002
#
# number of rings (size 3 to 8) (size 9 to 14) (size 15 to 20)
#    0.000    2.000    6.667    1.500    0.000    2.667 
#    0.000    7.500    0.000    0.000    0.000    0.000 
#    0.000    0.000    0.000    0.000    0.000    0.000 
#
# Total GULP energy -148707.238996 kJ/mol
# GULP energy per Si atom -12392.269916 kJ/mol
# Density = 2.326101 g / cm^3
# Si number density = 23.314074 Si / 1000 Ang^3
#
#
#
# Elastic Constant Matrix: (Units=GPa)
#
#
# Indices 1 2 3 4 5 6 
#
# 1 182.1800 36.1561 53.3840 -20.8753 -17.1334 8.5836
# 2 36.1561 79.4877 27.7184 -24.3037 -2.5149 6.9465
# 3 53.3840 27.7184 37.7122 -18.5614 -5.3645 -0.7688
# 4 -20.8753 -24.3037 -18.5614 26.7357 4.9752 5.7538
# 5 -17.1334 -2.5149 -5.3645 4.9752 31.1860 -17.4290
# 6 8.5836 6.9465 -0.7688 5.7538 -17.4290 36.9485
#
#
#
# Elastic Compliance Matrix: (Units=1/GPa)
#
#
# Indices 1 2 3 4 5 6 
#
# 1 0.009869 -0.000049 -0.015121 -0.003229 0.002935 -0.000711
# 2 -0.000049 0.021763 -0.008657 0.017800 -0.008869 -0.011216
# 3 -0.015121 -0.008657 0.067434 0.026766 -0.000473 0.002152
# 4 -0.003229 0.017800 0.026766 0.079135 -0.022253 -0.024860
# 5 0.002935 -0.008869 -0.000473 -0.022253 0.052845 0.029369
# 6 -0.000711 -0.011216 0.002152 -0.024860 0.029369 0.047108
#
#
# Mechanical properties :
#
#
# Convention : Reuss Voigt Hill
#
# Bulk Modulus (GPa) = 19.44986 59.32188 39.38587
# Shear Modulus (GPa) = 14.57956 31.11547 22.84751
#
# Velocity S-wave (km/s) = 2.50342 3.65721 3.13387
# Velocity P-wave (km/s) = 4.08862 6.58282 5.47952
#
# Compressibility (1/GPa) = 0.05141425
#
# Stress axis : x y z
#
# Youngs Moduli (GPa) = 101.32608 45.94903 14.82922
#
# Poissons Ratio (x) = 0.00223 0.22423
# Poissons Ratio (y) = 0.00493 0.12837
# Poissons Ratio (z) = 1.53217 0.39776
#
# Static dielectric constant tensor:
#      x y z
#    x 4.890500 0.204090 0.568680 
#    y 0.204090 4.386930 -0.178410 
#    z 0.568680 -0.178410 3.710270 
# 
# 
# High freq. dielectric constant tensor:
#      x y z
#    x 1.937360 0.016250 0.025400 
#    y 0.016250 1.931790 -0.023790 
#    z 0.025400 -0.023790 1.869160 
# 
# From -- ./inp_files/216287.got.cif
#   From: 2010.06.25/outbox.cif.g09.slc.cpg/sg2_109_cif.got.tgz:216287.got - 2010.06.27 13:26:56.
