data_PCOD8000586
_publ_section_title
;
Structure prediction by ZEFSAII (Michael W. Deem and Ramdas Pophale) SiO2 
 PCOD8000586
Probable space group: P -1
;
_chemical_formula_sum "Si O2"
_cell_formula_units_Z 14
_cell_length_a 16.971948
_cell_length_b 6.680780
_cell_length_c 12.228774
_cell_angle_alpha 55.234161
_cell_angle_beta 47.279255
_cell_angle_gamma 83.403723
_cell_volume 747.032542
_symmetry_space_group_name_H-M "P -1"
_symmetry_group_IT_number 2
_symmetry_cell_setting 'triclinic'
loop_
_space_group_symop_operation_xyz
x,y,z
-x,-y,-z
loop_
_atom_site_type_symbol
_atom_site_label
_atom_site_fract_x
_atom_site_fract_y
_atom_site_fract_z
Si Si1 0.494320 0.203238 0.763985
Si Si2 0.858575 0.533406 0.042551
Si Si3 0.390027 0.858230 0.538325
Si Si4 0.603551 0.414195 0.940548
Si Si5 0.315948 0.321410 0.431646
Si Si6 0.937678 0.093772 0.118317
Si Si7 0.657240 0.503013 0.113617
O O1 0.524144 0.199820 0.608017
O O2 0.614774 0.399238 0.653502
O O3 0.390062 0.293261 0.854956
O O4 0.444526 0.898702 0.952094
O O5 0.799380 0.624736 0.970188
O O6 0.749784 0.364331 0.284411
O O7 0.968749 0.798363 0.903716
O O8 0.910987 0.328576 0.017023
O O9 0.398207 0.158892 0.416447
O O10 0.415145 0.794858 0.662184
O O11 0.700795 0.605479 0.700418
O O12 0.653567 0.470170 0.998180
O O13 0.500000 0.500000 0.000000
O O14 0.183980 0.159138 0.652336
O O15 0.000000 0.000000 0.000000
#
# Coordination Sequence:
#
# PCOD8000586 Si02
#       7
#     2   2   2   2   2   2   2
#     4  12  21  35  62  87 123 159 202 236 296 362
#     4   8  20  38  58  90 116 149 191 255 297 338
#     4   9  20  38  58  90 120 149 197 246 301 340
#     4  12  24  41  55  84 131 166 193 238 294 364
#     4  11  23  38  61  90 120 157 201 242 296 357
#     4  10  19  39  65  86 117 150 202 248 299 344
#     4  10  23  38  60  89 125 157 194 246 299 352
#
# _framework density 18.740817
#
# number of rings (size 3 to 8) (size 9 to 14) (size 15 to 20)
#    0.857    0.857    2.857    1.714    0.000    4.571 
#    0.000    0.714    0.000    1.714    0.000    0.000 
#    0.000    0.000    0.000    0.000    0.000    0.000 
#
# Total GULP energy -173496.724016 kJ/mol
# GULP energy per Si atom -12392.623144 kJ/mol
# Density = 1.869816 g / cm^3
# Si number density = 18.740817 Si / 1000 Ang^3
#
#
#
# Elastic Constant Matrix: (Units=GPa)
#
#
# Indices 1 2 3 4 5 6 
#
# 1 131.7404 67.6016 61.2297 1.1993 15.8068 1.7197
# 2 67.6016 135.1345 65.4608 1.9420 6.5387 -0.1074
# 3 61.2297 65.4608 93.9828 3.3740 16.6537 1.8653
# 4 1.1993 1.9420 3.3740 30.6100 1.6081 6.7715
# 5 15.8068 6.5387 16.6537 1.6081 22.5515 5.7242
# 6 1.7197 -0.1074 1.8653 6.7715 5.7242 19.6680
#
#
#
# Elastic Compliance Matrix: (Units=1/GPa)
#
#
# Indices 1 2 3 4 5 6 
#
# 1 0.012088 -0.003593 -0.004664 0.000390 -0.004124 0.000432
# 2 -0.003593 0.012402 -0.007028 -0.000059 0.004152 -0.000140
# 3 -0.004664 -0.007028 0.020384 -0.001507 -0.010121 0.001901
# 4 0.000390 -0.000059 -0.001507 0.035523 0.001512 -0.012562
# 5 -0.004124 0.004152 -0.010121 0.001512 0.057429 -0.015892
# 6 0.000432 -0.000140 0.001901 -0.012562 -0.015892 0.059575
#
#
# Mechanical properties :
#
#
# Convention : Reuss Voigt Hill
#
# Bulk Modulus (GPa) = 69.91773 83.27131 76.59452
# Shear Modulus (GPa) = 21.48315 25.67031 23.57673
#
# Velocity S-wave (km/s) = 3.38942 3.70503 3.55074
# Velocity P-wave (km/s) = 7.25991 7.92670 7.60062
#
# Compressibility (1/GPa) = 0.01430252
#
# Stress axis : x y z
#
# Youngs Moduli (GPa) = 82.72631 80.63299 49.05810
#
# Poissons Ratio (x) = 0.28974 0.22882
# Poissons Ratio (y) = 0.29726 0.34478
# Poissons Ratio (z) = 0.38586 0.56669
#
# Static dielectric constant tensor:
#      x y z
#    x 2.427050 -0.239200 -3.639590 
#    y -0.239200 3.405550 -0.426060 
#    z -3.639590 -0.426060 -10.690650 
# 
# 
# High freq. dielectric constant tensor:
#      x y z
#    x 1.725100 -0.002600 -0.001840 
#    y -0.002600 1.733170 -0.006490 
#    z -0.001840 -0.006490 1.715800 
# 
# From -- ./inp_files/458976.got.cif
#   From: 2010.06.25/outbox.cif.g09.slc.cpg/sg2_230_cif.got.tgz:458976.got - 2010.06.27 13:26:56.
