data_PCOD8000662
_publ_section_title
;
Structure prediction by ZEFSAII (Michael W. Deem and Ramdas Pophale) SiO2 
 PCOD8000662
Probable space group: P -1
;
_chemical_formula_sum "Si O2"
_cell_formula_units_Z 16
_cell_length_a 11.843074
_cell_length_b 14.875593
_cell_length_c 7.683654
_cell_angle_alpha 121.980905
_cell_angle_beta 79.784465
_cell_angle_gamma 54.310775
_cell_volume 660.509007
_symmetry_space_group_name_H-M "P -1"
_symmetry_group_IT_number 2
_symmetry_cell_setting 'triclinic'
loop_
_space_group_symop_operation_xyz
x,y,z
-x,-y,-z
loop_
_atom_site_type_symbol
_atom_site_label
_atom_site_fract_x
_atom_site_fract_y
_atom_site_fract_z
Si Si1 0.453627 0.911175 0.606394
Si Si2 0.808661 0.018979 0.766553
Si Si3 0.471704 0.136240 0.870018
Si Si4 0.098849 0.543949 0.364689
Si Si5 0.311980 0.660797 0.835691
Si Si6 0.120741 0.665790 0.136802
Si Si7 0.951523 0.849601 0.908980
Si Si8 0.122013 0.457946 0.767982
O O1 0.481002 0.889032 0.371323
O O2 0.644463 0.718338 0.448650
O O3 0.425771 0.049209 0.835138
O O4 0.262042 0.985705 0.775283
O O5 0.654325 0.037128 0.836346
O O6 0.934010 0.928755 0.816126
O O7 0.693056 0.214753 0.967079
O O8 0.955459 0.880111 0.425587
O O9 0.294186 0.345830 0.184037
O O10 0.154001 0.572243 0.206449
O O11 0.016069 0.680642 0.677830
O O12 0.942666 0.564451 0.401571
O O13 0.500000 0.500000 0.500000
O O14 0.111325 0.788561 0.918953
O O15 0.314489 0.582494 0.926106
O O16 0.056875 0.631389 0.962828
O O17 0.000000 0.500000 0.000000
#
# Coordination Sequence:
#
# PCOD8000662 Si02
#       8
#     2   2   2   2   2   2   2   2
#     4  11  23  38  69 100 137 173 215 269 333 394
#     4  11  25  45  68  93 136 174 224 273 324 393
#     4  11  22  39  67 101 132 176 218 263 325 404
#     4  10  22  41  67 100 140 169 215 267 333 402
#     4  12  27  47  69  95 130 174 228 281 327 381
#     4  10  22  43  69  92 128 178 219 267 325 393
#     4  11  26  45  66  98 133 172 219 278 338 384
#     4  10  19  39  66  98 136 172 210 264 325 395
#
# _framework density 24.223742000000001
#
# number of rings (size 3 to 8) (size 9 to 14) (size 15 to 20)
#    0.000    1.250    2.500    4.500    5.250    2.500 
#    0.000    5.625    0.000    0.000    0.000    0.000 
#    0.000    0.000    0.000    0.000    0.000    0.000 
#
# Total GULP energy -198357.003025 kJ/mol
# GULP energy per Si atom -12397.312689 kJ/mol
# Density = 2.416861 g / cm^3
# Si number density = 24.223742 Si / 1000 Ang^3
#
#
#
# Elastic Constant Matrix: (Units=GPa)
#
#
# Indices 1 2 3 4 5 6 
#
# 1 95.9300 15.3678 35.5113 4.4930 -6.6245 5.6654
# 2 15.3678 32.8646 23.4222 2.4091 -0.9953 -4.7548
# 3 35.5113 23.4222 141.5580 19.5619 -12.0125 16.4122
# 4 4.4930 2.4091 19.5619 26.5122 4.7408 1.3983
# 5 -6.6245 -0.9953 -12.0125 4.7408 52.9563 11.3931
# 6 5.6654 -4.7548 16.4122 1.3983 11.3931 44.3086
#
#
#
# Elastic Compliance Matrix: (Units=1/GPa)
#
#
# Indices 1 2 3 4 5 6 
#
# 1 0.012059 -0.004429 -0.001934 -0.000373 0.001373 -0.001642
# 2 -0.004429 0.038170 -0.006737 0.002423 -0.003287 0.007927
# 3 -0.001934 -0.006737 0.010588 -0.007279 0.003791 -0.005143
# 4 -0.000373 0.002423 -0.007279 0.043884 -0.006277 0.003233
# 5 0.001373 -0.003287 0.003791 -0.006277 0.022006 -0.007393
# 6 -0.001642 0.007927 -0.005143 0.003233 -0.007393 0.027333
#
#
# Mechanical properties :
#
#
# Convention : Reuss Voigt Hill
#
# Bulk Modulus (GPa) = 28.88801 46.55057 37.71929
# Shear Modulus (GPa) = 26.07145 37.82551 31.94848
#
# Velocity S-wave (km/s) = 3.28422 3.95588 3.63559
# Velocity P-wave (km/s) = 5.13156 6.33434 5.76441
#
# Compressibility (1/GPa) = 0.03461643
#
# Stress axis : x y z
#
# Youngs Moduli (GPa) = 82.92572 26.19832 94.44693
#
# Poissons Ratio (x) = 0.11604 0.18263
# Poissons Ratio (y) = 0.36731 0.63632
# Poissons Ratio (z) = 0.16035 0.17651
#
# Static dielectric constant tensor:
#      x y z
#    x 4.715870 -0.007410 0.219270 
#    y -0.007410 4.266580 0.038420 
#    z 0.219270 0.038420 4.529590 
# 
# 
# High freq. dielectric constant tensor:
#      x y z
#    x 1.958350 0.006640 0.011190 
#    y 0.006640 1.950220 -0.004970 
#    z 0.011190 -0.004970 1.977490 
# 
# From -- ./inp_files/274069.got.cif
#   From: 2010.06.25/outbox.cif.g09.slc.cpg/sg2_138_cif.got.tgz:274069.got - 2010.06.27 13:26:56.
