data_PCOD8000461
_publ_section_title
;
Structure prediction by ZEFSAII (Michael W. Deem and Ramdas Pophale) SiO2 
 PCOD8000461
Probable space group: P -1
;
_chemical_formula_sum "Si O2"
_cell_formula_units_Z 16
_cell_length_a 11.146956
_cell_length_b 9.592750
_cell_length_c 9.580661
_cell_angle_alpha 113.841983
_cell_angle_beta 69.937374
_cell_angle_gamma 122.290526
_cell_volume 781.346855
_symmetry_space_group_name_H-M "P -1"
_symmetry_group_IT_number 2
_symmetry_cell_setting 'triclinic'
loop_
_space_group_symop_operation_xyz
x,y,z
-x,-y,-z
loop_
_atom_site_type_symbol
_atom_site_label
_atom_site_fract_x
_atom_site_fract_y
_atom_site_fract_z
Si Si1 0.629625 0.803004 0.557253
Si Si2 0.058580 0.805975 0.801361
Si Si3 0.266561 0.382497 0.775685
Si Si4 0.917762 0.525166 0.298274
Si Si5 0.427699 0.365030 0.197524
Si Si6 0.184727 0.815015 0.455145
Si Si7 0.338813 0.633140 0.453382
Si Si8 0.789827 0.827028 0.012954
O O1 0.683167 0.682340 0.406954
O O2 0.631543 0.768163 0.705828
O O3 0.467771 0.754405 0.553912
O O4 0.737975 0.000556 0.571981
O O5 0.057818 0.640229 0.806472
O O6 0.106314 0.824541 0.630401
O O7 0.899816 0.790610 0.860042
O O8 0.165710 0.971759 0.914511
O O9 0.139508 0.427926 0.801444
O O10 0.400073 0.554652 0.849657
O O11 0.210548 0.237074 0.856233
O O12 0.803634 0.486449 0.452090
O O13 0.067668 0.685052 0.343030
O O14 0.385758 0.518531 0.292994
O O15 0.364620 0.266782 0.037795
O O16 0.305478 0.754755 0.413197
#
# Coordination Sequence:
#
# PCOD8000461 Si02
#       8
#     2   2   2   2   2   2   2   2
#     4  11  21  38  63  94 121 154 202 253 295 349
#     4  10  23  40  59  86 124 162 193 248 305 352
#     4  11  22  40  61  91 121 159 201 250 294 356
#     4  11  21  39  63  89 123 156 199 253 300 350
#     4  11  21  40  64  89 120 161 200 242 306 356
#     4  11  22  36  64  96 119 154 203 250 301 353
#     4  10  19  39  62  90 123 155 195 255 302 345
#     4  11  23  41  61  85 123 163 201 242 296 366
#
# _framework density 20.477461000000002
#
# number of rings (size 3 to 8) (size 9 to 14) (size 15 to 20)
#    0.000    1.250    3.750    4.500    0.000    3.000 
#    0.000    1.875    0.000    0.000    0.000    0.000 
#    0.000    0.000    0.000    0.000    0.000    0.000 
#
# Total GULP energy -198482.690427 kJ/mol
# GULP energy per Si atom -12405.168152 kJ/mol
# Density = 2.043085 g / cm^3
# Si number density = 20.477461 Si / 1000 Ang^3
#
#
#
# Elastic Constant Matrix: (Units=GPa)
#
#
# Indices 1 2 3 4 5 6 
#
# 1 106.5017 47.2841 40.5041 22.5443 17.7804 -12.3833
# 2 47.2841 108.0137 18.4823 18.4677 16.2124 -0.1191
# 3 40.5041 18.4823 54.1232 14.2329 16.9764 -3.3694
# 4 22.5443 18.4677 14.2329 31.7180 5.8387 3.4327
# 5 17.7804 16.2124 16.9764 5.8387 25.2259 -4.0383
# 6 -12.3833 -0.1191 -3.3694 3.4327 -4.0383 25.2402
#
#
#
# Elastic Compliance Matrix: (Units=1/GPa)
#
#
# Indices 1 2 3 4 5 6 
#
# 1 0.017314 -0.004927 -0.009079 -0.006200 -0.000200 0.008071
# 2 -0.004927 0.012478 0.001842 -0.003318 -0.005424 -0.002529
# 3 -0.009079 0.001842 0.030443 -0.005434 -0.014324 -0.001934
# 4 -0.006200 -0.003318 -0.005434 0.041525 -0.000986 -0.009588
# 5 -0.000200 -0.005424 -0.014324 -0.000986 0.054221 0.006773
# 6 0.008071 -0.002529 -0.001934 -0.009588 0.006773 0.045697
#
#
# Mechanical properties :
#
#
# Convention : Reuss Voigt Hill
#
# Bulk Modulus (GPa) = 27.84867 53.46441 40.65654
# Shear Modulus (GPa) = 21.01061 27.26135 24.13598
#
# Velocity S-wave (km/s) = 3.20665 3.65264 3.43689
# Velocity P-wave (km/s) = 5.22871 6.62983 5.97051
#
# Compressibility (1/GPa) = 0.03590836
#
# Stress axis : x y z
#
# Youngs Moduli (GPa) = 57.75616 80.13949 32.84780
#
# Poissons Ratio (x) = 0.39484 0.29823
# Poissons Ratio (y) = 0.28456 -0.06052
# Poissons Ratio (z) = 0.52438 -0.14764
#
# Static dielectric constant tensor:
#      x y z
#    x 3.918270 -0.000130 0.027930 
#    y -0.000130 3.761800 0.091660 
#    z 0.027930 0.091660 3.439740 
# 
# 
# High freq. dielectric constant tensor:
#      x y z
#    x 1.807300 0.003060 0.007640 
#    y 0.003060 1.809620 0.004570 
#    z 0.007640 0.004570 1.779590 
# 
# From -- ./inp_files/245472.got.cif
#   From: 2010.06.25/outbox.cif.g09.slc.cpg/sg2_123_cif.got.tgz:245472.got - 2010.06.27 13:26:56.
