data_PCOD8000792
_publ_section_title
;
Structure prediction by ZEFSAII (Michael W. Deem and Ramdas Pophale) SiO2 
 PCOD8000792
Probable space group: P -1
;
_chemical_formula_sum "Si O2"
_cell_formula_units_Z 16
_cell_length_a 23.699937
_cell_length_b 9.747113
_cell_length_c 8.987397
_cell_angle_alpha 133.181654
_cell_angle_beta 150.885272
_cell_angle_gamma 57.501626
_cell_volume 725.787389
_symmetry_space_group_name_H-M "P -1"
_symmetry_group_IT_number 2
_symmetry_cell_setting 'triclinic'
loop_
_space_group_symop_operation_xyz
x,y,z
-x,-y,-z
loop_
_atom_site_type_symbol
_atom_site_label
_atom_site_fract_x
_atom_site_fract_y
_atom_site_fract_z
Si Si1 0.105634 0.256128 0.812487
Si Si2 0.563448 0.042068 0.833582
Si Si3 0.712170 0.740577 0.996296
Si Si4 0.628945 0.186011 0.585806
Si Si5 0.437222 0.645197 0.732591
Si Si6 0.153507 0.886895 0.808865
Si Si7 0.139186 0.534439 0.334688
Si Si8 0.680164 0.593683 0.137990
O O1 0.964416 0.216664 0.456221
O O2 0.147760 0.095838 0.893806
O O3 0.156422 0.256666 0.763393
O O4 0.161116 0.463038 0.165263
O O5 0.500000 0.000000 0.500000
O O6 0.678928 0.944630 0.028004
O O7 0.482839 0.959882 0.725565
O O8 0.589714 0.270131 0.102614
O O9 0.620798 0.576001 0.580374
O O10 0.715151 0.717603 0.162693
O O11 0.622046 0.227512 0.426612
O O12 0.746568 0.099758 0.825756
O O13 0.624478 0.379576 0.807949
O O14 0.578426 0.673844 0.053661
O O15 0.185314 0.757355 0.645304
O O16 0.200531 0.402037 0.489892
O O17 0.000000 0.500000 0.000000
#
# Coordination Sequence:
#
# PCOD8000792 Si02
#       8
#     2   2   2   2   2   2   2   2
#     4  10  21  38  62  86 118 158 194 245 298 341
#     4  12  25  36  58  92 122 153 198 247 291 347
#     4  11  23  40  57  93 124 148 201 247 290 348
#     4  10  19  40  61  84 119 157 200 240 289 357
#     4  11  23  40  60  85 119 166 193 233 303 357
#     4   9  20  38  62  87 115 155 203 239 291 354
#     4   9  20  38  62  87 111 157 204 235 286 354
#     4  10  20  39  63  83 121 162 195 240 291 359
#
# _framework density 22.045024999999999
#
# number of rings (size 3 to 8) (size 9 to 14) (size 15 to 20)
#    0.000    1.750    2.500    1.875    3.500    3.500 
#    0.000   10.000    0.000    7.500    0.000    0.000 
#    0.000    0.000    0.000    0.000    0.000    0.000 
#
# Total GULP energy -198322.740778 kJ/mol
# GULP energy per Si atom -12395.171299 kJ/mol
# Density = 2.199485 g / cm^3
# Si number density = 22.045025 Si / 1000 Ang^3
#
#
#
# Elastic Constant Matrix: (Units=GPa)
#
#
# Indices 1 2 3 4 5 6 
#
# 1 75.9681 1.8940 10.7810 7.4463 -0.2759 -21.7608
# 2 1.8940 54.4285 12.6955 -12.2354 1.3846 -14.7907
# 3 10.7810 12.6955 62.7564 -12.9393 -4.0096 -9.4780
# 4 7.4463 -12.2354 -12.9393 34.2964 -2.7877 1.2529
# 5 -0.2759 1.3846 -4.0096 -2.7877 30.0622 4.0574
# 6 -21.7608 -14.7907 -9.4780 1.2529 4.0574 25.2561
#
#
#
# Elastic Compliance Matrix: (Units=1/GPa)
#
#
# Indices 1 2 3 4 5 6 
#
# 1 0.019229 0.004054 -0.002447 -0.004606 -0.003299 0.018782
# 2 0.004054 0.024985 -0.001982 0.006387 -0.003157 0.017572
# 3 -0.002447 -0.001982 0.018844 0.007055 0.002832 0.002997
# 4 -0.004606 0.006387 0.007055 0.035412 0.003883 0.000038
# 5 -0.003299 -0.003157 0.002832 0.003883 0.035401 -0.009508
# 6 0.018782 0.017572 0.002997 0.000038 -0.009508 0.068718
#
#
# Mechanical properties :
#
#
# Convention : Reuss Voigt Hill
#
# Bulk Modulus (GPa) = 16.04927 27.09933 21.57430
# Shear Modulus (GPa) = 22.31055 29.10844 25.70950
#
# Velocity S-wave (km/s) = 3.18472 3.63768 3.41871
# Velocity P-wave (km/s) = 4.56281 5.47385 5.03896
#
# Compressibility (1/GPa) = 0.06230814
#
# Stress axis : x y z
#
# Youngs Moduli (GPa) = 52.00388 40.02397 53.06684
#
# Poissons Ratio (x) = -0.16226 0.12988
# Poissons Ratio (y) = -0.21083 0.10517
# Poissons Ratio (z) = 0.12728 0.07932
#
# Static dielectric constant tensor:
#      x y z
#    x 3.984560 -0.360510 -0.140740 
#    y -0.360510 4.141870 0.025520 
#    z -0.140740 0.025520 4.034930 
# 
# 
# High freq. dielectric constant tensor:
#      x y z
#    x 1.856670 -0.025950 -0.005620 
#    y -0.025950 1.872230 0.000680 
#    z -0.005620 0.000680 1.860590 
# 
# From -- ./inp_files/352470.got.cif
#   From: 2010.06.25/outbox.cif.g09.slc.cpg/sg2_177_cif.got.tgz:352470.got - 2010.06.27 13:26:56.
