data_PCOD8000095
_publ_section_title
;
Structure prediction by ZEFSAII (Michael W. Deem and Ramdas Pophale) SiO2 
 PCOD8000095
Probable space group: P 1
;
_chemical_formula_sum "Si O2"
_cell_formula_units_Z 6
_cell_length_a 11.978326
_cell_length_b 5.182362
_cell_length_c 6.379816
_cell_angle_alpha 77.687278
_cell_angle_beta 131.818890
_cell_angle_gamma 86.844949
_cell_volume 277.577337
_symmetry_space_group_name_H-M "P 1"
_symmetry_group_IT_number 1
_symmetry_cell_setting 'triclinic'
loop_
_space_group_symop_operation_xyz
x,y,z
loop_
_atom_site_type_symbol
_atom_site_label
_atom_site_fract_x
_atom_site_fract_y
_atom_site_fract_z
Si Si1 0.761000 0.674050 0.151310
Si Si2 0.359915 0.190284 0.235553
Si Si3 0.517479 0.910648 0.102737
Si Si4 0.111082 0.471683 0.543089
Si Si5 0.598681 0.269909 0.824445
Si Si6 0.223749 0.961277 0.486240
O O1 0.942588 0.535066 0.429692
O O2 0.680320 0.687712 0.281377
O O3 0.683939 0.505939 0.920787
O O4 0.724088 0.984422 0.960816
O O5 0.483346 0.954186 0.298091
O O6 0.461372 0.357135 0.462925
O O7 0.265100 0.036534 0.291839
O O8 0.238350 0.396661 0.899055
O O9 0.517488 0.207902 0.949404
O O10 0.380447 0.815531 0.832882
O O11 0.124489 0.228903 0.437410
O O12 0.124784 0.739816 0.387558
#
# Coordination Sequence:
#
# PCOD8000095 Si02
#       6
#     1   1   1   1   1   1
#     4  10  21  43  64  91 135 162 203 278 320 357
#     4  10  22  43  70  96 122 176 220 256 313 392
#     4   8  21  38  67  90 126 164 214 259 310 376
#     4  11  24  43  66  94 134 165 211 270 319 373
#     4   9  21  39  64  95 123 166 213 256 318 377
#     4  10  23  40  65  96 128 169 213 261 316 383
#
# _framework density 21.615597000000001
#
# number of rings (size 3 to 8) (size 9 to 14) (size 15 to 20)
#    1.000    1.333    0.000    1.000    7.000    5.333 
#    3.000    1.667    0.000    0.000    0.000    0.000 
#    0.000    0.000    0.000    0.000    0.000    0.000 
#
# Total GULP energy -74346.544405 kJ/mol
# GULP energy per Si atom -12391.090734 kJ/mol
# Density = 2.156640 g / cm^3
# Si number density = 21.615597 Si / 1000 Ang^3
#
#
#
# Elastic Constant Matrix: (Units=GPa)
#
#
# Indices 1 2 3 4 5 6 
#
# 1 142.8709 61.0648 50.2028 -0.3641 11.1549 -30.9951
# 2 61.0648 130.3577 37.9942 5.1749 7.7913 -8.0609
# 3 50.2028 37.9942 82.9075 1.4883 1.1186 -9.8284
# 4 -0.3641 5.1749 1.4883 12.9517 -2.3927 10.2075
# 5 11.1549 7.7913 1.1186 -2.3927 35.1174 -2.4411
# 6 -30.9951 -8.0609 -9.8284 10.2075 -2.4411 34.1488
#
#
#
# Elastic Compliance Matrix: (Units=1/GPa)
#
#
# Indices 1 2 3 4 5 6 
#
# 1 0.012796 -0.003480 -0.004631 -0.007245 -0.002844 0.011422
# 2 -0.003480 0.010253 -0.002556 -0.003815 -0.001378 -0.000432
# 3 -0.004631 -0.002556 0.016050 -0.000805 0.001483 0.000160
# 4 -0.007245 -0.003815 -0.000805 0.112141 0.007988 -0.040657
# 5 -0.002844 -0.001378 0.001483 0.007988 0.029993 -0.002724
# 6 0.011422 -0.000432 0.000160 -0.040657 -0.002724 0.051553
#
#
# Mechanical properties :
#
#
# Convention : Reuss Voigt Hill
#
# Bulk Modulus (GPa) = 56.28747 72.73996 64.51372
# Shear Modulus (GPa) = 19.22770 30.23520 24.73145
#
# Velocity S-wave (km/s) = 2.98573 3.74407 3.38620
# Velocity P-wave (km/s) = 6.16303 7.23985 6.72303
#
# Compressibility (1/GPa) = 0.01776594
#
# Stress axis : x y z
#
# Youngs Moduli (GPa) = 78.15199 97.52791 62.30460
#
# Poissons Ratio (x) = 0.33944 0.28851
# Poissons Ratio (y) = 0.27200 0.15922
# Poissons Ratio (z) = 0.36189 0.24924
#
# Static dielectric constant tensor:
#      x y z
#    x 3.968560 -0.133740 0.047490 
#    y -0.133740 3.726210 0.062020 
#    z 0.047490 0.062020 3.494140 
# 
# 
# High freq. dielectric constant tensor:
#      x y z
#    x 1.849290 -0.007010 0.005370 
#    y -0.007010 1.850490 0.008390 
#    z 0.005370 0.008390 1.815130 
# 
# From -- ./inp_files/61.got.cif
#   From: 2010.03.12/outbox.cif.g09.slc.cpg/sg1_1_cif.got.tgz:61.got - 2010.03.29 11:57:58.
