data_PCOD8000418
_publ_section_title
;
Structure prediction by ZEFSAII (Michael W. Deem and Ramdas Pophale) SiO2 
 PCOD8000418
Probable space group: P -1
;
_chemical_formula_sum "Si O2"
_cell_formula_units_Z 16
_cell_length_a 17.900269
_cell_length_b 5.612306
_cell_length_c 9.006706
_cell_angle_alpha 86.829239
_cell_angle_beta 126.097642
_cell_angle_gamma 83.131013
_cell_volume 716.890434
_symmetry_space_group_name_H-M "P -1"
_symmetry_group_IT_number 2
_symmetry_cell_setting 'triclinic'
loop_
_space_group_symop_operation_xyz
x,y,z
-x,-y,-z
loop_
_atom_site_type_symbol
_atom_site_label
_atom_site_fract_x
_atom_site_fract_y
_atom_site_fract_z
Si Si1 0.718935 0.004690 0.328915
Si Si2 0.607784 0.737050 0.436721
Si Si3 0.666409 0.762625 0.828779
Si Si4 0.120620 0.415961 0.488635
Si Si5 0.058792 0.771764 0.656225
Si Si6 0.438008 0.948019 0.065465
Si Si7 0.222171 0.792478 0.060654
Si Si8 0.776004 0.336796 0.610596
O O1 0.654613 0.914055 0.382074
O O2 0.797921 0.802124 0.352271
O O3 0.779401 0.174838 0.474311
O O4 0.653678 0.136463 0.112465
O O5 0.608124 0.816848 0.605741
O O6 0.500220 0.745409 0.252976
O O7 0.667525 0.467358 0.501279
O O8 0.723762 0.484393 0.906430
O O9 0.594624 0.805431 0.883049
O O10 0.723697 0.984835 0.907689
O O11 0.121133 0.610028 0.612247
O O12 0.152063 0.488241 0.357936
O O13 0.015969 0.364649 0.345792
O O14 0.127131 0.854338 0.853756
O O15 0.000000 0.000000 0.500000
O O16 0.500000 0.000000 0.000000
O O17 0.189370 0.803139 0.193828
#
# Coordination Sequence:
#
# PCOD8000418 Si02
#       8
#     2   2   2   2   2   2   2   2
#     4  10  19  39  61  92 129 168 220 267 337 385
#     4   9  20  40  61  91 131 170 221 274 323 387
#     4  11  23  46  67  99 133 179 222 271 334 394
#     4  10  23  40  66  92 132 173 213 283 331 391
#     4  11  25  43  65  98 132 168 225 274 331 403
#     4  10  22  39  64  95 134 175 223 275 326 394
#     4  11  26  44  73  97 133 179 222 272 337 399
#     4  10  21  41  65  93 130 176 222 272 330 397
#
# _framework density 22.31861
#
# number of rings (size 3 to 8) (size 9 to 14) (size 15 to 20)
#    0.000    1.750    1.250    1.875    7.000    1.000 
#    4.500    4.375    0.000    0.000    0.000    0.000 
#    0.000    0.000    0.000    0.000    0.000    0.000 
#
# Total GULP energy -198235.634647 kJ/mol
# GULP energy per Si atom -12389.727165 kJ/mol
# Density = 2.226781 g / cm^3
# Si number density = 22.318610 Si / 1000 Ang^3
#
#
#
# Elastic Constant Matrix: (Units=GPa)
#
#
# Indices 1 2 3 4 5 6 
#
# 1 96.5773 37.5897 49.1676 4.6605 -4.8407 -26.0372
# 2 37.5897 112.8630 55.2965 6.5912 1.5407 -12.9857
# 3 49.1676 55.2965 184.8563 2.6354 0.6424 -16.9756
# 4 4.6605 6.5912 2.6354 26.8570 -5.6556 -3.6939
# 5 -4.8407 1.5407 0.6424 -5.6556 23.6710 2.2510
# 6 -26.0372 -12.9857 -16.9756 -3.6939 2.2510 28.6384
#
#
#
# Elastic Compliance Matrix: (Units=1/GPa)
#
#
# Indices 1 2 3 4 5 6 
#
# 1 0.015892 -0.002874 -0.002313 0.000291 0.002465 0.011619
# 2 -0.002874 0.011302 -0.002496 -0.002307 -0.001891 0.000884
# 3 -0.002313 -0.002496 0.006852 0.000363 -0.000497 0.000912
# 4 0.000291 -0.002307 0.000363 0.040237 0.009444 0.003881
# 5 0.002465 -0.001891 -0.000497 0.009444 0.045262 -0.001251
# 6 0.011619 0.000884 0.000912 0.003881 -0.001251 0.047022
#
#
# Mechanical properties :
#
#
# Convention : Reuss Voigt Hill
#
# Bulk Modulus (GPa) = 53.52993 75.37823 64.45408
# Shear Modulus (GPa) = 26.57316 32.64948 29.61132
#
# Velocity S-wave (km/s) = 3.45429 3.82891 3.64642
# Velocity P-wave (km/s) = 6.32029 7.30715 6.83156
#
# Compressibility (1/GPa) = 0.01868114
#
# Stress axis : x y z
#
# Youngs Moduli (GPa) = 62.92350 88.47611 145.94603
#
# Poissons Ratio (x) = 0.25424 0.33760
# Poissons Ratio (y) = 0.18081 0.36428
# Poissons Ratio (z) = 0.14555 0.22084
#
# Static dielectric constant tensor:
#      x y z
#    x 4.230570 -0.104170 0.034470 
#    y -0.104170 3.970690 0.026540 
#    z 0.034470 0.026540 4.352670 
# 
# 
# High freq. dielectric constant tensor:
#      x y z
#    x 1.888240 -0.012630 -0.009060 
#    y -0.012630 1.863730 0.001910 
#    z -0.009060 0.001910 1.884090 
# 
# From -- ./inp_files/53078.got.cif
#   From: 2010.06.25/outbox.cif.g09.slc.cpg/sg2_27_cif.got.tgz:53078.got - 2010.06.27 13:26:56.
