data_PCOD8000941
_publ_section_title
;
Structure prediction by ZEFSAII (Michael W. Deem and Ramdas Pophale) SiO2 
 PCOD8000941
Probable space group: P -1
;
_chemical_formula_sum "Si O2"
_cell_formula_units_Z 12
_cell_length_a 23.053643
_cell_length_b 8.304197
_cell_length_c 14.398901
_cell_angle_alpha 148.212097
_cell_angle_beta 157.789994
_cell_angle_gamma 35.283787
_cell_volume 542.891852
_symmetry_space_group_name_H-M "P -1"
_symmetry_group_IT_number 2
_symmetry_cell_setting 'triclinic'
loop_
_space_group_symop_operation_xyz
x,y,z
-x,-y,-z
loop_
_atom_site_type_symbol
_atom_site_label
_atom_site_fract_x
_atom_site_fract_y
_atom_site_fract_z
Si Si1 0.053453 0.223449 0.368927
Si Si2 0.692487 0.319300 0.451136
Si Si3 0.430058 0.509531 0.297603
Si Si4 0.217612 0.019887 0.749742
Si Si5 0.862954 0.218643 0.299356
Si Si6 0.241381 0.004730 0.153092
O O1 0.121538 0.416914 0.481744
O O2 0.000000 0.500000 0.500000
O O3 0.183400 0.960808 0.468446
O O4 0.913044 0.043135 0.041692
O O5 0.548685 0.326642 0.310547
O O6 0.755497 0.643996 0.697949
O O7 0.664047 0.221051 0.254509
O O8 0.500000 0.500000 0.500000
O O9 0.386289 0.856153 0.359805
O O10 0.272838 0.355478 0.990832
O O11 0.037996 0.029447 0.456574
O O12 0.234089 0.901985 0.821308
O O13 0.762170 0.179267 0.039120
#
# Coordination Sequence:
#
# PCOD8000941 Si02
#       6
#     2   2   2   2   2   2
#     4  10  19  40  66  98 131 170 217 268 324 383
#     4  12  24  41  70 103 133 173 220 271 336 398
#     4  12  27  47  65  95 138 180 221 271 333 395
#     4  11  22  41  67 100 129 175 217 272 323 396
#     4  10  21  41  70  97 132 169 221 270 330 381
#     4  11  22  44  68  97 135 175 219 276 328 386
#
# _framework density 22.103849
#
# number of rings (size 3 to 8) (size 9 to 14) (size 15 to 20)
#    0.000    1.000    5.000    3.500    0.000    1.333 
#    0.000    4.167    0.000    0.000    0.000    0.000 
#    0.000    0.000    0.000    0.000    0.000    0.000 
#
# Total GULP energy -148662.348226 kJ/mol
# GULP energy per Si atom -12388.529019 kJ/mol
# Density = 2.205354 g / cm^3
# Si number density = 22.103849 Si / 1000 Ang^3
#
#
#
# Elastic Constant Matrix: (Units=GPa)
#
#
# Indices 1 2 3 4 5 6 
#
# 1 133.0794 53.2928 32.3855 4.5822 7.7382 12.5792
# 2 53.2928 131.3757 25.4698 0.4230 15.2042 20.4839
# 3 32.3855 25.4698 69.2596 4.2180 1.9692 7.1513
# 4 4.5822 0.4230 4.2180 30.9649 12.9850 5.0776
# 5 7.7382 15.2042 1.9692 12.9850 33.0467 1.9510
# 6 12.5792 20.4839 7.1513 5.0776 1.9510 36.9379
#
#
#
# Elastic Compliance Matrix: (Units=1/GPa)
#
#
# Indices 1 2 3 4 5 6 
#
# 1 0.009675 -0.003130 -0.003238 -0.000680 -0.000317 -0.000822
# 2 -0.003130 0.010572 -0.002015 0.003494 -0.005111 -0.004617
# 3 -0.003238 -0.002015 0.016873 -0.002351 0.001652 -0.000811
# 4 -0.000680 0.003494 -0.002351 0.040762 -0.016973 -0.005957
# 5 -0.000317 -0.005111 0.001652 -0.016973 0.039086 0.002891
# 6 -0.000822 -0.004617 -0.000811 -0.005957 0.002891 0.030736
#
#
# Mechanical properties :
#
#
# Convention : Reuss Voigt Hill
#
# Bulk Modulus (GPa) = 49.12726 61.77898 55.45312
# Shear Modulus (GPa) = 29.19604 35.02767 32.11186
#
# Velocity S-wave (km/s) = 3.63830 3.98513 3.81566
# Velocity P-wave (km/s) = 6.31851 7.01321 6.67490
#
# Compressibility (1/GPa) = 0.02035530
#
# Stress axis : x y z
#
# Youngs Moduli (GPa) = 103.35670 94.58660 59.26513
#
# Poissons Ratio (x) = 0.29606 0.19188
# Poissons Ratio (y) = 0.32351 0.11942
# Poissons Ratio (z) = 0.33464 0.19059
#
# Static dielectric constant tensor:
#      x y z
#    x 4.595740 0.360650 0.304850 
#    y 0.360650 4.118870 0.188810 
#    z 0.304850 0.188810 3.940580 
# 
# 
# High freq. dielectric constant tensor:
#      x y z
#    x 1.874290 0.028510 0.020200 
#    y 0.028510 1.867600 0.004220 
#    z 0.020200 0.004220 1.857980 
# 
# From -- ./inp_files/153369.got.cif
#   From: 2010.06.25/outbox.cif.g09.slc.cpg/sg2_77_cif.got.tgz:153369.got - 2010.06.27 13:26:56.
