data_PCOD8000468
_publ_section_title
;
Structure prediction by ZEFSAII (Michael W. Deem and Ramdas Pophale) SiO2 
 PCOD8000468
Probable space group: P -1
;
_chemical_formula_sum "Si O2"
_cell_formula_units_Z 14
_cell_length_a 12.650645
_cell_length_b 15.079912
_cell_length_c 12.307985
_cell_angle_alpha 28.775920
_cell_angle_beta 39.684639
_cell_angle_gamma 27.995968
_cell_volume 530.471290
_symmetry_space_group_name_H-M "P -1"
_symmetry_group_IT_number 2
_symmetry_cell_setting 'triclinic'
loop_
_space_group_symop_operation_xyz
x,y,z
-x,-y,-z
loop_
_atom_site_type_symbol
_atom_site_label
_atom_site_fract_x
_atom_site_fract_y
_atom_site_fract_z
Si Si1 0.771446 0.839428 0.778554
Si Si2 0.749660 0.401540 0.292078
Si Si3 0.487735 0.842927 0.834214
Si Si4 0.932871 0.850309 0.039347
Si Si5 0.315897 0.730696 0.738237
Si Si6 0.675083 0.641970 0.675265
Si Si7 0.643908 0.106630 0.796929
O O1 0.028466 0.636433 0.837247
O O2 0.674156 0.736956 0.897982
O O3 0.766265 0.014767 0.515649
O O4 0.601708 0.995157 0.849734
O O5 0.665060 0.439174 0.191322
O O6 0.786889 0.169270 0.561782
O O7 0.578964 0.642552 0.244444
O O8 0.262373 0.913693 0.983601
O O9 0.399160 0.103680 0.578151
O O10 0.595005 0.653436 0.851466
O O11 0.052701 0.586676 0.289240
O O12 0.134145 0.837048 0.864145
O O13 0.808179 0.881918 0.993540
O O14 0.565012 0.569722 0.763541
#
# Coordination Sequence:
#
# PCOD8000468 Si02
#       7
#     2   2   2   2   2   2   2
#     4  10  19  42  63  87 125 163 191 246 298 368
#     4  10  19  39  62  93 125 157 190 248 307 363
#     4  10  25  42  64  85 120 168 205 232 310 360
#     4  12  22  39  62  95 121 151 204 261 288 353
#     4  10  20  40  66  89 121 154 203 250 304 344
#     4  10  24  46  59  85 123 166 199 249 297 360
#     4  10  21  35  63  95 122 153 203 241 305 356
#
# _framework density 26.391625000000001
#
# number of rings (size 3 to 8) (size 9 to 14) (size 15 to 20)
#    0.000    1.714    2.857    1.714    2.000    2.286 
#    2.571    5.714    0.000    0.000    0.000    0.000 
#    0.000    0.000    0.000    0.000    0.000    0.000 
#
# Total GULP energy -173581.112836 kJ/mol
# GULP energy per Si atom -12398.650917 kJ/mol
# Density = 2.633156 g / cm^3
# Si number density = 26.391625 Si / 1000 Ang^3
#
#
#
# Elastic Constant Matrix: (Units=GPa)
#
#
# Indices 1 2 3 4 5 6 
#
# 1 164.0262 61.0824 44.7800 -19.3581 4.4151 -3.6743
# 2 61.0824 146.0776 16.6119 9.9255 9.0798 -17.2379
# 3 44.7800 16.6119 68.8257 5.0995 17.6426 -5.1931
# 4 -19.3581 9.9255 5.0995 34.1743 -2.0429 18.1985
# 5 4.4151 9.0798 17.6426 -2.0429 46.0649 -15.1405
# 6 -3.6743 -17.2379 -5.1931 18.1985 -15.1405 29.6054
#
#
#
# Elastic Compliance Matrix: (Units=1/GPa)
#
#
# Indices 1 2 3 4 5 6 
#
# 1 0.014182 -0.008479 -0.009957 0.022080 -0.001171 -0.019095
# 2 -0.008479 0.013726 0.004766 -0.021102 0.002603 0.022078
# 3 -0.009957 0.004766 0.023634 -0.018576 -0.005096 0.014497
# 4 0.022080 -0.021102 -0.018576 0.088910 -0.010904 -0.073034
# 5 -0.001171 0.002603 -0.005096 -0.010904 0.030214 0.022631
# 6 -0.019095 0.022078 0.014497 -0.073034 0.022631 0.103274
#
#
# Mechanical properties :
#
#
# Convention : Reuss Voigt Hill
#
# Bulk Modulus (GPa) = 41.31886 69.31978 55.31932
# Shear Modulus (GPa) = 16.16302 39.06594 27.61448
#
# Velocity S-wave (km/s) = 2.47742 3.85156 3.23822
# Velocity P-wave (km/s) = 4.88605 6.78986 5.91505
#
# Compressibility (1/GPa) = 0.02420202
#
# Stress axis : x y z
#
# Youngs Moduli (GPa) = 70.51184 72.85184 42.31171
#
# Poissons Ratio (x) = 0.61768 0.42131
# Poissons Ratio (y) = 0.59784 -0.20164
# Poissons Ratio (z) = 0.70211 -0.34718
#
# Static dielectric constant tensor:
#      x y z
#    x 5.005740 -0.034360 0.165230 
#    y -0.034360 4.785000 0.150280 
#    z 0.165230 0.150280 5.731160 
# 
# 
# High freq. dielectric constant tensor:
#      x y z
#    x 2.051280 -0.004680 0.014430 
#    y -0.004680 2.062140 -0.005600 
#    z 0.014430 -0.005600 2.119700 
# 
# From -- ./inp_files/184832.got.cif
#   From: 2010.06.25/outbox.cif.g09.slc.cpg/sg2_93_cif.got.tgz:184832.got - 2010.06.27 13:26:56.
