data_PCOD8000071
_publ_section_title
;
Structure prediction by ZEFSAII (Michael W. Deem and Ramdas Pophale) SiO2 
 PCOD8000071
Probable space group: P 1
;
_chemical_formula_sum "Si O2"
_cell_formula_units_Z 8
_cell_length_a 16.878297
_cell_length_b 11.857681
_cell_length_c 5.212632
_cell_angle_alpha 73.245259
_cell_angle_beta 111.256424
_cell_angle_gamma 159.484493
_cell_volume 336.517195
_symmetry_space_group_name_H-M "P 1"
_symmetry_group_IT_number 1
_symmetry_cell_setting 'triclinic'
loop_
_space_group_symop_operation_xyz
x,y,z
loop_
_atom_site_type_symbol
_atom_site_label
_atom_site_fract_x
_atom_site_fract_y
_atom_site_fract_z
Si Si1 0.818820 0.120010 0.579810
Si Si2 0.380783 0.464274 0.939882
Si Si3 0.047249 0.860603 0.165967
Si Si4 0.355724 0.620866 0.224424
Si Si5 0.843858 0.963366 0.295277
Si Si6 0.152376 0.723707 0.353774
Si Si7 0.260833 0.749219 0.957377
Si Si8 0.938760 0.835038 0.562359
O O1 0.839789 0.020910 0.529672
O O2 0.910389 0.336636 0.339153
O O3 0.544866 0.802005 0.523490
O O4 0.989030 0.347842 0.878146
O O5 0.359894 0.563488 0.990002
O O6 0.289198 0.247654 0.180569
O O7 0.210555 0.236413 0.641566
O O8 0.654714 0.782215 0.996213
O O9 0.099859 0.792219 0.259892
O O10 0.912640 0.716786 0.364979
O O11 0.878121 0.681092 0.847044
O O12 0.099770 0.292063 0.259808
O O13 0.429571 0.853292 0.114223
O O14 0.769998 0.730931 0.405555
O O15 0.286963 0.867486 0.154750
O O16 0.321499 0.903185 0.672698
#
# Coordination Sequence:
#
# PCOD8000071 Si02
#       8
#     1   1   1   1   1   1   1   1
#     4   9  23  36  63  92 123 157 198 250 304 357
#     4   9  23  36  63  92 123 157 198 250 304 357
#     4  10  21  42  62  85 123 161 202 252 297 351
#     4  11  19  41  61  94 124 156 201 248 307 363
#     4  11  19  41  61  94 124 156 201 248 307 363
#     4  10  21  42  62  85 123 161 202 252 297 351
#     4  10  21  40  62  89 121 161 199 249 302 359
#     4  10  21  40  62  89 121 161 199 249 302 359
#
# _framework density 23.772928
#
# number of rings (size 3 to 8) (size 9 to 14) (size 15 to 20)
#    1.500    0.500    2.500    1.500    0.000    1.000 
#    9.000    2.500    0.000    0.000    0.000    0.000 
#    0.000    0.000    0.000    0.000    0.000    0.000 
#
# Total GULP energy -99135.354758 kJ/mol
# GULP energy per Si atom -12391.919345 kJ/mol
# Density = 2.371882 g / cm^3
# Si number density = 23.772928 Si / 1000 Ang^3
#
#
#
# Elastic Constant Matrix: (Units=GPa)
#
#
# Indices 1 2 3 4 5 6 
#
# 1 230.0287 8.2282 72.8505 -7.9672 0.3107 -5.0835
# 2 8.2282 20.3898 -1.0284 6.3325 -1.0877 15.8441
# 3 72.8505 -1.0284 113.7145 -3.6363 -3.8765 18.5474
# 4 -7.9672 6.3325 -3.6363 16.8174 6.5055 6.8248
# 5 0.3107 -1.0877 -3.8765 6.5055 53.3173 -0.4447
# 6 -5.0835 15.8441 18.5474 6.8248 -0.4447 38.5399
#
#
#
# Elastic Compliance Matrix: (Units=1/GPa)
#
#
# Indices 1 2 3 4 5 6 
#
# 1 0.006616 -0.009088 -0.005334 0.003077 -0.000932 0.006620
# 2 -0.009088 0.092697 0.012946 -0.021496 0.005161 -0.041672
# 3 -0.005334 0.012946 0.014526 0.000608 0.001168 -0.013110
# 4 0.003077 -0.021496 0.000608 0.074616 -0.009553 -0.004373
# 5 -0.000932 0.005161 0.001168 -0.009553 0.020110 -0.000883
# 6 0.006620 -0.041672 -0.013110 -0.004373 -0.000883 0.051025
#
#
# Mechanical properties :
#
#
# Convention : Reuss Voigt Hill
#
# Bulk Modulus (GPa) = 9.01820 58.24821 33.63320
# Shear Modulus (GPa) = 16.69429 40.67376 28.68403
#
# Velocity S-wave (km/s) = 2.65286 4.14082 3.47736
# Velocity P-wave (km/s) = 3.63115 6.88600 5.50464
#
# Compressibility (1/GPa) = 0.11088692
#
# Stress axis : x y z
#
# Youngs Moduli (GPa) = 151.15610 10.78778 68.84398
#
# Poissons Ratio (x) = 0.09804 0.36719
# Poissons Ratio (y) = 1.37375 -0.89125
# Poissons Ratio (z) = 0.80621 -0.13966
#
# Static dielectric constant tensor:
#      x y z
#    x 4.488990 -0.046460 0.446550 
#    y -0.046460 3.847880 -0.034820 
#    z 0.446550 -0.034820 4.384990 
# 
# 
# High freq. dielectric constant tensor:
#      x y z
#    x 1.952720 -0.005390 0.013640 
#    y -0.005390 1.906650 -0.010210 
#    z 0.013640 -0.010210 1.946420 
# 
# From -- ./inp_files/2379.got.cif
#   From: 2010.03.12/outbox.cif.g09.slc.cpg/sg1_2_cif.got.tgz:2379.got - 2010.03.29 11:57:58.
