data_PCOD8000592
_publ_section_title
;
Structure prediction by ZEFSAII (Michael W. Deem and Ramdas Pophale) SiO2 
 PCOD8000592
Probable space group: P -1
;
_chemical_formula_sum "Si O2"
_cell_formula_units_Z 16
_cell_length_a 21.201358
_cell_length_b 9.178414
_cell_length_c 18.736179
_cell_angle_alpha 43.271387
_cell_angle_beta 19.277298
_cell_angle_gamma 41.527452
_cell_volume 794.172329
_symmetry_space_group_name_H-M "P -1"
_symmetry_group_IT_number 2
_symmetry_cell_setting 'triclinic'
loop_
_space_group_symop_operation_xyz
x,y,z
-x,-y,-z
loop_
_atom_site_type_symbol
_atom_site_label
_atom_site_fract_x
_atom_site_fract_y
_atom_site_fract_z
Si Si1 0.103842 0.547943 0.637301
Si Si2 0.050947 0.783146 0.476282
Si Si3 0.518655 0.793948 0.603646
Si Si4 0.352872 0.406096 0.899244
Si Si5 0.344403 0.348627 0.085419
Si Si6 0.426356 0.044482 0.232710
Si Si7 0.351653 0.832525 0.922273
Si Si8 0.990289 0.023584 0.321999
O O1 0.185554 0.601237 0.451750
O O2 0.100602 0.736184 0.632172
O O3 0.248888 0.319595 0.589751
O O4 0.884568 0.520623 0.871784
O O5 0.862680 0.704976 0.682414
O O6 0.000000 0.000000 0.500000
O O7 0.130951 0.852445 0.291001
O O8 0.424122 0.620188 0.725599
O O9 0.404862 0.877020 0.768926
O O10 0.500000 0.000000 0.500000
O O11 0.436305 0.207011 0.826578
O O12 0.447326 0.325044 0.905629
O O13 0.476469 0.177863 0.062507
O O14 0.311242 0.595667 0.060872
O O15 0.471774 0.150295 0.219945
O O16 0.193912 0.059210 0.479247
O O17 0.144980 0.019235 0.094436
#
# Coordination Sequence:
#
# PCOD8000592 Si02
#       8
#     2   2   2   2   2   2   2   2
#     4  10  19  39  65  88 122 163 204 244 292 366
#     4   8  17  31  56  93 124 166 201 226 281 368
#     4  11  26  46  65  87 113 153 213 270 315 354
#     4  10  20  38  65  89 121 164 208 239 294 371
#     4   9  20  33  54  93 134 165 197 235 287 359
#     4  11  20  35  61  93 130 167 195 234 297 369
#     4  11  24  39  58  92 127 155 203 260 306 344
#     4  10  20  36  61  91 133 162 195 237 293 367
#
# _framework density 20.146761000000001
#
# number of rings (size 3 to 8) (size 9 to 14) (size 15 to 20)
#    0.000    2.000    2.500    0.750    0.000    8.500 
#    0.000    1.250    0.000    0.000    0.000    0.000 
#    0.000    0.000    0.000    0.000    0.000    0.000 
#
# Total GULP energy -198293.954037 kJ/mol
# GULP energy per Si atom -12393.372127 kJ/mol
# Density = 2.010091 g / cm^3
# Si number density = 20.146761 Si / 1000 Ang^3
#
#
#
# Elastic Constant Matrix: (Units=GPa)
#
#
# Indices 1 2 3 4 5 6 
#
# 1 97.0888 62.3266 43.0096 -7.8731 -1.7237 5.1042
# 2 62.3266 106.7184 46.5009 -9.6918 14.0071 -8.9850
# 3 43.0096 46.5009 72.6552 -0.3016 7.0915 -5.7250
# 4 -7.8731 -9.6918 -0.3016 35.7531 -0.5293 -1.2915
# 5 -1.7237 14.0071 7.0915 -0.5293 26.1540 -1.7610
# 6 5.1042 -8.9850 -5.7250 -1.2915 -1.7610 38.9383
#
#
#
# Elastic Compliance Matrix: (Units=1/GPa)
#
#
# Indices 1 2 3 4 5 6 
#
# 1 0.020649 -0.010587 -0.006720 0.001540 0.008500 -0.005702
# 2 -0.010587 0.019654 -0.004990 0.002989 -0.009483 0.004859
# 3 -0.006720 -0.004990 0.021471 -0.002607 -0.003467 0.002643
# 4 0.001540 0.002989 -0.002607 0.029134 -0.000131 0.001065
# 5 0.008500 -0.009483 -0.003467 -0.000131 0.044690 -0.001795
# 6 -0.005702 0.004859 0.002643 0.001065 -0.001795 0.027893
#
#
# Mechanical properties :
#
#
# Convention : Reuss Voigt Hill
#
# Bulk Modulus (GPa) = 58.21272 64.45960 61.33616
# Shear Modulus (GPa) = 23.38494 28.47745 25.93119
#
# Velocity S-wave (km/s) = 3.41064 3.76373 3.59153
# Velocity P-wave (km/s) = 6.66836 7.13807 6.90721
#
# Compressibility (1/GPa) = 0.01717838
#
# Stress axis : x y z
#
# Youngs Moduli (GPa) = 48.42853 50.88143 46.57344
#
# Poissons Ratio (x) = 0.53870 0.31297
# Poissons Ratio (y) = 0.51273 0.23242
# Poissons Ratio (z) = 0.32544 0.25392
#
# Static dielectric constant tensor:
#      x y z
#    x 3.761930 0.178550 -0.146660 
#    y 0.178550 3.422890 -0.106720 
#    z -0.146660 -0.106720 3.539760 
# 
# 
# High freq. dielectric constant tensor:
#      x y z
#    x 1.782080 0.024950 -0.026460 
#    y 0.024950 1.765720 0.003190 
#    z -0.026460 0.003190 1.781810 
# 
# From -- ./inp_files/217986.got.cif
#   From: 2010.06.25/outbox.cif.g09.slc.cpg/sg2_109_cif.got.tgz:217986.got - 2010.06.27 13:26:56.
