data_PCOD8000090
_publ_section_title
;
Structure prediction by ZEFSAII (Michael W. Deem and Ramdas Pophale) SiO2 
 PCOD8000090
Probable space group: P 1
;
_chemical_formula_sum "Si O2"
_cell_formula_units_Z 8
_cell_length_a 6.362663
_cell_length_b 11.643142
_cell_length_c 4.763316
_cell_angle_alpha 77.142676
_cell_angle_beta 91.310894
_cell_angle_gamma 106.371309
_cell_volume 329.777545
_symmetry_space_group_name_H-M "P 1"
_symmetry_group_IT_number 1
_symmetry_cell_setting 'triclinic'
loop_
_space_group_symop_operation_xyz
x,y,z
loop_
_atom_site_type_symbol
_atom_site_label
_atom_site_fract_x
_atom_site_fract_y
_atom_site_fract_z
Si Si1 0.480050 0.544850 0.675360
Si Si2 0.048465 0.385108 0.443081
Si Si3 0.233899 0.063098 0.806420
Si Si4 0.524745 0.060597 0.312472
Si Si5 0.973081 0.226507 0.024642
Si Si6 0.371609 0.787079 0.446729
Si Si7 0.088966 0.789343 0.926133
Si Si8 0.755195 0.546813 0.188371
O O1 0.252563 0.463583 0.587779
O O2 0.496939 0.688392 0.581044
O O3 0.680564 0.525892 0.515774
O O4 0.438514 0.057292 0.999158
O O5 0.120221 0.308240 0.233631
O O6 0.926777 0.467191 0.213890
O O7 0.896821 0.302565 0.729445
O O8 0.111327 0.153337 0.891845
O O9 0.060927 0.926887 0.863467
O O10 0.354927 0.105591 0.486681
O O11 0.536065 0.504494 0.009655
O O12 0.771902 0.147325 0.252624
O O13 0.526995 0.921981 0.466535
O O14 0.294287 0.777248 0.127405
O O15 0.145033 0.759728 0.628220
O O16 0.864191 0.690552 0.053823
#
# Coordination Sequence:
#
# PCOD8000090 Si02
#       8
#     1   1   1   1   1   1   1   1
#     4  12  26  44  73 107 139 189 237 292 358 421
#     4  12  28  48  70 104 150 188 244 296 344 422
#     4  10  23  44  71 107 142 183 235 296 357 422
#     4  10  23  44  71 107 142 183 235 296 357 422
#     4  12  26  46  76  98 146 200 234 292 352 432
#     4  10  21  42  71 103 148 176 221 302 358 416
#     4  10  21  42  71 103 148 176 221 302 358 416
#     4  12  26  44  73 107 139 189 237 292 358 421
#
# _framework density 24.258775
#
# number of rings (size 3 to 8) (size 9 to 14) (size 15 to 20)
#    0.000    1.000    1.250    4.500    3.500    4.000 
#    2.250    0.000    0.000    0.000    0.000    0.000 
#    0.000    0.000    0.000    0.000    0.000    0.000 
#
# Total GULP energy -99133.803996 kJ/mol
# GULP energy per Si atom -12391.725500 kJ/mol
# Density = 2.420356 g / cm^3
# Si number density = 24.258775 Si / 1000 Ang^3
#
#
#
# Elastic Constant Matrix: (Units=GPa)
#
#
# Indices 1 2 3 4 5 6 
#
# 1 90.7275 56.0558 20.0483 -4.0505 4.4995 2.3529
# 2 56.0558 127.5535 46.4764 3.2248 -3.7913 -5.8425
# 3 20.0483 46.4764 107.5648 1.1389 -3.1734 4.0338
# 4 -4.0505 3.2248 1.1389 33.3872 1.6996 -2.4094
# 5 4.4995 -3.7913 -3.1734 1.6996 44.8855 5.1391
# 6 2.3529 -5.8425 4.0338 -2.4094 5.1391 24.1007
#
#
#
# Elastic Compliance Matrix: (Units=1/GPa)
#
#
# Indices 1 2 3 4 5 6 
#
# 1 0.015719 -0.007227 0.000208 0.002507 -0.001963 -0.002652
# 2 -0.007227 0.012852 -0.004311 -0.001729 0.001097 0.004136
# 3 0.000208 -0.004311 0.011263 -0.000209 0.000778 -0.003137
# 4 0.002507 -0.001729 -0.000209 0.030732 -0.001902 0.002849
# 5 -0.001963 0.001097 0.000778 -0.001902 0.023247 -0.004820
# 6 -0.002652 0.004136 -0.003137 0.002849 -0.004820 0.044592
#
#
# Mechanical properties :
#
#
# Convention : Reuss Voigt Hill
#
# Bulk Modulus (GPa) = 58.22318 63.44520 60.83419
# Shear Modulus (GPa) = 29.97762 34.02570 32.00166
#
# Velocity S-wave (km/s) = 3.51913 3.74921 3.63599
# Velocity P-wave (km/s) = 6.36909 6.70466 6.53903
#
# Compressibility (1/GPa) = 0.01717529
#
# Stress axis : x y z
#
# Youngs Moduli (GPa) = 63.61587 77.80680 88.78357
#
# Poissons Ratio (x) = 0.56232 -0.01845
# Poissons Ratio (y) = 0.45976 0.38271
# Poissons Ratio (z) = -0.01322 0.33540
#
# Static dielectric constant tensor:
#      x y z
#    x 3.736110 0.072940 0.085630 
#    y 0.072940 4.641480 -0.058880 
#    z 0.085630 -0.058880 4.690640 
# 
# 
# High freq. dielectric constant tensor:
#      x y z
#    x 1.931100 0.003390 0.004920 
#    y 0.003390 1.974190 0.006140 
#    z 0.004920 0.006140 1.987460 
# 
# From -- ./inp_files/1314.got.cif
#   From: 2010.03.12/outbox.cif.g09.slc.cpg/sg1_1_cif.got.tgz:1314.got - 2010.03.29 11:57:58.
