data_PCOD8000732
_publ_section_title
;
Structure prediction by ZEFSAII (Michael W. Deem and Ramdas Pophale) SiO2 
 PCOD8000732
Probable space group: P -1
;
_chemical_formula_sum "Si O2"
_cell_formula_units_Z 16
_cell_length_a 8.702789
_cell_length_b 20.347241
_cell_length_c 14.707974
_cell_angle_alpha 162.121424
_cell_angle_beta 111.775376
_cell_angle_gamma 68.210321
_cell_volume 741.011056
_symmetry_space_group_name_H-M "P -1"
_symmetry_group_IT_number 2
_symmetry_cell_setting 'triclinic'
loop_
_space_group_symop_operation_xyz
x,y,z
-x,-y,-z
loop_
_atom_site_type_symbol
_atom_site_label
_atom_site_fract_x
_atom_site_fract_y
_atom_site_fract_z
Si Si1 0.687786 0.090547 0.513955
Si Si2 0.815843 0.440780 0.897509
Si Si3 0.360533 0.389109 0.094781
Si Si4 0.888424 0.055951 0.963891
Si Si5 0.684886 0.470067 0.535589
Si Si6 0.682968 0.820643 0.480914
Si Si7 0.282900 0.780357 0.106230
Si Si8 0.026619 0.313185 0.188230
O O1 0.511859 0.146498 0.501201
O O2 0.695263 0.210889 0.770104
O O3 0.816143 0.192553 0.605700
O O4 0.723957 0.836605 0.202871
O O5 0.732611 0.580178 0.144607
O O6 0.713660 0.482674 0.838465
O O7 0.000000 0.500000 0.000000
O O8 0.320647 0.544893 0.376361
O O9 0.557856 0.348234 0.072299
O O10 0.765426 0.257376 0.227361
O O11 0.008946 0.097814 0.959704
O O12 0.775874 0.866034 0.656427
O O13 0.000000 0.000000 0.000000
O O14 0.500000 0.500000 0.500000
O O15 0.792449 0.672985 0.799322
O O16 0.732229 0.978965 0.619456
O O17 0.116977 0.663228 0.889464
O O18 0.000000 0.500000 0.500000
#
# Coordination Sequence:
#
# PCOD8000732 Si02
#       8
#     2   2   2   2   2   2   2   2
#     4  11  22  42  67  92 126 177 214 258 330 388
#     4  12  27  38  60 102 133 168 212 266 331 386
#     4  11  23  43  65  96 134 164 215 275 327 382
#     4  10  23  42  68  94 128 170 221 272 316 383
#     4  11  23  44  66  93 129 172 217 268 331 384
#     4  10  20  43  64  91 129 166 220 264 315 399
#     4  10  19  39  69  90 121 173 218 263 317 395
#     4   9  20  38  64  92 117 170 220 248 314 395
#
# _framework density 21.592120999999999
#
# number of rings (size 3 to 8) (size 9 to 14) (size 15 to 20)
#    0.000    1.500    2.500    4.125    3.500    3.500 
#    2.250    0.625    0.000    0.000    0.000    0.000 
#    0.000    0.000    0.000    0.000    0.000    0.000 
#
# Total GULP energy -198360.333068 kJ/mol
# GULP energy per Si atom -12397.520817 kJ/mol
# Density = 2.154298 g / cm^3
# Si number density = 21.592121 Si / 1000 Ang^3
#
#
#
# Elastic Constant Matrix: (Units=GPa)
#
#
# Indices 1 2 3 4 5 6 
#
# 1 111.1010 44.4309 14.6147 -9.0838 25.8639 -0.8079
# 2 44.4309 136.1881 30.2193 -24.8799 16.1916 -0.7255
# 3 14.6147 30.2193 48.7016 -19.8543 11.9702 6.6446
# 4 -9.0838 -24.8799 -19.8543 41.6679 -2.3224 3.7842
# 5 25.8639 16.1916 11.9702 -2.3224 34.6586 -6.9178
# 6 -0.8079 -0.7255 6.6446 3.7842 -6.9178 32.7762
#
#
#
# Elastic Compliance Matrix: (Units=1/GPa)
#
#
# Indices 1 2 3 4 5 6 
#
# 1 0.012054 -0.002987 0.000895 0.000976 -0.008201 -0.001794
# 2 -0.002987 0.009853 -0.003673 0.003407 -0.000812 0.000324
# 3 0.000895 -0.003673 0.032388 0.013766 -0.011333 -0.010606
# 4 0.000976 0.003407 0.013766 0.033163 -0.006425 -0.007876
# 5 -0.008201 -0.000812 -0.011333 -0.006425 0.041131 0.011500
# 6 -0.001794 0.000324 -0.010606 -0.007876 0.011500 0.035960
#
#
# Mechanical properties :
#
#
# Convention : Reuss Voigt Hill
#
# Bulk Modulus (GPa) = 23.38374 52.72449 38.05412
# Shear Modulus (GPa) = 26.26949 35.60227 30.93588
#
# Velocity S-wave (km/s) = 3.49180 4.06501 3.78926
# Velocity P-wave (km/s) = 5.20674 6.81937 6.06688
#
# Compressibility (1/GPa) = 0.04276476
#
# Stress axis : x y z
#
# Youngs Moduli (GPa) = 82.96179 101.49072 30.87538
#
# Poissons Ratio (x) = 0.30317 -0.02763
# Poissons Ratio (y) = 0.24782 0.11340
# Poissons Ratio (z) = -0.07425 0.37277
#
# Static dielectric constant tensor:
#      x y z
#    x 4.170860 0.226230 0.392760 
#    y 0.226230 3.891240 -0.062600 
#    z 0.392760 -0.062600 3.797390 
# 
# 
# High freq. dielectric constant tensor:
#      x y z
#    x 1.846570 0.001460 0.011330 
#    y 0.001460 1.850110 -0.020680 
#    z 0.011330 -0.020680 1.841830 
# 
# From -- ./inp_files/400078.got.cif
#   From: 2010.06.25/outbox.cif.g09.slc.cpg/sg2_201_cif.got.tgz:400078.got - 2010.06.27 13:26:56.
