data_PCOD8000854
_publ_section_title
;
Structure prediction by ZEFSAII (Michael W. Deem and Ramdas Pophale) SiO2 
 PCOD8000854
Probable space group: P -1
;
_chemical_formula_sum "Si O2"
_cell_formula_units_Z 16
_cell_length_a 11.690847
_cell_length_b 13.737173
_cell_length_c 9.013872
_cell_angle_alpha 53.539480
_cell_angle_beta 140.579430
_cell_angle_gamma 110.426462
_cell_volume 721.947359
_symmetry_space_group_name_H-M "P -1"
_symmetry_group_IT_number 2
_symmetry_cell_setting 'triclinic'
loop_
_space_group_symop_operation_xyz
x,y,z
-x,-y,-z
loop_
_atom_site_type_symbol
_atom_site_label
_atom_site_fract_x
_atom_site_fract_y
_atom_site_fract_z
Si Si1 0.204623 0.018900 0.382873
Si Si2 0.746287 0.076608 0.152782
Si Si3 0.057080 0.190347 0.432594
Si Si4 0.968819 0.326804 0.515884
Si Si5 0.712381 0.545556 0.224266
Si Si6 0.549803 0.359412 0.369539
Si Si7 0.363169 0.218282 0.508218
Si Si8 0.841951 0.142134 0.768770
O O1 0.303347 0.135638 0.389812
O O2 0.245638 0.939926 0.645452
O O3 0.272000 0.934235 0.382544
O O4 0.982647 0.057506 0.098717
O O5 0.893910 0.162149 0.188102
O O6 0.539760 0.138616 0.842652
O O7 0.813390 0.941432 0.265374
O O8 0.953729 0.276766 0.381024
O O9 0.189799 0.259834 0.407567
O O10 0.811509 0.447323 0.287690
O O11 0.960625 0.219699 0.721152
O O12 0.166457 0.361325 0.686478
O O13 0.651964 0.475730 0.373905
O O14 0.535318 0.628741 0.892055
O O15 0.403633 0.346858 0.363819
O O16 0.693417 0.228703 0.645083
#
# Coordination Sequence:
#
# PCOD8000854 Si02
#       8
#     2   2   2   2   2   2   2   2
#     4  10  20  37  56  96 128 156 207 237 299 380
#     4  10  22  39  59  91 130 168 198 239 288 377
#     4  10  21  38  62  88 123 168 193 243 298 363
#     4  10  19  40  64  87 113 163 206 251 316 356
#     4   9  21  41  64  84 117 154 209 270 309 343
#     4  10  22  39  58  89 119 155 205 262 303 354
#     4  11  24  38  60  92 125 167 200 240 302 368
#     4  10  21  34  63  92 123 163 195 255 307 357
#
# _framework density 22.162281
#
# number of rings (size 3 to 8) (size 9 to 14) (size 15 to 20)
#    0.000    2.000    1.250    2.250    5.250    2.500 
#    2.250    1.250    0.000    0.000    0.000    0.000 
#    0.000    0.000    0.000    0.000    0.000    0.000 
#
# Total GULP energy -198248.202219 kJ/mol
# GULP energy per Si atom -12390.512639 kJ/mol
# Density = 2.211184 g / cm^3
# Si number density = 22.162281 Si / 1000 Ang^3
#
#
#
# Elastic Constant Matrix: (Units=GPa)
#
#
# Indices 1 2 3 4 5 6 
#
# 1 116.3322 31.0711 -0.1534 6.8556 -7.8882 21.7111
# 2 31.0711 73.1544 5.4862 16.1097 -5.9245 3.8708
# 3 -0.1534 5.4862 67.0689 15.3718 -2.5096 -2.5645
# 4 6.8556 16.1097 15.3718 25.7709 3.6430 1.3019
# 5 -7.8882 -5.9245 -2.5096 3.6430 28.2931 5.1347
# 6 21.7111 3.8708 -2.5645 1.3019 5.1347 28.5590
#
#
#
# Elastic Compliance Matrix: (Units=1/GPa)
#
#
# Indices 1 2 3 4 5 6 
#
# 1 0.011682 -0.003946 0.000397 -0.001020 0.004235 -0.009026
# 2 -0.003946 0.018149 0.001372 -0.011737 0.004254 0.000434
# 3 0.000397 0.001372 0.017728 -0.012062 0.003332 0.001055
# 4 -0.001020 -0.011737 -0.012062 0.055130 -0.011048 0.000756
# 5 0.004235 0.004254 0.003332 -0.011048 0.041016 -0.010368
# 6 -0.009026 0.000434 0.001055 0.000756 -0.010368 0.043742
#
#
# Mechanical properties :
#
#
# Convention : Reuss Voigt Hill
#
# Bulk Modulus (GPa) = 23.14538 36.59594 29.87066
# Shear Modulus (GPa) = 24.24772 31.20137 27.72455
#
# Velocity S-wave (km/s) = 3.31130 3.75622 3.54076
# Velocity P-wave (km/s) = 5.00858 5.94649 5.49758
#
# Compressibility (1/GPa) = 0.04320516
#
# Stress axis : x y z
#
# Youngs Moduli (GPa) = 85.59885 55.09843 56.40698
#
# Poissons Ratio (x) = 0.21744 -0.02238
# Poissons Ratio (y) = 0.33781 -0.07741
# Poissons Ratio (z) = -0.03396 -0.07561
#
# Static dielectric constant tensor:
#      x y z
#    x 4.061630 0.313160 0.114930 
#    y 0.313160 4.028940 0.063850 
#    z 0.114930 0.063850 3.804280 
# 
# 
# High freq. dielectric constant tensor:
#      x y z
#    x 1.875370 0.023750 0.005240 
#    y 0.023750 1.854980 0.008380 
#    z 0.005240 0.008380 1.860620 
# 
# From -- ./inp_files/269898.got.cif
#   From: 2010.06.25/outbox.cif.g09.slc.cpg/sg2_135_cif.got.tgz:269898.got - 2010.06.27 13:26:56.
