data_PCOD8000621
_publ_section_title
;
Structure prediction by ZEFSAII (Michael W. Deem and Ramdas Pophale) SiO2 
 PCOD8000621
Probable space group: P -1
;
_chemical_formula_sum "Si O2"
_cell_formula_units_Z 16
_cell_length_a 18.439961
_cell_length_b 20.910268
_cell_length_c 13.048592
_cell_angle_alpha 150.896291
_cell_angle_beta 149.671287
_cell_angle_gamma 19.088564
_cell_volume 777.814858
_symmetry_space_group_name_H-M "P -1"
_symmetry_group_IT_number 2
_symmetry_cell_setting 'triclinic'
loop_
_space_group_symop_operation_xyz
x,y,z
-x,-y,-z
loop_
_atom_site_type_symbol
_atom_site_label
_atom_site_fract_x
_atom_site_fract_y
_atom_site_fract_z
Si Si1 0.770967 0.478538 0.967980
Si Si2 0.050638 0.797770 0.578770
Si Si3 0.750924 0.751355 0.774305
Si Si4 0.802512 0.584462 0.808758
Si Si5 0.562505 0.252013 0.676660
Si Si6 0.456155 0.594482 0.917682
Si Si7 0.452545 0.823249 0.891650
Si Si8 0.766152 0.274649 0.517073
O O1 0.984515 0.419931 0.173882
O O2 0.659754 0.512345 0.985783
O O3 0.594722 0.685460 0.973479
O O4 0.862582 0.284037 0.746273
O O5 0.102731 0.609919 0.408358
O O6 0.224099 0.766355 0.809353
O O7 0.086137 0.787094 0.485970
O O8 0.792974 0.014376 0.594708
O O9 0.726244 0.745612 0.857874
O O10 0.645094 0.703818 0.517394
O O11 0.613587 0.979573 0.898179
O O12 0.592018 0.697435 0.781966
O O13 0.000000 0.500000 0.000000
O O14 0.519677 0.400090 0.751920
O O15 0.584977 0.288846 0.869869
O O16 0.228914 0.888092 0.696416
O O17 0.500000 0.500000 0.500000
#
# Coordination Sequence:
#
# PCOD8000621 Si02
#       8
#     2   2   2   2   2   2   2   2
#     4  11  23  43  68  95 135 175 209 273 330 389
#     4  12  21  43  71  93 130 172 218 273 324 386
#     4  12  26  40  63  99 137 173 216 268 329 391
#     4  12  21  39  62  94 141 174 204 262 330 402
#     4  11  28  43  69  99 124 176 230 270 323 387
#     4  11  24  49  69  93 129 172 230 278 317 375
#     4  11  22  39  62  99 135 172 214 257 333 396
#     4  10  19  39  65  98 128 164 215 261 326 398
#
# _framework density 20.570447000000001
#
# number of rings (size 3 to 8) (size 9 to 14) (size 15 to 20)
#    0.000    0.750    7.500    1.500    1.750    2.000 
#    0.000    0.625    0.000    0.000    0.000    0.000 
#    0.000    0.000    0.000    0.000    0.000    0.000 
#
# Total GULP energy -198431.650505 kJ/mol
# GULP energy per Si atom -12401.978157 kJ/mol
# Density = 2.052363 g / cm^3
# Si number density = 20.570447 Si / 1000 Ang^3
#
#
#
# Elastic Constant Matrix: (Units=GPa)
#
#
# Indices 1 2 3 4 5 6 
#
# 1 116.1436 36.4426 31.1695 6.7607 10.6887 -10.6196
# 2 36.4426 59.0527 22.9728 6.6573 7.4429 -2.1772
# 3 31.1695 22.9728 78.5649 1.0329 17.7252 -6.6675
# 4 6.7607 6.6573 1.0329 32.7908 -1.8186 10.6778
# 5 10.6887 7.4429 17.7252 -1.8186 36.5844 1.3237
# 6 -10.6196 -2.1772 -6.6675 10.6778 1.3237 29.2931
#
#
#
# Elastic Compliance Matrix: (Units=1/GPa)
#
#
# Indices 1 2 3 4 5 6 
#
# 1 0.011685 -0.005694 -0.002237 -0.002679 -0.001462 0.004346
# 2 -0.005694 0.022533 -0.004035 -0.003321 -0.001129 -0.000047
# 3 -0.002237 -0.004035 0.016591 -0.000660 -0.006713 0.003209
# 4 -0.002679 -0.003321 -0.000660 0.036855 0.004152 -0.014990
# 5 -0.001462 -0.001129 -0.006713 0.004152 0.031634 -0.005085
# 6 0.004346 -0.000047 0.003209 -0.014990 -0.005085 0.042134
#
#
# Mechanical properties :
#
#
# Convention : Reuss Voigt Hill
#
# Bulk Modulus (GPa) = 37.20740 48.32567 42.76653
# Shear Modulus (GPa) = 25.73022 30.61206 28.17114
#
# Velocity S-wave (km/s) = 3.54055 3.86185 3.70468
# Velocity P-wave (km/s) = 5.90263 6.59006 6.25580
#
# Compressibility (1/GPa) = 0.02687638
#
# Stress axis : x y z
#
# Youngs Moduli (GPa) = 85.57998 44.37969 60.27281
#
# Poissons Ratio (x) = 0.25271 0.13482
# Poissons Ratio (y) = 0.48732 0.24321
# Poissons Ratio (z) = 0.19143 0.17908
#
# Static dielectric constant tensor:
#      x y z
#    x 3.664110 0.235150 0.339760 
#    y 0.235150 3.491840 -0.126120 
#    z 0.339760 -0.126120 3.961030 
# 
# 
# High freq. dielectric constant tensor:
#      x y z
#    x 1.808310 0.004970 0.018490 
#    y 0.004970 1.801320 -0.008650 
#    z 0.018490 -0.008650 1.806240 
# 
# From -- ./inp_files/428108.got.cif
#   From: 2010.06.25/outbox.cif.g09.slc.cpg/sg2_215_cif.got.tgz:428108.got - 2010.06.27 13:26:56.
