data_PCOD8000965
_publ_section_title
;
Structure prediction by ZEFSAII (Michael W. Deem and Ramdas Pophale) SiO2 
 PCOD8000965
Probable space group: P -1
;
_chemical_formula_sum "Si O2"
_cell_formula_units_Z 16
_cell_length_a 14.123883
_cell_length_b 13.064872
_cell_length_c 15.134328
_cell_angle_alpha 27.950161
_cell_angle_beta 138.488225
_cell_angle_gamma 138.561975
_cell_volume 831.832129
_symmetry_space_group_name_H-M "P -1"
_symmetry_group_IT_number 2
_symmetry_cell_setting 'triclinic'
loop_
_space_group_symop_operation_xyz
x,y,z
-x,-y,-z
loop_
_atom_site_type_symbol
_atom_site_label
_atom_site_fract_x
_atom_site_fract_y
_atom_site_fract_z
Si Si1 0.170477 0.068965 0.539510
Si Si2 0.896736 0.371374 0.264445
Si Si3 0.385169 0.546477 0.067280
Si Si4 0.349530 0.066874 0.339165
Si Si5 0.884348 0.482987 0.853886
Si Si6 0.871180 0.408619 0.410355
Si Si7 0.629567 0.669486 0.015754
Si Si8 0.348433 0.863639 0.954004
O O1 0.210085 0.333251 0.339750
O O2 0.173764 0.901444 0.588520
O O3 0.280325 0.033092 0.720774
O O4 0.000000 0.000000 0.500000
O O5 0.956740 0.429441 0.360553
O O6 0.030626 0.488360 0.201826
O O7 0.756736 0.469363 0.081804
O O8 0.378858 0.279378 0.266814
O O9 0.541046 0.710428 0.010973
O O10 0.365248 0.651424 0.068568
O O11 0.311860 0.116960 0.172268
O O12 0.500000 0.000000 0.500000
O O13 0.212755 0.856741 0.432880
O O14 0.763455 0.238239 0.965295
O O15 0.000000 0.500000 0.000000
O O16 0.000000 0.500000 0.500000
O O17 0.760016 0.565202 0.217163
O O18 0.500000 0.500000 0.000000
O O19 0.500000 0.000000 0.000000
#
# Coordination Sequence:
#
# PCOD8000965 Si02
#       8
#     2   2   2   2   2   2   2   2
#     4   9  19  38  64  90 120 164 216 252 298 386
#     4  10  20  39  65  91 124 169 217 257 304 387
#     4  10  19  40  67  93 120 169 220 251 304 389
#     4  11  20  39  71  87 119 176 213 249 316 381
#     4  11  20  40  67  92 124 167 219 256 308 389
#     4  12  25  41  60 100 133 157 211 275 319 361
#     4  10  19  41  63  90 128 158 222 261 293 397
#     4  11  24  42  63  99 133 159 207 277 322 359
#
# _framework density 19.234652000000001
#
# number of rings (size 3 to 8) (size 9 to 14) (size 15 to 20)
#    0.000    1.500    8.750    0.000    1.750    1.000 
#    6.750    0.000    0.000    0.000    0.000    0.000 
#    0.000    0.000    0.000    0.000    0.000    0.000 
#
# Total GULP energy -198237.672357 kJ/mol
# GULP energy per Si atom -12389.854522 kJ/mol
# Density = 1.919087 g / cm^3
# Si number density = 19.234652 Si / 1000 Ang^3
#
#
#
# Elastic Constant Matrix: (Units=GPa)
#
#
# Indices 1 2 3 4 5 6 
#
# 1 117.7081 47.9667 50.7872 6.2328 -14.2179 1.8455
# 2 47.9667 117.0627 56.1744 20.9376 -3.8979 6.0191
# 3 50.7872 56.1744 135.4819 6.7913 8.7481 0.0942
# 4 6.2328 20.9376 6.7913 29.9337 3.2524 -0.9776
# 5 -14.2179 -3.8979 8.7481 3.2524 35.6953 -0.5916
# 6 1.8455 6.0191 0.0942 -0.9776 -0.5916 25.5832
#
#
#
# Elastic Compliance Matrix: (Units=1/GPa)
#
#
# Indices 1 2 3 4 5 6 
#
# 1 0.011887 -0.002948 -0.003567 -0.000181 0.005303 -0.000035
# 2 -0.002948 0.013455 -0.004192 -0.008170 0.002014 -0.003203
# 3 -0.003567 -0.004192 0.010665 0.001797 -0.004637 0.001166
# 4 -0.000181 -0.008170 0.001797 0.039397 -0.004939 0.003320
# 5 0.005303 0.002014 -0.004637 -0.004939 0.031928 -0.000290
# 6 -0.000035 -0.003203 0.001166 0.003320 -0.000290 0.039960
#
#
# Mechanical properties :
#
#
# Convention : Reuss Voigt Hill
#
# Bulk Modulus (GPa) = 68.52839 75.56772 72.04805
# Shear Modulus (GPa) = 28.80691 32.59740 30.70216
#
# Velocity S-wave (km/s) = 3.87416 4.12117 3.99957
# Velocity P-wave (km/s) = 7.46438 7.87515 7.67251
#
# Compressibility (1/GPa) = 0.01459249
#
# Stress axis : x y z
#
# Youngs Moduli (GPa) = 84.12841 74.32183 93.76784
#
# Poissons Ratio (x) = 0.21912 0.33444
# Poissons Ratio (y) = 0.24804 0.39306
# Poissons Ratio (z) = 0.30006 0.31155
#
# Static dielectric constant tensor:
#      x y z
#    x 3.900160 0.192470 -0.471630 
#    y 0.192470 2.826100 0.641170 
#    z -0.471630 0.641170 2.428000 
# 
# 
# High freq. dielectric constant tensor:
#      x y z
#    x 1.759710 0.002890 0.004240 
#    y 0.002890 1.708700 -0.000860 
#    z 0.004240 -0.000860 1.761660 
# 
# From -- ./inp_files/528430.got.cif
#   From: 2010.06.25/outbox.cif.g09.slc.cpg/sg2_265_cif.got.tgz:528430.got - 2010.06.27 13:26:56.
