data_PCOD8000094
_publ_section_title
;
Structure prediction by ZEFSAII (Michael W. Deem and Ramdas Pophale) SiO2 
 PCOD8000094
Probable space group: P 1
;
_chemical_formula_sum "Si O2"
_cell_formula_units_Z 8
_cell_length_a 8.890526
_cell_length_b 8.901169
_cell_length_c 8.895617
_cell_angle_alpha 100.121068
_cell_angle_beta 131.561214
_cell_angle_gamma 110.307252
_cell_volume 402.939589
_symmetry_space_group_name_H-M "P 1"
_symmetry_group_IT_number 1
_symmetry_cell_setting 'triclinic'
loop_
_space_group_symop_operation_xyz
x,y,z
loop_
_atom_site_type_symbol
_atom_site_label
_atom_site_fract_x
_atom_site_fract_y
_atom_site_fract_z
Si Si1 0.989500 0.002020 0.297050
Si Si2 0.010949 0.920625 0.728764
Si Si3 0.855312 0.070722 0.909131
Si Si4 0.155072 0.716202 0.003511
Si Si5 0.875428 0.425064 0.008130
Si Si6 0.369709 0.270285 0.817499
Si Si7 0.282504 0.837035 0.425652
Si Si8 0.562948 0.678411 0.149978
O O1 0.132144 0.196189 0.531805
O O2 0.697641 0.830173 0.126875
O O3 0.158622 0.931348 0.423277
O O4 0.987466 0.049077 0.132022
O O5 0.931986 0.021809 0.800664
O O6 0.767909 0.762101 0.435671
O O7 0.264144 0.095510 0.836077
O O8 0.081059 0.803280 0.845918
O O9 0.547302 0.926717 0.700986
O O10 0.960866 0.292675 0.012303
O O11 0.326160 0.873362 0.279398
O O12 0.311695 0.653318 0.022667
O O13 0.893750 0.522886 0.875975
O O14 0.595085 0.301639 0.873381
O O15 0.086581 0.603292 0.290624
O O16 0.469370 0.467006 0.002046
#
# Coordination Sequence:
#
# PCOD8000094 Si02
#       8
#     1   1   1   1   1   1   1   1
#     4  11  24  41  69  92 132 170 212 263 323 372
#     4  11  24  42  68  94 127 170 215 260 322 372
#     4  12  22  42  69  96 124 173 216 261 316 380
#     4  10  22  44  64  92 129 170 208 264 316 375
#     4  10  22  41  65  93 131 165 210 262 314 380
#     4  11  24  44  63  97 134 164 212 268 313 384
#     4  10  21  43  64  91 131 166 212 266 310 376
#     4  11  23  45  62  95 134 168 207 270 314 379
#
# _framework density 19.854095000000001
#
# number of rings (size 3 to 8) (size 9 to 14) (size 15 to 20)
#    0.750    0.500    5.000    0.750    1.750    1.000 
#    9.000    0.000    0.000    0.000    0.000    0.000 
#    0.000    0.000    0.000    0.000    0.000    0.000 
#
# Total GULP energy -99162.010496 kJ/mol
# GULP energy per Si atom -12395.251312 kJ/mol
# Density = 1.980891 g / cm^3
# Si number density = 19.854095 Si / 1000 Ang^3
#
#
#
# Elastic Constant Matrix: (Units=GPa)
#
#
# Indices 1 2 3 4 5 6 
#
# 1 127.4965 55.5239 31.3948 3.8477 2.7816 4.7892
# 2 55.5239 117.8272 60.7100 13.6638 0.8462 3.8034
# 3 31.3948 60.7100 99.8891 13.0423 -7.2729 -2.5183
# 4 3.8477 13.6638 13.0423 29.2436 -0.7488 -1.8999
# 5 2.7816 0.8462 -7.2729 -0.7488 33.6723 4.4755
# 6 4.7892 3.8034 -2.5183 -1.8999 4.4755 34.9369
#
#
#
# Elastic Compliance Matrix: (Units=1/GPa)
#
#
# Indices 1 2 3 4 5 6 
#
# 1 0.009951 -0.004452 -0.000621 0.000979 -0.000719 -0.000779
# 2 -0.004452 0.014782 -0.007312 -0.003196 -0.001453 -0.001514
# 3 -0.000621 -0.007312 0.015339 -0.003168 0.003293 0.001393
# 4 0.000979 -0.003196 -0.003168 0.037101 -0.000128 0.002019
# 5 -0.000719 -0.001453 0.003293 -0.000128 0.030965 -0.003480
# 6 -0.000779 -0.001514 0.001393 0.002019 -0.003480 0.029551
#
#
# Mechanical properties :
#
#
# Convention : Reuss Voigt Hill
#
# Bulk Modulus (GPa) = 65.35420 71.16337 68.25879
# Shear Modulus (GPa) = 29.84040 32.74282 31.29161
#
# Velocity S-wave (km/s) = 3.88104 4.06541 3.97429
# Velocity P-wave (km/s) = 7.28505 7.61299 7.45083
#
# Compressibility (1/GPa) = 0.01530123
#
# Stress axis : x y z
#
# Youngs Moduli (GPa) = 100.49620 67.64917 65.19461
#
# Poissons Ratio (x) = 0.30118 0.04051
# Poissons Ratio (y) = 0.44742 0.47668
# Poissons Ratio (z) = 0.06245 0.49462
#
# Static dielectric constant tensor:
#      x y z
#    x 3.740850 0.038630 -0.132860 
#    y 0.038630 3.480340 0.189860 
#    z -0.132860 0.189860 3.560490 
# 
# 
# High freq. dielectric constant tensor:
#      x y z
#    x 1.789190 0.000120 -0.009510 
#    y 0.000120 1.765950 0.015510 
#    z -0.009510 0.015510 1.769560 
# 
# From -- ./inp_files/4274.got.cif
#   From: 2010.03.12/outbox.cif.g09.slc.cpg/sg1_3_cif.got.tgz:4274.got - 2010.03.29 11:57:58.
