data_PCOD8000486
_publ_section_title
;
Structure prediction by ZEFSAII (Michael W. Deem and Ramdas Pophale) SiO2 
 PCOD8000486
Probable space group: P -1
;
_chemical_formula_sum "Si O2"
_cell_formula_units_Z 16
_cell_length_a 11.293370
_cell_length_b 13.708260
_cell_length_c 9.705303
_cell_angle_alpha 123.058088
_cell_angle_beta 117.442693
_cell_angle_gamma 32.683283
_cell_volume 679.996198
_symmetry_space_group_name_H-M "P -1"
_symmetry_group_IT_number 2
_symmetry_cell_setting 'triclinic'
loop_
_space_group_symop_operation_xyz
x,y,z
-x,-y,-z
loop_
_atom_site_type_symbol
_atom_site_label
_atom_site_fract_x
_atom_site_fract_y
_atom_site_fract_z
Si Si1 0.130506 0.540613 0.786864
Si Si2 0.737284 0.692176 0.836857
Si Si3 0.881393 0.332626 0.651615
Si Si4 0.447146 0.880593 0.254555
Si Si5 0.018973 0.791334 0.682327
Si Si6 0.656928 0.915777 0.206581
Si Si7 0.293334 0.624083 0.136063
Si Si8 0.259095 0.788011 0.993024
O O1 0.343951 0.312393 0.699456
O O2 0.088861 0.636439 0.697084
O O3 0.923881 0.602725 0.760324
O O4 0.174129 0.595885 0.980576
O O5 0.759325 0.540451 0.760479
O O6 0.492923 0.886747 0.799934
O O7 0.762559 0.743767 0.032984
O O8 0.839014 0.308387 0.457985
O O9 0.786449 0.310589 0.698641
O O10 0.142038 0.158619 0.673324
O O11 0.504355 0.960461 0.272473
O O12 0.354835 0.851091 0.068235
O O13 0.238158 0.046467 0.369551
O O14 0.050521 0.893543 0.864528
O O15 0.557121 0.432116 0.128860
O O16 0.225454 0.786177 0.138070
#
# Coordination Sequence:
#
# PCOD8000486 Si02
#       8
#     2   2   2   2   2   2   2   2
#     4  10  19  39  63  85 124 160 210 248 296 367
#     4  11  21  38  63  94 122 165 207 252 307 365
#     4  12  24  40  63  93 136 162 194 261 324 369
#     4  11  21  40  66  89 124 166 214 257 299 366
#     4  11  25  39  59  97 127 165 208 251 314 375
#     4  11  23  38  65  99 123 160 214 253 303 380
#     4   9  19  39  66  91 116 161 212 258 305 363
#     4   9  20  40  68  90 116 164 216 263 298 359
#
# _framework density 23.529543
#
# number of rings (size 3 to 8) (size 9 to 14) (size 15 to 20)
#    0.000    1.500    3.750    3.000    0.000    2.500 
#    0.000    1.875    0.000    0.000    0.000    0.000 
#    0.000    0.000    0.000    0.000    0.000    0.000 
#
# Total GULP energy -198410.340605 kJ/mol
# GULP energy per Si atom -12400.646288 kJ/mol
# Density = 2.347599 g / cm^3
# Si number density = 23.529543 Si / 1000 Ang^3
#
#
#
# Elastic Constant Matrix: (Units=GPa)
#
#
# Indices 1 2 3 4 5 6 
#
# 1 85.6517 9.2542 20.6806 -0.3977 -21.7963 -8.7818
# 2 9.2542 100.1404 12.3266 -1.0500 -6.5731 -9.2172
# 3 20.6806 12.3266 91.9578 3.9193 -33.2545 -0.1699
# 4 -0.3977 -1.0500 3.9193 14.5696 -5.6590 -4.8264
# 5 -21.7963 -6.5731 -33.2545 -5.6590 37.1528 0.4622
# 6 -8.7818 -9.2172 -0.1699 -4.8264 0.4622 23.4656
#
#
#
# Elastic Compliance Matrix: (Units=1/GPa)
#
#
# Indices 1 2 3 4 5 6 
#
# 1 0.014828 -0.000053 -0.000184 0.006301 0.009402 0.006638
# 2 -0.000053 0.010683 -0.001066 0.003158 0.001326 0.004792
# 3 -0.000184 -0.001066 0.016213 0.000990 0.014372 -0.000450
# 4 0.006301 0.003158 0.000990 0.082216 0.017413 0.020173
# 5 0.009402 0.001326 0.014372 0.017413 0.048098 0.006778
# 6 0.006638 0.004792 -0.000450 0.020173 0.006778 0.050994
#
#
# Mechanical properties :
#
#
# Convention : Reuss Voigt Hill
#
# Bulk Modulus (GPa) = 25.56423 40.25253 32.90838
# Shear Modulus (GPa) = 20.94867 30.73682 25.84275
#
# Velocity S-wave (km/s) = 2.98705 3.61821 3.31767
# Velocity P-wave (km/s) = 4.77336 5.88214 5.35652
#
# Compressibility (1/GPa) = 0.03911716
#
# Stress axis : x y z
#
# Youngs Moduli (GPa) = 67.44093 93.60333 61.67870
#
# Poissons Ratio (x) = 0.00501 0.01133
# Poissons Ratio (y) = 0.00361 0.06577
# Poissons Ratio (z) = 0.01238 0.09982
#
# Static dielectric constant tensor:
#      x y z
#    x 4.115950 -0.111510 -0.084590 
#    y -0.111510 4.509190 -0.074310 
#    z -0.084590 -0.074310 3.871160 
# 
# 
# High freq. dielectric constant tensor:
#      x y z
#    x 1.924020 -0.007940 -0.008330 
#    y -0.007940 1.956790 -0.004300 
#    z -0.008330 -0.004300 1.898110 
# 
# From -- ./inp_files/273811.got.cif
#   From: 2010.06.25/outbox.cif.g09.slc.cpg/sg2_137_cif.got.tgz:273811.got - 2010.06.27 13:26:56.
