data_PCOD8000271
_publ_section_title
;
Structure prediction by ZEFSAII (Michael W. Deem and Ramdas Pophale) SiO2 
 PCOD8000271
Probable space group: P 1
;
_chemical_formula_sum "Si O2"
_cell_formula_units_Z 8
_cell_length_a 4.993063
_cell_length_b 5.006858
_cell_length_c 17.479007
_cell_angle_alpha 106.161105
_cell_angle_beta 73.401097
_cell_angle_gamma 119.899378
_cell_volume 358.129534
_symmetry_space_group_name_H-M "P 1"
_symmetry_group_IT_number 1
_symmetry_cell_setting 'triclinic'
loop_
_space_group_symop_operation_xyz
x,y,z
loop_
_atom_site_type_symbol
_atom_site_label
_atom_site_fract_x
_atom_site_fract_y
_atom_site_fract_z
Si Si1 0.846960 0.019560 0.199110
Si Si2 0.221449 0.641845 0.135743
Si Si3 0.919573 0.979219 0.636090
Si Si4 0.208628 0.682295 0.698569
Si Si5 0.071646 0.861544 0.884985
Si Si6 0.976296 0.799169 0.449738
Si Si7 0.361645 0.569865 0.947973
Si Si8 0.683960 0.090952 0.386811
O O1 0.131329 0.330527 0.167340
O O2 0.566970 0.896382 0.151086
O O3 0.724244 0.096933 0.293354
O O4 0.968477 0.764876 0.183846
O O5 0.210027 0.565220 0.041507
O O6 0.578167 0.908680 0.689099
O O7 0.905702 0.936352 0.543119
O O8 0.043820 0.752759 0.645527
O O9 0.158460 0.330730 0.667347
O O10 0.051699 0.725395 0.791526
O O11 0.730192 0.683193 0.936596
O O12 0.315381 0.808632 0.914370
O O13 0.185682 0.228794 0.898126
O O14 0.915985 0.976437 0.397890
O O15 0.331722 0.852230 0.420346
O O16 0.749772 0.431801 0.436918
#
# Coordination Sequence:
#
# PCOD8000271 Si02
#       8
#     1   1   1   1   1   1   1   1
#     4  12  25  43  66  94 127 168 213 262 316 375
#     4  12  25  43  66  94 127 168 213 262 316 375
#     4  12  24  43  67  96 129 168 211 260 313 375
#     4  12  24  43  67  96 129 168 211 260 313 375
#     4  12  25  43  66  96 129 168 211 260 316 375
#     4  12  25  43  66  96 129 168 211 260 316 375
#     4  12  24  43  65  94 129 168 211 262 315 375
#     4  12  24  43  65  94 129 168 211 262 315 375
#
# _framework density 22.338287000000001
#
# number of rings (size 3 to 8) (size 9 to 14) (size 15 to 20)
#    0.000    0.000    0.000   12.000    0.000    0.000 
#    0.000    0.000    0.000    0.000    0.000    0.000 
#    0.000    0.000    0.000    0.000    0.000    0.000 
#
# Total GULP energy -99311.502206 kJ/mol
# GULP energy per Si atom -12413.937776 kJ/mol
# Density = 2.228744 g / cm^3
# Si number density = 22.338287 Si / 1000 Ang^3
#
#
#
# Elastic Constant Matrix: (Units=GPa)
#
#
# Indices 1 2 3 4 5 6 
#
# 1 89.4228 31.1047 23.1311 3.9625 0.6391 -0.1435
# 2 31.1047 80.6295 22.0709 -1.5905 0.2571 1.6745
# 3 23.1311 22.0709 90.3177 -0.0564 -0.2729 -0.9544
# 4 3.9625 -1.5905 -0.0564 35.1687 -0.3587 -0.1576
# 5 0.6391 0.2571 -0.2729 -0.3587 32.8759 -4.6547
# 6 -0.1435 1.6745 -0.9544 -0.1576 -4.6547 32.9620
#
#
#
# Elastic Compliance Matrix: (Units=1/GPa)
#
#
# Indices 1 2 3 4 5 6 
#
# 1 0.013461 -0.004594 -0.002325 -0.001730 -0.000238 0.000183
# 2 -0.004594 0.014893 -0.002472 0.001182 -0.000157 -0.000865
# 3 -0.002325 -0.002472 0.012278 0.000175 0.000240 0.000506
# 4 -0.001730 0.001182 0.000175 0.028687 0.000357 0.000125
# 5 -0.000238 -0.000157 0.000240 0.000357 0.031052 0.004401
# 6 0.000183 -0.000865 0.000506 0.000125 0.004401 0.031019
#
#
# Mechanical properties :
#
#
# Convention : Reuss Voigt Hill
#
# Bulk Modulus (GPa) = 45.76455 45.88704 45.82579
# Shear Modulus (GPa) = 31.75538 32.47220 32.11379
#
# Velocity S-wave (km/s) = 3.77446 3.81682 3.79570
# Velocity P-wave (km/s) = 6.28704 6.32540 6.30625
#
# Compressibility (1/GPa) = 0.02185097
#
# Stress axis : x y z
#
# Youngs Moduli (GPa) = 74.29073 67.14628 81.44910
#
# Poissons Ratio (x) = 0.30844 0.18935
# Poissons Ratio (y) = 0.34126 0.20132
# Poissons Ratio (z) = 0.17271 0.16597
#
# Static dielectric constant tensor:
#      x y z
#    x 3.996410 -0.011040 -0.008500 
#    y -0.011040 4.078850 0.032100 
#    z -0.008500 0.032100 4.052270 
# 
# 
# High freq. dielectric constant tensor:
#      x y z
#    x 1.890270 -0.000340 -0.000610 
#    y -0.000340 1.891790 0.001990 
#    z -0.000610 0.001990 1.894370 
# 
# From -- ./inp_files/661.got.cif
#   From: 2010.03.12/outbox.cif.g09.slc.cpg/sg1_1_cif.got.tgz:661.got - 2010.03.29 11:57:58.
