data_PCOD8000304
_publ_section_title
;
Structure prediction by ZEFSAII (Michael W. Deem and Ramdas Pophale) SiO2 
 PCOD8000304
Probable space group: P -1
;
_chemical_formula_sum "Si O2"
_cell_formula_units_Z 14
_cell_length_a 9.153370
_cell_length_b 15.545485
_cell_length_c 15.162641
_cell_angle_alpha 36.178870
_cell_angle_beta 141.780819
_cell_angle_gamma 148.839964
_cell_volume 626.374125
_symmetry_space_group_name_H-M "P -1"
_symmetry_group_IT_number 2
_symmetry_cell_setting 'triclinic'
loop_
_space_group_symop_operation_xyz
x,y,z
-x,-y,-z
loop_
_atom_site_type_symbol
_atom_site_label
_atom_site_fract_x
_atom_site_fract_y
_atom_site_fract_z
Si Si1 0.283912 0.752948 0.684540
Si Si2 0.226992 0.957918 0.620671
Si Si3 0.149586 0.386011 0.945425
Si Si4 0.230142 0.730691 0.483188
Si Si5 0.191875 0.167860 0.018733
Si Si6 0.345408 0.458083 0.721284
Si Si7 0.974663 0.659915 0.874189
O O1 0.110927 0.818922 0.597055
O O2 0.078930 0.530020 0.773597
O O3 0.349890 0.828810 0.553148
O O4 0.599687 0.853758 0.802447
O O5 0.246745 0.853649 0.800114
O O6 0.553684 0.142316 0.599708
O O7 0.000000 0.000000 0.500000
O O8 0.500000 0.500000 0.000000
O O9 0.998154 0.208719 0.954688
O O10 0.045905 0.307453 0.059676
O O11 0.209972 0.548309 0.630853
O O12 0.899319 0.675296 0.358326
O O13 0.398472 0.347019 0.907614
O O14 0.000000 0.000000 0.000000
O O15 0.682125 0.610792 0.722348
O O16 0.000000 0.500000 0.000000
#
# Coordination Sequence:
#
# PCOD8000304 Si02
#       7
#     2   2   2   2   2   2   2
#     4  11  21  43  68  97 129 191 235 277 342 431
#     4  12  25  39  65 102 142 176 227 286 354 411
#     4  10  19  38  70  97 128 176 245 274 335 416
#     4  11  24  41  69  98 140 181 228 280 352 422
#     4  11  21  37  70 101 130 171 250 290 324 399
#     4  11  21  41  66 101 135 180 229 282 345 416
#     4  12  22  43  73 101 136 187 232 289 352 412
#
# _framework density 22.350860000000001
#
# number of rings (size 3 to 8) (size 9 to 14) (size 15 to 20)
#    0.000    0.857    7.143    2.143    0.000    0.000 
#    0.000    0.714    6.286    4.286    0.000    0.000 
#    0.000    0.000    0.000    0.000    0.000    0.000 
#
# Total GULP energy -173447.273996 kJ/mol
# GULP energy per Si atom -12389.091000 kJ/mol
# Density = 2.229999 g / cm^3
# Si number density = 22.350860 Si / 1000 Ang^3
#
#
#
# Elastic Constant Matrix: (Units=GPa)
#
#
# Indices 1 2 3 4 5 6 
#
# 1 124.5194 53.8812 40.9664 -3.3102 -8.2166 -29.5416
# 2 53.8812 111.6169 36.7380 4.5467 -6.3299 -25.7374
# 3 40.9664 36.7380 78.3740 4.1510 -5.8964 -4.0889
# 4 -3.3102 4.5467 4.1510 38.2399 -1.2268 3.4984
# 5 -8.2166 -6.3299 -5.8964 -1.2268 48.0375 -8.0298
# 6 -29.5416 -25.7374 -4.0889 3.4984 -8.0298 39.3031
#
#
#
# Elastic Compliance Matrix: (Units=1/GPa)
#
#
# Indices 1 2 3 4 5 6 
#
# 1 0.012883 -0.002702 -0.004937 0.001341 0.002581 0.007808
# 2 -0.002702 0.013449 -0.004288 -0.001937 0.001886 0.006888
# 3 -0.004937 -0.004288 0.017172 -0.001361 -0.000111 -0.004634
# 4 0.001341 -0.001937 -0.001361 0.026901 0.000027 -0.002791
# 5 0.002581 0.001886 -0.000111 0.000027 0.022801 0.007819
# 6 0.007808 0.006888 -0.004634 -0.002791 0.007819 0.037186
#
#
# Mechanical properties :
#
#
# Convention : Reuss Voigt Hill
#
# Bulk Modulus (GPa) = 50.89078 64.18683 57.53880
# Shear Modulus (GPa) = 31.09543 37.31107 34.20325
#
# Velocity S-wave (km/s) = 3.73398 4.09018 3.91613
# Velocity P-wave (km/s) = 6.43495 7.14747 6.80055
#
# Compressibility (1/GPa) = 0.01964993
#
# Stress axis : x y z
#
# Youngs Moduli (GPa) = 77.62457 74.35539 58.23466
#
# Poissons Ratio (x) = 0.20089 0.28749
# Poissons Ratio (y) = 0.20972 0.24972
# Poissons Ratio (z) = 0.38322 0.31885
#
# Static dielectric constant tensor:
#      x y z
#    x 4.338010 -0.454140 -0.012530 
#    y -0.454140 4.061780 -0.275480 
#    z -0.012530 -0.275480 4.340810 
# 
# 
# High freq. dielectric constant tensor:
#      x y z
#    x 1.874150 -0.025210 -0.000540 
#    y -0.025210 1.854250 -0.027290 
#    z -0.000540 -0.027290 1.890600 
# 
# From -- ./inp_files/502735.got.cif
#   From: 2010.06.25/outbox.cif.g09.slc.cpg/sg2_252_cif.got.tgz:502735.got - 2010.06.27 13:26:56.
