data_PCOD8000561
_publ_section_title
;
Structure prediction by ZEFSAII (Michael W. Deem and Ramdas Pophale) SiO2 
 PCOD8000561
Probable space group: P -1
;
_chemical_formula_sum "Si O2"
_cell_formula_units_Z 12
_cell_length_a 9.156981
_cell_length_b 12.884951
_cell_length_c 7.422309
_cell_angle_alpha 108.203857
_cell_angle_beta 95.219962
_cell_angle_gamma 140.872039
_cell_volume 436.345512
_symmetry_space_group_name_H-M "P -1"
_symmetry_group_IT_number 2
_symmetry_cell_setting 'triclinic'
loop_
_space_group_symop_operation_xyz
x,y,z
-x,-y,-z
loop_
_atom_site_type_symbol
_atom_site_label
_atom_site_fract_x
_atom_site_fract_y
_atom_site_fract_z
Si Si1 0.180697 0.768944 0.368546
Si Si2 0.288436 0.369958 0.237494
Si Si3 0.800471 0.730624 0.291801
Si Si4 0.406242 0.795664 0.716085
Si Si5 0.138437 0.076664 0.259860
Si Si6 0.138648 0.728636 0.957114
O O1 0.168018 0.668872 0.469043
O O2 0.007379 0.766658 0.401864
O O3 0.500000 0.000000 0.500000
O O4 0.052853 0.636309 0.098570
O O5 0.500000 0.500000 0.500000
O O6 0.477076 0.484563 0.136343
O O7 0.074196 0.128911 0.122063
O O8 0.118503 0.374834 0.227139
O O9 0.821414 0.841530 0.497942
O O10 0.900854 0.833686 0.154316
O O11 0.562860 0.782674 0.687076
O O12 0.251551 0.696802 0.838766
O O13 0.619710 0.030123 0.862275
#
# Coordination Sequence:
#
# PCOD8000561 Si02
#       6
#     2   2   2   2   2   2
#     4  10  19  39  64  91 123 171 209 257 322 374
#     4  10  22  40  62  92 130 167 206 266 319 372
#     4  10  20  39  63  92 125 166 209 258 322 376
#     4  10  20  39  65  94 125 168 215 261 315 381
#     4  10  20  38  65  95 121 168 212 261 317 377
#     4  10  21  38  64  93 127 170 214 254 323 383
#
# _framework density 27.501142000000002
#
# number of rings (size 3 to 8) (size 9 to 14) (size 15 to 20)
#    0.000    2.000    3.333    2.000    0.000    1.333 
#    0.000    7.500    0.000    5.000    0.000    0.000 
#    0.000    0.000    0.000    0.000    0.000    0.000 
#
# Total GULP energy -148742.534499 kJ/mol
# GULP energy per Si atom -12395.211208 kJ/mol
# Density = 2.743855 g / cm^3
# Si number density = 27.501142 Si / 1000 Ang^3
#
#
#
# Elastic Constant Matrix: (Units=GPa)
#
#
# Indices 1 2 3 4 5 6 
#
# 1 181.1171 45.6656 47.1138 -23.3775 -2.3056 48.4909
# 2 45.6656 114.7517 54.8553 -17.4051 -5.6317 15.2567
# 3 47.1138 54.8553 99.8756 -32.2302 17.1342 8.7300
# 4 -23.3775 -17.4051 -32.2302 71.2848 -1.1007 -3.3231
# 5 -2.3056 -5.6317 17.1342 -1.1007 32.4772 -8.4458
# 6 48.4909 15.2567 8.7300 -3.3231 -8.4458 45.9332
#
#
#
# Elastic Compliance Matrix: (Units=1/GPa)
#
#
# Indices 1 2 3 4 5 6 
#
# 1 0.008838 -0.001106 -0.002358 0.001157 -0.000497 -0.008523
# 2 -0.001106 0.013267 -0.008003 -0.000674 0.006261 -0.000616
# 3 -0.002358 -0.008003 0.019443 0.005870 -0.011684 -0.000271
# 4 0.001157 -0.000674 0.005870 0.016785 -0.002937 -0.001439
# 5 -0.000497 0.006261 -0.011684 -0.002937 0.039934 0.007796
# 6 -0.008523 -0.000616 -0.000271 -0.001439 0.007796 0.032354
#
#
# Mechanical properties :
#
#
# Convention : Reuss Voigt Hill
#
# Bulk Modulus (GPa) = 53.72059 76.77932 65.24995
# Shear Modulus (GPa) = 31.29707 46.47969 38.88838
#
# Velocity S-wave (km/s) = 3.37713 4.11554 3.76448
# Velocity P-wave (km/s) = 5.89771 7.11075 6.53245
#
# Compressibility (1/GPa) = 0.01861484
#
# Stress axis : x y z
#
# Youngs Moduli (GPa) = 113.14279 75.37424 51.43227
#
# Poissons Ratio (x) = 0.08334 0.12129
# Poissons Ratio (y) = 0.12509 0.41161
# Poissons Ratio (z) = 0.26682 0.60322
#
# Static dielectric constant tensor:
#      x y z
#    x 4.873170 -0.203240 0.020480 
#    y -0.203240 6.647810 -0.509910 
#    z 0.020480 -0.509910 6.088790 
# 
# 
# High freq. dielectric constant tensor:
#      x y z
#    x 2.089390 0.003690 -0.008770 
#    y 0.003690 2.136910 -0.009380 
#    z -0.008770 -0.009380 2.155780 
# 
# From -- ./inp_files/197573.got.cif
#   From: 2010.06.25/outbox.cif.g09.slc.cpg/sg2_99_cif.got.tgz:197573.got - 2010.06.27 13:26:56.
