data_PCOD8000371
_publ_section_title
;
Structure prediction by ZEFSAII (Michael W. Deem and Ramdas Pophale) SiO2 
 PCOD8000371
Probable space group: P -1
;
_chemical_formula_sum "Si O2"
_cell_formula_units_Z 14
_cell_length_a 9.067980
_cell_length_b 22.444043
_cell_length_c 9.619747
_cell_angle_alpha 39.503398
_cell_angle_beta 135.097995
_cell_angle_gamma 143.549232
_cell_volume 719.760121
_symmetry_space_group_name_H-M "P -1"
_symmetry_group_IT_number 2
_symmetry_cell_setting 'triclinic'
loop_
_space_group_symop_operation_xyz
x,y,z
-x,-y,-z
loop_
_atom_site_type_symbol
_atom_site_label
_atom_site_fract_x
_atom_site_fract_y
_atom_site_fract_z
Si Si1 0.647604 0.615965 0.477852
Si Si2 0.832035 0.197117 0.651325
Si Si3 0.910056 0.999771 0.092343
Si Si4 0.147572 0.662639 0.341144
Si Si5 0.446609 0.089602 0.351271
Si Si6 0.536810 0.227198 0.895166
Si Si7 0.597192 0.466631 0.256709
O O1 0.500000 0.500000 0.500000
O O2 0.523690 0.684997 0.249914
O O3 0.629932 0.588812 0.680342
O O4 0.936906 0.698618 0.469810
O O5 0.777939 0.236718 0.685609
O O6 0.583974 0.147714 0.481359
O O7 0.861043 0.097170 0.896908
O O8 0.147367 0.031006 0.291829
O O9 0.661693 0.870003 0.175535
O O10 0.000000 0.000000 0.000000
O O11 0.202820 0.704769 0.141718
O O12 0.317673 0.616076 0.582521
O O13 0.843875 0.572463 0.308617
O O14 0.500000 0.000000 0.500000
O O15 0.563551 0.178647 0.142602
O O16 0.500000 0.500000 0.000000
#
# Coordination Sequence:
#
# PCOD8000371 Si02
#       7
#     2   2   2   2   2   2   2
#     4  11  21  39  64  89 120 162 199 250 304 352
#     4  12  22  38  64  93 121 154 207 255 291 363
#     4  10  19  39  60  86 123 153 196 252 302 345
#     4  10  24  41  58  90 126 157 200 252 305 352
#     4  11  20  37  65  90 117 160 208 242 296 365
#     4  10  21  41  62  86 125 160 196 248 309 358
#     4  10  23  43  61  82 127 167 200 244 302 359
#
# _framework density 19.450925999999999
#
# number of rings (size 3 to 8) (size 9 to 14) (size 15 to 20)
#    0.000    1.429    7.143    0.000    2.000    2.857 
#    0.000    2.143    0.000    0.000    0.000    0.000 
#    0.000    0.000    0.000    0.000    0.000    0.000 
#
# Total GULP energy -173492.123996 kJ/mol
# GULP energy per Si atom -12392.294571 kJ/mol
# Density = 1.940665 g / cm^3
# Si number density = 19.450926 Si / 1000 Ang^3
#
#
#
# Elastic Constant Matrix: (Units=GPa)
#
#
# Indices 1 2 3 4 5 6 
#
# 1 66.8372 26.9137 34.0451 -0.1176 12.8780 -16.3895
# 2 26.9137 104.2807 33.4778 -6.4779 28.5488 -21.5859
# 3 34.0451 33.4778 117.8567 -4.4002 15.3133 -19.0497
# 4 -0.1176 -6.4779 -4.4002 34.0656 1.4926 1.9206
# 5 12.8780 28.5488 15.3133 1.4926 23.2917 -5.4354
# 6 -16.3895 -21.5859 -19.0497 1.9206 -5.4354 37.4277
#
#
#
# Elastic Compliance Matrix: (Units=1/GPa)
#
#
# Indices 1 2 3 4 5 6 
#
# 1 0.019774 -0.001340 -0.003802 -0.000727 -0.005535 0.005185
# 2 -0.001340 0.016488 -0.000942 0.003466 -0.017744 0.005689
# 3 -0.003802 -0.000942 0.010760 0.001186 -0.003255 0.002735
# 4 -0.000727 0.003466 0.001186 0.030469 -0.006635 -0.000243
# 5 -0.005535 -0.017744 -0.003255 -0.006635 0.069400 -0.003896
# 6 0.005185 0.005689 0.002735 -0.000243 -0.003896 0.033108
#
#
# Mechanical properties :
#
#
# Convention : Reuss Voigt Hill
#
# Bulk Modulus (GPa) = 28.68948 53.09421 40.89184
# Shear Modulus (GPa) = 24.53563 31.92621 28.23092
#
# Velocity S-wave (km/s) = 3.55549 4.05578 3.81385
# Velocity P-wave (km/s) = 5.62468 7.02056 6.36102
#
# Compressibility (1/GPa) = 0.03485599
#
# Stress axis : x y z
#
# Youngs Moduli (GPa) = 50.57084 60.64864 92.93733
#
# Poissons Ratio (x) = 0.08124 0.35330
# Poissons Ratio (y) = 0.06774 0.08757
# Poissons Ratio (z) = 0.19225 0.05715
#
# Static dielectric constant tensor:
#      x y z
#    x 4.053290 1.071890 -0.224830 
#    y 1.071890 5.151720 -0.563250 
#    z -0.224830 -0.563250 3.479620 
# 
# 
# High freq. dielectric constant tensor:
#      x y z
#    x 1.756260 0.000580 0.003580 
#    y 0.000580 1.764930 -0.017370 
#    z 0.003580 -0.017370 1.751220 
# 
# From -- ./inp_files/49067.got.cif
#   From: 2010.06.25/outbox.cif.g09.slc.cpg/sg2_25_cif.got.tgz:49067.got - 2010.06.27 13:26:56.
