data_PCOD8000529
_publ_section_title
;
Structure prediction by ZEFSAII (Michael W. Deem and Ramdas Pophale) SiO2 
 PCOD8000529
Probable space group: P -1
;
_chemical_formula_sum "Si O2"
_cell_formula_units_Z 16
_cell_length_a 8.780152
_cell_length_b 11.722907
_cell_length_c 13.172939
_cell_angle_alpha 43.420198
_cell_angle_beta 111.246623
_cell_angle_gamma 86.676542
_cell_volume 751.552742
_symmetry_space_group_name_H-M "P -1"
_symmetry_group_IT_number 2
_symmetry_cell_setting 'triclinic'
loop_
_space_group_symop_operation_xyz
x,y,z
-x,-y,-z
loop_
_atom_site_type_symbol
_atom_site_label
_atom_site_fract_x
_atom_site_fract_y
_atom_site_fract_z
Si Si1 0.931568 0.790821 0.348240
Si Si2 0.666510 0.910521 0.677117
Si Si3 0.678433 0.231936 0.030943
Si Si4 0.208846 0.746057 0.158197
Si Si5 0.947246 0.346554 0.130004
Si Si6 0.695903 0.630370 0.029915
Si Si7 0.976659 0.587534 0.284643
Si Si8 0.816806 0.083721 0.755508
O O1 0.889357 0.722786 0.274437
O O2 0.962508 0.633641 0.541348
O O3 0.129545 0.787963 0.386394
O O4 0.761546 0.001299 0.204642
O O5 0.849197 0.844933 0.691836
O O6 0.500000 0.000000 0.500000
O O7 0.672463 0.044011 0.682607
O O8 0.648432 0.745794 0.838242
O O9 0.825707 0.296450 0.058134
O O10 0.629427 0.312263 0.850684
O O11 0.492473 0.344174 0.981471
O O12 0.282813 0.811223 0.231422
O O13 0.164315 0.581622 0.290014
O O14 0.018201 0.907514 0.953059
O O15 0.840892 0.409961 0.172271
O O16 0.000000 0.500000 0.000000
O O17 0.806801 0.690943 0.095946
#
# Coordination Sequence:
#
# PCOD8000529 Si02
#       8
#     2   2   2   2   2   2   2   2
#     4   9  20  36  67  93 130 167 205 273 321 385
#     4  11  22  41  66  95 127 167 217 266 321 381
#     4  11  21  40  64 100 124 168 219 259 322 378
#     4   9  16  33  70  88 125 168 211 260 315 391
#     4  10  21  43  64  86 126 169 215 262 314 372
#     4  11  24  39  64  94 128 174 215 266 309 388
#     4  10  19  39  63  96 128 170 210 258 338 373
#     4   9  16  35  62  98 121 167 214 257 323 381
#
# _framework density 21.289258
#
# number of rings (size 3 to 8) (size 9 to 14) (size 15 to 20)
#    0.000    2.000    3.750    1.875    0.000    1.500 
#    6.750    1.250    0.000    2.250    0.000    0.000 
#    0.000    0.000    0.000    0.000    0.000    0.000 
#
# Total GULP energy -198209.935823 kJ/mol
# GULP energy per Si atom -12388.120989 kJ/mol
# Density = 2.124080 g / cm^3
# Si number density = 21.289258 Si / 1000 Ang^3
#
#
#
# Elastic Constant Matrix: (Units=GPa)
#
#
# Indices 1 2 3 4 5 6 
#
# 1 146.5575 63.9202 48.7116 -0.7744 0.2206 -27.1849
# 2 63.9202 137.2774 52.1270 9.9582 9.1329 -0.0171
# 3 48.7116 52.1270 74.4391 13.5389 -10.1161 -1.2995
# 4 -0.7744 9.9582 13.5389 34.5108 7.8862 -0.4799
# 5 0.2206 9.1329 -10.1161 7.8862 29.7553 -0.6372
# 6 -27.1849 -0.0171 -1.2995 -0.4799 -0.6372 36.0105
#
#
#
# Elastic Compliance Matrix: (Units=1/GPa)
#
#
# Indices 1 2 3 4 5 6 
#
# 1 0.012153 -0.003324 -0.006595 0.004470 -0.002305 0.008954
# 2 -0.003324 0.011952 -0.007242 0.000731 -0.006361 -0.002868
# 3 -0.006595 -0.007242 0.026903 -0.011983 0.014510 -0.003914
# 4 0.004470 0.000731 -0.011983 0.036815 -0.014021 0.003185
# 5 -0.002305 -0.006361 0.014510 -0.014021 0.044213 -0.000624
# 6 0.008954 -0.002868 -0.003914 0.003185 -0.000624 0.034418
#
#
# Mechanical properties :
#
#
# Convention : Reuss Voigt Hill
#
# Bulk Modulus (GPa) = 59.92758 76.42127 68.17442
# Shear Modulus (GPa) = 24.23215 32.95634 28.59424
#
# Velocity S-wave (km/s) = 3.37743 3.93877 3.66885
# Velocity P-wave (km/s) = 6.58936 7.52727 7.07388
#
# Compressibility (1/GPa) = 0.01668681
#
# Stress axis : x y z
#
# Youngs Moduli (GPa) = 82.28409 83.66751 37.17020
#
# Poissons Ratio (x) = 0.27815 0.24513
# Poissons Ratio (y) = 0.27355 0.26917
# Poissons Ratio (z) = 0.54264 0.60589
#
# Static dielectric constant tensor:
#      x y z
#    x 3.993680 -0.213580 -0.257580 
#    y -0.213580 4.146670 -0.117160 
#    z -0.257580 -0.117160 3.581890 
# 
# 
# High freq. dielectric constant tensor:
#      x y z
#    x 1.828530 -0.003920 -0.021120 
#    y -0.003920 1.852410 0.001630 
#    z -0.021120 0.001630 1.795250 
# 
# From -- ./inp_files/498792.got.cif
#   From: 2010.06.25/outbox.cif.g09.slc.cpg/sg2_250_cif.got.tgz:498792.got - 2010.06.27 13:26:56.
