data_PCOD8000244
_publ_section_title
;
Structure prediction by ZEFSAII (Michael W. Deem and Ramdas Pophale) SiO2 
 PCOD8000244
Probable space group: P 1
;
_chemical_formula_sum "Si O2"
_cell_formula_units_Z 8
_cell_length_a 15.830675
_cell_length_b 9.341023
_cell_length_c 12.265590
_cell_angle_alpha 37.348214
_cell_angle_beta 154.139478
_cell_angle_gamma 152.606891
_cell_volume 363.922995
_symmetry_space_group_name_H-M "P 1"
_symmetry_group_IT_number 1
_symmetry_cell_setting 'triclinic'
loop_
_space_group_symop_operation_xyz
x,y,z
loop_
_atom_site_type_symbol
_atom_site_label
_atom_site_fract_x
_atom_site_fract_y
_atom_site_fract_z
Si Si1 0.521720 0.668710 0.300850
Si Si2 0.984009 0.189719 0.011747
Si Si3 0.770132 0.262120 0.516600
Si Si4 0.609191 0.982067 0.895869
Si Si5 0.761044 0.293785 0.102931
Si Si6 0.398822 0.347519 0.126757
Si Si7 0.072781 0.728007 0.387724
Si Si8 0.798512 0.803186 0.741752
O O1 0.493024 0.475461 0.280661
O O2 0.756164 0.748365 0.595148
O O3 0.276556 0.464098 0.219942
O O4 0.556941 0.972326 0.124963
O O5 0.954443 0.331061 0.786523
O O6 0.950043 0.886754 0.126415
O O7 0.789204 0.117654 0.919632
O O8 0.538160 0.231829 0.309347
O O9 0.943977 0.531319 0.467279
O O10 0.655715 0.930041 0.534918
O O11 0.379322 0.986717 0.604966
O O12 0.462494 0.618483 0.959823
O O13 0.796142 0.192586 0.087539
O O14 0.009605 0.514057 0.337485
O O15 0.668037 0.484029 0.849730
O O16 0.100569 0.053740 0.961768
#
# Coordination Sequence:
#
# PCOD8000244 Si02
#       8
#     1   1   1   1   1   1   1   1
#     4  11  24  47  69 100 144 179 229 290 336 408
#     4  12  26  44  73 105 137 189 228 279 356 405
#     4  12  24  43  74 101 138 183 228 279 346 413
#     4  11  25  46  72 103 138 182 231 286 346 408
#     4  11  24  43  72  98 135 184 229 279 343 403
#     4  11  24  47  71 102 140 182 232 281 347 411
#     4  12  23  50  70  98 145 181 228 292 339 410
#     4  12  24  46  71  99 137 188 225 284 345 400
#
# _framework density 21.982672000000001
#
# number of rings (size 3 to 8) (size 9 to 14) (size 15 to 20)
#    0.000    0.500    6.250    1.500    5.250    1.000 
#    0.000    0.000    0.000    0.000    0.000    0.000 
#    0.000    0.000    0.000    0.000    0.000    0.000 
#
# Total GULP energy -99151.437508 kJ/mol
# GULP energy per Si atom -12393.929688 kJ/mol
# Density = 2.193264 g / cm^3
# Si number density = 21.982672 Si / 1000 Ang^3
#
#
#
# Elastic Constant Matrix: (Units=GPa)
#
#
# Indices 1 2 3 4 5 6 
#
# 1 129.0678 60.4134 65.3130 12.0127 -1.3081 -0.0752
# 2 60.4134 109.4619 40.9064 -5.1401 -5.5095 -2.9976
# 3 65.3130 40.9064 103.6369 -5.5291 -5.6849 -10.6921
# 4 12.0127 -5.1401 -5.5291 36.7910 -5.9959 -11.5353
# 5 -1.3081 -5.5095 -5.6849 -5.9959 42.8844 0.7157
# 6 -0.0752 -2.9976 -10.6921 -11.5353 0.7157 31.5603
#
#
#
# Elastic Compliance Matrix: (Units=1/GPa)
#
#
# Indices 1 2 3 4 5 6 
#
# 1 0.016389 -0.006417 -0.009283 -0.010457 -0.002892 -0.007472
# 2 -0.006417 0.013297 -0.000515 0.005129 0.002113 0.002900
# 3 -0.009283 -0.000515 0.017263 0.008851 0.003027 0.008944
# 4 -0.010457 0.005129 0.008851 0.039273 0.006709 0.017663
# 5 -0.002892 0.002113 0.003027 0.006709 0.024789 0.003110
# 6 -0.007472 0.002900 0.008944 0.017663 0.003110 0.041358
#
#
# Mechanical properties :
#
#
# Convention : Reuss Voigt Hill
#
# Bulk Modulus (GPa) = 68.87944 75.04802 71.96373
# Shear Modulus (GPa) = 26.36590 33.94940 30.15765
#
# Velocity S-wave (km/s) = 3.46698 3.93411 3.70791
# Velocity P-wave (km/s) = 6.88681 7.40608 7.15116
#
# Compressibility (1/GPa) = 0.01451812
#
# Stress axis : x y z
#
# Youngs Moduli (GPa) = 61.01827 75.20734 57.92583
#
# Poissons Ratio (x) = 0.48263 0.53770
# Poissons Ratio (y) = 0.39157 0.02985
# Poissons Ratio (z) = 0.56641 0.03876
#
# Static dielectric constant tensor:
#      x y z
#    x 4.027750 -0.133500 -0.252650 
#    y -0.133500 4.205830 -0.215880 
#    z -0.252650 -0.215880 4.089470 
# 
# 
# High freq. dielectric constant tensor:
#      x y z
#    x 1.858190 -0.004390 -0.029460 
#    y -0.004390 1.877750 -0.017400 
#    z -0.029460 -0.017400 1.865980 
# 
# From -- ./inp_files/4406.got.cif
#   From: 2010.03.12/outbox.cif.g09.slc.cpg/sg1_3_cif.got.tgz:4406.got - 2010.03.29 11:57:58.
