data_PCOD8000511
_publ_section_title
;
Structure prediction by ZEFSAII (Michael W. Deem and Ramdas Pophale) SiO2 
 PCOD8000511
Probable space group: P -1
;
_chemical_formula_sum "Si O2"
_cell_formula_units_Z 16
_cell_length_a 9.549207
_cell_length_b 11.912227
_cell_length_c 14.479273
_cell_angle_alpha 33.477266
_cell_angle_beta 94.825563
_cell_angle_gamma 79.364290
_cell_volume 802.214003
_symmetry_space_group_name_H-M "P -1"
_symmetry_group_IT_number 2
_symmetry_cell_setting 'triclinic'
loop_
_space_group_symop_operation_xyz
x,y,z
-x,-y,-z
loop_
_atom_site_type_symbol
_atom_site_label
_atom_site_fract_x
_atom_site_fract_y
_atom_site_fract_z
Si Si1 0.659987 0.026051 0.646560
Si Si2 0.187275 0.903068 0.578963
Si Si3 0.293747 0.201640 0.490181
Si Si4 0.903457 0.473195 0.594566
Si Si5 0.670723 0.286402 0.641993
Si Si6 0.086087 0.110875 0.988158
Si Si7 0.177959 0.504764 0.937658
Si Si8 0.906352 0.428355 0.912463
O O1 0.747410 0.043656 0.547784
O O2 0.480655 0.091946 0.571035
O O3 0.675064 0.203650 0.595272
O O4 0.729452 0.770805 0.867140
O O5 0.237979 0.014212 0.589374
O O6 0.258300 0.628286 0.794541
O O7 0.000000 0.000000 0.500000
O O8 0.227683 0.291975 0.527562
O O9 0.236883 0.413783 0.270568
O O10 0.812327 0.346197 0.630221
O O11 0.000000 0.500000 0.500000
O O12 0.041577 0.342358 0.769430
O O13 0.500000 0.500000 0.500000
O O14 0.724131 0.063554 0.867553
O O15 0.010912 0.182254 0.038170
O O16 0.000000 0.000000 0.000000
O O17 0.159637 0.610450 0.967272
O O18 0.005556 0.568939 0.841172
#
# Coordination Sequence:
#
# PCOD8000511 Si02
#       8
#     2   2   2   2   2   2   2   2
#     4  12  25  44  66  94 141 172 205 280 332 385
#     4  12  25  40  68  98 125 176 224 261 325 391
#     4  11  23  43  63  92 137 171 212 270 335 385
#     4  10  23  41  67  97 126 166 221 277 315 384
#     4  11  22  43  67  91 125 176 217 258 341 387
#     4   9  20  36  63  90 122 168 214 253 318 394
#     4  11  22  39  66  94 126 173 220 263 322 388
#     4  10  19  39  63  90 129 169 210 271 321 381
#
# _framework density 19.944801999999999
#
# number of rings (size 3 to 8) (size 9 to 14) (size 15 to 20)
#    0.000    1.250    5.000    1.125    1.750    1.500 
#    0.000    1.875    0.000    0.000    0.000    0.000 
#    0.000    0.000    0.000    0.000    0.000    0.000 
#
# Total GULP energy -198219.513729 kJ/mol
# GULP energy per Si atom -12388.719608 kJ/mol
# Density = 1.989941 g / cm^3
# Si number density = 19.944802 Si / 1000 Ang^3
#
#
#
# Elastic Constant Matrix: (Units=GPa)
#
#
# Indices 1 2 3 4 5 6 
#
# 1 120.1858 43.0294 56.2231 2.5943 11.3351 -2.9428
# 2 43.0294 140.7355 30.7025 -9.8655 -0.2778 0.9815
# 3 56.2231 30.7025 108.0695 -9.3471 7.1261 -10.0037
# 4 2.5943 -9.8655 -9.3471 25.2784 2.2461 1.8060
# 5 11.3351 -0.2778 7.1261 2.2461 35.7711 -1.1568
# 6 -2.9428 0.9815 -10.0037 1.8060 -1.1568 31.8118
#
#
#
# Elastic Compliance Matrix: (Units=1/GPa)
#
#
# Indices 1 2 3 4 5 6 
#
# 1 0.012408 -0.002808 -0.005906 -0.004295 -0.002522 -0.000471
# 2 -0.002808 0.008370 -0.000778 0.003255 0.000876 -0.000916
# 3 -0.005906 -0.000778 0.013365 0.005094 -0.001008 0.003354
# 4 -0.004295 0.003255 0.005094 0.043472 -0.002405 -0.001451
# 5 -0.002522 0.000876 -0.001008 -0.002405 0.029134 0.000619
# 6 -0.000471 -0.000916 0.003354 -0.001451 0.000619 0.032579
#
#
# Mechanical properties :
#
#
# Convention : Reuss Voigt Hill
#
# Bulk Modulus (GPa) = 65.97150 69.87787 67.92469
# Shear Modulus (GPa) = 30.60649 34.50798 32.55723
#
# Velocity S-wave (km/s) = 3.92160 4.16405 4.04464
# Velocity P-wave (km/s) = 7.32489 7.63091 7.47947
#
# Compressibility (1/GPa) = 0.01515806
#
# Stress axis : x y z
#
# Youngs Moduli (GPa) = 80.59461 119.47330 74.82427
#
# Poissons Ratio (x) = 0.33548 0.44192
# Poissons Ratio (y) = 0.22631 0.05822
# Poissons Ratio (z) = 0.47600 0.09296
#
# Static dielectric constant tensor:
#      x y z
#    x 3.441130 0.153380 0.248730 
#    y 0.153380 3.977210 -0.021220 
#    z 0.248730 -0.021220 4.417110 
# 
# 
# High freq. dielectric constant tensor:
#      x y z
#    x 1.748240 0.013040 0.023130 
#    y 0.013040 1.800730 -0.003430 
#    z 0.023130 -0.003430 1.783850 
# 
# From -- ./inp_files/218533.got.cif
#   From: 2010.06.25/outbox.cif.g09.slc.cpg/sg2_110_cif.got.tgz:218533.got - 2010.06.27 13:26:56.
