data_PCOD8000062
_publ_section_title
;
Structure prediction by ZEFSAII (Michael W. Deem and Ramdas Pophale) SiO2 
 PCOD8000062
Probable space group: P 1
;
_chemical_formula_sum "Si O2"
_cell_formula_units_Z 8
_cell_length_a 6.458070
_cell_length_b 12.241970
_cell_length_c 15.895624
_cell_angle_alpha 24.719572
_cell_angle_beta 126.925888
_cell_angle_gamma 133.428538
_cell_volume 380.490875
_symmetry_space_group_name_H-M "P 1"
_symmetry_group_IT_number 1
_symmetry_cell_setting 'triclinic'
loop_
_space_group_symop_operation_xyz
x,y,z
loop_
_atom_site_type_symbol
_atom_site_label
_atom_site_fract_x
_atom_site_fract_y
_atom_site_fract_z
Si Si1 0.470720 0.717760 0.112330
Si Si2 0.937604 0.585123 0.611919
Si Si3 0.832330 0.172997 0.018472
Si Si4 0.883893 0.427505 0.422924
Si Si5 0.817972 0.079352 0.810081
Si Si6 0.369277 0.100845 0.266541
Si Si7 0.511565 0.867284 0.307624
Si Si8 0.899932 0.540292 0.172213
O O1 0.609963 0.495128 0.302315
O O2 0.132155 0.546291 0.157640
O O3 0.612086 0.928794 0.076394
O O4 0.515803 0.890611 0.914032
O O5 0.967659 0.362409 0.706933
O O6 0.658713 0.646570 0.484472
O O7 0.224599 0.875573 0.464781
O O8 0.918524 0.478022 0.778621
O O9 0.659871 0.134717 0.091058
O O10 0.126763 0.144492 0.123776
O O11 0.795038 0.160505 0.651500
O O12 0.926735 0.351077 0.390486
O O13 0.171573 0.695953 0.333951
O O14 0.980600 0.869043 0.994158
O O15 0.553393 0.996471 0.321451
O O16 0.586796 0.399180 0.152911
#
# Coordination Sequence:
#
# PCOD8000062 Si02
#       8
#     1   1   1   1   1   1   1   1
#     4  10  21  38  62  98 122 166 212 262 306 375
#     4  10  23  39  69  98 123 161 221 261 305 381
#     4  10  21  39  66  92 126 164 214 257 310 374
#     4  11  21  39  65  93 126 168 211 258 309 375
#     4  10  23  39  65  96 125 163 217 261 305 376
#     4  11  24  44  61  95 134 166 204 266 321 370
#     4  11  21  37  68  97 124 165 212 261 311 372
#     4  11  26  41  64  93 136 165 205 264 325 365
#
# _framework density 21.025471
#
# number of rings (size 3 to 8) (size 9 to 14) (size 15 to 20)
#    0.000    1.500    3.750    0.750    3.500    6.000 
#    0.000    0.000    0.000    0.000    0.000    0.000 
#    0.000    0.000    0.000    0.000    0.000    0.000 
#
# Total GULP energy -99127.769980 kJ/mol
# GULP energy per Si atom -12390.971247 kJ/mol
# Density = 2.097762 g / cm^3
# Si number density = 21.025471 Si / 1000 Ang^3
#
#
#
# Elastic Constant Matrix: (Units=GPa)
#
#
# Indices 1 2 3 4 5 6 
#
# 1 100.7220 32.1532 54.7986 0.8348 -28.3513 11.8062
# 2 32.1532 67.4037 34.8255 -1.0729 -4.8985 10.8438
# 3 54.7986 34.8255 146.3395 22.1118 -36.9122 6.7204
# 4 0.8348 -1.0729 22.1118 21.7746 -11.6586 -6.9427
# 5 -28.3513 -4.8985 -36.9122 -11.6586 40.3196 1.0853
# 6 11.8062 10.8438 6.7204 -6.9427 1.0853 27.1871
#
#
#
# Elastic Compliance Matrix: (Units=1/GPa)
#
#
# Indices 1 2 3 4 5 6 
#
# 1 0.016384 -0.004733 -0.003425 0.006964 0.009904 -0.002997
# 2 -0.004733 0.019541 -0.003941 0.001696 -0.003960 -0.004173
# 3 -0.003425 -0.003941 0.012076 -0.010415 0.005231 -0.002794
# 4 0.006964 0.001696 -0.010415 0.069604 0.015262 0.016039
# 5 0.009904 -0.003960 0.005231 0.015262 0.040534 -0.001735
# 6 -0.002997 -0.004173 -0.002794 0.016039 -0.001735 0.044604
#
#
# Mechanical properties :
#
#
# Convention : Reuss Voigt Hill
#
# Bulk Modulus (GPa) = 42.01447 62.00221 52.00834
# Shear Modulus (GPa) = 21.28776 30.70211 25.99493
#
# Velocity S-wave (km/s) = 3.18539 3.82545 3.52000
# Velocity P-wave (km/s) = 5.79267 7.00465 6.42729
#
# Compressibility (1/GPa) = 0.02380133
#
# Stress axis : x y z
#
# Youngs Moduli (GPa) = 61.03368 51.17512 82.81152
#
# Poissons Ratio (x) = 0.24222 0.28366
# Poissons Ratio (y) = 0.28888 0.32638
# Poissons Ratio (z) = 0.20906 0.20169
#
# Static dielectric constant tensor:
#      x y z
#    x 3.992160 -0.138160 -0.376030 
#    y -0.138160 3.403740 0.156270 
#    z -0.376030 0.156270 4.076660 
# 
# 
# High freq. dielectric constant tensor:
#      x y z
#    x 1.835670 -0.001400 -0.025300 
#    y -0.001400 1.787650 0.012350 
#    z -0.025300 0.012350 1.824310 
# 
# From -- ./inp_files/1614.got.cif
#   From: 2010.03.12/outbox.cif.g09.slc.cpg/sg1_1_cif.got.tgz:1614.got - 2010.03.29 11:57:58.
