data_PCOD8000990
_publ_section_title
;
Structure prediction by ZEFSAII (Michael W. Deem and Ramdas Pophale) SiO2 
 PCOD8000990
Probable space group: P -1
;
_chemical_formula_sum "Si O2"
_cell_formula_units_Z 16
_cell_length_a 9.150161
_cell_length_b 21.374072
_cell_length_c 13.746173
_cell_angle_alpha 156.706689
_cell_angle_beta 127.378165
_cell_angle_gamma 45.785581
_cell_volume 756.645280
_symmetry_space_group_name_H-M "P -1"
_symmetry_group_IT_number 2
_symmetry_cell_setting 'triclinic'
loop_
_space_group_symop_operation_xyz
x,y,z
-x,-y,-z
loop_
_atom_site_type_symbol
_atom_site_label
_atom_site_fract_x
_atom_site_fract_y
_atom_site_fract_z
Si Si1 0.536598 0.049421 0.873027
Si Si2 0.238684 0.569695 0.889006
Si Si3 0.695752 0.505044 0.968263
Si Si4 0.124328 0.144199 0.947867
Si Si5 0.827082 0.196621 0.224759
Si Si6 0.875396 0.724040 0.655043
Si Si7 0.095873 0.812116 0.539547
Si Si8 0.352906 0.111672 0.515742
O O1 0.309265 0.140041 0.952312
O O2 0.689992 0.906552 0.806122
O O3 0.532705 0.955232 0.636094
O O4 0.613336 0.202491 0.107558
O O5 0.467238 0.529274 0.894106
O O6 0.178169 0.434520 0.615690
O O7 0.220818 0.555347 0.976355
O O8 0.082429 0.766458 0.072632
O O9 0.847069 0.356817 0.745614
O O10 0.707147 0.683979 0.202485
O O11 0.170342 0.945794 0.711213
O O12 0.098959 0.264184 0.203021
O O13 0.797102 0.253431 0.406545
O O14 0.905986 0.317408 0.367595
O O15 0.000000 0.000000 0.000000
O O16 0.851653 0.915463 0.603898
O O17 0.500000 0.000000 0.500000
#
# Coordination Sequence:
#
# PCOD8000990 Si02
#       8
#     2   2   2   2   2   2   2   2
#     4  11  22  41  68  98 128 167 217 267 328 383
#     4  11  25  44  62  96 136 171 216 272 320 376
#     4  11  26  44  67  91 133 177 214 263 326 387
#     4  12  25  38  70 102 126 169 223 271 317 385
#     4  10  19  40  68  93 123 169 213 264 324 384
#     4  11  20  44  69  89 135 172 214 267 331 378
#     4  12  23  42  70  96 126 172 222 261 322 393
#     4  12  25  45  69  96 131 170 216 271 322 388
#
# _framework density 21.145972
#
# number of rings (size 3 to 8) (size 9 to 14) (size 15 to 20)
#    0.000    0.750    6.250    2.625    5.250    0.500 
#    0.000    0.625    0.000    0.000    0.000    0.000 
#    0.000    0.000    0.000    0.000    0.000    0.000 
#
# Total GULP energy -198475.410253 kJ/mol
# GULP energy per Si atom -12404.713141 kJ/mol
# Density = 2.109784 g / cm^3
# Si number density = 21.145972 Si / 1000 Ang^3
#
#
#
# Elastic Constant Matrix: (Units=GPa)
#
#
# Indices 1 2 3 4 5 6 
#
# 1 112.7161 42.0802 38.2401 -5.9562 0.7917 1.7734
# 2 42.0802 97.8927 36.9336 -12.0602 -17.3301 0.8492
# 3 38.2401 36.9336 93.8555 -26.1258 -1.7692 -0.5281
# 4 -5.9562 -12.0602 -26.1258 19.1840 -1.1927 -4.7398
# 5 0.7917 -17.3301 -1.7692 -1.1927 34.5303 -10.6680
# 6 1.7734 0.8492 -0.5281 -4.7398 -10.6680 12.4038
#
#
#
# Elastic Compliance Matrix: (Units=1/GPa)
#
#
# Indices 1 2 3 4 5 6 
#
# 1 0.012996 -0.005985 -0.006762 -0.012882 -0.008376 -0.013862
# 2 -0.005985 0.016927 0.000104 0.014200 0.014589 0.017675
# 3 -0.006762 0.000104 0.024339 0.038162 0.010751 0.025825
# 4 -0.012882 0.014200 0.038162 0.133690 0.041603 0.089362
# 5 -0.008376 0.014589 0.010751 0.041603 0.059345 0.067594
# 6 -0.013862 0.017675 0.025825 0.089362 0.067594 0.174775
#
#
# Mechanical properties :
#
#
# Convention : Reuss Voigt Hill
#
# Bulk Modulus (GPa) = 34.50824 59.88578 47.19701
# Shear Modulus (GPa) = 10.94051 25.70431 18.32241
#
# Velocity S-wave (km/s) = 2.27707 3.49028 2.94678
# Velocity P-wave (km/s) = 4.82368 6.68015 5.82633
#
# Compressibility (1/GPa) = 0.02897859
#
# Stress axis : x y z
#
# Youngs Moduli (GPa) = 76.94410 59.07576 41.08576
#
# Poissons Ratio (x) = 0.35358 0.27781
# Poissons Ratio (y) = 0.46052 -0.00429
# Poissons Ratio (z) = 0.52027 -0.00617
#
# Static dielectric constant tensor:
#      x y z
#    x 4.188490 0.095400 0.225680 
#    y 0.095400 3.839790 -0.210830 
#    z 0.225680 -0.210830 3.870700 
# 
# 
# High freq. dielectric constant tensor:
#      x y z
#    x 1.841930 0.004260 0.008280 
#    y 0.004260 1.819360 -0.020210 
#    z 0.008280 -0.020210 1.830120 
# 
# From -- ./inp_files/181351.got.cif
#   From: 2010.06.25/outbox.cif.g09.slc.cpg/sg2_91_cif.got.tgz:181351.got - 2010.06.27 13:26:56.
