data_PCOD8000470
_publ_section_title
;
Structure prediction by ZEFSAII (Michael W. Deem and Ramdas Pophale) SiO2 
 PCOD8000470
Probable space group: P -1
;
_chemical_formula_sum "Si O2"
_cell_formula_units_Z 14
_cell_length_a 9.505617
_cell_length_b 15.395054
_cell_length_c 24.627863
_cell_angle_alpha 161.972165
_cell_angle_beta 34.937913
_cell_angle_gamma 143.495642
_cell_volume 632.735864
_symmetry_space_group_name_H-M "P -1"
_symmetry_group_IT_number 2
_symmetry_cell_setting 'triclinic'
loop_
_space_group_symop_operation_xyz
x,y,z
-x,-y,-z
loop_
_atom_site_type_symbol
_atom_site_label
_atom_site_fract_x
_atom_site_fract_y
_atom_site_fract_z
Si Si1 0.817008 0.684089 0.138168
Si Si2 0.426828 0.321986 0.613550
Si Si3 0.843244 0.151445 0.967910
Si Si4 0.904935 0.176368 0.085752
Si Si5 0.398287 0.307368 0.308849
Si Si6 0.272276 0.664439 0.289433
Si Si7 0.117529 0.728012 0.492206
O O1 0.534884 0.536391 0.131457
O O2 0.912504 0.812209 0.126012
O O3 0.798771 0.934723 0.335956
O O4 0.000000 0.500000 0.000000
O O5 0.497937 0.385204 0.565784
O O6 0.687544 0.401011 0.608681
O O7 0.302996 0.996177 0.462316
O O8 0.243667 0.537474 0.820184
O O9 0.649297 0.911796 0.857451
O O10 0.899938 0.044227 0.947378
O O11 0.625653 0.211682 0.214061
O O12 0.085552 0.473880 0.195296
O O13 0.000000 0.000000 0.000000
O O14 0.164336 0.338752 0.438235
O O15 0.133278 0.600790 0.352522
#
# Coordination Sequence:
#
# PCOD8000470 Si02
#       7
#     2   2   2   2   2   2   2
#     4  10  20  38  67  97 123 165 216 260 312 378
#     4  10  19  39  62  95 122 159 211 267 308 368
#     4  10  22  41  70  93 124 171 218 257 310 380
#     4  11  26  42  61  94 132 170 208 263 323 374
#     4  10  23  41  68  92 121 172 217 255 312 378
#     4  11  24  38  62  93 134 162 205 264 328 368
#     4  10  21  36  63  97 123 162 209 261 315 372
#
# _framework density 22.126135999999999
#
# number of rings (size 3 to 8) (size 9 to 14) (size 15 to 20)
#    0.000    1.714    0.000    5.571    8.000    3.429 
#    0.000    0.000    0.000    0.000    0.000    0.000 
#    0.000    0.000    0.000    0.000    0.000    0.000 
#
# Total GULP energy -173485.075757 kJ/mol
# GULP energy per Si atom -12391.791125 kJ/mol
# Density = 2.207578 g / cm^3
# Si number density = 22.126136 Si / 1000 Ang^3
#
#
#
# Elastic Constant Matrix: (Units=GPa)
#
#
# Indices 1 2 3 4 5 6 
#
# 1 128.0608 56.7362 40.4052 -3.5844 -13.3183 0.7379
# 2 56.7362 111.8221 27.1828 -2.2373 -0.5693 12.0668
# 3 40.4052 27.1828 61.2306 2.9628 -13.8789 4.6575
# 4 -3.5844 -2.2373 2.9628 30.9315 0.1998 -1.8997
# 5 -13.3183 -0.5693 -13.8789 0.1998 21.5825 9.1499
# 6 0.7379 12.0668 4.6575 -1.8997 9.1499 37.8789
#
#
#
# Elastic Compliance Matrix: (Units=1/GPa)
#
#
# Indices 1 2 3 4 5 6 
#
# 1 0.012003 -0.004928 -0.005117 0.001577 0.003459 0.001209
# 2 -0.004928 0.012416 -0.002858 0.000460 -0.003429 -0.002657
# 3 -0.005117 -0.002858 0.025127 -0.003676 0.015507 -0.006010
# 4 0.001577 0.000460 -0.003676 0.033076 -0.002791 0.002608
# 5 0.003459 -0.003429 0.015507 -0.002791 0.065519 -0.016848
# 6 0.001209 -0.002657 -0.006010 0.002608 -0.016848 0.032162
#
#
# Mechanical properties :
#
#
# Convention : Reuss Voigt Hill
#
# Bulk Modulus (GPa) = 42.12102 61.08467 51.60284
# Shear Modulus (GPa) = 23.36201 29.86454 26.61327
#
# Velocity S-wave (km/s) = 3.25292 3.67787 3.47190
# Velocity P-wave (km/s) = 5.76079 6.76040 6.28052
#
# Compressibility (1/GPa) = 0.02374111
#
# Stress axis : x y z
#
# Youngs Moduli (GPa) = 83.30907 80.54108 39.79755
#
# Poissons Ratio (x) = 0.39687 0.20366
# Poissons Ratio (y) = 0.41051 0.11373
# Poissons Ratio (z) = 0.42633 0.23017
#
# Static dielectric constant tensor:
#      x y z
#    x 3.937600 0.098420 -0.097810 
#    y 0.098420 4.125320 -0.091180 
#    z -0.097810 -0.091180 3.959360 
# 
# 
# High freq. dielectric constant tensor:
#      x y z
#    x 1.860470 0.003820 -0.012740 
#    y 0.003820 1.884930 -0.003290 
#    z -0.012740 -0.003290 1.863830 
# 
# From -- ./inp_files/461171.got.cif
#   From: 2010.06.25/outbox.cif.g09.slc.cpg/sg2_231_cif.got.tgz:461171.got - 2010.06.27 13:26:56.
