data_PCOD8000083
_publ_section_title
;
Structure prediction by ZEFSAII (Michael W. Deem and Ramdas Pophale) SiO2 
 PCOD8000083
Probable space group: P 1
;
_chemical_formula_sum "Si O2"
_cell_formula_units_Z 8
_cell_length_a 10.276950
_cell_length_b 14.607838
_cell_length_c 14.570913
_cell_angle_alpha 160.685979
_cell_angle_beta 27.254370
_cell_angle_gamma 154.937576
_cell_volume 297.248031
_symmetry_space_group_name_H-M "P 1"
_symmetry_group_IT_number 1
_symmetry_cell_setting 'triclinic'
loop_
_space_group_symop_operation_xyz
x,y,z
loop_
_atom_site_type_symbol
_atom_site_label
_atom_site_fract_x
_atom_site_fract_y
_atom_site_fract_z
Si Si1 0.487350 0.233940 0.572890
Si Si2 0.287705 0.217992 0.241607
Si Si3 0.854678 0.124969 0.088180
Si Si4 0.512995 0.305057 0.925022
Si Si5 0.975227 0.619394 0.769022
Si Si6 0.934951 0.721817 0.514282
Si Si7 0.814690 0.904517 0.404858
Si Si8 0.870201 0.087285 0.747319
O O1 0.566389 0.068656 0.281911
O O2 0.799303 0.524188 0.690719
O O3 0.312974 0.959380 0.497770
O O4 0.216386 0.333350 0.801392
O O5 0.113491 0.097138 0.333527
O O6 0.272574 0.533864 0.517778
O O7 0.105590 0.981800 0.048537
O O8 0.641649 0.251858 0.056803
O O9 0.160684 0.255858 0.084964
O O10 0.887615 0.373198 0.222403
O O11 0.795999 0.806427 0.773895
O O12 0.682410 0.540395 0.125532
O O13 0.704317 0.429459 0.830349
O O14 0.520843 0.985444 0.644904
O O15 0.753594 0.773711 0.587598
O O16 0.927272 0.992582 0.520761
#
# Coordination Sequence:
#
# PCOD8000083 Si02
#       8
#     1   1   1   1   1   1   1   1
#     4  10  26  46  73 105 138 187 237 286 345 423
#     4  10  24  42  70  94 140 176 225 287 345 400
#     4  12  24  46  72 102 140 186 229 294 351 399
#     4  10  21  41  69  96 139 173 225 290 335 406
#     4  10  22  44  67 102 131 179 231 285 339 405
#     4  10  27  45  69  99 144 179 238 282 346 412
#     4  10  23  41  64 101 131 179 228 274 345 416
#     4  10  25  47  68 103 139 187 225 290 340 429
#
# _framework density 26.913550000000001
#
# number of rings (size 3 to 8) (size 9 to 14) (size 15 to 20)
#    0.750    1.000    1.250    0.750    8.750    4.000 
#    4.500    0.000    0.000    0.000    0.000    0.000 
#    0.000    0.000    0.000    0.000    0.000    0.000 
#
# Total GULP energy -99202.730539 kJ/mol
# GULP energy per Si atom -12400.341317 kJ/mol
# Density = 2.685229 g / cm^3
# Si number density = 26.913550 Si / 1000 Ang^3
#
#
#
# Elastic Constant Matrix: (Units=GPa)
#
#
# Indices 1 2 3 4 5 6 
#
# 1 128.5858 9.6634 49.0982 -20.3998 -1.4117 7.3969
# 2 9.6634 19.9112 31.6976 3.2967 -10.1682 -1.2206
# 3 49.0982 31.6976 122.7866 -15.3698 -6.1874 -1.9719
# 4 -20.3998 3.2967 -15.3698 50.6203 2.8796 -1.0989
# 5 -1.4117 -10.1682 -6.1874 2.8796 44.7367 -10.6716
# 6 7.3969 -1.2206 -1.9719 -1.0989 -10.6716 14.1513
#
#
#
# Elastic Compliance Matrix: (Units=1/GPa)
#
#
# Indices 1 2 3 4 5 6 
#
# 1 0.010137 -0.001655 -0.003487 0.003114 -0.002555 -0.007612
# 2 -0.001655 0.121489 -0.031043 -0.019160 0.031484 0.029272
# 3 -0.003487 -0.031043 0.018036 0.006365 -0.005569 -0.002047
# 4 0.003114 -0.019160 0.006365 0.024430 -0.006179 -0.005156
# 5 -0.002555 0.031484 -0.005569 -0.006179 0.036242 0.030125
# 6 -0.007612 0.029272 -0.002047 -0.005156 0.030125 0.099201
#
#
# Mechanical properties :
#
#
# Convention : Reuss Voigt Hill
#
# Bulk Modulus (GPa) = 12.93802 50.24468 31.59135
# Shear Modulus (GPa) = 12.26492 33.95663 23.11077
#
# Velocity S-wave (km/s) = 2.13707 3.55588 2.93354
# Velocity P-wave (km/s) = 3.30259 5.96394 4.82056
#
# Compressibility (1/GPa) = 0.07729158
#
# Stress axis : x y z
#
# Youngs Moduli (GPa) = 98.65144 8.23120 55.44609
#
# Poissons Ratio (x) = 0.01362 0.19336
# Poissons Ratio (y) = 0.16326 1.72119
# Poissons Ratio (z) = 0.34402 0.25552
#
# Static dielectric constant tensor:
#      x y z
#    x 4.793180 -0.187640 0.123610 
#    y -0.187640 4.604600 -0.133390 
#    z 0.123610 -0.133390 4.963550 
# 
# 
# High freq. dielectric constant tensor:
#      x y z
#    x 2.090590 -0.013350 0.012660 
#    y -0.013350 2.067990 -0.014420 
#    z 0.012660 -0.014420 2.089760 
# 
# From -- ./inp_files/7451.got.cif
#   From: 2010.03.12/outbox.cif.g09.slc.cpg/sg1_4_cif.got.tgz:7451.got - 2010.03.29 11:57:58.
