data_PCOD8000058
_publ_section_title
;
Structure prediction by ZEFSAII (Michael W. Deem and Ramdas Pophale) SiO2 
 PCOD8000058
Probable space group: P 1
;
_chemical_formula_sum "Si O2"
_cell_formula_units_Z 8
_cell_length_a 11.602751
_cell_length_b 8.784767
_cell_length_c 7.732470
_cell_angle_alpha 90.716107
_cell_angle_beta 109.247175
_cell_angle_gamma 40.788501
_cell_volume 448.746056
_symmetry_space_group_name_H-M "P 1"
_symmetry_group_IT_number 1
_symmetry_cell_setting 'triclinic'
loop_
_space_group_symop_operation_xyz
x,y,z
loop_
_atom_site_type_symbol
_atom_site_label
_atom_site_fract_x
_atom_site_fract_y
_atom_site_fract_z
Si Si1 0.497340 0.916070 0.958500
Si Si2 0.130985 0.277141 0.995301
Si Si3 0.140756 0.098721 0.666278
Si Si4 0.890988 0.019039 0.166743
Si Si5 0.925017 0.340178 0.209895
Si Si6 0.131633 0.752676 0.623125
Si Si7 0.552194 0.189184 0.837718
Si Si8 0.955350 0.780744 0.874520
O O1 0.374584 0.045992 0.082426
O O2 0.376781 0.917854 0.772863
O O3 0.485280 0.091464 0.866893
O O4 0.725598 0.639928 0.098414
O O5 0.033853 0.282940 0.783133
O O6 0.034894 0.537866 0.966125
O O7 0.089149 0.225598 0.147518
O O8 0.023527 0.273572 0.442724
O O9 0.129383 0.929798 0.678618
O O10 0.867274 0.223049 0.154402
O O11 0.667230 0.165479 0.049888
O O12 0.997313 0.855091 0.390296
O O13 0.020429 0.834441 0.060158
O O14 0.358141 0.476615 0.685502
O O15 0.043696 0.740283 0.734607
O O16 0.708668 0.020262 0.750594
#
# Coordination Sequence:
#
# PCOD8000058 Si02
#       8
#     1   1   1   1   1   1   1   1
#     4  10  21  37  58  86 113 150 188 229 283 333
#     4  10  21  37  58  86 113 150 188 229 283 333
#     4   9  23  37  60  87 110 153 185 234 282 331
#     4   9  23  37  60  87 110 153 185 234 282 331
#     4  11  19  43  58  81 122 141 191 238 274 335
#     4  11  19  43  58  81 122 141 191 238 274 335
#     4  10  21  37  58  86 113 150 188 229 283 333
#     4  10  21  37  58  86 113 150 188 229 283 333
#
# _framework density 17.827456000000002
#
# number of rings (size 3 to 8) (size 9 to 14) (size 15 to 20)
#    1.500    0.500    2.500    1.500    0.000    4.000 
#    4.500    5.000    0.000    0.000    0.000    0.000 
#    0.000    0.000    0.000    0.000    0.000    0.000 
#
# Total GULP energy -99141.418376 kJ/mol
# GULP energy per Si atom -12392.677297 kJ/mol
# Density = 1.778688 g / cm^3
# Si number density = 17.827456 Si / 1000 Ang^3
#
#
#
# Elastic Constant Matrix: (Units=GPa)
#
#
# Indices 1 2 3 4 5 6 
#
# 1 69.3361 2.5048 20.3300 0.4461 0.2463 -3.8038
# 2 2.5048 71.3799 16.7272 -0.2968 -1.4813 -2.9774
# 3 20.3300 16.7272 65.4548 -7.2358 -8.1164 6.9125
# 4 0.4461 -0.2968 -7.2358 21.4238 -7.2947 -1.1546
# 5 0.2463 -1.4813 -8.1164 -7.2947 20.9967 -2.6010
# 6 -3.8038 -2.9774 6.9125 -1.1546 -2.6010 29.9054
#
#
#
# Elastic Compliance Matrix: (Units=1/GPa)
#
#
# Indices 1 2 3 4 5 6 
#
# 1 0.016525 0.001007 -0.006562 -0.003558 -0.003490 0.003278
# 2 0.001007 0.015172 -0.004773 -0.001635 -0.001034 0.002589
# 3 -0.006562 -0.004773 0.021673 0.010982 0.011325 -0.004910
# 4 -0.003558 -0.001635 0.010982 0.058955 0.024812 0.001280
# 5 -0.003490 -0.001034 0.011325 0.024812 0.060976 0.003097
# 6 0.003278 0.002589 -0.004910 0.001280 0.003097 0.035567
#
#
# Mechanical properties :
#
#
# Convention : Reuss Voigt Hill
#
# Bulk Modulus (GPa) = 30.56692 31.69943 31.13318
# Shear Modulus (GPa) = 20.79616 25.57242 23.18429
#
# Velocity S-wave (km/s) = 3.41915 3.79151 3.61013
# Velocity P-wave (km/s) = 5.72456 6.08171 5.90584
#
# Compressibility (1/GPa) = 0.03271510
#
# Stress axis : x y z
#
# Youngs Moduli (GPa) = 60.51284 65.90940 46.14141
#
# Poissons Ratio (x) = -0.06640 0.30280
# Poissons Ratio (y) = -0.06097 0.22022
# Poissons Ratio (z) = 0.39711 0.31456
#
# Static dielectric constant tensor:
#      x y z
#    x 3.294930 0.055730 0.040820 
#    y 0.055730 3.284580 0.027060 
#    z 0.040820 0.027060 3.138870 
# 
# 
# High freq. dielectric constant tensor:
#      x y z
#    x 1.698530 0.011230 -0.000510 
#    y 0.011230 1.694990 -0.001470 
#    z -0.000510 -0.001470 1.673310 
# 
# From -- ./inp_files/4638.got.cif
#   From: 2010.03.12/outbox.cif.g09.slc.cpg/sg1_3_cif.got.tgz:4638.got - 2010.03.29 11:57:58.
