data_PCOD8000039
_publ_section_title
;
Structure prediction by ZEFSAII (Michael W. Deem and Ramdas Pophale) SiO2 
 PCOD8000039
Probable space group: P 1
;
_chemical_formula_sum "Si O2"
_cell_formula_units_Z 8
_cell_length_a 14.334117
_cell_length_b 11.182653
_cell_length_c 8.327330
_cell_angle_alpha 41.516148
_cell_angle_beta 145.428955
_cell_angle_gamma 151.501298
_cell_volume 359.831538
_symmetry_space_group_name_H-M "P 1"
_symmetry_group_IT_number 1
_symmetry_cell_setting 'triclinic'
loop_
_space_group_symop_operation_xyz
x,y,z
loop_
_atom_site_type_symbol
_atom_site_label
_atom_site_fract_x
_atom_site_fract_y
_atom_site_fract_z
Si Si1 0.302740 0.455820 0.582930
Si Si2 0.664750 0.020825 0.626975
Si Si3 0.919868 0.720638 0.088928
Si Si4 0.392723 0.168285 0.452179
Si Si5 0.520772 0.574149 0.460758
Si Si6 0.049982 0.426773 0.523002
Si Si7 0.553326 0.327287 0.192125
Si Si8 0.517645 0.867554 0.905787
O O1 0.524194 0.740111 0.660603
O O2 0.309647 0.472942 0.380893
O O3 0.072630 0.348063 0.457213
O O4 0.343868 0.278758 0.867168
O O5 0.713978 0.041052 0.870385
O O6 0.513580 0.087851 0.325615
O O7 0.885640 0.197475 0.646408
O O8 0.797868 0.583516 0.221575
O O9 0.975462 0.573048 0.230193
O O10 0.754417 0.707321 0.752406
O O11 0.147980 0.001640 0.181193
O O12 0.420131 0.320588 0.486925
O O13 0.572801 0.365488 0.372776
O O14 0.443898 0.001817 0.746303
O O15 0.597856 0.795275 0.231893
O O16 0.298511 0.608121 0.772841
#
# Coordination Sequence:
#
# PCOD8000039 Si02
#       8
#     1   1   1   1   1   1   1   1
#     4  10  21  35  57  90 122 153 198 247 293 354
#     4   9  18  37  63  84 117 159 196 248 298 344
#     4   9  21  41  64  88 117 161 204 242 300 358
#     4  10  20  41  63  84 125 161 192 252 301 343
#     4  11  23  39  61  94 125 154 201 248 296 363
#     4   9  18  39  65  86 116 161 204 240 296 360
#     4   9  19  37  62  89 115 157 206 243 293 357
#     4   9  20  37  61  91 119 154 199 248 301 351
#
# _framework density 22.232624999999999
#
# number of rings (size 3 to 8) (size 9 to 14) (size 15 to 20)
#    0.000    2.500    0.000    2.250    0.000    7.000 
#    0.000   13.750    0.000    4.500    0.000    0.000 
#    0.000    0.000    0.000    0.000    0.000    0.000 
#
# Total GULP energy -99124.769339 kJ/mol
# GULP energy per Si atom -12390.596167 kJ/mol
# Density = 2.218202 g / cm^3
# Si number density = 22.232625 Si / 1000 Ang^3
#
#
#
# Elastic Constant Matrix: (Units=GPa)
#
#
# Indices 1 2 3 4 5 6 
#
# 1 197.0017 56.5354 56.3412 -9.7685 -1.5082 13.9922
# 2 56.5354 73.8128 45.2727 -9.8175 -6.5859 5.6415
# 3 56.3412 45.2727 110.4345 -17.8083 -7.1021 5.9634
# 4 -9.7685 -9.8175 -17.8083 25.5669 6.7483 -3.4780
# 5 -1.5082 -6.5859 -7.1021 6.7483 29.5932 -2.1933
# 6 13.9922 5.6415 5.9634 -3.4780 -2.1933 39.2589
#
#
#
# Elastic Compliance Matrix: (Units=1/GPa)
#
#
# Indices 1 2 3 4 5 6 
#
# 1 0.006890 -0.004154 -0.001820 -0.000167 -0.001095 -0.001658
# 2 -0.004154 0.020874 -0.006009 0.001506 0.002624 -0.000326
# 3 -0.001820 -0.006009 0.013484 0.006297 0.000373 0.000043
# 4 -0.000167 0.001506 0.006297 0.046631 -0.008608 0.002537
# 5 -0.001095 0.002624 0.000373 -0.008608 0.036463 0.001231
# 6 -0.001658 -0.000326 0.000043 0.002537 0.001231 0.026397
#
#
# Mechanical properties :
#
#
# Convention : Reuss Voigt Hill
#
# Bulk Modulus (GPa) = 57.86175 77.50529 67.68352
# Shear Modulus (GPa) = 27.70608 33.75710 30.73159
#
# Velocity S-wave (km/s) = 3.53397 3.90084 3.72193
# Velocity P-wave (km/s) = 6.53713 7.43138 6.99855
#
# Compressibility (1/GPa) = 0.01728258
#
# Stress axis : x y z
#
# Youngs Moduli (GPa) = 145.14188 47.90543 74.16166
#
# Poissons Ratio (x) = 0.19900 0.13496
# Poissons Ratio (y) = 0.60293 0.44563
# Poissons Ratio (z) = 0.26414 0.28786
#
# Static dielectric constant tensor:
#      x y z
#    x 4.660550 0.230800 0.100810 
#    y 0.230800 3.816790 -0.368940 
#    z 0.100810 -0.368940 3.886130 
# 
# 
# High freq. dielectric constant tensor:
#      x y z
#    x 1.896910 0.011370 0.011890 
#    y 0.011370 1.858530 -0.037420 
#    z 0.011890 -0.037420 1.853990 
# 
# From -- ./inp_files/4066.got.cif
#   From: 2010.03.12/outbox.cif.g09.slc.cpg/sg1_3_cif.got.tgz:4066.got - 2010.03.29 11:57:58.
