data_PCOD8000980
_publ_section_title
;
Structure prediction by ZEFSAII (Michael W. Deem and Ramdas Pophale) SiO2 
 PCOD8000980
Probable space group: P -1
;
_chemical_formula_sum "Si O2"
_cell_formula_units_Z 14
_cell_length_a 11.305842
_cell_length_b 10.992176
_cell_length_c 13.717726
_cell_angle_alpha 138.945416
_cell_angle_beta 145.596810
_cell_angle_gamma 52.384058
_cell_volume 632.303014
_symmetry_space_group_name_H-M "P -1"
_symmetry_group_IT_number 2
_symmetry_cell_setting 'triclinic'
loop_
_space_group_symop_operation_xyz
x,y,z
-x,-y,-z
loop_
_atom_site_type_symbol
_atom_site_label
_atom_site_fract_x
_atom_site_fract_y
_atom_site_fract_z
Si Si1 0.044155 0.711797 0.635098
Si Si2 0.247790 0.336888 0.092745
Si Si3 0.720532 0.336503 0.425579
Si Si4 0.841748 0.256292 0.672788
Si Si5 0.358838 0.069447 0.533967
Si Si6 0.145860 0.256153 0.189170
Si Si7 0.260774 0.851691 0.051334
O O1 0.125722 0.739253 0.597545
O O2 0.000000 0.500000 0.500000
O O3 0.827612 0.813354 0.566069
O O4 0.221776 0.794949 0.878725
O O5 0.483920 0.274881 0.198713
O O6 0.248299 0.558000 0.231238
O O7 0.152584 0.247460 0.072297
O O8 0.095832 0.260687 0.857132
O O9 0.782489 0.236822 0.507449
O O10 0.733542 0.559627 0.578468
O O11 0.737941 0.092842 0.564491
O O12 0.507784 0.198184 0.784039
O O13 0.500000 0.000000 0.500000
O O14 0.248952 0.074087 0.193248
O O15 0.904625 0.259203 0.059553
#
# Coordination Sequence:
#
# PCOD8000980 Si02
#       7
#     2   2   2   2   2   2   2
#     4  12  28  46  63 101 142 174 222 278 337 403
#     4  10  20  37  67  97 133 172 221 271 336 386
#     4  11  23  42  66  94 140 176 214 277 338 388
#     4  10  22  40  65 103 129 171 230 273 316 407
#     4  12  26  44  73 101 132 177 229 277 331 400
#     4  10  19  40  68 101 130 174 226 274 322 406
#     4  11  22  41  70  95 137 178 223 273 335 388
#
# _framework density 22.141283999999999
#
# number of rings (size 3 to 8) (size 9 to 14) (size 15 to 20)
#    0.000    1.143    1.429    6.857    2.000    2.286 
#    0.000    5.000    0.000    0.000    0.000    0.000 
#    0.000    0.000    0.000    0.000    0.000    0.000 
#
# Total GULP energy -173631.631157 kJ/mol
# GULP energy per Si atom -12402.259368 kJ/mol
# Density = 2.209089 g / cm^3
# Si number density = 22.141284 Si / 1000 Ang^3
#
#
#
# Elastic Constant Matrix: (Units=GPa)
#
#
# Indices 1 2 3 4 5 6 
#
# 1 117.1718 60.9159 46.6762 -3.9133 2.2834 -0.8354
# 2 60.9159 70.2837 48.0514 -11.4320 6.6556 13.6874
# 3 46.6762 48.0514 143.5200 -34.2081 -0.5863 -1.6132
# 4 -3.9133 -11.4320 -34.2081 39.6840 4.1032 9.2856
# 5 2.2834 6.6556 -0.5863 4.1032 30.7343 5.1113
# 6 -0.8354 13.6874 -1.6132 9.2856 5.1113 26.8176
#
#
#
# Elastic Compliance Matrix: (Units=1/GPa)
#
#
# Indices 1 2 3 4 5 6 
#
# 1 0.019079 -0.019577 -0.001462 -0.008245 0.001729 0.013024
# 2 -0.019577 0.042223 -0.005131 0.012373 -0.005153 -0.025771
# 3 -0.001462 -0.005131 0.011007 0.007715 0.000316 0.000504
# 4 -0.008245 0.012373 0.007715 0.039464 -0.004028 -0.019004
# 5 0.001729 -0.005153 0.000316 -0.004028 0.034480 -0.002474
# 6 0.013024 -0.025771 0.000504 -0.019004 -0.002474 0.057930
#
#
# Mechanical properties :
#
#
# Convention : Reuss Voigt Hill
#
# Bulk Modulus (GPa) = 50.08054 71.36252 60.72153
# Shear Modulus (GPa) = 18.99847 31.13597 25.06722
#
# Velocity S-wave (km/s) = 2.93244 3.75406 3.36839
# Velocity P-wave (km/s) = 5.84237 7.14780 6.52780
#
# Compressibility (1/GPa) = 0.01996784
#
# Stress axis : x y z
#
# Youngs Moduli (GPa) = 52.41484 23.68368 90.85135
#
# Poissons Ratio (x) = 0.46366 0.13282
# Poissons Ratio (y) = 1.02614 0.46619
# Poissons Ratio (z) = 0.07663 0.12153
#
# Static dielectric constant tensor:
#      x y z
#    x 4.027970 0.083570 0.086770 
#    y 0.083570 4.057600 -0.170770 
#    z 0.086770 -0.170770 4.309940 
# 
# 
# High freq. dielectric constant tensor:
#      x y z
#    x 1.867030 0.022300 0.009880 
#    y 0.022300 1.859260 -0.008840 
#    z 0.009880 -0.008840 1.886390 
# 
# From -- ./inp_files/519277.got.cif
#   From: 2010.06.25/outbox.cif.g09.slc.cpg/sg2_260_cif.got.tgz:519277.got - 2010.06.27 13:26:56.
