data_PCOD8000735
_publ_section_title
;
Structure prediction by ZEFSAII (Michael W. Deem and Ramdas Pophale) SiO2 
 PCOD8000735
Probable space group: P -1
;
_chemical_formula_sum "Si O2"
_cell_formula_units_Z 16
_cell_length_a 19.171048
_cell_length_b 11.133665
_cell_length_c 9.592865
_cell_angle_alpha 103.380212
_cell_angle_beta 38.710935
_cell_angle_gamma 131.249806
_cell_volume 768.711912
_symmetry_space_group_name_H-M "P -1"
_symmetry_group_IT_number 2
_symmetry_cell_setting 'triclinic'
loop_
_space_group_symop_operation_xyz
x,y,z
-x,-y,-z
loop_
_atom_site_type_symbol
_atom_site_label
_atom_site_fract_x
_atom_site_fract_y
_atom_site_fract_z
Si Si1 0.623910 0.169245 0.245756
Si Si2 0.893068 0.282495 0.464115
Si Si3 0.251760 0.468245 0.852030
Si Si4 0.036871 0.665722 0.323955
Si Si5 0.531918 0.920174 0.822134
Si Si6 0.120591 0.205261 0.449542
Si Si7 0.432537 0.561946 0.867817
Si Si8 0.830702 0.802688 0.303811
O O1 0.614374 0.305511 0.336676
O O2 0.533121 0.072564 0.213281
O O3 0.500000 0.000000 0.500000
O O4 0.814996 0.265669 0.990019
O O5 0.865387 0.221419 0.651519
O O6 0.882641 0.424228 0.511643
O O7 0.748537 0.088078 0.537696
O O8 0.083209 0.393413 0.156467
O O9 0.335645 0.454828 0.839863
O O10 0.210941 0.365061 0.744070
O O11 0.962562 0.730153 0.400396
O O12 0.423268 0.698605 0.959839
O O13 0.500000 0.000000 0.000000
O O14 0.124806 0.166169 0.593379
O O15 0.320412 0.386971 0.113278
O O16 0.000000 0.000000 0.500000
O O17 0.643584 0.714831 0.562594
O O18 0.000000 0.000000 0.000000
#
# Coordination Sequence:
#
# PCOD8000735 Si02
#       8
#     2   2   2   2   2   2   2   2
#     4  10  23  38  59  97 133 165 210 271 335 390
#     4  10  19  39  69  95 123 167 218 268 332 387
#     4  10  22  42  66  90 126 173 213 274 328 393
#     4  10  21  40  65  91 130 170 213 269 333 386
#     4  11  21  35  66  97 123 167 218 271 326 392
#     4  12  27  44  68  98 133 177 227 274 327 397
#     4  11  24  44  67  95 131 173 229 273 326 399
#     4  12  27  45  66  95 132 179 222 271 338 395
#
# _framework density 20.814039000000001
#
# number of rings (size 3 to 8) (size 9 to 14) (size 15 to 20)
#    0.000    1.250    2.500    3.000    1.750    6.000 
#    0.000    2.500    0.000    0.000    0.000    0.000 
#    0.000    0.000    0.000    0.000    0.000    0.000 
#
# Total GULP energy -198219.651285 kJ/mol
# GULP energy per Si atom -12388.728205 kJ/mol
# Density = 2.076666 g / cm^3
# Si number density = 20.814039 Si / 1000 Ang^3
#
#
#
# Elastic Constant Matrix: (Units=GPa)
#
#
# Indices 1 2 3 4 5 6 
#
# 1 98.8419 48.5048 47.5496 -2.7867 4.9475 -0.7123
# 2 48.5048 117.6658 34.1892 5.5850 13.8424 20.6713
# 3 47.5496 34.1892 107.7060 -5.0418 11.8146 -6.5824
# 4 -2.7867 5.5850 -5.0418 34.3806 -2.8898 -2.5658
# 5 4.9475 13.8424 11.8146 -2.8898 38.9699 -1.5919
# 6 -0.7123 20.6713 -6.5824 -2.5658 -1.5919 28.0625
#
#
#
# Elastic Compliance Matrix: (Units=1/GPa)
#
#
# Indices 1 2 3 4 5 6 
#
# 1 0.015304 -0.005939 -0.004748 0.001963 0.001913 0.003937
# 2 -0.005939 0.014520 -0.002443 -0.004477 -0.004489 -0.012083
# 3 -0.004748 -0.002443 0.012768 0.002066 -0.002053 0.004746
# 4 0.001963 -0.004477 0.002066 0.031065 0.003299 0.006860
# 5 0.001913 -0.004489 -0.002053 0.003299 0.028074 0.004767
# 6 0.003937 -0.012083 0.004746 0.006860 0.004767 0.046646
#
#
# Mechanical properties :
#
#
# Convention : Reuss Voigt Hill
#
# Bulk Modulus (GPa) = 61.23003 64.96676 63.09839
# Shear Modulus (GPa) = 27.76516 33.21393 30.48955
#
# Velocity S-wave (km/s) = 3.65631 3.99901 3.83149
# Velocity P-wave (km/s) = 6.87796 7.25283 7.06788
#
# Compressibility (1/GPa) = 0.01633186
#
# Stress axis : x y z
#
# Youngs Moduli (GPa) = 65.34324 68.87078 78.31887
#
# Poissons Ratio (x) = 0.40901 0.37189
# Poissons Ratio (y) = 0.38806 0.19133
# Poissons Ratio (z) = 0.31027 0.16825
#
# Static dielectric constant tensor:
#      x y z
#    x 4.102610 0.958930 -0.367560 
#    y 0.958930 6.856840 -0.973960 
#    z -0.367560 -0.973960 4.098650 
# 
# 
# High freq. dielectric constant tensor:
#      x y z
#    x 1.805760 0.002070 -0.011740 
#    y 0.002070 1.827110 -0.001890 
#    z -0.011740 -0.001890 1.821960 
# 
# From -- ./inp_files/333340.got.cif
#   From: 2010.06.25/outbox.cif.g09.slc.cpg/sg2_167_cif.got.tgz:333340.got - 2010.06.27 13:26:56.
