data_PCOD8000185
_publ_section_title
;
Structure prediction by ZEFSAII (Michael W. Deem and Ramdas Pophale) SiO2 
 PCOD8000185
Probable space group: P 1
;
_chemical_formula_sum "Si O2"
_cell_formula_units_Z 6
_cell_length_a 5.288819
_cell_length_b 8.320389
_cell_length_c 8.665844
_cell_angle_alpha 127.760782
_cell_angle_beta 100.736261
_cell_angle_gamma 57.616715
_cell_volume 248.794519
_symmetry_space_group_name_H-M "P 1"
_symmetry_group_IT_number 1
_symmetry_cell_setting 'triclinic'
loop_
_space_group_symop_operation_xyz
x,y,z
loop_
_atom_site_type_symbol
_atom_site_label
_atom_site_fract_x
_atom_site_fract_y
_atom_site_fract_z
Si Si1 0.794720 0.579860 0.346090
Si Si2 0.796116 0.398641 0.551708
Si Si3 0.249321 0.056459 0.994412
Si Si4 0.384236 0.331438 0.657217
Si Si5 0.367824 0.938323 0.274531
Si Si6 0.722552 0.999620 0.767033
O O1 0.658537 0.508627 0.432383
O O2 0.546927 0.686583 0.241651
O O3 0.107317 0.338919 0.183316
O O4 0.866859 0.775043 0.532074
O O5 0.521726 0.480885 0.689997
O O6 0.012020 0.492667 0.696051
O O7 0.012385 0.104112 0.388970
O O8 0.387824 0.891711 0.066694
O O9 0.524573 0.963543 0.850815
O O10 0.990350 0.018811 0.878635
O O11 0.491133 0.250484 0.797406
O O12 0.516471 0.093811 0.423585
#
# Coordination Sequence:
#
# PCOD8000185 Si02
#       6
#     1   1   1   1   1   1
#     4  10  23  47  71  94 133 187 207 274 344 378
#     4   9  19  38  67  93 125 172 218 261 324 388
#     4  11  25  45  66 103 135 165 228 279 315 398
#     4   9  19  40  66  88 136 171 205 278 322 375
#     4   8  21  41  65  96 131 171 218 272 322 393
#     4  11  25  45  69  98 136 172 224 272 325 398
#
# _framework density 24.116288999999998
#
# number of rings (size 3 to 8) (size 9 to 14) (size 15 to 20)
#    1.000    1.333    0.000    1.000    4.667    2.667 
#   15.000    0.000    0.000    0.000    0.000    0.000 
#    0.000    0.000    0.000    0.000    0.000    0.000 
#
# Total GULP energy -74338.132601 kJ/mol
# GULP energy per Si atom -12389.688767 kJ/mol
# Density = 2.406140 g / cm^3
# Si number density = 24.116289 Si / 1000 Ang^3
#
#
#
# Elastic Constant Matrix: (Units=GPa)
#
#
# Indices 1 2 3 4 5 6 
#
# 1 165.4011 41.3313 41.6298 -24.8874 3.7235 11.3258
# 2 41.3313 173.7620 40.3030 -43.0153 -0.1262 -21.0264
# 3 41.6298 40.3030 103.6389 -12.8383 5.0430 -13.1271
# 4 -24.8874 -43.0153 -12.8383 46.0761 -8.7213 -2.4437
# 5 3.7235 -0.1262 5.0430 -8.7213 24.1690 -3.3860
# 6 11.3258 -21.0264 -13.1271 -2.4437 -3.3860 18.3754
#
#
#
# Elastic Compliance Matrix: (Units=1/GPa)
#
#
# Indices 1 2 3 4 5 6 
#
# 1 0.008405 -0.002364 -0.003689 0.000367 -0.001922 -0.010827
# 2 -0.002364 0.011237 -0.000201 0.011372 0.006945 0.016964
# 3 -0.003689 -0.000201 0.012924 0.002083 0.000247 0.011600
# 4 0.000367 0.011372 0.002083 0.037333 0.016152 0.022216
# 5 -0.001922 0.006945 0.000247 0.016152 0.050391 0.020742
# 6 -0.010827 0.016964 0.011600 0.022216 0.020742 0.095568
#
#
# Mechanical properties :
#
#
# Convention : Reuss Voigt Hill
#
# Bulk Modulus (GPa) = 49.85620 76.59224 63.22422
# Shear Modulus (GPa) = 21.27196 39.02662 30.14929
#
# Velocity S-wave (km/s) = 2.97317 4.02713 3.53960
# Velocity P-wave (km/s) = 5.70127 7.31110 6.55579
#
# Compressibility (1/GPa) = 0.02005769
#
# Stress axis : x y z
#
# Youngs Moduli (GPa) = 118.97647 88.99383 77.37546
#
# Poissons Ratio (x) = 0.21041 0.28545
# Poissons Ratio (y) = 0.28129 0.01553
# Poissons Ratio (z) = 0.43892 0.01786
#
# Static dielectric constant tensor:
#      x y z
#    x 3.846480 -0.096990 0.035420 
#    y -0.096990 4.575070 -0.147950 
#    z 0.035420 -0.147950 4.161460 
# 
# 
# High freq. dielectric constant tensor:
#      x y z
#    x 1.926670 -0.006460 0.004070 
#    y -0.006460 1.975080 -0.011060 
#    z 0.004070 -0.011060 1.941790 
# 
# From -- ./inp_files/1251.got.cif
#   From: 2010.03.12/outbox.cif.g09.slc.cpg/sg1_1_cif.got.tgz:1251.got - 2010.03.29 11:57:58.
