data_PCOD8000624
_publ_section_title
;
Structure prediction by ZEFSAII (Michael W. Deem and Ramdas Pophale) SiO2 
 PCOD8000624
Probable space group: P -1
;
_chemical_formula_sum "Si O2"
_cell_formula_units_Z 14
_cell_length_a 15.526504
_cell_length_b 15.211296
_cell_length_c 10.305214
_cell_angle_alpha 39.035790
_cell_angle_beta 143.274785
_cell_angle_gamma 152.799145
_cell_volume 646.856977
_symmetry_space_group_name_H-M "P -1"
_symmetry_group_IT_number 2
_symmetry_cell_setting 'triclinic'
loop_
_space_group_symop_operation_xyz
x,y,z
-x,-y,-z
loop_
_atom_site_type_symbol
_atom_site_label
_atom_site_fract_x
_atom_site_fract_y
_atom_site_fract_z
Si Si1 0.971441 0.124927 0.892987
Si Si2 0.750507 0.572811 0.318842
Si Si3 0.952167 0.361699 0.215822
Si Si4 0.759599 0.984055 0.265871
Si Si5 0.137667 0.236554 0.246662
Si Si6 0.560941 0.741823 0.894624
Si Si7 0.645189 0.338115 0.997949
O O1 0.060565 0.300185 0.700568
O O2 0.731506 0.978770 0.803467
O O3 0.109243 0.224745 0.072319
O O4 0.000000 0.000000 0.000000
O O5 0.562111 0.361155 0.269889
O O6 0.832275 0.550669 0.571075
O O7 0.675168 0.676191 0.149135
O O8 0.808168 0.137528 0.251408
O O9 0.835321 0.363103 0.187617
O O10 0.000000 0.500000 0.000000
O O11 0.757511 0.835958 0.507131
O O12 0.537071 0.851590 0.089063
O O13 0.920575 0.099972 0.210765
O O14 0.287666 0.465754 0.204435
O O15 0.414560 0.691309 0.890134
#
# Coordination Sequence:
#
# PCOD8000624 Si02
#       7
#     2   2   2   2   2   2   2
#     4  10  19  39  65  99 133 164 218 283 336 380
#     4  10  23  43  67  95 136 171 224 276 337 392
#     4  12  27  48  65  97 146 184 212 278 350 405
#     4  11  24  43  66  98 137 182 229 273 332 400
#     4  11  22  40  71 101 133 176 230 287 321 390
#     4  10  21  41  71 103 123 171 231 282 322 395
#     4  12  24  43  68 100 138 176 226 275 338 399
#
# _framework density 21.643115999999999
#
# number of rings (size 3 to 8) (size 9 to 14) (size 15 to 20)
#    0.000    1.143    4.286    2.571    2.000    1.714 
#    5.143    0.714    0.000    0.000    0.000    0.000 
#    0.000    0.000    0.000    0.000    0.000    0.000 
#
# Total GULP energy -173618.393599 kJ/mol
# GULP energy per Si atom -12401.313829 kJ/mol
# Density = 2.159386 g / cm^3
# Si number density = 21.643116 Si / 1000 Ang^3
#
#
#
# Elastic Constant Matrix: (Units=GPa)
#
#
# Indices 1 2 3 4 5 6 
#
# 1 104.5279 10.8625 25.4410 3.3541 6.0128 -6.3683
# 2 10.8625 93.6742 29.2008 15.2448 6.4545 -6.6190
# 3 25.4410 29.2008 90.5051 15.9044 -6.7159 -4.6087
# 4 3.3541 15.2448 15.9044 30.4076 -1.5443 -2.0974
# 5 6.0128 6.4545 -6.7159 -1.5443 24.9225 0.7809
# 6 -6.3683 -6.6190 -4.6087 -2.0974 0.7809 31.9852
#
#
#
# Elastic Compliance Matrix: (Units=1/GPa)
#
#
# Indices 1 2 3 4 5 6 
#
# 1 0.010649 0.000078 -0.003265 0.000439 -0.003498 0.001780
# 2 0.000078 0.013042 -0.003646 -0.004743 -0.004735 0.001994
# 3 -0.003265 -0.003646 0.014440 -0.005081 0.005302 0.000214
# 4 0.000439 -0.004743 -0.005081 0.038036 0.002085 0.000817
# 5 -0.003498 -0.004735 0.005302 0.002085 0.043810 -0.001845
# 6 0.001780 0.001994 0.000214 0.000817 -0.001845 0.032161
#
#
# Mechanical properties :
#
#
# Convention : Reuss Voigt Hill
#
# Bulk Modulus (GPa) = 40.87347 46.63509 43.75428
# Shear Modulus (GPa) = 28.74249 32.34325 30.54287
#
# Velocity S-wave (km/s) = 3.64815 3.86993 3.76068
# Velocity P-wave (km/s) = 6.05571 6.44690 6.25436
#
# Compressibility (1/GPa) = 0.02446575
#
# Stress axis : x y z
#
# Youngs Moduli (GPa) = 93.90689 76.67586 69.25044
#
# Poissons Ratio (x) = -0.00600 0.22608
# Poissons Ratio (y) = -0.00734 0.25250
# Poissons Ratio (z) = 0.30657 0.27958
#
# Static dielectric constant tensor:
#      x y z
#    x 4.039120 0.232640 -0.122990 
#    y 0.232640 4.302000 -0.029960 
#    z -0.122990 -0.029960 3.545140 
# 
# 
# High freq. dielectric constant tensor:
#      x y z
#    x 1.853870 0.001940 -0.012680 
#    y 0.001940 1.867540 0.002840 
#    z -0.012680 0.002840 1.823010 
# 
# From -- ./inp_files/184719.got.cif
#   From: 2010.06.25/outbox.cif.g09.slc.cpg/sg2_93_cif.got.tgz:184719.got - 2010.06.27 13:26:56.
