data_PCOD8000978
_publ_section_title
;
Structure prediction by ZEFSAII (Michael W. Deem and Ramdas Pophale) SiO2 
 PCOD8000978
Probable space group: P -1
;
_chemical_formula_sum "Si O2"
_cell_formula_units_Z 14
_cell_length_a 12.442665
_cell_length_b 9.216351
_cell_length_c 15.976988
_cell_angle_alpha 127.185393
_cell_angle_beta 154.302646
_cell_angle_gamma 57.801090
_cell_volume 632.569793
_symmetry_space_group_name_H-M "P -1"
_symmetry_group_IT_number 2
_symmetry_cell_setting 'triclinic'
loop_
_space_group_symop_operation_xyz
x,y,z
-x,-y,-z
loop_
_atom_site_type_symbol
_atom_site_label
_atom_site_fract_x
_atom_site_fract_y
_atom_site_fract_z
Si Si1 0.884811 0.204913 0.145712
Si Si2 0.723396 0.026279 0.601970
Si Si3 0.426307 0.260279 0.742953
Si Si4 0.248226 0.622741 0.720022
Si Si5 0.223978 0.553618 0.237502
Si Si6 0.981482 0.202830 0.527106
Si Si7 0.224003 0.503430 0.408174
O O1 0.731432 0.267107 0.140856
O O2 0.012106 0.011518 0.181736
O O3 0.111833 0.343057 0.331167
O O4 0.693655 0.186260 0.928445
O O5 0.696536 0.878170 0.457784
O O6 0.500000 0.000000 0.500000
O O7 0.739579 0.229322 0.648769
O O8 0.462170 0.471365 0.808691
O O9 0.248875 0.268143 0.702200
O O10 0.236704 0.765527 0.684394
O O11 0.000000 0.500000 0.500000
O O12 0.170780 0.464148 0.259456
O O13 0.482453 0.477674 0.358600
O O14 0.000000 0.500000 0.000000
O O15 0.912894 0.313715 0.600144
O O16 0.000000 0.000000 0.500000
#
# Coordination Sequence:
#
# PCOD8000978 Si02
#       7
#     2   2   2   2   2   2   2
#     4  12  23  42  73 106 133 181 227 280 345 408
#     4  12  25  44  69  99 137 181 233 286 330 399
#     4  11  24  42  69 102 141 172 232 280 334 417
#     4  10  19  40  67  98 139 172 216 280 337 400
#     4  11  28  48  67  96 138 182 231 283 341 409
#     4  11  22  41  70  97 137 181 217 286 350 396
#     4  11  24  44  69  97 137 180 225 281 348 401
#
# _framework density 22.131945000000002
#
# number of rings (size 3 to 8) (size 9 to 14) (size 15 to 20)
#    0.000    0.857    7.143    1.286    2.000    4.000 
#    0.000    0.714    0.000    0.000    0.000    0.000 
#    0.000    0.000    0.000    0.000    0.000    0.000 
#
# Total GULP energy -173572.819110 kJ/mol
# GULP energy per Si atom -12398.058508 kJ/mol
# Density = 2.208157 g / cm^3
# Si number density = 22.131945 Si / 1000 Ang^3
#
#
#
# Elastic Constant Matrix: (Units=GPa)
#
#
# Indices 1 2 3 4 5 6 
#
# 1 93.1342 29.1484 31.0948 -4.2201 -3.7753 -8.8295
# 2 29.1484 126.9405 20.1002 -18.7058 -1.8679 -2.2882
# 3 31.0948 20.1002 107.4552 -30.8492 -3.1447 -4.4661
# 4 -4.2201 -18.7058 -30.8492 34.9225 0.3797 0.1875
# 5 -3.7753 -1.8679 -3.1447 0.3797 22.0497 -9.8174
# 6 -8.8295 -2.2882 -4.4661 0.1875 -9.8174 37.5192
#
#
#
# Elastic Compliance Matrix: (Units=1/GPa)
#
#
# Indices 1 2 3 4 5 6 
#
# 1 0.013261 -0.002821 -0.004121 -0.003599 0.002952 0.003248
# 2 -0.002821 0.009189 0.000564 0.005076 0.000295 0.000016
# 3 -0.004121 0.000564 0.013964 0.012116 0.001609 0.001087
# 4 -0.003599 0.005076 0.012116 0.041602 0.001285 0.001033
# 5 0.002952 0.000295 0.001609 0.001285 0.052620 0.014667
# 6 0.003248 0.000016 0.001087 0.001033 0.014667 0.031380
#
#
# Mechanical properties :
#
#
# Convention : Reuss Voigt Hill
#
# Bulk Modulus (GPa) = 42.27063 54.24627 48.25845
# Shear Modulus (GPa) = 27.37364 35.37738 31.37551
#
# Velocity S-wave (km/s) = 3.52069 4.00243 3.76926
# Velocity P-wave (km/s) = 5.97225 6.77664 6.38712
#
# Compressibility (1/GPa) = 0.02365709
#
# Stress axis : x y z
#
# Youngs Moduli (GPa) = 75.41170 108.82951 71.61291
#
# Poissons Ratio (x) = 0.30697 0.29514
# Poissons Ratio (y) = 0.21271 -0.04038
# Poissons Ratio (z) = 0.31080 -0.06137
#
# Static dielectric constant tensor:
#      x y z
#    x 4.527230 0.142340 -0.421030 
#    y 0.142340 4.665410 -0.650630 
#    z -0.421030 -0.650630 4.053660 
# 
# 
# High freq. dielectric constant tensor:
#      x y z
#    x 1.871120 -0.006430 -0.010290 
#    y -0.006430 1.880850 -0.031350 
#    z -0.010290 -0.031350 1.851350 
# 
# From -- ./inp_files/451739.got.cif
#   From: 2010.06.25/outbox.cif.g09.slc.cpg/sg2_226_cif.got.tgz:451739.got - 2010.06.27 13:26:56.
