data_PCOD8000603
_publ_section_title
;
Structure prediction by ZEFSAII (Michael W. Deem and Ramdas Pophale) SiO2 
 PCOD8000603
Probable space group: P -1
;
_chemical_formula_sum "Si O2"
_cell_formula_units_Z 14
_cell_length_a 12.172069
_cell_length_b 8.034520
_cell_length_c 6.782549
_cell_angle_alpha 84.976839
_cell_angle_beta 86.442025
_cell_angle_gamma 80.437327
_cell_volume 650.819323
_symmetry_space_group_name_H-M "P -1"
_symmetry_group_IT_number 2
_symmetry_cell_setting 'triclinic'
loop_
_space_group_symop_operation_xyz
x,y,z
-x,-y,-z
loop_
_atom_site_type_symbol
_atom_site_label
_atom_site_fract_x
_atom_site_fract_y
_atom_site_fract_z
Si Si1 0.719519 0.571575 0.092586
Si Si2 0.076884 0.604166 0.100810
Si Si3 0.438528 0.144568 0.132056
Si Si4 0.654101 0.228326 0.262007
Si Si5 0.757058 0.991702 0.610753
Si Si6 0.120515 0.238354 0.702195
Si Si7 0.160220 0.930034 0.000754
O O1 0.669639 0.422138 0.220950
O O2 0.788749 0.651932 0.243153
O O3 0.799032 0.508429 0.898423
O O4 0.615937 0.703711 0.017665
O O5 0.093177 0.778171 0.970214
O O6 0.006022 0.650341 0.308317
O O7 0.000000 0.500000 0.000000
O O8 0.524149 0.212974 0.265509
O O9 0.345897 0.084350 0.284103
O O10 0.500000 0.000000 0.000000
O O11 0.709214 0.153895 0.467723
O O12 0.713275 0.114780 0.088461
O O13 0.833757 0.049848 0.766764
O O14 0.838969 0.846352 0.499121
O O15 0.102177 0.099914 0.884485
#
# Coordination Sequence:
#
# PCOD8000603 Si02
#       7
#     2   2   2   2   2   2   2
#     4  10  21  41  62  90 127 161 202 254 307 362
#     4   9  20  38  65  89 125 166 196 248 315 357
#     4  12  21  41  66  87 122 167 206 250 309 364
#     4  10  22  39  62  91 127 161 202 255 306 355
#     4  11  22  39  63  94 122 159 213 249 295 369
#     4  10  20  40  62  91 122 165 203 254 298 363
#     4  10  19  39  65  90 126 160 207 247 299 370
#
# _framework density 21.511348000000002
#
# number of rings (size 3 to 8) (size 9 to 14) (size 15 to 20)
#    0.000    1.714    2.857    2.143    0.000    0.571 
#    5.143    2.143    0.000    0.000    0.000    0.000 
#    0.000    0.000    0.000    0.000    0.000    0.000 
#
# Total GULP energy -173485.511494 kJ/mol
# GULP energy per Si atom -12391.822250 kJ/mol
# Density = 2.146239 g / cm^3
# Si number density = 21.511348 Si / 1000 Ang^3
#
#
#
# Elastic Constant Matrix: (Units=GPa)
#
#
# Indices 1 2 3 4 5 6 
#
# 1 67.8358 34.7503 20.0092 7.4566 -9.6984 9.1455
# 2 34.7503 119.0120 45.3445 3.0433 -8.9321 9.6916
# 3 20.0092 45.3445 110.3222 5.1720 -6.7830 -3.0238
# 4 7.4566 3.0433 5.1720 19.5165 1.3980 -3.4751
# 5 -9.6984 -8.9321 -6.7830 1.3980 27.8322 5.0234
# 6 9.1455 9.6916 -3.0238 -3.4751 5.0234 36.1494
#
#
#
# Elastic Compliance Matrix: (Units=1/GPa)
#
#
# Indices 1 2 3 4 5 6 
#
# 1 0.019861 -0.004138 -0.001265 -0.008111 0.006727 -0.005736
# 2 -0.004138 0.011438 -0.003927 0.000258 0.001721 -0.002563
# 3 -0.001265 -0.003927 0.011079 -0.001525 0.000705 0.002055
# 4 -0.008111 0.000258 -0.001525 0.056723 -0.007471 0.008346
# 5 0.006727 0.001721 0.000705 -0.007471 0.040909 -0.008507
# 6 -0.005736 -0.002563 0.002055 0.008346 -0.008507 0.031958
#
#
# Mechanical properties :
#
#
# Convention : Reuss Voigt Hill
#
# Bulk Modulus (GPa) = 42.16174 55.26423 48.71299
# Shear Modulus (GPa) = 25.18466 29.83735 27.51101
#
# Velocity S-wave (km/s) = 3.42535 3.72835 3.58006
# Velocity P-wave (km/s) = 5.94023 6.65437 6.30742
#
# Compressibility (1/GPa) = 0.02371819
#
# Stress axis : x y z
#
# Youngs Moduli (GPa) = 50.35028 87.42482 90.25974
#
# Poissons Ratio (x) = 0.36176 0.11416
# Poissons Ratio (y) = 0.20835 0.35449
# Poissons Ratio (z) = 0.06368 0.34335
#
# Static dielectric constant tensor:
#      x y z
#    x 4.170850 -0.137830 -0.296400 
#    y -0.137830 4.179100 0.146190 
#    z -0.296400 0.146190 3.712770 
# 
# 
# High freq. dielectric constant tensor:
#      x y z
#    x 1.858800 0.004110 -0.023170 
#    y 0.004110 1.862360 0.009940 
#    z -0.023170 0.009940 1.813670 
# 
# From -- ./inp_files/27741.got.cif
#   From: 2010.06.25/outbox.cif.g09.slc.cpg/sg2_14_cif.got.tgz:27741.got - 2010.06.27 13:26:56.
