data_PCOD8000892
_publ_section_title
;
Structure prediction by ZEFSAII (Michael W. Deem and Ramdas Pophale) SiO2 
 PCOD8000892
Probable space group: P -1
;
_chemical_formula_sum "Si O2"
_cell_formula_units_Z 16
_cell_length_a 8.878773
_cell_length_b 9.707122
_cell_length_c 12.042807
_cell_angle_alpha 78.866745
_cell_angle_beta 60.408151
_cell_angle_gamma 64.907060
_cell_volume 817.196360
_symmetry_space_group_name_H-M "P -1"
_symmetry_group_IT_number 2
_symmetry_cell_setting 'triclinic'
loop_
_space_group_symop_operation_xyz
x,y,z
-x,-y,-z
loop_
_atom_site_type_symbol
_atom_site_label
_atom_site_fract_x
_atom_site_fract_y
_atom_site_fract_z
Si Si1 0.535765 0.726797 0.423366
Si Si2 0.595848 0.845403 0.795302
Si Si3 0.830902 0.695193 0.946575
Si Si4 0.243488 0.495086 0.813887
Si Si5 0.797320 0.009384 0.547789
Si Si6 0.267638 0.053340 0.653458
Si Si7 0.533170 0.298057 0.314114
Si Si8 0.159981 0.064978 0.920375
O O1 0.666243 0.619346 0.301142
O O2 0.567130 0.883500 0.413600
O O3 0.564469 0.631288 0.542980
O O4 0.320671 0.807414 0.449096
O O5 0.686399 0.782374 0.890165
O O6 0.707662 0.942129 0.688087
O O7 0.612846 0.704634 0.728352
O O8 0.374676 0.945111 0.877737
O O9 0.029374 0.586250 0.839668
O O10 0.739194 0.597337 0.064527
O O11 0.878874 0.806631 0.994042
O O12 0.348620 0.606697 0.784716
O O13 0.825251 0.911444 0.438993
O O14 0.000000 0.000000 0.500000
O O15 0.132672 0.135657 0.793967
O O16 0.333571 0.875104 0.682129
O O17 0.000000 0.000000 0.000000
#
# Coordination Sequence:
#
# PCOD8000892 Si02
#       8
#     2   2   2   2   2   2   2   2
#     4  11  19  42  65  90 121 163 201 253 306 371
#     4  11  22  40  62  93 127 154 206 269 301 354
#     4  11  24  40  59  87 128 166 206 254 301 363
#     4  11  24  41  61  85 124 171 210 239 309 376
#     4  11  22  36  66 100 124 150 199 267 317 352
#     4  10  19  40  65  90 121 156 204 253 303 364
#     4  10  20  38  64  89 117 163 200 251 308 365
#     4  11  22  39  66  93 120 165 211 251 305 363
#
# _framework density 19.579141
#
# number of rings (size 3 to 8) (size 9 to 14) (size 15 to 20)
#    0.000    1.250    5.000    3.000    5.250    0.500 
#    0.000    1.875    0.000    0.000    0.000    0.000 
#    0.000    0.000    0.000    0.000    0.000    0.000 
#
# Total GULP energy -198275.746658 kJ/mol
# GULP energy per Si atom -12392.234166 kJ/mol
# Density = 1.953458 g / cm^3
# Si number density = 19.579141 Si / 1000 Ang^3
#
#
#
# Elastic Constant Matrix: (Units=GPa)
#
#
# Indices 1 2 3 4 5 6 
#
# 1 113.8142 50.9314 71.1243 0.3050 -12.0056 4.5403
# 2 50.9314 78.2562 48.5848 3.1722 -1.9177 7.1815
# 3 71.1243 48.5848 135.8094 -1.0135 0.3659 -4.0201
# 4 0.3050 3.1722 -1.0135 40.2063 7.2232 -7.9026
# 5 -12.0056 -1.9177 0.3659 7.2232 33.5766 -4.3522
# 6 4.5403 7.1815 -4.0201 -7.9026 -4.3522 26.2146
#
#
#
# Elastic Compliance Matrix: (Units=1/GPa)
#
#
# Indices 1 2 3 4 5 6 
#
# 1 0.016184 -0.006325 -0.006278 -0.001058 0.005536 -0.001433
# 2 -0.006325 0.020032 -0.004047 -0.002582 -0.001297 -0.006007
# 3 -0.006278 -0.004047 0.012246 0.001957 -0.002479 0.004252
# 4 -0.001058 -0.002582 0.001957 0.027809 -0.005405 0.008677
# 5 0.005536 -0.001297 -0.002479 -0.005405 0.033255 0.002908
# 6 -0.001433 -0.006007 0.004252 0.008677 0.002908 0.043791
#
#
# Mechanical properties :
#
#
# Convention : Reuss Voigt Hill
#
# Bulk Modulus (GPa) = 65.95901 74.35120 70.15510
# Shear Modulus (GPa) = 26.08625 30.48212 28.28418
#
# Velocity S-wave (km/s) = 3.65410 3.95000 3.80492
# Velocity P-wave (km/s) = 7.18086 7.67206 7.43052
#
# Compressibility (1/GPa) = 0.01516093
#
# Stress axis : x y z
#
# Youngs Moduli (GPa) = 61.78959 49.91996 81.65809
#
# Poissons Ratio (x) = 0.31576 0.51265
# Poissons Ratio (y) = 0.39083 0.33050
# Poissons Ratio (z) = 0.38792 0.20204
#
# Static dielectric constant tensor:
#      x y z
#    x 3.554350 0.210920 0.167210 
#    y 0.210920 3.469150 0.080780 
#    z 0.167210 0.080780 4.155250 
# 
# 
# High freq. dielectric constant tensor:
#      x y z
#    x 1.753540 0.021940 0.000540 
#    y 0.021940 1.741870 0.003020 
#    z 0.000540 0.003020 1.790240 
# 
# From -- ./inp_files/343423.got.cif
#   From: 2010.06.25/outbox.cif.g09.slc.cpg/sg2_172_cif.got.tgz:343423.got - 2010.06.27 13:26:56.
