data_PCOD8000105
_publ_section_title
;
Structure prediction by ZEFSAII (Michael W. Deem and Ramdas Pophale) SiO2 
 PCOD8000105
Probable space group: P 1
;
_chemical_formula_sum "Si O2"
_cell_formula_units_Z 6
_cell_length_a 5.131875
_cell_length_b 8.367407
_cell_length_c 6.609332
_cell_angle_alpha 83.692471
_cell_angle_beta 74.487910
_cell_angle_gamma 113.407930
_cell_volume 243.352924
_symmetry_space_group_name_H-M "P 1"
_symmetry_group_IT_number 1
_symmetry_cell_setting 'triclinic'
loop_
_space_group_symop_operation_xyz
x,y,z
loop_
_atom_site_type_symbol
_atom_site_label
_atom_site_fract_x
_atom_site_fract_y
_atom_site_fract_z
Si Si1 0.726480 0.299750 0.157730
Si Si2 0.573672 0.753804 0.518364
Si Si3 0.254098 0.875230 0.876629
Si Si4 0.209149 0.591774 0.235555
Si Si5 0.099105 0.078856 0.171115
Si Si6 0.687295 0.571672 0.875393
O O1 0.893518 0.173668 0.137606
O O2 0.858145 0.443805 0.297314
O O3 0.362449 0.180420 0.268938
O O4 0.804188 0.419783 0.914558
O O5 0.502482 0.890497 0.655544
O O6 0.604796 0.595072 0.659140
O O7 0.882944 0.876391 0.321335
O O8 0.927589 0.768905 0.861165
O O9 0.296460 0.777205 0.078138
O O10 0.271887 0.062311 0.932409
O O11 0.291282 0.641342 0.445411
O O12 0.401117 0.502540 0.097017
#
# Coordination Sequence:
#
# PCOD8000105 Si02
#       6
#     1   1   1   1   1   1
#     4  11  25  46  77 105 155 194 227 309 383 411
#     4  11  25  44  83 107 138 196 260 289 351 444
#     4  10  24  43  76 106 145 191 251 292 360 434
#     4  10  21  48  75 106 142 200 242 296 354 445
#     4  12  25  47  76 110 151 188 236 313 368 419
#     4  10  22  46  75 108 139 197 250 285 358 445
#
# _framework density 24.655552
#
# number of rings (size 3 to 8) (size 9 to 14) (size 15 to 20)
#    0.000    1.333    3.333    1.000    7.000    0.000 
#    0.000    8.333    0.000    0.000    0.000    0.000 
#    0.000    0.000    0.000    0.000    0.000    0.000 
#
# Total GULP energy -74339.834278 kJ/mol
# GULP energy per Si atom -12389.972380 kJ/mol
# Density = 2.459943 g / cm^3
# Si number density = 24.655552 Si / 1000 Ang^3
#
#
#
# Elastic Constant Matrix: (Units=GPa)
#
#
# Indices 1 2 3 4 5 6 
#
# 1 158.7818 50.4957 46.9337 1.8260 16.6254 13.2248
# 2 50.4957 83.3051 44.7818 -0.2111 9.7492 13.1657
# 3 46.9337 44.7818 85.4444 14.1589 19.1296 3.9645
# 4 1.8260 -0.2111 14.1589 25.0518 8.1846 -3.8718
# 5 16.6254 9.7492 19.1296 8.1846 41.2800 -0.8506
# 6 13.2248 13.1657 3.9645 -3.8718 -0.8506 56.1790
#
#
#
# Elastic Compliance Matrix: (Units=1/GPa)
#
#
# Indices 1 2 3 4 5 6 
#
# 1 0.008370 -0.003294 -0.002672 0.001256 -0.001623 -0.000948
# 2 -0.003294 0.019301 -0.008994 0.005102 -0.000132 -0.002763
# 3 -0.002672 -0.008994 0.020474 -0.009964 -0.004301 0.000540
# 4 0.001256 0.005102 -0.009964 0.048019 -0.006564 0.002422
# 5 -0.001623 -0.000132 -0.004301 -0.006564 0.028219 0.000692
# 6 -0.000948 -0.002763 0.000540 0.002422 0.000692 0.018810
#
#
# Mechanical properties :
#
#
# Convention : Reuss Voigt Hill
#
# Bulk Modulus (GPa) = 54.86979 67.99485 61.43232
# Shear Modulus (GPa) = 27.90394 36.85683 32.38039
#
# Velocity S-wave (km/s) = 3.36780 3.87055 3.62789
# Velocity P-wave (km/s) = 6.11765 6.90019 6.52067
#
# Compressibility (1/GPa) = 0.01822496
#
# Stress axis : x y z
#
# Youngs Moduli (GPa) = 119.47797 51.81149 48.84335
#
# Poissons Ratio (x) = 0.17068 0.13049
# Poissons Ratio (y) = 0.39359 0.43928
# Poissons Ratio (z) = 0.31920 0.46598
#
# Static dielectric constant tensor:
#      x y z
#    x 4.913450 -0.018380 -0.019960 
#    y -0.018380 4.357760 -0.023110 
#    z -0.019960 -0.023110 4.112070 
# 
# 
# High freq. dielectric constant tensor:
#      x y z
#    x 2.012450 0.000000 0.008500 
#    y 0.000000 1.971590 -0.003190 
#    z 0.008500 -0.003190 1.939570 
# 
# From -- ./inp_files/817.got.cif
#   From: 2010.03.12/outbox.cif.g09.slc.cpg/sg1_1_cif.got.tgz:817.got - 2010.03.29 11:57:58.
