data_PCOD8000135
_publ_section_title
;
Structure prediction by ZEFSAII (Michael W. Deem and Ramdas Pophale) SiO2 
 PCOD8000135
Probable space group: P 1
;
_chemical_formula_sum "Si O2"
_cell_formula_units_Z 8
_cell_length_a 10.518219
_cell_length_b 7.071415
_cell_length_c 8.083706
_cell_angle_alpha 78.567607
_cell_angle_beta 46.203317
_cell_angle_gamma 101.116537
_cell_volume 376.270193
_symmetry_space_group_name_H-M "P 1"
_symmetry_group_IT_number 1
_symmetry_cell_setting 'triclinic'
loop_
_space_group_symop_operation_xyz
x,y,z
loop_
_atom_site_type_symbol
_atom_site_label
_atom_site_fract_x
_atom_site_fract_y
_atom_site_fract_z
Si Si1 0.735530 0.010680 0.037550
Si Si2 0.673181 0.195970 0.387983
Si Si3 0.160869 0.285109 0.517259
Si Si4 0.814043 0.697619 0.225985
Si Si5 0.166354 0.046857 0.242221
Si Si6 0.729082 0.865572 0.594504
Si Si7 0.390844 0.777701 0.155660
Si Si8 0.231970 0.078721 0.814985
O O1 0.760495 0.159270 0.146882
O O2 0.745451 0.789603 0.115291
O O3 0.527482 0.942062 0.146475
O O4 0.922197 0.162555 0.727509
O O5 0.755209 0.449810 0.294305
O O6 0.435031 0.065570 0.618129
O O7 0.750062 0.101513 0.484136
O O8 0.239902 0.542834 0.403640
O O9 0.218183 0.226400 0.654347
O O10 0.252435 0.212858 0.291156
O O11 0.697842 0.715933 0.488293
O O12 0.052210 0.833588 0.007672
O O13 0.263234 0.884393 0.174335
O O14 0.928254 0.903279 0.504751
O O15 0.215872 0.170742 0.996731
O O16 0.535206 0.741984 0.903472
#
# Coordination Sequence:
#
# PCOD8000135 Si02
#       8
#     1   1   1   1   1   1   1   1
#     4  10  23  43  63 100 139 165 230 280 318 411
#     4  11  21  42  70  95 132 182 215 276 343 385
#     4  11  25  44  68 100 137 178 222 276 336 397
#     4   9  22  41  68  97 130 177 218 278 334 389
#     4  11  24  46  68  99 140 171 226 283 323 403
#     4  10  23  43  65 100 138 164 232 276 318 414
#     4  12  24  44  68  99 134 181 215 277 342 387
#     4  10  22  43  66 100 132 170 228 272 324 404
#
# _framework density 21.261317999999999
#
# number of rings (size 3 to 8) (size 9 to 14) (size 15 to 20)
#    0.000    1.500    2.500    2.250    1.750    5.000 
#    4.500    2.500    0.000    0.000    0.000    0.000 
#    0.000    0.000    0.000    0.000    0.000    0.000 
#
# Total GULP energy -99199.343265 kJ/mol
# GULP energy per Si atom -12399.917908 kJ/mol
# Density = 2.121293 g / cm^3
# Si number density = 21.261318 Si / 1000 Ang^3
#
#
#
# Elastic Constant Matrix: (Units=GPa)
#
#
# Indices 1 2 3 4 5 6 
#
# 1 116.4049 38.1081 39.1232 -5.3185 -1.0191 -2.9870
# 2 38.1081 112.3647 28.8698 -10.8553 8.2026 -4.9877
# 3 39.1232 28.8698 83.0351 -1.0040 6.1895 1.2980
# 4 -5.3185 -10.8553 -1.0040 23.2175 2.0484 -1.4019
# 5 -1.0191 8.2026 6.1895 2.0484 45.6893 7.5594
# 6 -2.9870 -4.9877 1.2980 -1.4019 7.5594 19.8860
#
#
#
# Elastic Compliance Matrix: (Units=1/GPa)
#
#
# Indices 1 2 3 4 5 6 
#
# 1 0.010973 -0.002527 -0.004374 0.001106 0.001081 0.000967
# 2 -0.002527 0.011261 -0.002531 0.005047 -0.002617 0.003961
# 3 -0.004374 -0.002531 0.015092 -0.001531 -0.001307 -0.001888
# 4 0.001106 0.005047 -0.001531 0.046328 -0.003783 0.006236
# 5 0.001081 -0.002617 -0.001307 -0.003783 0.024372 -0.009940
# 6 0.000967 0.003961 -0.001888 0.006236 -0.009940 0.055767
#
#
# Mechanical properties :
#
#
# Convention : Reuss Voigt Hill
#
# Bulk Modulus (GPa) = 54.16046 58.22300 56.19173
# Shear Modulus (GPa) = 26.48170 31.47212 28.97691
#
# Velocity S-wave (km/s) = 3.53304 3.85158 3.69574
# Velocity P-wave (km/s) = 6.49401 6.87193 6.68564
#
# Compressibility (1/GPa) = 0.01846365
#
# Stress axis : x y z
#
# Youngs Moduli (GPa) = 91.13505 88.80100 66.25978
#
# Poissons Ratio (x) = 0.22438 0.28981
# Poissons Ratio (y) = 0.23028 0.16768
# Poissons Ratio (z) = 0.39860 0.22472
#
# Static dielectric constant tensor:
#      x y z
#    x 4.050370 -0.016780 -0.023020 
#    y -0.016780 3.464190 0.137260 
#    z -0.023020 0.137260 4.097240 
# 
# 
# High freq. dielectric constant tensor:
#      x y z
#    x 1.844010 0.001850 0.001000 
#    y 0.001850 1.809620 0.009880 
#    z 0.001000 0.009880 1.848390 
# 
# From -- ./inp_files/1670.got.cif
#   From: 2010.03.12/outbox.cif.g09.slc.cpg/sg1_1_cif.got.tgz:1670.got - 2010.03.29 11:57:58.
