data_PCOD8000123
_publ_section_title
;
Structure prediction by ZEFSAII (Michael W. Deem and Ramdas Pophale) SiO2 
 PCOD8000123
Probable space group: P 1
;
_chemical_formula_sum "Si O2"
_cell_formula_units_Z 8
_cell_length_a 9.110296
_cell_length_b 7.579269
_cell_length_c 8.345920
_cell_angle_alpha 73.066534
_cell_angle_beta 45.402598
_cell_angle_gamma 97.371203
_cell_volume 342.516140
_symmetry_space_group_name_H-M "P 1"
_symmetry_group_IT_number 1
_symmetry_cell_setting 'triclinic'
loop_
_space_group_symop_operation_xyz
x,y,z
loop_
_atom_site_type_symbol
_atom_site_label
_atom_site_fract_x
_atom_site_fract_y
_atom_site_fract_z
Si Si1 0.177570 0.529130 0.648670
Si Si2 0.646608 0.771075 0.341217
Si Si3 0.615720 0.561828 0.744239
Si Si4 0.280692 0.331712 0.339713
Si Si5 0.591370 0.194429 0.654988
Si Si6 0.895100 0.997708 0.533165
Si Si7 0.711119 0.432491 0.190638
Si Si8 0.105438 0.143705 0.000195
O O1 0.410316 0.758989 0.445268
O O2 0.178437 0.461495 0.482384
O O3 0.226077 0.376341 0.771022
O O4 0.932452 0.518661 0.878266
O O5 0.578875 0.691985 0.595990
O O6 0.720918 0.633100 0.212263
O O7 0.876785 0.001387 0.102892
O O8 0.672829 0.386836 0.670825
O O9 0.828132 0.750734 0.635573
O O10 0.387064 0.454219 0.059993
O O11 0.476222 0.305520 0.297499
O O12 0.064533 0.097445 0.530652
O O13 0.662416 0.027561 0.718469
O O14 0.723147 0.281279 0.359045
O O15 0.310675 0.076883 0.864015
O O16 0.037455 0.140354 0.236177
#
# Coordination Sequence:
#
# PCOD8000123 Si02
#       8
#     1   1   1   1   1   1   1   1
#     4  11  21  40  64  90 131 168 204 261 323 375
#     4   9  21  39  64  92 119 165 213 265 306 373
#     4  10  22  43  63  95 130 161 217 261 315 381
#     4  11  23  41  61  92 139 166 201 270 316 388
#     4  11  21  44  70  95 124 170 218 271 310 373
#     4  11  24  41  69  93 129 173 211 264 324 372
#     4  10  22  41  65  92 127 168 211 265 320 366
#     4  11  20  41  64  95 129 157 223 267 306 382
#
# _framework density 23.356563999999999
#
# number of rings (size 3 to 8) (size 9 to 14) (size 15 to 20)
#    0.000    1.500    6.250    0.000    1.750    4.000 
#    4.500    0.000    2.750    0.000    0.000    0.000 
#    0.000    0.000    0.000    0.000    0.000    0.000 
#
# Total GULP energy -99138.298947 kJ/mol
# GULP energy per Si atom -12392.287368 kJ/mol
# Density = 2.330340 g / cm^3
# Si number density = 23.356564 Si / 1000 Ang^3
#
#
#
# Elastic Constant Matrix: (Units=GPa)
#
#
# Indices 1 2 3 4 5 6 
#
# 1 65.8202 39.6084 31.8117 -4.2006 -32.6216 18.7890
# 2 39.6084 101.9728 47.4890 -10.2083 -19.4755 37.6373
# 3 31.8117 47.4890 103.8781 13.4987 -21.5056 15.8108
# 4 -4.2006 -10.2083 13.4987 41.5791 7.6767 -11.2122
# 5 -32.6216 -19.4755 -21.5056 7.6767 38.6740 -11.6306
# 6 18.7890 37.6373 15.8108 -11.2122 -11.6306 40.7366
#
#
#
# Elastic Compliance Matrix: (Units=1/GPa)
#
#
# Indices 1 2 3 4 5 6 
#
# 1 0.031350 -0.006917 -0.001152 -0.002818 0.022266 -0.002040
# 2 -0.006917 0.019687 -0.006186 0.003416 -0.003877 -0.012764
# 3 -0.001152 -0.006186 0.014980 -0.007561 0.005741 -0.000010
# 4 -0.002818 0.003416 -0.007561 0.030569 -0.008833 0.006970
# 5 0.022266 -0.003877 0.005741 -0.008833 0.048373 0.002464
# 6 -0.002040 -0.012764 -0.000010 0.006970 0.002464 0.039908
#
#
# Mechanical properties :
#
#
# Convention : Reuss Voigt Hill
#
# Bulk Modulus (GPa) = 26.66168 56.60992 41.63580
# Shear Modulus (GPa) = 22.13585 34.38207 28.25896
#
# Velocity S-wave (km/s) = 3.08187 3.84090 3.48213
# Velocity P-wave (km/s) = 4.90956 6.63022 5.83368
#
# Compressibility (1/GPa) = 0.03750701
#
# Stress axis : x y z
#
# Youngs Moduli (GPa) = 31.89797 50.79590 66.75671
#
# Poissons Ratio (x) = 0.35136 0.07691
# Poissons Ratio (y) = 0.22064 0.41292
# Poissons Ratio (z) = 0.03675 0.31420
#
# Static dielectric constant tensor:
#      x y z
#    x 3.971080 0.510720 -0.138050 
#    y 0.510720 4.277480 0.069500 
#    z -0.138050 0.069500 4.309170 
# 
# 
# High freq. dielectric constant tensor:
#      x y z
#    x 1.903750 0.034530 -0.011470 
#    y 0.034530 1.917270 0.009550 
#    z -0.011470 0.009550 1.931270 
# 
# From -- ./inp_files/4098.got.cif
#   From: 2010.03.12/outbox.cif.g09.slc.cpg/sg1_3_cif.got.tgz:4098.got - 2010.03.29 11:57:58.
