data_PCOD8000072
_publ_section_title
;
Structure prediction by ZEFSAII (Michael W. Deem and Ramdas Pophale) SiO2 
 PCOD8000072
Probable space group: P 1
;
_chemical_formula_sum "Si O2"
_cell_formula_units_Z 8
_cell_length_a 8.990823
_cell_length_b 11.398658
_cell_length_c 7.593778
_cell_angle_alpha 126.031393
_cell_angle_beta 108.279820
_cell_angle_gamma 39.087725
_cell_volume 380.908895
_symmetry_space_group_name_H-M "P 1"
_symmetry_group_IT_number 1
_symmetry_cell_setting 'triclinic'
loop_
_space_group_symop_operation_xyz
x,y,z
loop_
_atom_site_type_symbol
_atom_site_label
_atom_site_fract_x
_atom_site_fract_y
_atom_site_fract_z
Si Si1 0.109230 0.906460 0.489770
Si Si2 0.090251 0.594351 0.687138
Si Si3 0.610159 0.214964 0.413404
Si Si4 0.428110 0.423585 0.169685
Si Si5 0.730347 0.797863 0.029785
Si Si6 0.227084 0.049419 0.920381
Si Si7 0.018809 0.512397 0.210511
Si Si8 0.943367 0.991000 0.863544
O O1 0.305692 0.658688 0.252714
O O2 0.019133 0.875573 0.597843
O O3 0.229449 0.972336 0.657753
O O4 0.862283 0.113350 0.472233
O O5 0.387438 0.369897 0.610462
O O6 0.984297 0.606951 0.474474
O O7 0.963095 0.605094 0.815121
O O8 0.016284 0.816899 0.877719
O O9 0.524912 0.377104 0.363629
O O10 0.657228 0.017768 0.197034
O O11 0.238785 0.425911 0.103136
O O12 0.652796 0.224594 0.951847
O O13 0.502172 0.871606 0.933333
O O14 0.782498 0.703841 0.164853
O O15 0.072326 0.305852 0.076795
O O16 0.085726 0.041808 0.996988
#
# Coordination Sequence:
#
# PCOD8000072 Si02
#       8
#     1   1   1   1   1   1   1   1
#     4  10  23  39  63  91 125 166 206 265 317 367
#     4  11  22  42  71  96 126 172 219 266 315 381
#     4  11  20  39  66  94 123 161 224 260 303 391
#     4  11  20  40  65  90 125 162 218 262 301 387
#     4  12  23  41  69  93 130 174 213 261 328 375
#     4  10  23  43  59  96 138 157 211 276 313 384
#     4  11  22  42  64  97 130 166 217 265 312 389
#     4  10  21  40  63  89 129 166 204 265 323 362
#
# _framework density 21.002399
#
# number of rings (size 3 to 8) (size 9 to 14) (size 15 to 20)
#    0.750    0.500    7.500    0.000    1.750    3.000 
#    2.250    1.250    0.000    0.000    0.000    0.000 
#    0.000    0.000    0.000    0.000    0.000    0.000 
#
# Total GULP energy -99131.148652 kJ/mol
# GULP energy per Si atom -12391.393582 kJ/mol
# Density = 2.095460 g / cm^3
# Si number density = 21.002399 Si / 1000 Ang^3
#
#
#
# Elastic Constant Matrix: (Units=GPa)
#
#
# Indices 1 2 3 4 5 6 
#
# 1 69.9230 31.0097 34.3678 1.5125 17.7688 -8.0367
# 2 31.0097 134.6680 35.4909 -0.2951 12.9116 -20.3047
# 3 34.3678 35.4909 72.7776 17.8170 8.9410 -6.4813
# 4 1.5125 -0.2951 17.8170 35.6794 -6.3199 3.0132
# 5 17.7688 12.9116 8.9410 -6.3199 37.7758 0.6370
# 6 -8.0367 -20.3047 -6.4813 3.0132 0.6370 35.9313
#
#
#
# Elastic Compliance Matrix: (Units=1/GPa)
#
#
# Indices 1 2 3 4 5 6 
#
# 1 0.021307 -0.001586 -0.008693 0.001971 -0.007131 0.002262
# 2 -0.001586 0.009553 -0.003675 0.001354 -0.001495 0.004294
# 3 -0.008693 -0.003675 0.022792 -0.011487 -0.001989 0.001089
# 4 0.001971 0.001354 -0.011487 0.035320 0.007305 -0.003958
# 5 -0.007131 -0.001495 -0.001989 0.007305 0.032097 -0.003980
# 6 0.002262 0.004294 0.001089 -0.003958 -0.003980 0.031362
#
#
# Mechanical properties :
#
#
# Convention : Reuss Voigt Hill
#
# Bulk Modulus (GPa) = 38.84555 53.23395 46.03975
# Shear Modulus (GPa) = 26.46604 33.64397 30.05501
#
# Velocity S-wave (km/s) = 3.55370 4.00673 3.78700
# Velocity P-wave (km/s) = 5.94763 6.84155 6.41019
#
# Compressibility (1/GPa) = 0.02574297
#
# Stress axis : x y z
#
# Youngs Moduli (GPa) = 46.93233 104.67723 43.87583
#
# Poissons Ratio (x) = 0.16603 0.38142
# Poissons Ratio (y) = 0.07444 0.16125
# Poissons Ratio (z) = 0.40800 0.38470
#
# Static dielectric constant tensor:
#      x y z
#    x 3.595520 -0.161330 -0.015320 
#    y -0.161330 3.913160 0.044390 
#    z -0.015320 0.044390 3.638530 
# 
# 
# High freq. dielectric constant tensor:
#      x y z
#    x 1.800750 -0.010420 0.001310 
#    y -0.010420 1.828830 0.010110 
#    z 0.001310 0.010110 1.815320 
# 
# From -- ./inp_files/4090.got.cif
#   From: 2010.03.12/outbox.cif.g09.slc.cpg/sg1_3_cif.got.tgz:4090.got - 2010.03.29 11:57:58.
