data_PCOD8000534
_publ_section_title
;
Structure prediction by ZEFSAII (Michael W. Deem and Ramdas Pophale) SiO2 
 PCOD8000534
Probable space group: P -1
;
_chemical_formula_sum "Si O2"
_cell_formula_units_Z 16
_cell_length_a 12.485967
_cell_length_b 15.828317
_cell_length_c 9.134024
_cell_angle_alpha 35.579505
_cell_angle_beta 110.793968
_cell_angle_gamma 128.109295
_cell_volume 782.696338
_symmetry_space_group_name_H-M "P -1"
_symmetry_group_IT_number 2
_symmetry_cell_setting 'triclinic'
loop_
_space_group_symop_operation_xyz
x,y,z
-x,-y,-z
loop_
_atom_site_type_symbol
_atom_site_label
_atom_site_fract_x
_atom_site_fract_y
_atom_site_fract_z
Si Si1 0.667547 0.505321 0.971629
Si Si2 0.524315 0.491141 0.353916
Si Si3 0.807135 0.298275 0.567189
Si Si4 0.841368 0.363384 0.173077
Si Si5 0.513688 0.215585 0.548672
Si Si6 0.772606 0.081461 0.320032
Si Si7 0.212566 0.211268 0.119636
Si Si8 0.007218 0.725476 0.091463
O O1 0.601923 0.524280 0.769523
O O2 0.746296 0.687563 0.847142
O O3 0.779866 0.475266 0.010679
O O4 0.545199 0.340562 0.246417
O O5 0.500000 0.500000 0.500000
O O6 0.513166 0.311535 0.561191
O O7 0.676511 0.672513 0.121242
O O8 0.839007 0.274778 0.450039
O O9 0.635438 0.184470 0.670430
O O10 0.871070 0.219776 0.807974
O O11 0.878578 0.509652 0.337835
O O12 0.744876 0.201174 0.238553
O O13 0.000000 0.500000 0.000000
O O14 0.358502 0.028735 0.703296
O O15 0.798228 0.967528 0.603955
O O16 0.919755 0.218039 0.111062
O O17 0.060714 0.167936 0.058234
#
# Coordination Sequence:
#
# PCOD8000534 Si02
#       8
#     2   2   2   2   2   2   2   2
#     4  10  19  39  64  83 127 170 209 247 313 386
#     4  11  21  37  64  95 123 168 211 261 319 373
#     4  10  22  41  64  87 130 169 211 256 316 382
#     4  11  22  40  61  96 123 166 216 256 313 381
#     4  10  20  42  65  89 125 169 213 257 313 378
#     4  12  23  38  69  96 124 163 218 263 315 370
#     4  11  20  43  64  90 126 168 211 258 310 386
#     4  11  22  39  66  91 123 177 207 252 323 381
#
# _framework density 20.442155
#
# number of rings (size 3 to 8) (size 9 to 14) (size 15 to 20)
#    0.000    1.250    7.500    1.125    0.000    4.500 
#    2.250    0.625    0.000    0.000    0.000    0.000 
#    0.000    0.000    0.000    0.000    0.000    0.000 
#
# Total GULP energy -198408.734142 kJ/mol
# GULP energy per Si atom -12400.545884 kJ/mol
# Density = 2.039563 g / cm^3
# Si number density = 20.442155 Si / 1000 Ang^3
#
#
#
# Elastic Constant Matrix: (Units=GPa)
#
#
# Indices 1 2 3 4 5 6 
#
# 1 123.8619 57.5026 39.3182 18.7167 -7.5219 -2.4923
# 2 57.5026 92.4981 35.9060 20.3955 -1.6930 -9.4164
# 3 39.3182 35.9060 45.7068 18.6118 -3.7919 1.9059
# 4 18.7167 20.3955 18.6118 34.1008 1.1895 -0.6067
# 5 -7.5219 -1.6930 -3.7919 1.1895 22.3518 12.6942
# 6 -2.4923 -9.4164 1.9059 -0.6067 12.6942 38.7957
#
#
#
# Elastic Compliance Matrix: (Units=1/GPa)
#
#
# Indices 1 2 3 4 5 6 
#
# 1 0.012891 -0.005611 -0.006083 -0.000556 0.003745 -0.001469
# 2 -0.005611 0.019370 -0.010048 -0.002701 -0.005777 0.006683
# 3 -0.006083 -0.010048 0.041852 -0.013982 0.009746 -0.008293
# 4 -0.000556 -0.002701 -0.013982 0.039147 -0.006377 0.002694
# 5 0.003745 -0.005777 0.009746 -0.006377 0.059623 -0.021249
# 6 -0.001469 0.006683 -0.008293 0.002694 -0.021249 0.034706
#
#
# Mechanical properties :
#
#
# Convention : Reuss Voigt Hill
#
# Bulk Modulus (GPa) = 32.64799 58.61338 45.63069
# Shear Modulus (GPa) = 19.13639 27.67231 23.40435
#
# Velocity S-wave (km/s) = 3.06293 3.68324 3.38732
# Velocity P-wave (km/s) = 5.33988 6.84276 6.13750
#
# Compressibility (1/GPa) = 0.03062976
#
# Stress axis : x y z
#
# Youngs Moduli (GPa) = 77.57120 51.62727 23.89364
#
# Poissons Ratio (x) = 0.28969 0.14535
# Poissons Ratio (y) = 0.43526 0.24007
# Poissons Ratio (z) = 0.47187 0.51873
#
# Static dielectric constant tensor:
#      x y z
#    x 3.943100 -0.019750 0.068010 
#    y -0.019750 3.716170 0.073560 
#    z 0.068010 0.073560 3.548770 
# 
# 
# High freq. dielectric constant tensor:
#      x y z
#    x 1.813430 0.008420 -0.001410 
#    y 0.008420 1.785670 0.006420 
#    z -0.001410 0.006420 1.784170 
# 
# From -- ./inp_files/205573.got.cif
#   From: 2010.06.25/outbox.cif.g09.slc.cpg/sg2_103_cif.got.tgz:205573.got - 2010.06.27 13:26:56.
