data_PCOD8000116
_publ_section_title
;
Structure prediction by ZEFSAII (Michael W. Deem and Ramdas Pophale) SiO2 
 PCOD8000116
Probable space group: P 1
;
_chemical_formula_sum "Si O2"
_cell_formula_units_Z 8
_cell_length_a 7.531169
_cell_length_b 12.846960
_cell_length_c 10.408529
_cell_angle_alpha 35.368386
_cell_angle_beta 140.930587
_cell_angle_gamma 133.305662
_cell_volume 363.521063
_symmetry_space_group_name_H-M "P 1"
_symmetry_group_IT_number 1
_symmetry_cell_setting 'triclinic'
loop_
_space_group_symop_operation_xyz
x,y,z
loop_
_atom_site_type_symbol
_atom_site_label
_atom_site_fract_x
_atom_site_fract_y
_atom_site_fract_z
Si Si1 0.539220 0.694280 0.320190
Si Si2 0.347716 0.057459 0.191813
Si Si3 0.935321 0.543470 0.092793
Si Si4 0.421776 0.665811 0.569361
Si Si5 0.591990 0.320362 0.607016
Si Si6 0.942508 0.061482 0.184919
Si Si7 0.994376 0.338648 0.595121
Si Si8 0.972007 0.202416 0.334590
O O1 0.577384 0.654046 0.532083
O O2 0.624025 0.533084 0.443159
O O3 0.204422 0.702580 0.094207
O O4 0.733481 0.881494 0.205481
O O5 0.688236 0.112457 0.339311
O O6 0.231928 0.072178 0.256086
O O7 0.289222 0.850757 0.320185
O O8 0.187220 0.174412 0.881909
O O9 0.942305 0.397628 0.360687
O O10 0.940286 0.419043 0.090952
O O11 0.654769 0.641793 0.835097
O O12 0.162254 0.505857 0.600863
O O13 0.690710 0.290938 0.544741
O O14 0.277605 0.210008 0.568694
O O15 0.799248 0.238758 0.901458
O O16 0.004997 0.080086 0.351437
#
# Coordination Sequence:
#
# PCOD8000116 Si02
#       8
#     1   1   1   1   1   1   1   1
#     4  10  22  40  63  94 128 168 218 263 318 383
#     4  11  24  42  68  95 130 170 215 264 326 378
#     4  10  23  40  70  94 131 173 215 264 326 380
#     4  11  21  41  66  97 127 174 212 267 321 386
#     4  10  24  41  66  94 130 169 218 263 322 382
#     4  11  24  43  65  95 130 171 211 271 318 383
#     4  10  23  44  65  97 132 169 217 268 320 386
#     4  11  23  41  65  96 128 170 212 264 321 382
#
# _framework density 22.006979000000001
#
# number of rings (size 3 to 8) (size 9 to 14) (size 15 to 20)
#    0.000    1.500    2.500    1.500    7.000    0.000 
#    2.250    3.750    0.000    0.000    0.000    0.000 
#    0.000    0.000    0.000    0.000    0.000    0.000 
#
# Total GULP energy -99122.605990 kJ/mol
# GULP energy per Si atom -12390.325749 kJ/mol
# Density = 2.195689 g / cm^3
# Si number density = 22.006979 Si / 1000 Ang^3
#
#
#
# Elastic Constant Matrix: (Units=GPa)
#
#
# Indices 1 2 3 4 5 6 
#
# 1 118.4462 34.3929 36.7759 9.6463 14.9830 8.5898
# 2 34.3929 113.1438 47.3530 -8.2489 7.3289 -4.8106
# 3 36.7759 47.3530 95.3486 -8.6169 18.3870 -2.5504
# 4 9.6463 -8.2489 -8.6169 27.3759 -0.2920 4.6423
# 5 14.9830 7.3289 18.3870 -0.2920 26.1949 -1.0619
# 6 8.5898 -4.8106 -2.5504 4.6423 -1.0619 35.7329
#
#
#
# Elastic Compliance Matrix: (Units=1/GPa)
#
#
# Indices 1 2 3 4 5 6 
#
# 1 0.011140 -0.002415 -0.002896 -0.005155 -0.003828 -0.002654
# 2 -0.002415 0.011801 -0.004974 0.002600 0.001662 0.001526
# 3 -0.002896 -0.004974 0.016058 0.004429 -0.008160 0.000355
# 4 -0.005155 0.002600 0.004429 0.041102 -0.000569 -0.003451
# 5 -0.003828 0.001662 -0.008160 -0.000569 0.045702 0.001994
# 6 -0.002654 0.001526 0.000355 -0.003451 0.001994 0.029362
#
#
# Mechanical properties :
#
#
# Convention : Reuss Voigt Hill
#
# Bulk Modulus (GPa) = 54.26092 62.66468 58.46280
# Shear Modulus (GPa) = 27.49112 31.75519 29.62315
#
# Velocity S-wave (km/s) = 3.53824 3.80275 3.67288
# Velocity P-wave (km/s) = 6.43443 6.91505 6.67907
#
# Compressibility (1/GPa) = 0.01842947
#
# Stress axis : x y z
#
# Youngs Moduli (GPa) = 89.77050 84.73967 62.27316
#
# Poissons Ratio (x) = 0.20463 0.18033
# Poissons Ratio (y) = 0.21678 0.30974
# Poissons Ratio (z) = 0.25996 0.42149
#
# Static dielectric constant tensor:
#      x y z
#    x 4.032440 0.037070 0.178050 
#    y 0.037070 4.087280 -0.016200 
#    z 0.178050 -0.016200 3.747450 
# 
# 
# High freq. dielectric constant tensor:
#      x y z
#    x 1.862780 0.002410 0.019330 
#    y 0.002410 1.876130 -0.001960 
#    z 0.019330 -0.001960 1.848510 
# 
# From -- ./inp_files/2234.got.cif
#   From: 2010.03.12/outbox.cif.g09.slc.cpg/sg1_2_cif.got.tgz:2234.got - 2010.03.29 11:57:58.
