data_PCOD8000581
_publ_section_title
;
Structure prediction by ZEFSAII (Michael W. Deem and Ramdas Pophale) SiO2 
 PCOD8000581
Probable space group: P -1
;
_chemical_formula_sum "Si O2"
_cell_formula_units_Z 16
_cell_length_a 8.993683
_cell_length_b 7.982196
_cell_length_c 14.802413
_cell_angle_alpha 134.635211
_cell_angle_beta 80.248437
_cell_angle_gamma 92.452529
_cell_volume 740.840616
_symmetry_space_group_name_H-M "P -1"
_symmetry_group_IT_number 2
_symmetry_cell_setting 'triclinic'
loop_
_space_group_symop_operation_xyz
x,y,z
-x,-y,-z
loop_
_atom_site_type_symbol
_atom_site_label
_atom_site_fract_x
_atom_site_fract_y
_atom_site_fract_z
Si Si1 0.112429 0.029317 0.656915
Si Si2 0.426433 0.612388 0.671234
Si Si3 0.731513 0.458389 0.515171
Si Si4 0.665701 0.165424 0.953809
Si Si5 0.656581 0.884332 0.479185
Si Si6 0.170876 0.382168 0.935083
Si Si7 0.780863 0.961561 0.676903
Si Si8 0.331849 0.090234 0.966126
O O1 0.139259 0.746329 0.551286
O O2 0.930718 0.096410 0.701051
O O3 0.188974 0.087522 0.578098
O O4 0.186086 0.161318 0.781573
O O5 0.609127 0.549613 0.640203
O O6 0.376561 0.656126 0.589433
O O7 0.340249 0.396129 0.630874
O O8 0.369354 0.842501 0.819215
O O9 0.822007 0.677512 0.561554
O O10 0.485938 0.213961 0.010756
O O11 0.694362 0.041482 0.807392
O O12 0.727798 0.421499 0.040108
O O13 0.737931 0.985451 0.958070
O O14 0.666841 0.012803 0.623950
O O15 0.500000 0.000000 0.500000
O O16 0.219326 0.276850 0.989918
O O17 0.000000 0.500000 0.000000
#
# Coordination Sequence:
#
# PCOD8000581 Si02
#       8
#     2   2   2   2   2   2   2   2
#     4  12  23  44  67  98 137 180 219 284 355 405
#     4  10  19  39  65 101 128 170 231 282 334 410
#     4  10  20  37  68  94 129 172 217 274 348 405
#     4  11  25  47  70 105 137 190 240 289 346 409
#     4  11  24  40  70 105 134 177 226 288 351 417
#     4  12  26  47  71 103 143 189 236 288 351 417
#     4  11  24  44  65  99 144 173 228 282 347 423
#     4  11  24  46  73 100 141 187 241 290 343 415
#
# _framework density 21.597086999999998
#
# number of rings (size 3 to 8) (size 9 to 14) (size 15 to 20)
#    0.000    1.000    5.000    1.875    1.750    0.500 
#    6.750    0.000    0.000    0.000    0.000    0.000 
#    0.000    0.000    0.000    0.000    0.000    0.000 
#
# Total GULP energy -198264.483659 kJ/mol
# GULP energy per Si atom -12391.530229 kJ/mol
# Density = 2.154793 g / cm^3
# Si number density = 21.597087 Si / 1000 Ang^3
#
#
#
# Elastic Constant Matrix: (Units=GPa)
#
#
# Indices 1 2 3 4 5 6 
#
# 1 102.4373 61.8076 30.9054 -2.2810 8.0729 2.5528
# 2 61.8076 140.5108 43.2759 -13.1842 6.0631 -5.5029
# 3 30.9054 43.2759 78.9284 -8.2291 1.9837 3.4326
# 4 -2.2810 -13.1842 -8.2291 34.3680 4.7353 -1.3916
# 5 8.0729 6.0631 1.9837 4.7353 31.5726 5.5752
# 6 2.5528 -5.5029 3.4326 -1.3916 5.5752 36.0137
#
#
#
# Elastic Compliance Matrix: (Units=1/GPa)
#
#
# Indices 1 2 3 4 5 6 
#
# 1 0.013986 -0.005496 -0.002521 -0.001579 -0.001885 -0.001360
# 2 -0.005496 0.011165 -0.003705 0.003353 -0.001505 0.002811
# 3 -0.002521 -0.003705 0.015981 0.002111 0.000368 -0.001886
# 4 -0.001579 0.003353 0.002111 0.031652 -0.005563 0.002507
# 5 -0.001885 -0.001505 0.000368 -0.005563 0.034253 -0.005649
# 6 -0.001360 0.002811 -0.001886 0.002507 -0.005649 0.029444
#
#
# Mechanical properties :
#
#
# Convention : Reuss Voigt Hill
#
# Bulk Modulus (GPa) = 56.53292 65.98380 61.25836
# Shear Modulus (GPa) = 30.15318 32.78337 31.46827
#
# Velocity S-wave (km/s) = 3.74059 3.90032 3.82129
# Velocity P-wave (km/s) = 6.69993 7.13455 6.92065
#
# Compressibility (1/GPa) = 0.01768881
#
# Stress axis : x y z
#
# Youngs Moduli (GPa) = 71.50028 89.56616 62.57425
#
# Poissons Ratio (x) = 0.49223 0.15776
# Poissons Ratio (y) = 0.39294 0.23182
# Poissons Ratio (z) = 0.18027 0.33181
#
# Static dielectric constant tensor:
#      x y z
#    x 3.866690 0.072930 0.257070 
#    y 0.072930 4.309200 -0.124210 
#    z 0.257070 -0.124210 4.016100 
# 
# 
# High freq. dielectric constant tensor:
#      x y z
#    x 1.843470 0.014420 0.013890 
#    y 0.014420 1.852660 0.003470 
#    z 0.013890 0.003470 1.847700 
# 
# From -- ./inp_files/405735.got.cif
#   From: 2010.06.25/outbox.cif.g09.slc.cpg/sg2_203_cif.got.tgz:405735.got - 2010.06.27 13:26:56.
