data_PCOD8000250
_publ_section_title
;
Structure prediction by ZEFSAII (Michael W. Deem and Ramdas Pophale) SiO2 
 PCOD8000250
Probable space group: P 1
;
_chemical_formula_sum "Si O2"
_cell_formula_units_Z 8
_cell_length_a 8.808204
_cell_length_b 11.206488
_cell_length_c 13.703118
_cell_angle_alpha 147.689793
_cell_angle_beta 29.088334
_cell_angle_gamma 142.684258
_cell_volume 343.000707
_symmetry_space_group_name_H-M "P 1"
_symmetry_group_IT_number 1
_symmetry_cell_setting 'triclinic'
loop_
_space_group_symop_operation_xyz
x,y,z
loop_
_atom_site_type_symbol
_atom_site_label
_atom_site_fract_x
_atom_site_fract_y
_atom_site_fract_z
Si Si1 0.165320 0.809350 0.354830
Si Si2 0.455552 0.789929 0.771637
Si Si3 0.382811 0.367351 0.415922
Si Si4 0.528236 0.610306 0.306394
Si Si5 0.205768 0.872916 0.160406
Si Si6 0.477081 0.055452 0.532772
Si Si7 0.046784 0.300839 0.070719
Si Si8 0.123871 0.168139 0.145755
O O1 0.325436 0.833321 0.174068
O O2 0.337661 0.998945 0.463696
O O3 0.180207 0.559346 0.212127
O O4 0.804810 0.839840 0.561873
O O5 0.303251 0.516107 0.655083
O O6 0.487652 0.853852 0.912687
O O7 0.241232 0.936017 0.937411
O O8 0.381191 0.539549 0.446056
O O9 0.717418 0.285789 0.186583
O O10 0.126062 0.128375 0.378731
O O11 0.413111 0.826373 0.475731
O O12 0.417117 0.387956 0.146367
O O13 0.910078 0.681204 0.154271
O O14 0.847036 0.174221 0.385667
O O15 0.304115 0.232188 0.805749
O O16 0.995579 0.151522 0.095208
#
# Coordination Sequence:
#
# PCOD8000250 Si02
#       8
#     1   1   1   1   1   1   1   1
#     4  11  26  47  72 107 140 185 242 284 353 425
#     4  11  24  45  77 103 140 188 235 290 349 421
#     4  11  24  48  72 108 140 187 240 288 350 427
#     4  12  23  48  71 102 149 178 239 289 345 424
#     4  12  24  46  73 103 140 189 233 286 353 413
#     4  12  26  49  72 104 144 190 227 297 358 409
#     4  11  25  47  73 102 148 182 233 298 348 416
#     4  12  26  48  72 109 141 187 239 288 354 423
#
# _framework density 23.323566
#
# number of rings (size 3 to 8) (size 9 to 14) (size 15 to 20)
#    0.000    0.500    6.250    2.250    0.000    4.000 
#   11.250    0.000    0.000    0.000    0.000    0.000 
#    0.000    0.000    0.000    0.000    0.000    0.000 
#
# Total GULP energy -99172.326891 kJ/mol
# GULP energy per Si atom -12396.540861 kJ/mol
# Density = 2.327048 g / cm^3
# Si number density = 23.323566 Si / 1000 Ang^3
#
#
#
# Elastic Constant Matrix: (Units=GPa)
#
#
# Indices 1 2 3 4 5 6 
#
# 1 127.0870 31.7291 41.9711 -4.8993 10.9355 -19.0240
# 2 31.7291 105.3400 34.6056 11.2069 6.0685 0.5061
# 3 41.9711 34.6056 132.8497 10.0460 5.7156 -8.0803
# 4 -4.8993 11.2069 10.0460 17.7803 3.7151 11.8813
# 5 10.9355 6.0685 5.7156 3.7151 34.9548 1.5574
# 6 -19.0240 0.5061 -8.0803 11.8813 1.5574 46.2115
#
#
#
# Elastic Compliance Matrix: (Units=1/GPa)
#
#
# Indices 1 2 3 4 5 6 
#
# 1 0.010210 -0.002561 -0.002631 0.004760 -0.002943 0.002646
# 2 -0.002561 0.011586 -0.001620 -0.007341 -0.000184 0.000430
# 3 -0.002631 -0.001620 0.009407 -0.006565 0.000163 0.002262
# 4 0.004760 -0.007341 -0.006565 0.080372 -0.006813 -0.019542
# 5 -0.002943 -0.000184 0.000163 -0.006813 0.030279 -0.000450
# 6 0.002646 0.000430 0.002262 -0.019542 -0.000450 0.028160
#
#
# Mechanical properties :
#
#
# Convention : Reuss Voigt Hill
#
# Bulk Modulus (GPa) = 56.88108 64.65427 60.76768
# Shear Modulus (GPa) = 26.38572 36.92072 31.65322
#
# Velocity S-wave (km/s) = 3.36711 3.98298 3.68793
# Velocity P-wave (km/s) = 6.28947 6.99521 6.65170
#
# Compressibility (1/GPa) = 0.01758054
#
# Stress axis : x y z
#
# Youngs Moduli (GPa) = 97.94627 86.31064 106.29898
#
# Poissons Ratio (x) = 0.22100 0.27967
# Poissons Ratio (y) = 0.25079 0.17219
# Poissons Ratio (z) = 0.25769 0.13981
#
# Static dielectric constant tensor:
#      x y z
#    x 4.297580 -0.012430 0.166720 
#    y -0.012430 4.425070 0.142190 
#    z 0.166720 0.142190 3.981150 
# 
# 
# High freq. dielectric constant tensor:
#      x y z
#    x 1.938290 -0.002880 0.013120 
#    y -0.002880 1.923150 0.014800 
#    z 0.013120 0.014800 1.906310 
# 
# From -- ./inp_files/5603.got.cif
#   From: 2010.03.12/outbox.cif.g09.slc.cpg/sg1_3_cif.got.tgz:5603.got - 2010.03.29 11:57:58.
