data_PCOD8000636
_publ_section_title
;
Structure prediction by ZEFSAII (Michael W. Deem and Ramdas Pophale) SiO2 
 PCOD8000636
Probable space group: P -1
;
_chemical_formula_sum "Si O2"
_cell_formula_units_Z 16
_cell_length_a 9.800027
_cell_length_b 18.215661
_cell_length_c 8.396388
_cell_angle_alpha 140.467996
_cell_angle_beta 104.805421
_cell_angle_gamma 59.232673
_cell_volume 792.845570
_symmetry_space_group_name_H-M "P -1"
_symmetry_group_IT_number 2
_symmetry_cell_setting 'triclinic'
loop_
_space_group_symop_operation_xyz
x,y,z
-x,-y,-z
loop_
_atom_site_type_symbol
_atom_site_label
_atom_site_fract_x
_atom_site_fract_y
_atom_site_fract_z
Si Si1 0.869533 0.011093 0.849932
Si Si2 0.553466 0.028578 0.899676
Si Si3 0.668738 0.486500 0.588722
Si Si4 0.873252 0.870376 0.313084
Si Si5 0.513970 0.401790 0.979116
Si Si6 0.547453 0.137731 0.590483
Si Si7 0.667381 0.742861 0.981931
Si Si8 0.825986 0.251369 0.039085
O O1 0.725355 0.022932 0.939337
O O2 0.934792 0.886490 0.534492
O O3 0.801825 0.139450 0.929976
O O4 0.000000 0.000000 0.000000
O O5 0.400816 0.175979 0.065260
O O6 0.569400 0.916332 0.592911
O O7 0.500000 0.000000 0.000000
O O8 0.500000 0.500000 0.500000
O O9 0.648523 0.508498 0.810490
O O10 0.823097 0.344133 0.340385
O O11 0.717718 0.591069 0.707553
O O12 0.812650 0.762844 0.128402
O O13 0.734272 0.015483 0.447313
O O14 0.010892 0.816650 0.129501
O O15 0.678624 0.349091 0.042304
O O16 0.500000 0.500000 0.000000
O O17 0.523192 0.264596 0.688889
O O18 0.491180 0.193084 0.843173
#
# Coordination Sequence:
#
# PCOD8000636 Si02
#       8
#     2   2   2   2   2   2   2   2
#     4  12  25  40  61  94 136 167 206 274 327 382
#     4  11  22  35  60  96 124 161 218 269 315 374
#     4   9  20  39  61  90 124 164 212 257 314 378
#     4  11  21  40  66  94 127 172 213 260 340 387
#     4  10  21  38  68  92 118 170 218 264 313 378
#     4  10  19  39  66  88 124 165 218 264 319 375
#     4  10  19  40  69  84 126 174 215 265 313 383
#     4  11  24  40  62  94 137 166 209 264 329 387
#
# _framework density 20.180475999999999
#
# number of rings (size 3 to 8) (size 9 to 14) (size 15 to 20)
#    0.000    1.500    3.750    2.625    3.500    4.500 
#    0.000    0.000    2.750    2.250    0.000    0.000 
#    0.000    0.000    0.000    0.000    0.000    0.000 
#
# Total GULP energy -198228.770579 kJ/mol
# GULP energy per Si atom -12389.298161 kJ/mol
# Density = 2.013454 g / cm^3
# Si number density = 20.180476 Si / 1000 Ang^3
#
#
#
# Elastic Constant Matrix: (Units=GPa)
#
#
# Indices 1 2 3 4 5 6 
#
# 1 133.0330 51.4428 66.2341 -0.6073 5.5838 11.8217
# 2 51.4428 95.4967 24.4416 -1.5591 7.6772 17.1748
# 3 66.2341 24.4416 117.7692 3.5334 4.6218 4.7981
# 4 -0.6073 -1.5591 3.5334 23.9365 5.0865 8.5104
# 5 5.5838 7.6772 4.6218 5.0865 48.6325 -0.4927
# 6 11.8217 17.1748 4.7981 8.5104 -0.4927 36.0351
#
#
#
# Elastic Compliance Matrix: (Units=1/GPa)
#
#
# Indices 1 2 3 4 5 6 
#
# 1 0.012557 -0.004950 -0.006014 0.001396 -0.000248 -0.001293
# 2 -0.004950 0.014462 0.000012 0.003442 -0.002138 -0.006113
# 3 -0.006014 0.000012 0.011908 -0.002184 -0.000206 0.000895
# 4 0.001396 0.003442 -0.002184 0.048292 -0.005682 -0.013291
# 5 -0.000248 -0.002138 -0.000206 -0.005682 0.021570 0.002764
# 6 -0.001293 -0.006113 0.000895 -0.013291 0.002764 0.034146
#
#
# Mechanical properties :
#
#
# Convention : Reuss Voigt Hill
#
# Bulk Modulus (GPa) = 58.74277 70.05953 64.40115
# Shear Modulus (GPa) = 29.32298 35.33284 32.32791
#
# Velocity S-wave (km/s) = 3.81601 4.18885 4.00677
# Velocity P-wave (km/s) = 6.97049 7.62805 7.30667
#
# Compressibility (1/GPa) = 0.01702337
#
# Stress axis : x y z
#
# Youngs Moduli (GPa) = 79.63656 69.14510 83.97452
#
# Poissons Ratio (x) = 0.34225 0.50506
# Poissons Ratio (y) = 0.39418 -0.00100
# Poissons Ratio (z) = 0.47897 -0.00083
#
# Static dielectric constant tensor:
#      x y z
#    x 3.682490 0.233830 0.208420 
#    y 0.233830 3.390200 0.059590 
#    z 0.208420 0.059590 4.205280 
# 
# 
# High freq. dielectric constant tensor:
#      x y z
#    x 1.790650 0.019380 0.012920 
#    y 0.019380 1.757230 -0.003540 
#    z 0.012920 -0.003540 1.799810 
# 
# From -- ./inp_files/218929.got.cif
#   From: 2010.06.25/outbox.cif.g09.slc.cpg/sg2_110_cif.got.tgz:218929.got - 2010.06.27 13:26:56.
