data_PCOD8000704
_publ_section_title
;
Structure prediction by ZEFSAII (Michael W. Deem and Ramdas Pophale) SiO2 
 PCOD8000704
Probable space group: P -1
;
_chemical_formula_sum "Si O2"
_cell_formula_units_Z 16
_cell_length_a 29.682115
_cell_length_b 9.136498
_cell_length_c 15.276231
_cell_angle_alpha 133.360793
_cell_angle_beta 161.175676
_cell_angle_gamma 37.558946
_cell_volume 770.878979
_symmetry_space_group_name_H-M "P -1"
_symmetry_group_IT_number 2
_symmetry_cell_setting 'triclinic'
loop_
_space_group_symop_operation_xyz
x,y,z
-x,-y,-z
loop_
_atom_site_type_symbol
_atom_site_label
_atom_site_fract_x
_atom_site_fract_y
_atom_site_fract_z
Si Si1 0.397793 0.039868 0.739121
Si Si2 0.697957 0.550034 0.004138
Si Si3 0.072278 0.827474 0.866274
Si Si4 0.432698 0.338614 0.789991
Si Si5 0.983072 0.643452 0.792331
Si Si6 0.915936 0.382596 0.843861
Si Si7 0.955595 0.261191 0.498657
Si Si8 0.192115 0.141724 0.731253
O O1 0.364834 0.280857 0.727846
O O2 0.213294 0.094515 0.444910
O O3 0.500000 0.000000 0.000000
O O4 0.498352 0.795089 0.757249
O O5 0.741650 0.366194 0.925360
O O6 0.827314 0.626042 0.255920
O O7 0.768907 0.396804 0.162317
O O8 0.071826 0.683127 0.891044
O O9 0.902061 0.936833 0.536963
O O10 0.051852 0.078337 0.956501
O O11 0.279615 0.484663 0.496508
O O12 0.500000 0.500000 0.000000
O O13 0.603009 0.072567 0.959384
O O14 0.948719 0.433194 0.632750
O O15 0.104835 0.564658 0.068744
O O16 0.000000 0.500000 0.000000
O O17 0.108349 0.217002 0.702301
O O18 0.000000 0.000000 0.500000
#
# Coordination Sequence:
#
# PCOD8000704 Si02
#       8
#     2   2   2   2   2   2   2   2
#     4  11  22  38  66  99 129 162 217 277 318 378
#     4  10  20  39  64  94 127 168 221 269 321 379
#     4  11  21  43  68  91 126 181 221 260 325 406
#     4  11  23  41  66  94 127 170 224 266 325 389
#     4  12  23  43  65  95 136 174 221 268 328 404
#     4  12  27  43  64  98 138 175 209 276 347 382
#     4  11  22  34  63 102 132 163 215 278 329 374
#     4  10  19  39  68  91 123 164 225 272 311 380
#
# _framework density 20.755528000000002
#
# number of rings (size 3 to 8) (size 9 to 14) (size 15 to 20)
#    0.000    1.000    6.250    1.875    5.250    0.000 
#    0.000    1.250    0.000    0.000    0.000    0.000 
#    0.000    0.000    0.000    0.000    0.000    0.000 
#
# Total GULP energy -198282.085243 kJ/mol
# GULP energy per Si atom -12392.630328 kJ/mol
# Density = 2.070829 g / cm^3
# Si number density = 20.755528 Si / 1000 Ang^3
#
#
#
# Elastic Constant Matrix: (Units=GPa)
#
#
# Indices 1 2 3 4 5 6 
#
# 1 96.8707 46.8280 43.4355 -9.0683 -17.8628 -15.9117
# 2 46.8280 128.7981 16.9114 0.4895 -10.1566 4.5125
# 3 43.4355 16.9114 89.5430 -7.9269 -20.1283 -0.5019
# 4 -9.0683 0.4895 -7.9269 22.8729 -0.0167 -2.1141
# 5 -17.8628 -10.1566 -20.1283 -0.0167 31.8176 -2.9560
# 6 -15.9117 4.5125 -0.5019 -2.1141 -2.9560 30.2945
#
#
#
# Elastic Compliance Matrix: (Units=1/GPa)
#
#
# Indices 1 2 3 4 5 6 
#
# 1 0.020284 -0.006490 -0.006476 0.007109 0.006397 0.012634
# 2 -0.006490 0.010176 0.000860 -0.002969 -0.000331 -0.005150
# 3 -0.006476 0.000860 0.015811 0.002672 0.006415 -0.002455
# 4 0.007109 -0.002969 0.002672 0.048283 0.005514 0.008128
# 5 0.006397 -0.000331 0.006415 0.005514 0.039698 0.007774
# 6 0.012634 -0.005150 -0.002455 0.008128 0.007774 0.041697
#
#
# Mechanical properties :
#
#
# Convention : Reuss Voigt Hill
#
# Bulk Modulus (GPa) = 45.32881 58.84019 52.08450
# Shear Modulus (GPa) = 24.09480 30.86613 27.48047
#
# Velocity S-wave (km/s) = 3.41087 3.86051 3.64264
# Velocity P-wave (km/s) = 6.11546 6.94853 6.54527
#
# Compressibility (1/GPa) = 0.02206102
#
# Stress axis : x y z
#
# Youngs Moduli (GPa) = 49.30000 98.26767 63.24596
#
# Poissons Ratio (x) = 0.63773 0.40955
# Poissons Ratio (y) = 0.31994 -0.05439
# Poissons Ratio (z) = 0.31924 -0.08451
#
# Static dielectric constant tensor:
#      x y z
#    x 3.820630 -0.043920 -0.088560 
#    y -0.043920 4.331950 -0.508840 
#    z -0.088560 -0.508840 3.821520 
# 
# 
# High freq. dielectric constant tensor:
#      x y z
#    x 1.819600 -0.001750 0.000190 
#    y -0.001750 1.820120 -0.014830 
#    z 0.000190 -0.014830 1.787790 
# 
# From -- ./inp_files/282351.got.cif
#   From: 2010.06.25/outbox.cif.g09.slc.cpg/sg2_142_cif.got.tgz:282351.got - 2010.06.27 13:26:56.
