data_PCOD8000243
_publ_section_title
;
Structure prediction by ZEFSAII (Michael W. Deem and Ramdas Pophale) SiO2 
 PCOD8000243
Probable space group: P 1
;
_chemical_formula_sum "Si O2"
_cell_formula_units_Z 8
_cell_length_a 11.135666
_cell_length_b 13.258832
_cell_length_c 14.398158
_cell_angle_alpha 160.145182
_cell_angle_beta 151.858170
_cell_angle_gamma 31.464583
_cell_volume 336.826493
_symmetry_space_group_name_H-M "P 1"
_symmetry_group_IT_number 1
_symmetry_cell_setting 'triclinic'
loop_
_space_group_symop_operation_xyz
x,y,z
loop_
_atom_site_type_symbol
_atom_site_label
_atom_site_fract_x
_atom_site_fract_y
_atom_site_fract_z
Si Si1 0.930990 0.266600 0.434430
Si Si2 0.757041 0.501852 0.879273
Si Si3 0.603638 0.426666 0.183649
Si Si4 0.366180 0.408540 0.726938
Si Si5 0.778561 0.814907 0.345058
Si Si6 0.018828 0.583087 0.938451
Si Si7 0.185780 0.668221 0.651845
Si Si8 0.770343 0.037925 0.789630
O O1 0.706042 0.244848 0.188243
O O2 0.158989 0.419309 0.676190
O O3 0.026896 0.934558 0.248656
O O4 0.837760 0.474190 0.639846
O O5 0.469618 0.680486 0.814085
O O6 0.749984 0.174559 0.635733
O O7 0.879194 0.693476 0.206861
O O8 0.928316 0.477762 0.884197
O O9 0.302627 0.410862 0.961087
O O10 0.673703 0.757810 0.531440
O O11 0.743615 0.301509 0.075630
O O12 0.227133 0.393804 0.518666
O O13 0.587827 0.123276 0.648643
O O14 0.500838 0.710684 0.084267
O O15 0.984224 0.641813 0.408923
O O16 0.062787 0.960620 0.883050
#
# Coordination Sequence:
#
# PCOD8000243 Si02
#       8
#     1   1   1   1   1   1   1   1
#     4  12  26  43  74 108 141 186 228 285 360 419
#     4  11  28  50  73 100 140 190 243 284 342 413
#     4  12  25  44  67 107 141 187 224 284 349 415
#     4  11  24  43  69 108 145 178 223 289 356 422
#     4  11  26  47  70 105 137 189 233 296 343 410
#     4  12  26  50  72 102 144 187 236 289 339 420
#     4  11  25  45  71 104 141 186 226 292 351 412
#     4  12  24  42  68 102 149 179 225 283 352 419
#
# _framework density 23.751100999999998
#
# number of rings (size 3 to 8) (size 9 to 14) (size 15 to 20)
#    0.000    0.500    3.750    3.750    0.000   10.000 
#    2.250    0.000    0.000    0.000    0.000    0.000 
#    0.000    0.000    0.000    0.000    0.000    0.000 
#
# Total GULP energy -99163.127325 kJ/mol
# GULP energy per Si atom -12395.390916 kJ/mol
# Density = 2.369704 g / cm^3
# Si number density = 23.751101 Si / 1000 Ang^3
#
#
#
# Elastic Constant Matrix: (Units=GPa)
#
#
# Indices 1 2 3 4 5 6 
#
# 1 127.5346 43.7149 35.0915 -7.3810 -15.8228 11.6079
# 2 43.7149 138.9007 36.1114 -14.1737 -9.1921 12.1208
# 3 35.0915 36.1114 75.7692 -6.8904 -14.0890 2.8553
# 4 -7.3810 -14.1737 -6.8904 35.1791 7.0569 -8.6563
# 5 -15.8228 -9.1921 -14.0890 7.0569 35.3919 0.0994
# 6 11.6079 12.1208 2.8553 -8.6563 0.0994 34.2371
#
#
#
# Elastic Compliance Matrix: (Units=1/GPa)
#
#
# Indices 1 2 3 4 5 6 
#
# 1 0.009912 -0.001961 -0.003085 -0.000503 0.002801 -0.002544
# 2 -0.001961 0.008997 -0.003157 0.002226 -0.000236 -0.001693
# 3 -0.003085 -0.003157 0.016985 0.000750 0.004410 0.000924
# 4 -0.000503 0.002226 0.000750 0.032385 -0.005826 0.007525
# 5 0.002801 -0.000236 0.004410 -0.005826 0.032371 -0.002801
# 6 -0.002544 -0.001693 0.000924 0.007525 -0.002801 0.032504
#
#
# Mechanical properties :
#
#
# Convention : Reuss Voigt Hill
#
# Bulk Modulus (GPa) = 51.31631 63.56001 57.43816
# Shear Modulus (GPa) = 32.03982 36.11405 34.07694
#
# Velocity S-wave (km/s) = 3.67683 3.90362 3.79192
# Velocity P-wave (km/s) = 6.29907 6.86561 6.58843
#
# Compressibility (1/GPa) = 0.01948698
#
# Stress axis : x y z
#
# Youngs Moduli (GPa) = 100.88605 111.15147 58.87629
#
# Poissons Ratio (x) = 0.21802 0.18162
# Poissons Ratio (y) = 0.19789 0.18588
# Poissons Ratio (z) = 0.31121 0.35091
#
# Static dielectric constant tensor:
#      x y z
#    x 4.192940 0.117500 -0.174660 
#    y 0.117500 4.618880 -0.124760 
#    z -0.174660 -0.124760 3.968620 
# 
# 
# High freq. dielectric constant tensor:
#      x y z
#    x 1.935810 0.012890 -0.019280 
#    y 0.012890 1.954530 -0.002550 
#    z -0.019280 -0.002550 1.932520 
# 
# From -- ./inp_files/7277.got.cif
#   From: 2010.03.12/outbox.cif.g09.slc.cpg/sg1_4_cif.got.tgz:7277.got - 2010.03.29 11:57:58.
