data_PCOD8000607
_publ_section_title
;
Structure prediction by ZEFSAII (Michael W. Deem and Ramdas Pophale) SiO2 
 PCOD8000607
Probable space group: P -1
;
_chemical_formula_sum "Si O2"
_cell_formula_units_Z 12
_cell_length_a 10.788682
_cell_length_b 8.921112
_cell_length_c 19.174359
_cell_angle_alpha 145.684411
_cell_angle_beta 30.952995
_cell_angle_gamma 137.551047
_cell_volume 532.320289
_symmetry_space_group_name_H-M "P -1"
_symmetry_group_IT_number 2
_symmetry_cell_setting 'triclinic'
loop_
_space_group_symop_operation_xyz
x,y,z
-x,-y,-z
loop_
_atom_site_type_symbol
_atom_site_label
_atom_site_fract_x
_atom_site_fract_y
_atom_site_fract_z
Si Si1 0.974822 0.955848 0.913312
Si Si2 0.274164 0.459251 0.371375
Si Si3 0.834449 0.559899 0.432561
Si Si4 0.639500 0.631308 0.147603
Si Si5 0.305355 0.908976 0.324563
Si Si6 0.578699 0.102875 0.890545
O O1 0.113149 0.694319 0.734188
O O2 0.094251 0.212495 0.909274
O O3 0.704574 0.913627 0.997879
O O4 0.000000 0.000000 0.000000
O O5 0.312810 0.536370 0.463528
O O6 0.468657 0.644548 0.302769
O O7 0.000000 0.500000 0.500000
O O8 0.337726 0.157383 0.212089
O O9 0.081869 0.739314 0.405730
O O10 0.685873 0.769973 0.542054
O O11 0.549233 0.811843 0.198121
O O12 0.652777 0.334278 0.999128
O O13 0.275854 0.845401 0.231836
#
# Coordination Sequence:
#
# PCOD8000607 Si02
#       6
#     2   2   2   2   2   2
#     4  12  24  41  66  97 126 166 212 261 315 367
#     4  11  23  43  66  93 126 173 206 256 324 371
#     4  10  22  39  64  93 132 159 212 262 306 376
#     4  12  23  40  68  95 125 171 210 249 324 375
#     4  10  19  39  65  92 123 167 205 259 308 359
#     4  11  23  43  65  94 131 159 214 267 301 378
#
# _framework density 22.542819999999999
#
# number of rings (size 3 to 8) (size 9 to 14) (size 15 to 20)
#    0.000    1.000    5.000    2.000    0.000    2.000 
#    0.000    0.000    0.000    0.000    0.000    0.000 
#    0.000    0.000    0.000    0.000    0.000    0.000 
#
# Total GULP energy -148760.743328 kJ/mol
# GULP energy per Si atom -12396.728611 kJ/mol
# Density = 2.249151 g / cm^3
# Si number density = 22.542820 Si / 1000 Ang^3
#
#
#
# Elastic Constant Matrix: (Units=GPa)
#
#
# Indices 1 2 3 4 5 6 
#
# 1 26.6931 20.2892 24.0377 13.3130 6.1136 -9.4325
# 2 20.2892 124.6702 47.1644 -8.0784 16.9080 -8.2562
# 3 24.0377 47.1644 151.3366 22.0814 12.8560 -2.0429
# 4 13.3130 -8.0784 22.0814 41.3531 -4.8434 3.0463
# 5 6.1136 16.9080 12.8560 -4.8434 36.6822 -1.4335
# 6 -9.4325 -8.2562 -2.0429 3.0463 -1.4335 26.1110
#
#
#
# Elastic Compliance Matrix: (Units=1/GPa)
#
#
# Indices 1 2 3 4 5 6 
#
# 1 0.071330 -0.009010 -0.003690 -0.025641 -0.008845 0.025136
# 2 -0.009010 0.011179 -0.002849 0.006450 -0.001832 -0.000796
# 3 -0.003690 -0.002849 0.008830 -0.004206 -0.001767 -0.001149
# 4 -0.025641 0.006450 -0.004206 0.037647 0.007294 -0.011544
# 5 -0.008845 -0.001832 -0.001767 0.007294 0.031043 -0.003060
# 6 0.025136 -0.000796 -0.001149 -0.011544 -0.003060 0.048216
#
#
# Mechanical properties :
#
#
# Convention : Reuss Voigt Hill
#
# Bulk Modulus (GPa) = 16.59973 53.96470 35.28222
# Shear Modulus (GPa) = 19.27353 34.90985 27.09169
#
# Velocity S-wave (km/s) = 2.92717 3.93950 3.47044
# Velocity P-wave (km/s) = 4.33636 6.68458 5.63416
#
# Compressibility (1/GPa) = 0.06024195
#
# Stress axis : x y z
#
# Youngs Moduli (GPa) = 14.01925 89.45366 113.24979
#
# Poissons Ratio (x) = 0.80596 0.41788
# Poissons Ratio (y) = 0.12631 0.32265
# Poissons Ratio (z) = 0.05173 0.25486
#
# Static dielectric constant tensor:
#      x y z
#    x 3.737740 -0.223990 -0.125900 
#    y -0.223990 4.224230 -0.112050 
#    z -0.125900 -0.112050 4.339080 
# 
# 
# High freq. dielectric constant tensor:
#      x y z
#    x 1.856970 -0.019110 -0.006110 
#    y -0.019110 1.896760 -0.007940 
#    z -0.006110 -0.007940 1.909960 
# 
# From -- ./inp_files/27142.got.cif
#   From: 2010.06.25/outbox.cif.g09.slc.cpg/sg2_14_cif.got.tgz:27142.got - 2010.06.27 13:26:56.
