data_PCOD8000782
_publ_section_title
;
Structure prediction by ZEFSAII (Michael W. Deem and Ramdas Pophale) SiO2 
 PCOD8000782
Probable space group: P -1
;
_chemical_formula_sum "Si O2"
_cell_formula_units_Z 16
_cell_length_a 17.059790
_cell_length_b 11.629641
_cell_length_c 9.578105
_cell_angle_alpha 71.241550
_cell_angle_beta 49.134757
_cell_angle_gamma 112.070957
_cell_volume 781.640463
_symmetry_space_group_name_H-M "P -1"
_symmetry_group_IT_number 2
_symmetry_cell_setting 'triclinic'
loop_
_space_group_symop_operation_xyz
x,y,z
-x,-y,-z
loop_
_atom_site_type_symbol
_atom_site_label
_atom_site_fract_x
_atom_site_fract_y
_atom_site_fract_z
Si Si1 0.807031 0.372899 0.235272
Si Si2 0.432413 0.570005 0.871395
Si Si3 0.284166 0.333511 0.412693
Si Si4 0.883413 0.500854 0.588639
Si Si5 0.829441 0.021219 0.446800
Si Si6 0.120751 0.368643 0.179289
Si Si7 0.910772 0.648043 0.218223
Si Si8 0.465968 0.105854 0.245106
O O1 0.761929 0.427923 0.389145
O O2 0.643935 0.122155 0.507456
O O3 0.821832 0.455278 0.038171
O O4 0.000000 0.500000 0.000000
O O5 0.563437 0.580605 0.698222
O O6 0.528445 0.795727 0.665952
O O7 0.358751 0.499087 0.146620
O O8 0.283337 0.424857 0.978667
O O9 0.156870 0.282633 0.687874
O O10 0.192141 0.139801 0.504196
O O11 0.914426 0.632419 0.618466
O O12 0.969457 0.630666 0.293610
O O13 0.000000 0.500000 0.500000
O O14 0.670861 0.265950 0.901934
O O15 0.949978 0.140035 0.398699
O O16 0.644811 0.919775 0.732212
O O17 0.918889 0.175332 0.150761
#
# Coordination Sequence:
#
# PCOD8000782 Si02
#       8
#     2   2   2   2   2   2   2   2
#     4  11  21  38  64  91 124 160 204 249 305 374
#     4   9  20  37  61  88 122 157 207 249 304 367
#     4  10  19  40  60  88 117 167 204 249 305 365
#     4  11  24  39  59  91 131 155 201 261 301 361
#     4  10  22  37  68  84 116 165 210 242 305 369
#     4  10  20  40  59  91 120 158 205 254 299 361
#     4  11  21  40  61  91 123 155 204 258 299 361
#     4  10  20  41  61  87 115 175 194 234 316 383
#
# _framework density 20.46977
#
# number of rings (size 3 to 8) (size 9 to 14) (size 15 to 20)
#    0.000    1.750    5.000    1.125    0.000    3.000 
#    2.250    2.500    0.000    0.000    0.000    0.000 
#    0.000    0.000    0.000    0.000    0.000    0.000 
#
# Total GULP energy -198209.489533 kJ/mol
# GULP energy per Si atom -12388.093096 kJ/mol
# Density = 2.042318 g / cm^3
# Si number density = 20.469770 Si / 1000 Ang^3
#
#
#
# Elastic Constant Matrix: (Units=GPa)
#
#
# Indices 1 2 3 4 5 6 
#
# 1 133.8114 34.1297 35.4252 -11.1651 -28.8013 10.3767
# 2 34.1297 102.9745 33.4547 -15.4539 -9.9991 1.3772
# 3 35.4252 33.4547 62.9153 -12.0066 -12.5267 6.5227
# 4 -11.1651 -15.4539 -12.0066 26.3158 8.0861 -2.5400
# 5 -28.8013 -9.9991 -12.5267 8.0861 41.2968 -2.3710
# 6 10.3767 1.3772 6.5227 -2.5400 -2.3710 37.6302
#
#
#
# Elastic Compliance Matrix: (Units=1/GPa)
#
#
# Indices 1 2 3 4 5 6 
#
# 1 0.010161 -0.001670 -0.003581 -0.000174 0.005527 -0.001783
# 2 -0.001670 0.012538 -0.005068 0.004609 -0.000502 0.001159
# 3 -0.003581 -0.005068 0.022134 0.004798 0.001923 -0.002219
# 4 -0.000174 0.004609 0.004798 0.044904 -0.006246 0.001685
# 5 0.005527 -0.000502 0.001923 -0.006246 0.029732 -0.000387
# 6 -0.001783 0.001159 -0.002219 0.001685 -0.000387 0.027498
#
#
# Mechanical properties :
#
#
# Convention : Reuss Voigt Hill
#
# Bulk Modulus (GPa) = 41.32871 56.19115 48.75993
# Shear Modulus (GPa) = 28.46272 34.16131 31.31202
#
# Velocity S-wave (km/s) = 3.73295 4.08961 3.91534
# Velocity P-wave (km/s) = 6.23008 7.05764 6.65673
#
# Compressibility (1/GPa) = 0.02419625
#
# Stress axis : x y z
#
# Youngs Moduli (GPa) = 98.41934 79.75531 45.17969
#
# Poissons Ratio (x) = 0.13317 0.16179
# Poissons Ratio (y) = 0.16434 0.22895
# Poissons Ratio (z) = 0.35244 0.40416
#
# Static dielectric constant tensor:
#      x y z
#    x 3.957730 -0.103930 -0.231090 
#    y -0.103930 3.855500 -0.187240 
#    z -0.231090 -0.187240 3.648620 
# 
# 
# High freq. dielectric constant tensor:
#      x y z
#    x 1.812960 -0.012410 -0.011660 
#    y -0.012410 1.797490 -0.015460 
#    z -0.011660 -0.015460 1.773230 
# 
# From -- ./inp_files/241005.got.cif
#   From: 2010.06.25/outbox.cif.g09.slc.cpg/sg2_121_cif.got.tgz:241005.got - 2010.06.27 13:26:56.
