data_PCOD8000840
_publ_section_title
;
Structure prediction by ZEFSAII (Michael W. Deem and Ramdas Pophale) SiO2 
 PCOD8000840
Probable space group: P -1
;
_chemical_formula_sum "Si O2"
_cell_formula_units_Z 16
_cell_length_a 12.265379
_cell_length_b 8.657529
_cell_length_c 18.671625
_cell_angle_alpha 40.250103
_cell_angle_beta 128.112986
_cell_angle_gamma 98.333371
_cell_volume 773.171604
_symmetry_space_group_name_H-M "P -1"
_symmetry_group_IT_number 2
_symmetry_cell_setting 'triclinic'
loop_
_space_group_symop_operation_xyz
x,y,z
-x,-y,-z
loop_
_atom_site_type_symbol
_atom_site_label
_atom_site_fract_x
_atom_site_fract_y
_atom_site_fract_z
Si Si1 0.133720 0.394930 0.320799
Si Si2 0.647919 0.427457 0.640009
Si Si3 0.790833 0.083900 0.955596
Si Si4 0.031574 0.214228 0.476419
Si Si5 0.309058 0.091139 0.885055
Si Si6 0.695378 0.253331 0.129439
Si Si7 0.964750 0.846405 0.904984
Si Si8 0.949114 0.363488 0.136310
O O1 0.329861 0.313351 0.423577
O O2 0.125214 0.290432 0.432382
O O3 0.109486 0.221812 0.309848
O O4 0.961514 0.757256 0.105689
O O5 0.500000 0.500000 0.500000
O O6 0.642094 0.280151 0.762909
O O7 0.831640 0.198806 0.751409
O O8 0.843816 0.291340 0.932621
O O9 0.707296 0.026144 0.005448
O O10 0.846667 0.535356 0.318119
O O11 0.000000 0.000000 0.500000
O O12 0.168215 0.028525 0.662393
O O13 0.313007 0.900727 0.889287
O O14 0.500000 0.000000 0.000000
O O15 0.775690 0.426155 0.079819
O O16 0.500000 0.500000 0.000000
O O17 0.969856 0.881333 0.809024
O O18 0.890476 0.672085 0.962122
#
# Coordination Sequence:
#
# PCOD8000840 Si02
#       8
#     2   2   2   2   2   2   2   2
#     4  10  20  38  65  86 121 170 209 258 319 387
#     4  11  22  38  60  94 128 161 206 267 326 381
#     4  10  19  40  63  88 123 166 215 255 319 391
#     4  11  23  42  67  94 129 172 219 271 328 386
#     4  11  25  43  65  95 132 174 222 269 329 394
#     4  12  26  43  66  99 132 173 223 275 328 392
#     4  10  20  38  66  92 118 166 212 260 318 393
#     4  11  20  38  69  90 122 163 219 261 322 385
#
# _framework density 20.693981999999998
#
# number of rings (size 3 to 8) (size 9 to 14) (size 15 to 20)
#    0.000    1.250    5.000    1.875    1.750    2.000 
#    2.250    0.625    0.000    0.000    0.000    0.000 
#    0.000    0.000    0.000    0.000    0.000    0.000 
#
# Total GULP energy -198254.848538 kJ/mol
# GULP energy per Si atom -12390.928034 kJ/mol
# Density = 2.064688 g / cm^3
# Si number density = 20.693982 Si / 1000 Ang^3
#
#
#
# Elastic Constant Matrix: (Units=GPa)
#
#
# Indices 1 2 3 4 5 6 
#
# 1 124.2031 46.9146 62.8854 14.3607 -2.9217 9.2954
# 2 46.9146 116.8453 48.3982 29.4400 3.5118 -0.4887
# 3 62.8854 48.3982 118.4819 28.7869 -4.0009 3.5490
# 4 14.3607 29.4400 28.7869 44.8937 -0.6964 0.7267
# 5 -2.9217 3.5118 -4.0009 -0.6964 26.5472 3.4708
# 6 9.2954 -0.4887 3.5490 0.7267 3.4708 41.7826
#
#
#
# Elastic Compliance Matrix: (Units=1/GPa)
#
#
# Indices 1 2 3 4 5 6 
#
# 1 0.011940 -0.003032 -0.005395 0.001686 0.001256 -0.002367
# 2 -0.003032 0.012170 -0.002097 -0.005728 -0.002581 0.001309
# 3 -0.005395 -0.002097 0.013568 -0.005575 0.001584 -0.000011
# 4 0.001686 -0.005728 -0.005575 0.029090 0.000938 -0.000552
# 5 0.001256 -0.002581 0.001584 0.000938 0.038894 -0.003691
# 6 -0.002367 0.001309 -0.000011 -0.000552 -0.003691 0.024793
#
#
# Mechanical properties :
#
#
# Convention : Reuss Voigt Hill
#
# Bulk Modulus (GPa) = 60.12869 75.10296 67.61582
# Shear Modulus (GPa) = 31.83766 36.06684 33.95225
#
# Velocity S-wave (km/s) = 3.92662 4.17929 4.05493
# Velocity P-wave (km/s) = 7.04819 7.72396 7.39380
#
# Compressibility (1/GPa) = 0.01663100
#
# Stress axis : x y z
#
# Youngs Moduli (GPa) = 83.75326 82.16655 73.70016
#
# Poissons Ratio (x) = 0.24911 0.39762
# Poissons Ratio (y) = 0.25392 0.15455
# Poissons Ratio (z) = 0.45186 0.17231
#
# Static dielectric constant tensor:
#      x y z
#    x 3.868450 0.066350 -0.112260 
#    y 0.066350 4.510230 0.404560 
#    z -0.112260 0.404560 3.702750 
# 
# 
# High freq. dielectric constant tensor:
#      x y z
#    x 1.817670 0.003740 -0.023250 
#    y 0.003740 1.833710 0.023610 
#    z -0.023250 0.023610 1.776540 
# 
# From -- ./inp_files/540604.got.cif
#   From: 2010.06.25/outbox.cif.g09.slc.cpg/sg2_271_cif.got.tgz:540604.got - 2010.06.27 13:26:56.
