data_PCOD8000171
_publ_section_title
;
Structure prediction by ZEFSAII (Michael W. Deem and Ramdas Pophale) SiO2 
 PCOD8000171
Probable space group: P 1
;
_chemical_formula_sum "Si O2"
_cell_formula_units_Z 8
_cell_length_a 9.333287
_cell_length_b 8.971687
_cell_length_c 5.163551
_cell_angle_alpha 74.684379
_cell_angle_beta 107.045976
_cell_angle_gamma 61.148317
_cell_volume 316.762822
_symmetry_space_group_name_H-M "P 1"
_symmetry_group_IT_number 1
_symmetry_cell_setting 'triclinic'
loop_
_space_group_symop_operation_xyz
x,y,z
loop_
_atom_site_type_symbol
_atom_site_label
_atom_site_fract_x
_atom_site_fract_y
_atom_site_fract_z
Si Si1 0.798210 0.704360 0.879040
Si Si2 0.506399 0.693852 0.470664
Si Si3 0.419439 0.907178 0.820316
Si Si4 0.578784 0.288113 0.717470
Si Si5 0.116851 0.277688 0.250006
Si Si6 0.074191 0.795682 0.861674
Si Si7 0.000340 0.018024 0.208554
Si Si8 0.363903 0.357290 0.081505
O O1 0.700356 0.672784 0.604050
O O2 0.633344 0.841115 0.942034
O O3 0.887677 0.806425 0.779407
O O4 0.960404 0.492260 0.187019
O O5 0.560120 0.483264 0.598492
O O6 0.396155 0.813766 0.099288
O O7 0.124445 0.844189 0.143536
O O8 0.262885 0.140257 0.621455
O O9 0.373015 0.824035 0.585240
O O10 0.530508 0.242848 0.435198
O O11 0.440100 0.307955 0.854014
O O12 0.787920 0.107103 0.980255
O O13 0.020028 0.189330 0.112632
O O14 0.230884 0.291322 0.073683
O O15 0.038337 0.947706 0.557314
O O16 0.253351 0.583754 0.975522
#
# Coordination Sequence:
#
# PCOD8000171 Si02
#       8
#     1   1   1   1   1   1   1   1
#     4   9  24  48  69 107 147 193 230 302 365 430
#     4  10  23  44  69 102 144 188 229 293 361 422
#     4  10  24  41  74  98 143 186 241 283 355 429
#     4  12  25  46  75 107 146 190 240 304 364 425
#     4  11  26  51  71 113 139 199 239 301 358 442
#     4  11  27  44  73 104 151 185 241 301 364 424
#     4  12  27  46  75 108 144 187 249 299 359 433
#     4  11  28  48  74 103 152 188 241 297 372 429
#
# _framework density 25.255490000000002
#
# number of rings (size 3 to 8) (size 9 to 14) (size 15 to 20)
#    0.750    0.500    1.250    2.250   10.500    3.000 
#    4.500    0.000    0.000    0.000    0.000    0.000 
#    0.000    0.000    0.000    0.000    0.000    0.000 
#
# Total GULP energy -99213.276754 kJ/mol
# GULP energy per Si atom -12401.659594 kJ/mol
# Density = 2.519801 g / cm^3
# Si number density = 25.255490 Si / 1000 Ang^3
#
#
#
# Elastic Constant Matrix: (Units=GPa)
#
#
# Indices 1 2 3 4 5 6 
#
# 1 110.1524 24.7163 23.1490 3.9969 -13.1070 10.0298
# 2 24.7163 63.8624 32.9476 -5.7184 -8.4521 0.4880
# 3 23.1490 32.9476 144.6340 -2.2875 -20.7169 -8.1768
# 4 3.9969 -5.7184 -2.2875 44.7996 -4.3746 9.0675
# 5 -13.1070 -8.4521 -20.7169 -4.3746 35.9851 -3.6480
# 6 10.0298 0.4880 -8.1768 9.0675 -3.6480 39.5579
#
#
#
# Elastic Compliance Matrix: (Units=1/GPa)
#
#
# Indices 1 2 3 4 5 6 
#
# 1 0.010517 -0.003442 -0.000720 -0.000706 0.002279 -0.002401
# 2 -0.003442 0.019320 -0.003629 0.002861 0.001478 -0.000635
# 3 -0.000720 -0.003629 0.008571 -0.000048 0.004056 0.002384
# 4 -0.000706 0.002861 -0.000048 0.024057 0.002792 -0.005123
# 5 0.002279 0.001478 0.004056 0.002792 0.031899 0.002544
# 6 -0.002401 -0.000635 0.002384 -0.005123 0.002544 0.027798
#
#
# Mechanical properties :
#
#
# Convention : Reuss Voigt Hill
#
# Bulk Modulus (GPa) = 43.81018 53.36385 48.58702
# Shear Modulus (GPa) = 34.39919 39.92424 37.16171
#
# Velocity S-wave (km/s) = 3.69460 3.98026 3.84009
# Velocity P-wave (km/s) = 5.96528 6.50375 6.24032
#
# Compressibility (1/GPa) = 0.02282575
#
# Stress axis : x y z
#
# Youngs Moduli (GPa) = 95.08071 51.76004 116.67523
#
# Poissons Ratio (x) = 0.17818 0.08396
# Poissons Ratio (y) = 0.32732 0.42342
# Poissons Ratio (z) = 0.06842 0.18784
#
# Static dielectric constant tensor:
#      x y z
#    x 4.696650 0.003570 0.248870 
#    y 0.003570 4.406800 -0.150360 
#    z 0.248870 -0.150360 4.530290 
# 
# 
# High freq. dielectric constant tensor:
#      x y z
#    x 2.030220 0.007770 0.015290 
#    y 0.007770 1.998960 -0.014520 
#    z 0.015290 -0.014520 2.007070 
# 
# From -- ./inp_files/1467.got.cif
#   From: 2010.03.12/outbox.cif.g09.slc.cpg/sg1_1_cif.got.tgz:1467.got - 2010.03.29 11:57:58.
