data_PCOD8000536
_publ_section_title
;
Structure prediction by ZEFSAII (Michael W. Deem and Ramdas Pophale) SiO2 
 PCOD8000536
Probable space group: P -1
;
_chemical_formula_sum "Si O2"
_cell_formula_units_Z 16
_cell_length_a 12.134899
_cell_length_b 9.371971
_cell_length_c 11.871783
_cell_angle_alpha 129.333043
_cell_angle_beta 89.033605
_cell_angle_gamma 61.076061
_cell_volume 802.998214
_symmetry_space_group_name_H-M "P -1"
_symmetry_group_IT_number 2
_symmetry_cell_setting 'triclinic'
loop_
_space_group_symop_operation_xyz
x,y,z
-x,-y,-z
loop_
_atom_site_type_symbol
_atom_site_label
_atom_site_fract_x
_atom_site_fract_y
_atom_site_fract_z
Si Si1 0.003130 0.468542 0.618664
Si Si2 0.161915 0.495303 0.021561
Si Si3 0.699703 0.315085 0.294000
Si Si4 0.618660 0.338818 0.553646
Si Si5 0.405337 0.060594 0.676819
Si Si6 0.294648 0.292724 0.564751
Si Si7 0.135073 0.726761 0.358166
Si Si8 0.939481 0.750704 0.972665
O O1 0.903660 0.404671 0.625482
O O2 0.957288 0.694884 0.810098
O O3 0.000000 0.500000 0.500000
O O4 0.173001 0.265404 0.541977
O O5 0.167711 0.651178 0.189775
O O6 0.080376 0.419504 0.048317
O O7 0.321402 0.248183 0.873169
O O8 0.085211 0.657425 0.989532
O O9 0.659444 0.388261 0.460532
O O10 0.546637 0.441993 0.297932
O O11 0.771001 0.431988 0.313686
O O12 0.811006 0.032042 0.129777
O O13 0.722242 0.320228 0.632473
O O14 0.649219 0.088776 0.417088
O O15 0.369508 0.217168 0.646137
O O16 0.575187 0.885028 0.614735
O O17 0.000000 0.000000 0.500000
#
# Coordination Sequence:
#
# PCOD8000536 Si02
#       8
#     2   2   2   2   2   2   2   2
#     4  11  23  40  54  85 125 156 189 233 306 355
#     4  10  20  37  63  90 112 152 205 246 287 336
#     4  10  20  36  60  89 116 153 197 240 290 348
#     4  10  20  37  62  87 119 150 198 243 292 342
#     4  10  19  39  64  85 112 156 199 241 281 351
#     4  10  21  36  61  84 117 156 192 234 293 354
#     4  11  23  38  62  90 116 153 197 251 290 338
#     4  10  20  37  61  85 116 154 201 245 281 352
#
# _framework density 19.925325999999998
#
# number of rings (size 3 to 8) (size 9 to 14) (size 15 to 20)
#    0.000    1.750    2.500    2.250    1.750    0.500 
#    4.500    1.250    0.000    3.000    0.000    0.000 
#    0.000    0.000    0.000    0.000    0.000    0.000 
#
# Total GULP energy -198221.057419 kJ/mol
# GULP energy per Si atom -12388.816089 kJ/mol
# Density = 1.987998 g / cm^3
# Si number density = 19.925326 Si / 1000 Ang^3
#
#
#
# Elastic Constant Matrix: (Units=GPa)
#
#
# Indices 1 2 3 4 5 6 
#
# 1 75.1911 7.8015 44.8346 14.5620 -12.3071 -15.1830
# 2 7.8015 73.3628 44.1777 7.4755 1.9166 -4.6128
# 3 44.8346 44.1777 142.4696 3.7170 -3.7913 -23.2637
# 4 14.5620 7.4755 3.7170 30.9115 0.7508 -6.6475
# 5 -12.3071 1.9166 -3.7913 0.7508 20.7231 3.8187
# 6 -15.1830 -4.6128 -23.2637 -6.6475 3.8187 33.3340
#
#
#
# Elastic Compliance Matrix: (Units=1/GPa)
#
#
# Indices 1 2 3 4 5 6 
#
# 1 0.020988 0.002486 -0.006471 -0.009496 0.010983 0.002236
# 2 0.002486 0.017672 -0.006452 -0.005044 -0.000817 -0.001838
# 3 -0.006471 -0.006452 0.011782 0.004436 -0.002270 0.005527
# 4 -0.009496 -0.005044 0.004436 0.039116 -0.007009 0.006676
# 5 0.010983 -0.000817 -0.002270 -0.007009 0.055512 -0.004452
# 6 0.002236 -0.001838 0.005527 0.006676 -0.004452 0.036462
#
#
# Mechanical properties :
#
#
# Convention : Reuss Voigt Hill
#
# Bulk Modulus (GPa) = 33.81995 53.85014 43.83505
# Shear Modulus (GPa) = 23.55565 29.94102 26.74834
#
# Velocity S-wave (km/s) = 3.44204 3.88062 3.66789
# Velocity P-wave (km/s) = 5.72774 6.86758 6.32340
#
# Compressibility (1/GPa) = 0.02956834
#
# Stress axis : x y z
#
# Youngs Moduli (GPa) = 47.64636 56.58754 84.87175
#
# Poissons Ratio (x) = -0.14067 0.54917
# Poissons Ratio (y) = -0.11844 0.54761
# Poissons Ratio (z) = 0.30830 0.36512
#
# Static dielectric constant tensor:
#      x y z
#    x 3.974240 -0.142550 -0.187250 
#    y -0.142550 3.735930 -0.062410 
#    z -0.187250 -0.062410 3.718770 
# 
# 
# High freq. dielectric constant tensor:
#      x y z
#    x 1.773750 0.002460 -0.018840 
#    y 0.002460 1.774570 0.004520 
#    z -0.018840 0.004520 1.770110 
# 
# From -- ./inp_files/260009.got.cif
#   From: 2010.06.25/outbox.cif.g09.slc.cpg/sg2_131_cif.got.tgz:260009.got - 2010.06.27 13:26:56.
