data_PCOD8000766
_publ_section_title
;
Structure prediction by ZEFSAII (Michael W. Deem and Ramdas Pophale) SiO2 
 PCOD8000766
Probable space group: P -1
;
_chemical_formula_sum "Si O2"
_cell_formula_units_Z 16
_cell_length_a 11.245204
_cell_length_b 24.987917
_cell_length_c 12.193842
_cell_angle_alpha 140.760211
_cell_angle_beta 24.194615
_cell_angle_gamma 140.428068
_cell_volume 860.490255
_symmetry_space_group_name_H-M "P -1"
_symmetry_group_IT_number 2
_symmetry_cell_setting 'triclinic'
loop_
_space_group_symop_operation_xyz
x,y,z
-x,-y,-z
loop_
_atom_site_type_symbol
_atom_site_label
_atom_site_fract_x
_atom_site_fract_y
_atom_site_fract_z
Si Si1 0.297270 0.835354 0.773490
Si Si2 0.224860 0.629208 0.307907
Si Si3 0.727197 0.547893 0.977781
Si Si4 0.202432 0.264035 0.128454
Si Si5 0.704277 0.347747 0.458720
Si Si6 0.384950 0.112840 0.843802
Si Si7 0.928469 0.950821 0.368789
Si Si8 0.071999 0.959024 0.709209
O O1 0.386650 0.757360 0.642321
O O2 0.588049 0.893475 0.560846
O O3 0.057134 0.800362 0.824603
O O4 0.160021 0.890741 0.063569
O O5 0.179689 0.527760 0.147727
O O6 0.211639 0.628943 0.449699
O O7 0.948668 0.670145 0.569170
O O8 0.543954 0.684684 0.085756
O O9 0.012652 0.613947 0.793006
O O10 0.500000 0.500000 0.000000
O O11 0.562604 0.608318 0.284577
O O12 0.353564 0.210069 0.000457
O O13 0.731731 0.111846 0.556199
O O14 0.230678 0.050948 0.776655
O O15 0.242477 0.080395 0.029650
O O16 0.983106 0.023541 0.343182
O O17 0.000000 0.000000 0.500000
#
# Coordination Sequence:
#
# PCOD8000766 Si02
#       8
#     2   2   2   2   2   2   2   2
#     4  11  21  34  49  71  94 128 174 206 243 294
#     4  10  18  26  42  66  98 130 163 191 234 287
#     4  10  16  27  39  62  92 129 165 190 227 281
#     4  11  19  30  47  71  97 131 161 205 236 281
#     4  10  18  27  44  61  89 129 165 203 226 271
#     4  10  20  32  52  71  98 124 162 210 240 289
#     4  12  24  38  53  70  98 131 167 216 255 292
#     4  10  21  34  50  72  92 126 165 206 252 292
#
# _framework density 18.594052000000001
#
# number of rings (size 3 to 8) (size 9 to 14) (size 15 to 20)
#    0.000    1.500    1.250    9.375    3.500    0.000 
#    0.000    0.000    0.000    0.000    0.000    0.000 
#    0.000    0.000    0.000   78.750    0.000    9.000 
#
# Total GULP energy -198359.900426 kJ/mol
# GULP energy per Si atom -12397.493777 kJ/mol
# Density = 1.855173 g / cm^3
# Si number density = 18.594052 Si / 1000 Ang^3
#
#
#
# Elastic Constant Matrix: (Units=GPa)
#
#
# Indices 1 2 3 4 5 6 
#
# 1 48.9391 27.3771 18.3100 10.4872 5.6613 -16.7554
# 2 27.3771 75.6189 34.1400 14.4858 -7.7881 -25.2176
# 3 18.3100 34.1400 125.1102 16.4246 -15.4024 -13.8021
# 4 10.4872 14.4858 16.4246 48.7441 -12.6283 -11.6240
# 5 5.6613 -7.7881 -15.4024 -12.6283 22.5050 5.2157
# 6 -16.7554 -25.2176 -13.8021 -11.6240 5.2157 16.6781
#
#
#
# Elastic Compliance Matrix: (Units=1/GPa)
#
#
# Indices 1 2 3 4 5 6 
#
# 1 0.039820 -0.001147 -0.003569 -0.003695 -0.024277 0.040333
# 2 -0.001147 0.028165 -0.003422 0.002633 -0.000216 0.040505
# 3 -0.003569 -0.003422 0.010047 -0.000498 0.007002 -0.002981
# 4 -0.003695 0.002633 -0.000498 0.027795 0.013628 0.014967
# 5 -0.024277 -0.000216 0.007002 0.013628 0.070176 -0.031371
# 6 0.040333 0.040505 -0.002981 0.014967 -0.031371 0.179498
#
#
# Mechanical properties :
#
#
# Convention : Reuss Voigt Hill
#
# Bulk Modulus (GPa) = 16.19247 45.48026 30.83636
# Shear Modulus (GPa) = 12.74329 28.90820 20.82574
#
# Velocity S-wave (km/s) = 2.62074 3.94725 3.35030
# Velocity P-wave (km/s) = 4.22907 6.72956 5.62015
#
# Compressibility (1/GPa) = 0.06175712
#
# Stress axis : x y z
#
# Youngs Moduli (GPa) = 25.11323 35.50446 99.52784
#
# Poissons Ratio (x) = 0.04073 0.35519
# Poissons Ratio (y) = 0.02881 0.34055
# Poissons Ratio (z) = 0.08962 0.12148
#
# Static dielectric constant tensor:
#      x y z
#    x 2.847970 -0.486520 -0.335510 
#    y -0.486520 3.842800 0.521450 
#    z -0.335510 0.521450 4.207320 
# 
# 
# High freq. dielectric constant tensor:
#      x y z
#    x 1.641420 -0.046230 -0.018690 
#    y -0.046230 1.720140 0.001670 
#    z -0.018690 0.001670 1.756670 
# 
# From -- ./inp_files/436738.got.cif
#   From: 2010.06.25/outbox.cif.g09.slc.cpg/sg2_219_cif.got.tgz:436738.got - 2010.06.27 13:26:56.
