data_PCOD8000573
_publ_section_title
;
Structure prediction by ZEFSAII (Michael W. Deem and Ramdas Pophale) SiO2 
 PCOD8000573
Probable space group: P -1
;
_chemical_formula_sum "Si O2"
_cell_formula_units_Z 14
_cell_length_a 9.278800
_cell_length_b 12.615942
_cell_length_c 12.837823
_cell_angle_alpha 36.209883
_cell_angle_beta 46.700318
_cell_angle_gamma 58.305421
_cell_volume 644.733574
_symmetry_space_group_name_H-M "P -1"
_symmetry_group_IT_number 2
_symmetry_cell_setting 'triclinic'
loop_
_space_group_symop_operation_xyz
x,y,z
-x,-y,-z
loop_
_atom_site_type_symbol
_atom_site_label
_atom_site_fract_x
_atom_site_fract_y
_atom_site_fract_z
Si Si1 0.101384 0.104837 0.771796
Si Si2 0.271526 0.466146 0.104801
Si Si3 0.293864 0.318398 0.666938
Si Si4 0.840975 0.857403 0.739472
Si Si5 0.389004 0.893520 0.231940
Si Si6 0.075796 0.654985 0.479215
Si Si7 0.961568 0.210560 0.086507
O O1 0.296613 0.199925 0.653164
O O2 0.967269 0.269273 0.674342
O O3 0.143877 0.982192 0.746945
O O4 0.000000 0.000000 0.000000
O O5 0.232183 0.305019 0.170439
O O6 0.131025 0.425859 0.306317
O O7 0.500000 0.500000 0.000000
O O8 0.207243 0.647807 0.938327
O O9 0.504158 0.283804 0.642312
O O10 0.254390 0.520675 0.492511
O O11 0.126388 0.256899 0.881458
O O12 0.935093 0.784995 0.856314
O O13 0.640532 0.959696 0.780012
O O14 0.000000 0.000000 0.500000
O O15 0.165651 0.826288 0.364184
O O16 0.500000 0.000000 0.000000
#
# Coordination Sequence:
#
# PCOD8000573 Si02
#       7
#     2   2   2   2   2   2   2
#     4  10  19  39  64  94 133 176 208 272 344 393
#     4  11  26  46  68  98 133 179 230 283 335 399
#     4  10  22  37  65 101 135 172 218 281 338 395
#     4  12  23  46  72  93 137 182 227 278 336 401
#     4  12  22  42  70 101 135 176 229 276 336 409
#     4  11  22  45  65  98 139 173 228 281 335 405
#     4  10  21  43  66  95 133 175 226 278 333 399
#
# _framework density 21.714396000000001
#
# number of rings (size 3 to 8) (size 9 to 14) (size 15 to 20)
#    0.000    1.143    4.286    2.143    2.000    0.000 
#    7.714    1.429    0.000    0.000    0.000    0.000 
#    0.000    0.000    0.000    0.000    0.000    0.000 
#
# Total GULP energy -173439.638789 kJ/mol
# GULP energy per Si atom -12388.545628 kJ/mol
# Density = 2.166497 g / cm^3
# Si number density = 21.714396 Si / 1000 Ang^3
#
#
#
# Elastic Constant Matrix: (Units=GPa)
#
#
# Indices 1 2 3 4 5 6 
#
# 1 145.5280 52.1977 53.5353 -6.2329 7.1558 -2.3246
# 2 52.1977 119.9926 41.2925 -6.3551 4.9868 -5.5358
# 3 53.5353 41.2925 84.0348 -14.3728 11.6633 -8.6342
# 4 -6.2329 -6.3551 -14.3728 22.2017 -5.1057 -0.0129
# 5 7.1558 4.9868 11.6633 -5.1057 45.6396 -11.0069
# 6 -2.3246 -5.5358 -8.6342 -0.0129 -11.0069 50.3719
#
#
#
# Elastic Compliance Matrix: (Units=1/GPa)
#
#
# Indices 1 2 3 4 5 6 
#
# 1 0.009615 -0.002499 -0.005187 -0.001433 -0.000257 -0.000776
# 2 -0.002499 0.010687 -0.003636 0.000069 0.000281 0.000497
# 3 -0.005187 -0.003636 0.019112 0.009395 -0.002097 0.002181
# 4 -0.001433 0.000069 0.009395 0.051708 0.004200 0.002483
# 5 -0.000257 0.000281 -0.002097 0.004200 0.024115 0.004930
# 6 -0.000776 0.000497 0.002181 0.002483 0.004930 0.021323
#
#
# Mechanical properties :
#
#
# Convention : Reuss Voigt Hill
#
# Bulk Modulus (GPa) = 59.62197 71.51184 65.56690
# Shear Modulus (GPa) = 30.34121 37.14462 33.74291
#
# Velocity S-wave (km/s) = 3.74208 4.14043 3.94628
# Velocity P-wave (km/s) = 6.79617 7.47408 7.14317
#
# Compressibility (1/GPa) = 0.01677234
#
# Stress axis : x y z
#
# Youngs Moduli (GPa) = 104.00905 93.57369 52.32197
#
# Poissons Ratio (x) = 0.23381 0.27137
# Poissons Ratio (y) = 0.25988 0.19022
# Poissons Ratio (z) = 0.53945 0.34019
#
# Static dielectric constant tensor:
#      x y z
#    x 4.110100 0.233380 0.072120 
#    y 0.233380 4.301390 -0.353140 
#    z 0.072120 -0.353140 3.861730 
# 
# 
# High freq. dielectric constant tensor:
#      x y z
#    x 1.863570 0.007230 0.016170 
#    y 0.007230 1.858420 -0.027420 
#    z 0.016170 -0.027420 1.839750 
# 
# From -- ./inp_files/154082.got.cif
#   From: 2010.06.25/outbox.cif.g09.slc.cpg/sg2_78_cif.got.tgz:154082.got - 2010.06.27 13:26:56.
