data_PCOD8000485
_publ_section_title
;
Structure prediction by ZEFSAII (Michael W. Deem and Ramdas Pophale) SiO2 
 PCOD8000485
Probable space group: P -1
;
_chemical_formula_sum "Si O2"
_cell_formula_units_Z 14
_cell_length_a 14.333906
_cell_length_b 8.661600
_cell_length_c 8.583427
_cell_angle_alpha 126.947947
_cell_angle_beta 107.460223
_cell_angle_gamma 53.609944
_cell_volume 682.932329
_symmetry_space_group_name_H-M "P -1"
_symmetry_group_IT_number 2
_symmetry_cell_setting 'triclinic'
loop_
_space_group_symop_operation_xyz
x,y,z
-x,-y,-z
loop_
_atom_site_type_symbol
_atom_site_label
_atom_site_fract_x
_atom_site_fract_y
_atom_site_fract_z
Si Si1 0.212765 0.524868 0.422525
Si Si2 0.188780 0.950758 0.795529
Si Si3 0.594713 0.134534 0.000564
Si Si4 0.349932 0.329162 0.090230
Si Si5 0.031989 0.409459 0.136557
Si Si6 0.372531 0.085324 0.427284
Si Si7 0.785880 0.754697 0.270639
O O1 0.151097 0.775771 0.622586
O O2 0.272153 0.535388 0.297125
O O3 0.116738 0.468538 0.299670
O O4 0.310818 0.338202 0.474595
O O5 0.193117 0.081330 0.725518
O O6 0.317405 0.802621 0.846469
O O7 0.098103 0.132407 0.988620
O O8 0.619790 0.898409 0.941064
O O9 0.612576 0.102937 0.804487
O O10 0.462789 0.332588 0.099641
O O11 0.279929 0.348976 0.912375
O O12 0.912006 0.531679 0.249340
O O13 0.000000 0.500000 0.000000
O O14 0.289927 0.096611 0.530458
O O15 0.500000 0.000000 0.500000
#
# Coordination Sequence:
#
# PCOD8000485 Si02
#       7
#     2   2   2   2   2   2   2
#     4  11  22  38  63  89 117 156 198 241 292 347
#     4  10  21  39  62  88 115 155 203 241 283 350
#     4   9  17  34  58  78 118 154 189 237 291 344
#     4   9  16  33  57  83 111 153 194 235 283 347
#     4  10  19  39  63  85 117 155 200 244 284 341
#     4  11  21  38  62  87 121 158 187 241 309 347
#     4  10  20  36  61  88 117 154 195 241 295 344
#
# _framework density 20.499835999999998
#
# number of rings (size 3 to 8) (size 9 to 14) (size 15 to 20)
#    0.000    2.000    7.143    0.000    2.000    3.429 
#    0.000    2.857    0.000    0.000    0.000    0.000 
#    0.000    0.000    0.000    0.000    0.000    0.000 
#
# Total GULP energy -173523.622543 kJ/mol
# GULP energy per Si atom -12394.544467 kJ/mol
# Density = 2.045318 g / cm^3
# Si number density = 20.499836 Si / 1000 Ang^3
#
#
#
# Elastic Constant Matrix: (Units=GPa)
#
#
# Indices 1 2 3 4 5 6 
#
# 1 83.6470 38.1840 52.2468 1.8112 -22.7479 -36.4928
# 2 38.1840 62.1856 37.8470 -6.2949 7.8812 -27.3191
# 3 52.2468 37.8470 128.4853 4.0899 2.3059 -14.4032
# 4 1.8112 -6.2949 4.0899 28.9286 2.5614 -1.8195
# 5 -22.7479 7.8812 2.3059 2.5614 37.1815 0.5894
# 6 -36.4928 -27.3191 -14.4032 -1.8195 0.5894 33.6867
#
#
#
# Elastic Compliance Matrix: (Units=1/GPa)
#
#
# Indices 1 2 3 4 5 6 
#
# 1 0.055706 -0.010589 -0.015081 -0.004126 0.036841 0.044444
# 2 -0.010589 0.035405 -0.004399 0.011315 -0.014747 0.016229
# 3 -0.015081 -0.004399 0.013873 -0.002072 -0.008791 -0.013931
# 4 -0.004126 0.011315 -0.002072 0.038630 -0.007551 0.006039
# 5 0.036841 -0.014747 -0.008791 -0.007551 0.053263 0.022852
# 6 0.044444 0.016229 -0.013931 0.006039 0.022852 0.084963
#
#
# Mechanical properties :
#
#
# Convention : Reuss Voigt Hill
#
# Bulk Modulus (GPa) = 22.29856 58.98595 40.64226
# Shear Modulus (GPa) = 14.00849 29.69537 21.85193
#
# Velocity S-wave (km/s) = 2.61693 3.81013 3.26844
# Velocity P-wave (km/s) = 4.47572 6.94208 5.84057
#
# Compressibility (1/GPa) = 0.04484594
#
# Stress axis : x y z
#
# Youngs Moduli (GPa) = 17.95137 28.24498 72.08119
#
# Poissons Ratio (x) = 0.29909 1.08703
# Poissons Ratio (y) = 0.19009 0.31710
# Poissons Ratio (z) = 0.27072 0.12425
#
# Static dielectric constant tensor:
#      x y z
#    x 3.749050 -0.587500 -0.376430 
#    y -0.587500 3.733680 -0.035940 
#    z -0.376430 -0.035940 3.900370 
# 
# 
# High freq. dielectric constant tensor:
#      x y z
#    x 1.784040 -0.039910 -0.015110 
#    y -0.039910 1.776760 -0.013540 
#    z -0.015110 -0.013540 1.805490 
# 
# From -- ./inp_files/201307.got.cif
#   From: 2010.06.25/outbox.cif.g09.slc.cpg/sg2_101_cif.got.tgz:201307.got - 2010.06.27 13:26:56.
