data_PCOD8000088
_publ_section_title
;
Structure prediction by ZEFSAII (Michael W. Deem and Ramdas Pophale) SiO2 
 PCOD8000088
Probable space group: P 1
;
_chemical_formula_sum "Si O2"
_cell_formula_units_Z 8
_cell_length_a 8.782218
_cell_length_b 8.048755
_cell_length_c 11.857386
_cell_angle_alpha 127.386281
_cell_angle_beta 146.036113
_cell_angle_gamma 50.003594
_cell_volume 353.300956
_symmetry_space_group_name_H-M "P 1"
_symmetry_group_IT_number 1
_symmetry_cell_setting 'triclinic'
loop_
_space_group_symop_operation_xyz
x,y,z
loop_
_atom_site_type_symbol
_atom_site_label
_atom_site_fract_x
_atom_site_fract_y
_atom_site_fract_z
Si Si1 0.332170 0.483290 0.956210
Si Si2 0.747796 0.341472 0.340677
Si Si3 0.278724 0.431816 0.654713
Si Si4 0.255669 0.916542 0.834506
Si Si5 0.597888 0.868784 0.233717
Si Si6 0.685534 0.554484 0.620377
Si Si7 0.637966 0.167164 0.575382
Si Si8 0.157045 0.923478 0.535472
O O1 0.368447 0.350179 0.805649
O O2 0.995631 0.590754 0.822120
O O3 0.500519 0.325491 0.095837
O O4 0.468708 0.678739 0.107773
O O5 0.601185 0.464595 0.414092
O O6 0.935272 0.479476 0.452070
O O7 0.973543 0.106267 0.412931
O O8 0.359717 0.652042 0.770870
O O9 0.435951 0.230891 0.586236
O O10 0.247477 0.026731 0.749587
O O11 0.468553 0.979236 0.078813
O O12 0.939985 0.995640 0.729272
O O13 0.945639 0.787487 0.396303
O O14 0.499957 0.056486 0.347111
O O15 0.690848 0.387006 0.654240
O O16 0.436680 0.780883 0.583787
#
# Coordination Sequence:
#
# PCOD8000088 Si02
#       8
#     1   1   1   1   1   1   1   1
#     4  10  25  45  69  98 139 178 219 275 338 394
#     4  11  23  42  66 101 139 170 220 280 334 390
#     4  10  23  43  69  97 137 178 216 277 336 397
#     4  10  21  42  65  99 135 170 224 274 327 394
#     4  10  23  43  70 100 132 177 223 278 326 400
#     4  11  24  43  69  99 135 178 219 279 334 390
#     4  11  22  41  72  99 130 177 225 273 334 393
#     4  11  23  41  70  99 135 176 220 278 335 390
#
# _framework density 22.643584000000001
#
# number of rings (size 3 to 8) (size 9 to 14) (size 15 to 20)
#    0.000    1.500    3.750    1.500    1.750    6.000 
#    2.250    2.500    0.000    0.000    0.000    0.000 
#    0.000    0.000    0.000    0.000    0.000    0.000 
#
# Total GULP energy -99178.057023 kJ/mol
# GULP energy per Si atom -12397.257128 kJ/mol
# Density = 2.259205 g / cm^3
# Si number density = 22.643584 Si / 1000 Ang^3
#
#
#
# Elastic Constant Matrix: (Units=GPa)
#
#
# Indices 1 2 3 4 5 6 
#
# 1 125.4109 42.6680 55.8228 -9.4339 -13.7301 -31.5532
# 2 42.6680 82.4873 44.4325 -16.5056 -15.3679 -31.8371
# 3 55.8228 44.4325 155.3314 -23.8618 -21.2757 -23.1104
# 4 -9.4339 -16.5056 -23.8618 32.7494 7.7098 -4.7420
# 5 -13.7301 -15.3679 -21.2757 7.7098 32.8778 4.6067
# 6 -31.5532 -31.8371 -23.1104 -4.7420 4.6067 44.1892
#
#
#
# Elastic Compliance Matrix: (Units=1/GPa)
#
#
# Indices 1 2 3 4 5 6 
#
# 1 0.011270 -0.002111 -0.002347 0.000943 0.001241 0.005270
# 2 -0.002111 0.022626 -0.001216 0.011073 0.004222 0.014906
# 3 -0.002347 -0.001216 0.009171 0.005084 0.002844 0.002493
# 4 0.000943 0.011073 0.005084 0.043300 -0.003582 0.016331
# 5 0.001241 0.004222 0.002844 -0.003582 0.035400 0.001341
# 6 0.005270 0.014906 0.002493 0.016331 0.001341 0.040049
#
#
# Mechanical properties :
#
#
# Convention : Reuss Voigt Hill
#
# Bulk Modulus (GPa) = 31.52865 72.11956 51.82411
# Shear Modulus (GPa) = 27.21287 36.65036 31.93162
#
# Velocity S-wave (km/s) = 3.47045 4.02752 3.75932
# Velocity P-wave (km/s) = 5.47839 7.31757 6.46373
#
# Compressibility (1/GPa) = 0.03171718
#
# Stress axis : x y z
#
# Youngs Moduli (GPa) = 88.73417 44.19761 109.04116
#
# Poissons Ratio (x) = 0.09330 0.25594
# Poissons Ratio (y) = 0.18731 0.13264
# Poissons Ratio (z) = 0.20828 0.05376
#
# Static dielectric constant tensor:
#      x y z
#    x 4.213920 0.115830 -0.105250 
#    y 0.115830 3.890770 -0.146150 
#    z -0.105250 -0.146150 4.404540 
# 
# 
# High freq. dielectric constant tensor:
#      x y z
#    x 1.897790 0.015160 -0.005490 
#    y 0.015160 1.878780 -0.005740 
#    z -0.005490 -0.005740 1.903130 
# 
# From -- ./inp_files/6481.got.cif
#   From: 2010.03.12/outbox.cif.g09.slc.cpg/sg1_4_cif.got.tgz:6481.got - 2010.03.29 11:57:58.
