data_PCOD8000283
_publ_section_title
;
Structure prediction by ZEFSAII (Michael W. Deem and Ramdas Pophale) SiO2 
 PCOD8000283
Probable space group: P 1
;
_chemical_formula_sum "Si O2"
_cell_formula_units_Z 8
_cell_length_a 11.054840
_cell_length_b 9.631034
_cell_length_c 9.186609
_cell_angle_alpha 30.826853
_cell_angle_beta 101.329021
_cell_angle_gamma 113.150800
_cell_volume 439.688756
_symmetry_space_group_name_H-M "P 1"
_symmetry_group_IT_number 1
_symmetry_cell_setting 'triclinic'
loop_
_space_group_symop_operation_xyz
x,y,z
loop_
_atom_site_type_symbol
_atom_site_label
_atom_site_fract_x
_atom_site_fract_y
_atom_site_fract_z
Si Si1 0.163640 0.411140 0.773880
Si Si2 0.726977 0.549651 0.726468
Si Si3 0.309649 0.389492 0.550930
Si Si4 0.471838 0.049292 0.020589
Si Si5 0.602684 0.007246 0.361258
Si Si6 0.387741 0.708348 0.796823
Si Si7 0.038357 0.846996 0.434924
Si Si8 0.265958 0.143803 0.454901
O O1 0.199193 0.426346 0.597176
O O2 0.302092 0.546674 0.779066
O O3 0.072089 0.581784 0.629456
O O4 0.068550 0.066758 0.107292
O O5 0.668329 0.790006 0.522361
O O6 0.880127 0.715923 0.557036
O O7 0.631182 0.301890 0.803619
O O8 0.716210 0.358751 0.046137
O O9 0.423020 0.724736 0.221230
O O10 0.232724 0.203542 0.557254
O O11 0.372959 0.201832 0.824447
O O12 0.469042 0.964434 0.268780
O O13 0.544825 0.925416 0.586027
O O14 0.324898 0.899669 0.695753
O O15 0.384379 0.449579 0.137066
O O16 0.125631 0.023912 0.437708
#
# Coordination Sequence:
#
# PCOD8000283 Si02
#       8
#     1   1   1   1   1   1   1   1
#     4  10  19  31  55  76 105 138 179 217 251 307
#     4  10  18  33  53  84 101 137 180 223 249 298
#     4  12  20  35  54  83 109 138 167 216 283 310
#     4  10  19  31  56  81 100 137 172 223 251 316
#     4  10  18  31  57  82 101 132 173 231 251 301
#     4  10  18  35  51  81 106 133 178 215 264 303
#     4  10  21  35  53  80 104 142 178 217 248 309
#     4  10  23  33  53  79 116 135 163 220 269 322
#
# _framework density 18.194687999999999
#
# number of rings (size 3 to 8) (size 9 to 14) (size 15 to 20)
#    0.750    1.000    2.500    3.000    3.500    0.000 
#    0.000    0.000    0.000    9.000    0.000    0.000 
#    0.000    0.000    0.000    0.000    0.000    0.000 
#
# Total GULP energy -99111.712309 kJ/mol
# GULP energy per Si atom -12388.964039 kJ/mol
# Density = 1.815328 g / cm^3
# Si number density = 18.194688 Si / 1000 Ang^3
#
#
#
# Elastic Constant Matrix: (Units=GPa)
#
#
# Indices 1 2 3 4 5 6 
#
# 1 88.6043 54.9583 65.7062 1.9377 -14.8399 -9.5194
# 2 54.9583 127.6964 79.1580 -1.3286 -20.9788 -22.4095
# 3 65.7062 79.1580 196.2708 -16.1871 -19.3773 -15.0779
# 4 1.9377 -1.3286 -16.1871 19.3607 -3.5744 -1.7682
# 5 -14.8399 -20.9788 -19.3773 -3.5744 39.8693 1.3467
# 6 -9.5194 -22.4095 -15.0779 -1.7682 1.3467 16.6612
#
#
#
# Elastic Compliance Matrix: (Units=1/GPa)
#
#
# Indices 1 2 3 4 5 6 
#
# 1 0.017877 -0.005017 -0.004380 -0.005643 0.001421 -0.001211
# 2 -0.005017 0.014940 -0.002680 0.001419 0.004325 0.014603
# 3 -0.004380 -0.002680 0.008675 0.008067 0.001816 0.002453
# 4 -0.005643 0.001419 0.008067 0.061563 0.007684 0.011897
# 5 0.001421 0.004325 0.001816 0.007684 0.029231 0.006726
# 6 -0.001211 0.014603 0.002453 0.011897 0.006726 0.081909
#
#
# Mechanical properties :
#
#
# Convention : Reuss Voigt Hill
#
# Bulk Modulus (GPa) = 57.67368 90.24628 73.95998
# Shear Modulus (GPa) = 20.48117 29.36150 24.92133
#
# Velocity S-wave (km/s) = 3.35874 4.02150 3.70497
# Velocity P-wave (km/s) = 6.84167 8.44223 7.68374
#
# Compressibility (1/GPa) = 0.01733893
#
# Stress axis : x y z
#
# Youngs Moduli (GPa) = 55.93793 66.93642 115.27278
#
# Poissons Ratio (x) = 0.33581 0.50484
# Poissons Ratio (y) = 0.28063 0.30892
# Poissons Ratio (z) = 0.24498 0.17938
#
# Static dielectric constant tensor:
#      x y z
#    x 3.036890 -0.050930 0.035500 
#    y -0.050930 3.095710 -0.115220 
#    z 0.035500 -0.115220 3.681960 
# 
# 
# High freq. dielectric constant tensor:
#      x y z
#    x 1.676700 -0.016610 0.006640 
#    y -0.016610 1.667670 -0.013980 
#    z 0.006640 -0.013980 1.736640 
# 
# From -- ./inp_files/1015.got.cif
#   From: 2010.03.12/outbox.cif.g09.slc.cpg/sg1_1_cif.got.tgz:1015.got - 2010.03.29 11:57:58.
