data_PCOD8000815
_publ_section_title
;
Structure prediction by ZEFSAII (Michael W. Deem and Ramdas Pophale) SiO2 
 PCOD8000815
Probable space group: P -1
;
_chemical_formula_sum "Si O2"
_cell_formula_units_Z 16
_cell_length_a 17.464464
_cell_length_b 8.702743
_cell_length_c 12.964599
_cell_angle_alpha 78.702729
_cell_angle_beta 139.239992
_cell_angle_gamma 130.670124
_cell_volume 779.718822
_symmetry_space_group_name_H-M "P -1"
_symmetry_group_IT_number 2
_symmetry_cell_setting 'triclinic'
loop_
_space_group_symop_operation_xyz
x,y,z
-x,-y,-z
loop_
_atom_site_type_symbol
_atom_site_label
_atom_site_fract_x
_atom_site_fract_y
_atom_site_fract_z
Si Si1 0.261641 0.533972 0.481557
Si Si2 0.737865 0.804441 0.427958
Si Si3 0.837523 0.296640 0.780927
Si Si4 0.891405 0.259660 0.219786
Si Si5 0.297753 0.353934 0.030619
Si Si6 0.009287 0.308559 0.759151
Si Si7 0.716261 0.777473 0.182840
Si Si8 0.317926 0.033322 0.152709
O O1 0.234912 0.320621 0.455902
O O2 0.245151 0.623649 0.351178
O O3 0.474534 0.775164 0.712176
O O4 0.107421 0.421287 0.425127
O O5 0.519594 0.633019 0.218158
O O6 0.809630 0.832732 0.381075
O O7 0.856332 0.071474 0.558660
O O8 0.899985 0.253682 0.755461
O O9 0.681203 0.036937 0.722041
O O10 0.000000 0.500000 0.000000
O O11 0.894364 0.443221 0.236571
O O12 0.746194 0.997458 0.168902
O O13 0.835757 0.208348 0.047757
O O14 0.271213 0.169134 0.094748
O O15 0.176138 0.365128 0.955691
O O16 0.203046 0.225659 0.836211
O O17 0.500000 0.500000 0.000000
#
# Coordination Sequence:
#
# PCOD8000815 Si02
#       8
#     2   2   2   2   2   2   2   2
#     4  10  21  37  62  86 114 155 202 242 287 350
#     4  10  21  40  58  89 120 150 197 245 289 347
#     4  11  22  41  59  86 116 161 200 240 296 350
#     4  10  21  38  59  91 119 155 197 238 292 346
#     4   9  21  39  61  88 118 157 194 241 292 346
#     4  11  23  36  57  88 125 151 192 247 296 340
#     4   9  19  40  67  85 116 159 199 231 289 358
#     4  10  19  40  62  83 118 157 203 242 283 349
#
# _framework density 20.520218
#
# number of rings (size 3 to 8) (size 9 to 14) (size 15 to 20)
#    0.000    2.000    2.500    2.625    0.000    5.000 
#    2.250    5.000    0.000    0.000    0.000    0.000 
#    0.000    0.000    0.000    0.000    0.000    0.000 
#
# Total GULP energy -198270.283851 kJ/mol
# GULP energy per Si atom -12391.892741 kJ/mol
# Density = 2.047351 g / cm^3
# Si number density = 20.520218 Si / 1000 Ang^3
#
#
#
# Elastic Constant Matrix: (Units=GPa)
#
#
# Indices 1 2 3 4 5 6 
#
# 1 67.4224 55.4950 43.6232 -0.5998 -1.1770 -9.3614
# 2 55.4950 166.2131 55.9514 0.6172 1.4990 -11.1506
# 3 43.6232 55.9514 85.1480 -3.8437 8.4521 -16.4231
# 4 -0.5998 0.6172 -3.8437 30.5792 -0.1365 -4.1622
# 5 -1.1770 1.4990 8.4521 -0.1365 24.9579 -4.8110
# 6 -9.3614 -11.1506 -16.4231 -4.1622 -4.8110 35.0403
#
#
#
# Elastic Compliance Matrix: (Units=1/GPa)
#
#
# Indices 1 2 3 4 5 6 
#
# 1 0.025958 -0.005202 -0.010197 -0.000487 0.005210 0.001158
# 2 -0.005202 0.008829 -0.003223 -0.000702 0.000286 -0.000135
# 3 -0.010197 -0.003223 0.020932 0.003228 -0.006282 0.005582
# 4 -0.000487 -0.000702 0.003228 0.033819 0.000112 0.005192
# 5 0.005210 0.000286 -0.006282 0.000112 0.043291 0.004496
# 6 0.001158 -0.000135 0.005582 0.005192 0.004496 0.032655
#
#
# Mechanical properties :
#
#
# Convention : Reuss Voigt Hill
#
# Bulk Modulus (GPa) = 54.12210 69.88031 62.00121
# Shear Modulus (GPa) = 23.93656 29.02976 26.48316
#
# Velocity S-wave (km/s) = 3.41909 3.76532 3.59637
# Velocity P-wave (km/s) = 6.48222 7.28229 6.89387
#
# Compressibility (1/GPa) = 0.01847674
#
# Stress axis : x y z
#
# Youngs Moduli (GPa) = 38.52326 113.26317 47.77456
#
# Poissons Ratio (x) = 0.58920 0.48714
# Poissons Ratio (y) = 0.20040 0.15396
# Poissons Ratio (z) = 0.39280 0.36500
#
# Static dielectric constant tensor:
#      x y z
#    x 3.675010 0.206220 -0.016470 
#    y 0.206220 4.235670 -0.076590 
#    z -0.016470 -0.076590 3.753710 
# 
# 
# High freq. dielectric constant tensor:
#      x y z
#    x 1.762810 0.004920 0.015330 
#    y 0.004920 1.825090 0.007450 
#    z 0.015330 0.007450 1.803780 
# 
# From -- ./inp_files/282396.got.cif
#   From: 2010.06.25/outbox.cif.g09.slc.cpg/sg2_142_cif.got.tgz:282396.got - 2010.06.27 13:26:56.
