data_PCOD8000159
_publ_section_title
;
Structure prediction by ZEFSAII (Michael W. Deem and Ramdas Pophale) SiO2 
 PCOD8000159
Probable space group: P 1
;
_chemical_formula_sum "Si O2"
_cell_formula_units_Z 8
_cell_length_a 9.466544
_cell_length_b 8.405464
_cell_length_c 9.335668
_cell_angle_alpha 118.970398
_cell_angle_beta 42.176584
_cell_angle_gamma 128.277906
_cell_volume 391.083532
_symmetry_space_group_name_H-M "P 1"
_symmetry_group_IT_number 1
_symmetry_cell_setting 'triclinic'
loop_
_space_group_symop_operation_xyz
x,y,z
loop_
_atom_site_type_symbol
_atom_site_label
_atom_site_fract_x
_atom_site_fract_y
_atom_site_fract_z
Si Si1 0.704810 0.581750 0.779380
Si Si2 0.989554 0.292764 0.023872
Si Si3 0.286266 0.388359 0.555955
Si Si4 0.186788 0.596398 0.466435
Si Si5 0.536354 0.902169 0.123252
Si Si6 0.168294 0.997473 0.286833
Si Si7 0.234448 0.273450 0.106118
Si Si8 0.776911 0.567918 0.401829
O O1 0.673775 0.493970 0.604516
O O2 0.962867 0.640923 0.671426
O O3 0.662562 0.780973 0.901029
O O4 0.514466 0.407925 0.944949
O O5 0.969169 0.489889 0.183187
O O6 0.116706 0.215195 0.012961
O O7 0.729075 0.122247 0.118251
O O8 0.145030 0.358633 0.794550
O O9 0.255243 0.554997 0.554552
O O10 0.189016 0.172261 0.457170
O O11 0.564250 0.480475 0.411848
O O12 0.397013 0.792776 0.324065
O O13 0.120119 0.399546 0.330936
O O14 0.362745 0.921718 0.145226
O O15 0.198016 0.073975 0.133967
O O16 0.909635 0.812353 0.411244
#
# Coordination Sequence:
#
# PCOD8000159 Si02
#       8
#     1   1   1   1   1   1   1   1
#     4  11  21  44  68  89 133 176 209 266 327 381
#     4  12  24  42  65 100 132 169 219 269 318 385
#     4  11  26  44  67  99 130 170 218 266 326 381
#     4  10  23  44  66  93 128 174 215 262 326 386
#     4  11  24  40  68  97 133 170 216 266 325 383
#     4  11  24  46  66  97 134 170 213 269 325 384
#     4  10  23  42  66  96 128 168 219 264 323 384
#     4  12  23  44  68  93 136 171 215 268 320 384
#
# _framework density 20.455988000000001
#
# number of rings (size 3 to 8) (size 9 to 14) (size 15 to 20)
#    0.000    1.000    5.000    1.500    3.500    1.000 
#    0.000    0.000    0.000    0.000    0.000    0.000 
#    0.000    0.000    0.000    0.000    0.000    0.000 
#
# Total GULP energy -99236.456512 kJ/mol
# GULP energy per Si atom -12404.557064 kJ/mol
# Density = 2.040943 g / cm^3
# Si number density = 20.455988 Si / 1000 Ang^3
#
#
#
# Elastic Constant Matrix: (Units=GPa)
#
#
# Indices 1 2 3 4 5 6 
#
# 1 139.6813 48.1795 59.7692 -11.7009 8.3553 -19.7018
# 2 48.1795 100.2339 41.4715 -13.5558 -3.5157 -2.4453
# 3 59.7692 41.4715 117.4017 0.1716 -2.8157 -15.3951
# 4 -11.7009 -13.5558 0.1716 32.1177 -1.5057 -1.5011
# 5 8.3553 -3.5157 -2.8157 -1.5057 35.2281 -4.7743
# 6 -19.7018 -2.4453 -15.3951 -1.5011 -4.7743 40.8845
#
#
#
# Elastic Compliance Matrix: (Units=1/GPa)
#
#
# Indices 1 2 3 4 5 6 
#
# 1 0.010826 -0.003196 -0.004017 0.002647 -0.002647 0.003301
# 2 -0.003196 0.013533 -0.003326 0.004576 0.001821 -0.001603
# 3 -0.004017 -0.003326 0.012119 -0.002728 0.001817 0.002541
# 4 0.002647 0.004576 -0.002728 0.034198 0.001335 0.001933
# 5 -0.002647 0.001821 0.001817 0.001335 0.029811 0.003048
# 6 0.003301 -0.001603 0.002541 0.001933 0.003048 0.027338
#
#
# Mechanical properties :
#
#
# Convention : Reuss Voigt Hill
#
# Bulk Modulus (GPa) = 64.94181 72.90637 68.92409
# Shear Modulus (GPa) = 32.45973 35.50584 33.98278
#
# Velocity S-wave (km/s) = 3.98780 4.17072 4.08028
# Velocity P-wave (km/s) = 7.28144 7.67536 7.48099
#
# Compressibility (1/GPa) = 0.01539840
#
# Stress axis : x y z
#
# Youngs Moduli (GPa) = 92.36884 73.89435 82.51774
#
# Poissons Ratio (x) = 0.23618 0.33148
# Poissons Ratio (y) = 0.29522 0.27449
# Poissons Ratio (z) = 0.37105 0.24580
#
# Static dielectric constant tensor:
#      x y z
#    x 3.801430 -0.117700 -0.008550 
#    y -0.117700 3.701550 -0.042720 
#    z -0.008550 -0.042720 3.677090 
# 
# 
# High freq. dielectric constant tensor:
#      x y z
#    x 1.806920 -0.004070 -0.003740 
#    y -0.004070 1.797100 -0.007440 
#    z -0.003740 -0.007440 1.804630 
# 
# From -- ./inp_files/1286.got.cif
#   From: 2010.03.12/outbox.cif.g09.slc.cpg/sg1_1_cif.got.tgz:1286.got - 2010.03.29 11:57:58.
