data_PCOD8000170
_publ_section_title
;
Structure prediction by ZEFSAII (Michael W. Deem and Ramdas Pophale) SiO2 
 PCOD8000170
Probable space group: P 1
;
_chemical_formula_sum "Si O2"
_cell_formula_units_Z 8
_cell_length_a 9.022379
_cell_length_b 12.316806
_cell_length_c 14.593332
_cell_angle_alpha 28.717922
_cell_angle_beta 26.992036
_cell_angle_gamma 38.377484
_cell_volume 353.643285
_symmetry_space_group_name_H-M "P 1"
_symmetry_group_IT_number 1
_symmetry_cell_setting 'triclinic'
loop_
_space_group_symop_operation_xyz
x,y,z
loop_
_atom_site_type_symbol
_atom_site_label
_atom_site_fract_x
_atom_site_fract_y
_atom_site_fract_z
Si Si1 0.829130 0.747840 0.303910
Si Si2 0.875746 0.382341 0.014650
Si Si3 0.923134 0.251903 0.363564
Si Si4 0.557146 0.315675 0.868612
Si Si5 0.464499 0.603914 0.440334
Si Si6 0.525670 0.821972 0.929369
Si Si7 0.281828 0.990886 0.134017
Si Si8 0.544474 0.203154 0.156958
O O1 0.739321 0.531909 0.572527
O O2 0.712575 0.737847 0.270128
O O3 0.216247 0.786167 0.060433
O O4 0.643698 0.946596 0.314025
O O5 0.246775 0.450478 0.739014
O O6 0.707900 0.578659 0.023035
O O7 0.666665 0.365377 0.049473
O O8 0.938542 0.136720 0.209361
O O9 0.652662 0.444449 0.383196
O O10 0.151688 0.229588 0.345426
O O11 0.157363 0.330542 0.092204
O O12 0.762992 0.006457 0.615144
O O13 0.584378 0.122301 0.918895
O O14 0.716140 0.259524 0.921913
O O15 0.226272 0.771130 0.390659
O O16 0.404164 0.917230 0.022038
#
# Coordination Sequence:
#
# PCOD8000170 Si02
#       8
#     1   1   1   1   1   1   1   1
#     4  12  22  46  70 106 142 188 234 296 351 420
#     4  12  25  47  68 106 149 184 236 294 351 422
#     4  10  23  46  72 106 138 191 233 289 362 411
#     4  10  24  44  72 101 140 185 233 288 356 410
#     4  12  24  44  74 100 153 182 239 295 350 425
#     4  12  26  45  76 103 146 189 234 294 356 419
#     4  12  25  43  70 106 140 189 234 285 358 414
#     4  10  23  43  72 100 146 178 237 287 354 417
#
# _framework density 22.621666000000001
#
# number of rings (size 3 to 8) (size 9 to 14) (size 15 to 20)
#    0.750    0.000    5.000    2.250    3.500    0.000 
#    0.000    0.000    5.500    0.000    0.000    0.000 
#    0.000    0.000    0.000    0.000    0.000    0.000 
#
# Total GULP energy -99147.565572 kJ/mol
# GULP energy per Si atom -12393.445697 kJ/mol
# Density = 2.257018 g / cm^3
# Si number density = 22.621666 Si / 1000 Ang^3
#
#
#
# Elastic Constant Matrix: (Units=GPa)
#
#
# Indices 1 2 3 4 5 6 
#
# 1 103.7235 27.8852 25.0072 -7.1399 -15.7289 -3.7783
# 2 27.8852 137.4727 19.6039 -18.1252 -5.9939 -7.6468
# 3 25.0072 19.6039 79.3302 -4.8871 -15.5364 -11.5624
# 4 -7.1399 -18.1252 -4.8871 32.2089 -3.7557 -0.8735
# 5 -15.7289 -5.9939 -15.5364 -3.7557 31.5606 -1.6858
# 6 -3.7783 -7.6468 -11.5624 -0.8735 -1.6858 41.3241
#
#
#
# Elastic Compliance Matrix: (Units=1/GPa)
#
#
# Indices 1 2 3 4 5 6 
#
# 1 0.011411 -0.001539 -0.002147 0.001882 0.004582 0.000384
# 2 -0.001539 0.008414 -0.000949 0.004396 0.000955 0.001283
# 3 -0.002147 -0.000949 0.015654 0.002294 0.006960 0.004340
# 4 0.001882 0.004396 0.002294 0.035202 0.007234 0.002667
# 5 0.004582 0.000955 0.006960 0.007234 0.038666 0.004273
# 6 0.000384 0.001283 0.004340 0.002667 0.004273 0.025917
#
#
# Mechanical properties :
#
#
# Convention : Reuss Voigt Hill
#
# Bulk Modulus (GPa) = 38.15642 51.72432 44.94037
# Shear Modulus (GPa) = 32.62188 37.55407 35.08798
#
# Velocity S-wave (km/s) = 3.80157 4.07884 3.94265
# Velocity P-wave (km/s) = 6.01441 6.71545 6.37457
#
# Compressibility (1/GPa) = 0.02620791
#
# Stress axis : x y z
#
# Youngs Moduli (GPa) = 87.63549 118.84493 63.88061
#
# Poissons Ratio (x) = 0.18291 0.13718
# Poissons Ratio (y) = 0.13488 0.06064
# Poissons Ratio (z) = 0.18819 0.11282
#
# Static dielectric constant tensor:
#      x y z
#    x 4.090190 0.001520 -0.129790 
#    y 0.001520 4.043220 -0.233450 
#    z -0.129790 -0.233450 3.856370 
# 
# 
# High freq. dielectric constant tensor:
#      x y z
#    x 1.900880 0.003340 -0.004600 
#    y 0.003340 1.895930 -0.021210 
#    z -0.004600 -0.021210 1.869970 
# 
# From -- ./inp_files/4226.got.cif
#   From: 2010.03.12/outbox.cif.g09.slc.cpg/sg1_3_cif.got.tgz:4226.got - 2010.03.29 11:57:58.
