data_PCOD8000367
_publ_section_title
;
Structure prediction by ZEFSAII (Michael W. Deem and Ramdas Pophale) SiO2 
 PCOD8000367
Probable space group: P -1
;
_chemical_formula_sum "Si O2"
_cell_formula_units_Z 14
_cell_length_a 10.925103
_cell_length_b 11.648526
_cell_length_c 7.866649
_cell_angle_alpha 68.637953
_cell_angle_beta 59.112303
_cell_angle_gamma 107.672991
_cell_volume 631.641456
_symmetry_space_group_name_H-M "P -1"
_symmetry_group_IT_number 2
_symmetry_cell_setting 'triclinic'
loop_
_space_group_symop_operation_xyz
x,y,z
-x,-y,-z
loop_
_atom_site_type_symbol
_atom_site_label
_atom_site_fract_x
_atom_site_fract_y
_atom_site_fract_z
Si Si1 0.196894 0.150959 0.229085
Si Si2 0.799191 0.285118 0.574903
Si Si3 0.825128 0.585317 0.848430
Si Si4 0.065832 0.403152 0.846397
Si Si5 0.964883 0.872755 0.967840
Si Si6 0.685810 0.005781 0.572948
Si Si7 0.686025 0.268742 0.040558
O O1 0.241595 0.310290 0.186473
O O2 0.195813 0.164223 0.018937
O O3 0.335056 0.120600 0.210372
O O4 0.000000 0.000000 0.500000
O O5 0.801506 0.425146 0.420807
O O6 0.699536 0.140508 0.593200
O O7 0.002582 0.346210 0.433600
O O8 0.703483 0.235754 0.850954
O O9 0.900154 0.592374 0.979194
O O10 0.667568 0.408022 0.997710
O O11 0.104071 0.287531 0.800339
O O12 0.855116 0.321786 0.009242
O O13 0.146043 0.928546 0.706333
O O14 0.000000 0.000000 0.000000
O O15 0.493363 0.895053 0.671020
#
# Coordination Sequence:
#
# PCOD8000367 Si02
#       7
#     2   2   2   2   2   2   2
#     4   9  18  37  61  76 116 151 193 235 279 336
#     4  11  20  37  59  86 117 157 192 228 284 350
#     4  10  19  39  60  85 112 160 192 239 282 333
#     4  10  21  40  61  86 118 150 197 238 283 343
#     4  10  22  39  64  86 106 156 201 238 283 341
#     4  11  23  39  56  90 121 151 185 245 294 330
#     4  11  24  34  58  92 120 151 190 233 294 346
#
# _framework density 22.164473999999998
#
# number of rings (size 3 to 8) (size 9 to 14) (size 15 to 20)
#    0.000    1.714    4.286    3.857    2.000    3.429 
#    0.000    0.000    0.000    3.429    0.000    0.000 
#    0.000    0.000    0.000    0.000    0.000    0.000 
#
# Total GULP energy -173462.372506 kJ/mol
# GULP energy per Si atom -12390.169465 kJ/mol
# Density = 2.211403 g / cm^3
# Si number density = 22.164474 Si / 1000 Ang^3
#
#
#
# Elastic Constant Matrix: (Units=GPa)
#
#
# Indices 1 2 3 4 5 6 
#
# 1 37.0427 26.4779 25.3332 -16.1801 7.9635 -8.6475
# 2 26.4779 206.5890 39.9194 -28.2991 11.1867 -8.6139
# 3 25.3332 39.9194 54.5731 -13.6333 6.0138 -2.5581
# 4 -16.1801 -28.2991 -13.6333 41.4984 -1.0711 2.7898
# 5 7.9635 11.1867 6.0138 -1.0711 25.9141 -19.6531
# 6 -8.6475 -8.6139 -2.5581 2.7898 -19.6531 27.4094
#
#
#
# Elastic Compliance Matrix: (Units=1/GPa)
#
#
# Indices 1 2 3 4 5 6 
#
# 1 0.047726 -0.000477 -0.018263 0.011504 -0.001363 0.011055
# 2 -0.000477 0.006006 -0.003307 0.002781 -0.001524 0.000053
# 3 -0.018263 -0.003307 0.029724 0.000810 -0.006447 -0.008732
# 4 0.011504 0.002781 0.000810 0.030773 -0.005599 -0.002568
# 5 -0.001363 -0.001524 -0.006447 -0.005599 0.088153 0.062267
# 6 0.011055 0.000053 -0.008732 -0.002568 0.062267 0.084081
#
#
# Mechanical properties :
#
#
# Convention : Reuss Voigt Hill
#
# Bulk Modulus (GPa) = 25.40544 53.51841 39.46193
# Shear Modulus (GPa) = 14.54844 32.72935 23.63889
#
# Velocity S-wave (km/s) = 2.56478 3.84690 3.26931
# Velocity P-wave (km/s) = 4.50088 6.62797 5.66515
#
# Compressibility (1/GPa) = 0.03936164
#
# Stress axis : x y z
#
# Youngs Moduli (GPa) = 20.95312 166.49195 33.64247
#
# Poissons Ratio (x) = 0.07945 0.61442
# Poissons Ratio (y) = 0.01000 0.11125
# Poissons Ratio (z) = 0.38267 0.55058
#
# Static dielectric constant tensor:
#      x y z
#    x 4.289970 -0.286680 0.437950 
#    y -0.286680 4.454410 -0.438170 
#    z 0.437950 -0.438170 3.876990 
# 
# 
# High freq. dielectric constant tensor:
#      x y z
#    x 1.852540 -0.001110 0.023740 
#    y -0.001110 1.894740 -0.027620 
#    z 0.023740 -0.027620 1.848320 
# 
# From -- ./inp_files/251875.got.cif
#   From: 2010.06.25/outbox.cif.g09.slc.cpg/sg2_126_cif.got.tgz:251875.got - 2010.06.27 13:26:56.
