data_PCOD8000140
_publ_section_title
;
Structure prediction by ZEFSAII (Michael W. Deem and Ramdas Pophale) SiO2 
 PCOD8000140
Probable space group: P 1
;
_chemical_formula_sum "Si O2"
_cell_formula_units_Z 8
_cell_length_a 7.978350
_cell_length_b 7.669891
_cell_length_c 9.718343
_cell_angle_alpha 71.238107
_cell_angle_beta 76.578372
_cell_angle_gamma 126.730418
_cell_volume 374.096598
_symmetry_space_group_name_H-M "P 1"
_symmetry_group_IT_number 1
_symmetry_cell_setting 'triclinic'
loop_
_space_group_symop_operation_xyz
x,y,z
loop_
_atom_site_type_symbol
_atom_site_label
_atom_site_fract_x
_atom_site_fract_y
_atom_site_fract_z
Si Si1 0.417210 0.528560 0.841470
Si Si2 0.845618 0.094533 0.114795
Si Si3 0.490518 0.100173 0.288944
Si Si4 0.091617 0.488436 0.523419
Si Si5 0.813628 0.513908 0.355193
Si Si6 0.533598 0.615070 0.488883
Si Si7 0.650549 0.980473 0.899461
Si Si8 0.321888 0.053058 0.050496
O O1 0.480242 0.643747 0.646260
O O2 0.593940 0.781653 0.846366
O O3 0.442644 0.326174 0.886582
O O4 0.139613 0.359752 0.986252
O O5 0.725720 0.198762 0.137533
O O6 0.768423 0.907059 0.304417
O O7 0.738958 0.936998 0.028728
O O8 0.594699 0.289475 0.349431
O O9 0.360847 0.119033 0.189844
O O10 0.283613 0.794546 0.463423
O O11 0.277388 0.452165 0.486462
O O12 0.959763 0.454722 0.414238
O O13 0.879067 0.286601 0.727072
O O14 0.639771 0.489515 0.503877
O O15 0.016514 0.798688 0.161106
O O16 0.426322 0.945985 0.990264
#
# Coordination Sequence:
#
# PCOD8000140 Si02
#       8
#     1   1   1   1   1   1   1   1
#     4  12  24  43  70 101 133 183 220 281 348 392
#     4  10  22  44  64  95 137 170 232 279 322 418
#     4   9  22  42  69  97 130 185 221 280 348 388
#     4  10  23  43  63 101 136 169 233 275 326 419
#     4  11  22  44  69  98 137 180 221 288 341 393
#     4  11  24  44  68 102 137 172 232 278 331 418
#     4  11  24  44  69  95 139 183 219 283 347 391
#     4  10  23  44  66 101 135 172 238 278 325 425
#
# _framework density 21.384851000000001
#
# number of rings (size 3 to 8) (size 9 to 14) (size 15 to 20)
#    0.000    1.500    2.500    2.250    5.250    0.000 
#    6.750    0.000    0.000    0.000    0.000    0.000 
#    0.000    0.000    0.000    0.000    0.000    0.000 
#
# Total GULP energy -99105.895067 kJ/mol
# GULP energy per Si atom -12388.236883 kJ/mol
# Density = 2.133618 g / cm^3
# Si number density = 21.384851 Si / 1000 Ang^3
#
#
#
# Elastic Constant Matrix: (Units=GPa)
#
#
# Indices 1 2 3 4 5 6 
#
# 1 77.0151 21.3659 19.7254 -6.5104 0.3955 5.5065
# 2 21.3659 103.1837 45.2463 -2.2280 0.8007 5.5300
# 3 19.7254 45.2463 140.9951 -10.3579 2.9191 4.5901
# 4 -6.5104 -2.2280 -10.3579 26.9161 5.2074 -4.9536
# 5 0.3955 0.8007 2.9191 5.2074 35.7530 -4.1039
# 6 5.5065 5.5300 4.5901 -4.9536 -4.1039 20.7359
#
#
#
# Elastic Compliance Matrix: (Units=1/GPa)
#
#
# Indices 1 2 3 4 5 6 
#
# 1 0.014278 -0.002341 -0.000963 0.002566 -0.000685 -0.002477
# 2 -0.002341 0.011786 -0.003484 -0.001311 0.000001 -0.002064
# 3 -0.000963 -0.003484 0.008591 0.002950 -0.001068 -0.000224
# 4 0.002566 -0.001311 0.002950 0.041274 -0.005354 0.007816
# 5 -0.000685 0.000001 -0.001068 -0.005354 0.029414 0.004960
# 6 -0.002477 -0.002064 -0.000224 0.007816 0.004960 0.052332
#
#
# Mechanical properties :
#
#
# Convention : Reuss Voigt Hill
#
# Bulk Modulus (GPa) = 47.43824 54.87434 51.15629
# Shear Modulus (GPa) = 28.04617 32.33808 30.19213
#
# Velocity S-wave (km/s) = 3.62539 3.89291 3.76153
# Velocity P-wave (km/s) = 6.30522 6.77661 6.54516
#
# Compressibility (1/GPa) = 0.02108004
#
# Stress axis : x y z
#
# Youngs Moduli (GPa) = 70.03771 84.84552 116.39661
#
# Poissons Ratio (x) = 0.19860 0.11209
# Poissons Ratio (y) = 0.16394 0.40552
# Poissons Ratio (z) = 0.06745 0.29560
#
# Static dielectric constant tensor:
#      x y z
#    x 4.114820 0.209310 0.058790 
#    y 0.209310 3.621610 -0.043190 
#    z 0.058790 -0.043190 3.968690 
# 
# 
# High freq. dielectric constant tensor:
#      x y z
#    x 1.843720 0.016350 -0.002740 
#    y 0.016350 1.814940 -0.007830 
#    z -0.002740 -0.007830 1.849550 
# 
# From -- ./inp_files/1117.got.cif
#   From: 2010.03.12/outbox.cif.g09.slc.cpg/sg1_1_cif.got.tgz:1117.got - 2010.03.29 11:57:58.
