data_PCOD8000412
_publ_section_title
;
Structure prediction by ZEFSAII (Michael W. Deem and Ramdas Pophale) SiO2 
 PCOD8000412
Probable space group: P -1
;
_chemical_formula_sum "Si O2"
_cell_formula_units_Z 16
_cell_length_a 14.136138
_cell_length_b 8.847902
_cell_length_c 9.187438
_cell_angle_alpha 131.987749
_cell_angle_beta 111.823656
_cell_angle_gamma 81.585408
_cell_volume 784.141726
_symmetry_space_group_name_H-M "P -1"
_symmetry_group_IT_number 2
_symmetry_cell_setting 'triclinic'
loop_
_space_group_symop_operation_xyz
x,y,z
-x,-y,-z
loop_
_atom_site_type_symbol
_atom_site_label
_atom_site_fract_x
_atom_site_fract_y
_atom_site_fract_z
Si Si1 0.195953 0.546645 0.439059
Si Si2 0.101518 0.445474 0.598211
Si Si3 0.982420 0.394274 0.077889
Si Si4 0.682350 0.797758 0.722300
Si Si5 0.521833 0.406332 0.606648
Si Si6 0.162480 0.015585 0.296827
Si Si7 0.692178 0.124768 0.471622
Si Si8 0.582200 0.854831 0.995990
O O1 0.192502 0.567569 0.627686
O O2 0.288996 0.427002 0.373056
O O3 0.219984 0.766267 0.517909
O O4 0.090222 0.415450 0.236613
O O5 0.101775 0.508385 0.808986
O O6 0.112537 0.206881 0.449798
O O7 0.000000 0.500000 0.500000
O O8 0.000000 0.500000 0.000000
O O9 0.936577 0.156928 0.882816
O O10 0.582051 0.759066 0.531066
O O11 0.778817 0.940297 0.795139
O O12 0.660908 0.886772 0.925549
O O13 0.500000 0.500000 0.500000
O O14 0.617944 0.281241 0.589264
O O15 0.538802 0.613150 0.849060
O O16 0.249547 0.956252 0.413772
O O17 0.632227 0.932298 0.227055
O O18 0.500000 0.000000 0.000000
#
# Coordination Sequence:
#
# PCOD8000412 Si02
#       8
#     2   2   2   2   2   2   2   2
#     4  10  20  41  63  90 126 167 207 265 303 370
#     4   9  23  43  62  90 123 163 214 262 306 370
#     4  11  23  43  65  90 131 165 206 264 326 364
#     4  10  21  41  64  90 127 165 209 258 306 375
#     4  10  19  39  61  90 130 157 206 259 305 372
#     4  11  26  42  63  96 130 166 211 260 322 373
#     4  12  22  38  64  97 125 163 213 258 313 374
#     4  11  20  37  67  92 119 171 215 248 310 377
#
# _framework density 20.404475000000001
#
# number of rings (size 3 to 8) (size 9 to 14) (size 15 to 20)
#    0.000    1.500    6.250    0.000    1.750    7.500 
#    2.250    0.625    0.000    0.000    0.000    0.000 
#    0.000    0.000    0.000    0.000    0.000    0.000 
#
# Total GULP energy -198232.952318 kJ/mol
# GULP energy per Si atom -12389.559520 kJ/mol
# Density = 2.035803 g / cm^3
# Si number density = 20.404475 Si / 1000 Ang^3
#
#
#
# Elastic Constant Matrix: (Units=GPa)
#
#
# Indices 1 2 3 4 5 6 
#
# 1 75.4806 24.8237 17.5466 4.1982 -11.6723 -10.3188
# 2 24.8237 76.2758 12.3726 5.9645 -11.9210 -7.5352
# 3 17.5466 12.3726 76.8323 6.8785 -5.3045 -7.8174
# 4 4.1982 5.9645 6.8785 30.3405 2.1115 -1.4991
# 5 -11.6723 -11.9210 -5.3045 2.1115 47.0150 2.8343
# 6 -10.3188 -7.5352 -7.8174 -1.4991 2.8343 41.4842
#
#
#
# Elastic Compliance Matrix: (Units=1/GPa)
#
#
# Indices 1 2 3 4 5 6 
#
# 1 0.015954 -0.004072 -0.002472 -0.000897 0.002535 0.002557
# 2 -0.004072 0.015349 -0.001005 -0.002356 0.002794 0.001310
# 3 -0.002472 -0.001005 0.014207 -0.002648 0.000749 0.001733
# 4 -0.000897 -0.002356 -0.002648 0.034347 -0.002678 0.000274
# 5 0.002535 0.002794 0.000749 -0.002678 0.022835 -0.000378
# 6 0.002557 0.001310 0.001733 0.000274 -0.000378 0.025342
#
#
# Mechanical properties :
#
#
# Convention : Reuss Voigt Hill
#
# Bulk Modulus (GPa) = 32.88213 37.56384 35.22299
# Shear Modulus (GPa) = 32.62250 35.35766 33.99008
#
# Velocity S-wave (km/s) = 4.00283 4.16725 4.08587
# Velocity P-wave (km/s) = 6.12484 6.45014 6.28959
#
# Compressibility (1/GPa) = 0.03041165
#
# Stress axis : x y z
#
# Youngs Moduli (GPa) = 62.68054 65.15139 70.38887
#
# Poissons Ratio (x) = 0.26530 0.17402
# Poissons Ratio (y) = 0.25524 0.07071
# Poissons Ratio (z) = 0.15496 0.06545
#
# Static dielectric constant tensor:
#      x y z
#    x 3.743190 0.288830 1.947510 
#    y 0.288830 3.707640 0.457520 
#    z 1.947510 0.457520 3.286590 
# 
# 
# High freq. dielectric constant tensor:
#      x y z
#    x 1.810800 -0.001490 -0.003070 
#    y -0.001490 1.788500 0.009360 
#    z -0.003070 0.009360 1.788270 
# 
# From -- ./inp_files/299899.got.cif
#   From: 2010.06.25/outbox.cif.g09.slc.cpg/sg2_150_cif.got.tgz:299899.got - 2010.06.27 13:26:56.
