data_PCOD8000289
_publ_section_title
;
Structure prediction by ZEFSAII (Michael W. Deem and Ramdas Pophale) SiO2 
 PCOD8000289
Probable space group: P 1
;
_chemical_formula_sum "Si O2"
_cell_formula_units_Z 8
_cell_length_a 13.466758
_cell_length_b 15.426394
_cell_length_c 9.155286
_cell_angle_alpha 150.037799
_cell_angle_beta 32.036261
_cell_angle_gamma 152.606707
_cell_volume 410.744445
_symmetry_space_group_name_H-M "P 1"
_symmetry_group_IT_number 1
_symmetry_cell_setting 'triclinic'
loop_
_space_group_symop_operation_xyz
x,y,z
loop_
_atom_site_type_symbol
_atom_site_label
_atom_site_fract_x
_atom_site_fract_y
_atom_site_fract_z
Si Si1 0.981280 0.162100 0.120860
Si Si2 0.961884 0.860321 0.486159
Si Si3 0.493729 0.018323 0.557822
Si Si4 0.897227 0.824333 0.960332
Si Si5 0.195478 0.782291 0.341964
Si Si6 0.429071 0.536829 0.695479
Si Si7 0.409674 0.587368 0.117733
Si Si8 0.195477 0.072094 0.211377
O O1 0.195477 0.405368 0.211196
O O2 0.766432 0.169633 0.433352
O O3 0.951276 0.050264 0.839652
O O4 0.003351 0.025915 0.014876
O O5 0.695478 0.669252 0.502851
O O6 0.092902 0.800427 0.345630
O O7 0.123911 0.944298 0.265373
O O8 0.396913 0.007141 0.498096
O O9 0.387605 0.775826 0.380531
O O10 0.417295 0.106617 0.909147
O O11 0.994038 0.690155 0.583981
O O12 0.624524 0.669947 0.075572
O O13 0.973662 0.922633 0.168793
O O14 0.298058 0.647112 0.987162
O O15 0.267040 0.310115 0.488060
O O16 0.439675 0.499824 0.800811
#
# Coordination Sequence:
#
# PCOD8000289 Si02
#       8
#     1   1   1   1   1   1   1   1
#     4  10  18  38  67  88 116 168 210 240 298 376
#     4  11  21  40  63  94 125 159 205 257 299 364
#     4   9  20  40  59  89 128 157 202 257 298 364
#     4   9  20  40  59  89 128 157 202 257 298 364
#     4   9  18  40  66  83 122 168 202 245 296 370
#     4  11  21  40  63  94 125 159 205 257 299 364
#     4  10  18  38  67  88 116 168 210 240 298 376
#     4  11  24  40  60  93 130 156 198 265 318 338
#
# _framework density 19.476832000000002
#
# number of rings (size 3 to 8) (size 9 to 14) (size 15 to 20)
#    0.000    2.000    6.250    0.000    0.000    2.000 
#   11.250   15.000    0.000    0.000    0.000    0.000 
#    0.000    0.000    0.000    0.000    0.000    0.000 
#
# Total GULP energy -99109.314757 kJ/mol
# GULP energy per Si atom -12388.664345 kJ/mol
# Density = 1.943250 g / cm^3
# Si number density = 19.476832 Si / 1000 Ang^3
#
#
#
# Elastic Constant Matrix: (Units=GPa)
#
#
# Indices 1 2 3 4 5 6 
#
# 1 105.0496 55.2587 54.0415 -11.5322 5.3057 20.2220
# 2 55.2587 145.6012 48.9076 -3.8481 -7.0855 11.4845
# 3 54.0415 48.9076 110.3288 -11.2362 8.6863 10.2493
# 4 -11.5322 -3.8481 -11.2362 23.8026 5.9548 -0.7245
# 5 5.3057 -7.0855 8.6863 5.9548 28.8702 -9.2896
# 6 20.2220 11.4845 10.2493 -0.7245 -9.2896 24.6237
#
#
#
# Elastic Compliance Matrix: (Units=1/GPa)
#
#
# Indices 1 2 3 4 5 6 
#
# 1 0.018173 -0.004708 -0.003865 0.008204 -0.009703 -0.014540
# 2 -0.004708 0.009646 -0.003027 -0.003502 0.005730 0.002686
# 3 -0.003865 -0.003027 0.013682 0.005591 -0.006381 -0.003352
# 4 0.008204 -0.003502 0.005591 0.052434 -0.019075 -0.013085
# 5 -0.009703 0.005730 -0.006381 -0.019075 0.052424 0.027168
# 6 -0.014540 0.002686 -0.003352 -0.013085 0.027168 0.062559
#
#
# Mechanical properties :
#
#
# Convention : Reuss Voigt Hill
#
# Bulk Modulus (GPa) = 54.63861 75.26613 64.95237
# Shear Modulus (GPa) = 20.98916 28.97741 24.98329
#
# Velocity S-wave (km/s) = 3.28632 3.86137 3.58539
# Velocity P-wave (km/s) = 6.52026 7.65559 7.11062
#
# Compressibility (1/GPa) = 0.01830208
#
# Stress axis : x y z
#
# Youngs Moduli (GPa) = 55.02564 103.66946 73.08814
#
# Poissons Ratio (x) = 0.48803 0.28247
# Poissons Ratio (y) = 0.25903 0.22127
# Poissons Ratio (z) = 0.21266 0.31386
#
# Static dielectric constant tensor:
#      x y z
#    x 3.622110 0.196230 0.001380 
#    y 0.196230 3.455600 -0.145420 
#    z 0.001380 -0.145420 3.591740 
# 
# 
# High freq. dielectric constant tensor:
#      x y z
#    x 1.755060 0.019090 0.001790 
#    y 0.019090 1.750660 -0.013460 
#    z 0.001790 -0.013460 1.753430 
# 
# From -- ./inp_files/3914.got.cif
#   From: 2010.03.12/outbox.cif.g09.slc.cpg/sg1_2_cif.got.tgz:3914.got - 2010.03.29 11:57:58.
