data_PCOD8000915
_publ_section_title
;
Structure prediction by ZEFSAII (Michael W. Deem and Ramdas Pophale) SiO2 
 PCOD8000915
Probable space group: P -1
;
_chemical_formula_sum "Si O2"
_cell_formula_units_Z 16
_cell_length_a 22.492291
_cell_length_b 20.497697
_cell_length_c 8.585746
_cell_angle_alpha 41.970139
_cell_angle_beta 149.056682
_cell_angle_gamma 156.922116
_cell_volume 777.186004
_symmetry_space_group_name_H-M "P -1"
_symmetry_group_IT_number 2
_symmetry_cell_setting 'triclinic'
loop_
_space_group_symop_operation_xyz
x,y,z
-x,-y,-z
loop_
_atom_site_type_symbol
_atom_site_label
_atom_site_fract_x
_atom_site_fract_y
_atom_site_fract_z
Si Si1 0.869662 0.374169 0.074500
Si Si2 0.580299 0.504438 0.825594
Si Si3 0.583910 0.275204 0.816193
Si Si4 0.403376 0.063996 0.223723
Si Si5 0.214890 0.129806 0.681238
Si Si6 0.586153 0.034461 0.882725
Si Si7 0.771756 0.831080 0.728765
Si Si8 0.230977 0.558076 0.745589
O O1 0.006045 0.439668 0.413899
O O2 0.716957 0.356854 0.812244
O O3 0.000000 0.500000 0.000000
O O4 0.758915 0.198714 0.086698
O O5 0.500000 0.500000 0.500000
O O6 0.383682 0.319905 0.797107
O O7 0.693725 0.667923 0.887714
O O8 0.740026 0.529673 0.104057
O O9 0.379893 0.198033 0.474048
O O10 0.530668 0.126622 0.995511
O O11 0.725544 0.419425 0.012513
O O12 0.316148 0.944666 0.090935
O O13 0.619383 0.260129 0.318068
O O14 0.427099 0.008598 0.521604
O O15 0.251501 0.043943 0.966216
O O16 0.231281 0.149612 0.496367
O O17 0.000000 0.000000 0.500000
O O18 0.000000 0.000000 0.000000
#
# Coordination Sequence:
#
# PCOD8000915 Si02
#       8
#     2   2   2   2   2   2   2   2
#     4  12  25  39  61  95 125 157 207 261 316 363
#     4   9  18  40  65  85 121 164 207 253 303 370
#     4  11  23  44  62  87 127 165 207 256 307 384
#     4   9  18  38  64  84 126 163 197 250 310 365
#     4  10  20  40  65  93 121 159 211 256 308 374
#     4  10  20  39  61  86 121 165 200 250 305 369
#     4  11  23  42  63  91 126 166 211 258 309 368
#     4  10  19  40  66  85 122 161 204 252 309 376
#
# _framework density 20.587091999999998
#
# number of rings (size 3 to 8) (size 9 to 14) (size 15 to 20)
#    0.000    1.750    6.250    0.750    1.750    1.000 
#    6.750    0.625    0.000    0.000    0.000    0.000 
#    0.000    0.000    0.000    0.000    0.000    0.000 
#
# Total GULP energy -198326.945043 kJ/mol
# GULP energy per Si atom -12395.434065 kJ/mol
# Density = 2.054024 g / cm^3
# Si number density = 20.587092 Si / 1000 Ang^3
#
#
#
# Elastic Constant Matrix: (Units=GPa)
#
#
# Indices 1 2 3 4 5 6 
#
# 1 101.6249 63.0240 49.3930 7.9709 33.8840 3.0027
# 2 63.0240 104.3826 52.5067 2.9858 21.8454 -24.0485
# 3 49.3930 52.5067 105.1146 12.0453 29.0731 -13.4232
# 4 7.9709 2.9858 12.0453 39.8936 -4.2113 -0.3619
# 5 33.8840 21.8454 29.0731 -4.2113 37.7886 2.2543
# 6 3.0027 -24.0485 -13.4232 -0.3619 2.2543 31.7050
#
#
#
# Elastic Compliance Matrix: (Units=1/GPa)
#
#
# Indices 1 2 3 4 5 6 
#
# 1 0.024178 -0.013851 -0.002417 -0.004399 -0.011525 -0.013050
# 2 -0.013851 0.023548 -0.003432 0.002270 0.000645 0.017700
# 3 -0.002417 -0.003432 0.016099 -0.005035 -0.009096 0.005031
# 4 -0.004399 0.002270 -0.005035 0.028315 0.009684 -0.000359
# 5 -0.011525 0.000645 -0.009096 0.009684 0.044820 -0.005347
# 6 -0.013050 0.017700 0.005031 -0.000359 -0.005347 0.048708
#
#
# Mechanical properties :
#
#
# Convention : Reuss Voigt Hill
#
# Bulk Modulus (GPa) = 40.94378 71.21885 56.08131
# Shear Modulus (GPa) = 21.43987 31.62400 26.53194
#
# Velocity S-wave (km/s) = 3.23061 3.92357 3.59383
# Velocity P-wave (km/s) = 5.81782 7.42933 6.67241
#
# Compressibility (1/GPa) = 0.02442374
#
# Stress axis : x y z
#
# Youngs Moduli (GPa) = 41.35946 42.46711 62.11665
#
# Poissons Ratio (x) = 0.58823 0.15015
# Poissons Ratio (y) = 0.57289 0.21318
# Poissons Ratio (z) = 0.09997 0.14574
#
# Static dielectric constant tensor:
#      x y z
#    x 3.546060 -0.026700 0.058010 
#    y -0.026700 3.314790 0.179570 
#    z 0.058010 0.179570 3.751760 
# 
# 
# High freq. dielectric constant tensor:
#      x y z
#    x 1.788080 -0.018820 0.011610 
#    y -0.018820 1.807760 -0.002110 
#    z 0.011610 -0.002110 1.801570 
# 
# From -- ./inp_files/282743.got.cif
#   From: 2010.06.25/outbox.cif.g09.slc.cpg/sg2_142_cif.got.tgz:282743.got - 2010.06.27 13:26:56.
