data_PCOD8000606
_publ_section_title
;
Structure prediction by ZEFSAII (Michael W. Deem and Ramdas Pophale) SiO2 
 PCOD8000606
Probable space group: P -1
;
_chemical_formula_sum "Si O2"
_cell_formula_units_Z 16
_cell_length_a 8.767014
_cell_length_b 17.618113
_cell_length_c 12.377885
_cell_angle_alpha 138.789615
_cell_angle_beta 45.239555
_cell_angle_gamma 104.134331
_cell_volume 708.459432
_symmetry_space_group_name_H-M "P -1"
_symmetry_group_IT_number 2
_symmetry_cell_setting 'triclinic'
loop_
_space_group_symop_operation_xyz
x,y,z
-x,-y,-z
loop_
_atom_site_type_symbol
_atom_site_label
_atom_site_fract_x
_atom_site_fract_y
_atom_site_fract_z
Si Si1 0.851933 0.705112 0.432615
Si Si2 0.511346 0.225710 0.636876
Si Si3 0.720750 0.091546 0.802865
Si Si4 0.428072 0.955914 0.768375
Si Si5 0.546283 0.513583 0.117975
Si Si6 0.931104 0.915923 0.719853
Si Si7 0.497138 0.417921 0.251372
Si Si8 0.884564 0.443005 0.218392
O O1 0.652581 0.794923 0.530243
O O2 0.834371 0.815999 0.644851
O O3 0.796104 0.602503 0.407631
O O4 0.146822 0.607197 0.128886
O O5 0.610835 0.076754 0.368910
O O6 0.528493 0.328830 0.657144
O O7 0.744371 0.173365 0.555070
O O8 0.208730 0.317947 0.935730
O O9 0.528742 0.053607 0.813326
O O10 0.778020 0.049950 0.856549
O O11 0.560138 0.262345 0.053808
O O12 0.000000 0.000000 0.500000
O O13 0.158098 0.028511 0.053124
O O14 0.394368 0.486214 0.254380
O O15 0.500000 0.500000 0.000000
O O16 0.766026 0.397236 0.136823
O O17 0.246679 0.538539 0.580252
#
# Coordination Sequence:
#
# PCOD8000606 Si02
#       8
#     2   2   2   2   2   2   2   2
#     4  10  19  39  65  92 123 165 216 254 306 376
#     4  11  23  41  64  95 127 164 209 261 323 365
#     4  11  23  40  66  92 126 173 209 257 311 378
#     4  11  22  39  65  96 122 170 219 254 304 380
#     4  11  22  39  67  90 126 164 204 265 313 371
#     4  11  22  40  66  90 130 164 210 262 310 380
#     4  11  22  41  65  98 126 166 214 258 316 377
#     4  10  22  39  66  95 130 163 209 268 316 374
#
# _framework density 22.584216000000001
#
# number of rings (size 3 to 8) (size 9 to 14) (size 15 to 20)
#    0.000    1.250    1.250    7.125    0.000    3.000 
#    0.000    6.250    0.000    0.000    0.000    0.000 
#    0.000    0.000    0.000    0.000    0.000    0.000 
#
# Total GULP energy -198328.668717 kJ/mol
# GULP energy per Si atom -12395.541795 kJ/mol
# Density = 2.253281 g / cm^3
# Si number density = 22.584216 Si / 1000 Ang^3
#
#
#
# Elastic Constant Matrix: (Units=GPa)
#
#
# Indices 1 2 3 4 5 6 
#
# 1 77.4131 45.3386 32.2200 0.4246 2.7022 10.0087
# 2 45.3386 120.9581 43.6374 -3.5966 13.1582 5.3036
# 3 32.2200 43.6374 79.2962 4.4586 9.0406 5.9494
# 4 0.4246 -3.5966 4.4586 32.4685 -0.8184 0.2431
# 5 2.7022 13.1582 9.0406 -0.8184 38.1429 -5.0666
# 6 10.0087 5.3036 5.9494 0.2431 -5.0666 24.8487
#
#
#
# Elastic Compliance Matrix: (Units=1/GPa)
#
#
# Indices 1 2 3 4 5 6 
#
# 1 0.018394 -0.005213 -0.004309 -0.000167 0.000836 -0.005092
# 2 -0.005213 0.012154 -0.004364 0.001945 -0.002751 -0.000030
# 3 -0.004309 -0.004364 0.017375 -0.002864 -0.002635 -0.002002
# 4 -0.000167 0.001945 -0.002864 0.031427 0.000718 0.000177
# 5 0.000836 -0.002751 -0.002635 0.000718 0.028639 0.006714
# 6 -0.005092 -0.000030 -0.002002 0.000177 0.006714 0.044147
#
#
# Mechanical properties :
#
#
# Convention : Reuss Voigt Hill
#
# Bulk Modulus (GPa) = 49.62390 57.78438 53.70414
# Shear Modulus (GPa) = 26.79163 29.52344 28.15754
#
# Velocity S-wave (km/s) = 3.44801 3.61953 3.53481
# Velocity P-wave (km/s) = 6.15404 6.56580 6.36325
#
# Compressibility (1/GPa) = 0.02015158
#
# Stress axis : x y z
#
# Youngs Moduli (GPa) = 54.36441 82.27785 57.55379
#
# Poissons Ratio (x) = 0.42889 0.24802
# Poissons Ratio (y) = 0.28339 0.25115
# Poissons Ratio (z) = 0.23428 0.35904
#
# Static dielectric constant tensor:
#      x y z
#    x 4.021240 0.165940 0.001570 
#    y 0.165940 4.110340 0.048940 
#    z 0.001570 0.048940 4.101160 
# 
# 
# High freq. dielectric constant tensor:
#      x y z
#    x 1.882820 0.013820 0.005610 
#    y 0.013820 1.881490 0.000730 
#    z 0.005610 0.000730 1.901290 
# 
# From -- ./inp_files/279243.got.cif
#   From: 2010.06.25/outbox.cif.g09.slc.cpg/sg2_140_cif.got.tgz:279243.got - 2010.06.27 13:26:56.
