data_PCOD8000474
_publ_section_title
;
Structure prediction by ZEFSAII (Michael W. Deem and Ramdas Pophale) SiO2 
 PCOD8000474
Probable space group: P -1
;
_chemical_formula_sum "Si O2"
_cell_formula_units_Z 16
_cell_length_a 8.883107
_cell_length_b 17.105990
_cell_length_c 8.555452
_cell_angle_alpha 118.164846
_cell_angle_beta 85.003960
_cell_angle_gamma 135.087343
_cell_volume 742.638252
_symmetry_space_group_name_H-M "P -1"
_symmetry_group_IT_number 2
_symmetry_cell_setting 'triclinic'
loop_
_space_group_symop_operation_xyz
x,y,z
-x,-y,-z
loop_
_atom_site_type_symbol
_atom_site_label
_atom_site_fract_x
_atom_site_fract_y
_atom_site_fract_z
Si Si1 0.873561 0.078343 0.642610
Si Si2 0.289412 0.149380 0.781856
Si Si3 0.531371 0.243474 0.154622
Si Si4 0.033522 0.448080 0.306067
Si Si5 0.914052 0.255325 0.575709
Si Si6 0.768583 0.370665 0.814352
Si Si7 0.510483 0.072183 0.210046
Si Si8 0.315999 0.490658 0.549706
O O1 0.958566 0.195291 0.634351
O O2 0.093472 0.136696 0.770687
O O3 0.760014 0.954952 0.424086
O O4 0.692338 0.033579 0.744501
O O5 0.539280 0.301768 0.858069
O O6 0.321321 0.134859 0.947116
O O7 0.485517 0.162539 0.235465
O O8 0.550698 0.355832 0.302739
O O9 0.779402 0.320013 0.129477
O O10 0.228129 0.575734 0.298155
O O11 0.141084 0.408836 0.338839
O O12 0.000000 0.500000 0.500000
O O13 0.769265 0.265724 0.689786
O O14 0.756858 0.159935 0.351114
O O15 0.167502 0.402896 0.636187
O O16 0.000000 0.500000 0.000000
O O17 0.500000 0.000000 0.000000
O O18 0.500000 0.500000 0.500000
#
# Coordination Sequence:
#
# PCOD8000474 Si02
#       8
#     2   2   2   2   2   2   2   2
#     4  11  28  44  67  99 140 186 224 284 348 397
#     4  11  25  46  67  99 136 182 228 283 348 402
#     4  11  22  45  69  99 134 172 239 281 340 413
#     4  10  19  39  62  96 125 172 219 268 340 402
#     4  12  23  46  64 100 139 170 233 278 336 419
#     4  12  22  40  72  96 126 178 222 276 340 408
#     4  12  26  43  73  99 129 185 240 282 333 410
#     4  11  24  40  69 105 138 179 218 291 362 399
#
# _framework density 21.544809000000001
#
# number of rings (size 3 to 8) (size 9 to 14) (size 15 to 20)
#    0.000    0.750    6.250    1.875    3.500    2.500 
#    2.250    1.250    0.000    0.000    0.000    0.000 
#    0.000    0.000    0.000    0.000    0.000    0.000 
#
# Total GULP energy -198333.705518 kJ/mol
# GULP energy per Si atom -12395.856595 kJ/mol
# Density = 2.149577 g / cm^3
# Si number density = 21.544809 Si / 1000 Ang^3
#
#
#
# Elastic Constant Matrix: (Units=GPa)
#
#
# Indices 1 2 3 4 5 6 
#
# 1 131.2911 41.6433 39.2377 -2.6360 16.6577 -4.3044
# 2 41.6433 106.6034 13.5192 -4.9215 0.2029 -15.9378
# 3 39.2377 13.5192 96.2046 2.8624 11.5266 -1.8804
# 4 -2.6360 -4.9215 2.8624 27.2078 0.4702 5.2054
# 5 16.6577 0.2029 11.5266 0.4702 39.5309 -3.0196
# 6 -4.3044 -15.9378 -1.8804 5.2054 -3.0196 40.3863
#
#
#
# Elastic Compliance Matrix: (Units=1/GPa)
#
#
# Indices 1 2 3 4 5 6 
#
# 1 0.010169 -0.003640 -0.003274 0.000897 -0.003389 -0.000874
# 2 -0.003640 0.011502 -0.000302 0.000932 0.001869 0.004157
# 3 -0.003274 -0.000302 0.012076 -0.001634 -0.002110 0.000147
# 4 0.000897 0.000932 -0.001634 0.038069 -0.000708 -0.004572
# 5 -0.003389 0.001869 -0.002110 -0.000708 0.027524 0.002427
# 6 -0.000874 0.004157 0.000147 -0.004572 0.002427 0.027086
#
#
# Mechanical properties :
#
#
# Convention : Reuss Voigt Hill
#
# Bulk Modulus (GPa) = 51.77208 58.09993 54.93601
# Shear Modulus (GPa) = 33.94535 37.40494 35.67514
#
# Velocity S-wave (km/s) = 3.97365 4.17123 4.07364
# Velocity P-wave (km/s) = 6.71828 7.08692 6.90506
#
# Compressibility (1/GPa) = 0.01931543
#
# Stress axis : x y z
#
# Youngs Moduli (GPa) = 98.33862 86.94355 82.80607
#
# Poissons Ratio (x) = 0.31648 0.27108
# Poissons Ratio (y) = 0.35796 0.02502
# Poissons Ratio (z) = 0.32193 0.02627
#
# Static dielectric constant tensor:
#      x y z
#    x 2.959750 -0.150190 -0.664900 
#    y -0.150190 4.119630 -0.196440 
#    z -0.664900 -0.196440 3.015660 
# 
# 
# High freq. dielectric constant tensor:
#      x y z
#    x 1.839730 -0.007360 0.018750 
#    y -0.007360 1.850380 -0.005350 
#    z 0.018750 -0.005350 1.845910 
# 
# From -- ./inp_files/218251.got.cif
#   From: 2010.06.25/outbox.cif.g09.slc.cpg/sg2_110_cif.got.tgz:218251.got - 2010.06.27 13:26:56.
