data_PCOD8000928
_publ_section_title
;
Structure prediction by ZEFSAII (Michael W. Deem and Ramdas Pophale) SiO2 
 PCOD8000928
Probable space group: P -1
;
_chemical_formula_sum "Si O2"
_cell_formula_units_Z 14
_cell_length_a 13.213870
_cell_length_b 8.830651
_cell_length_c 8.746751
_cell_angle_alpha 111.269910
_cell_angle_beta 124.404287
_cell_angle_gamma 46.125172
_cell_volume 606.314143
_symmetry_space_group_name_H-M "P -1"
_symmetry_group_IT_number 2
_symmetry_cell_setting 'triclinic'
loop_
_space_group_symop_operation_xyz
x,y,z
-x,-y,-z
loop_
_atom_site_type_symbol
_atom_site_label
_atom_site_fract_x
_atom_site_fract_y
_atom_site_fract_z
Si Si1 0.264425 0.849043 0.567933
Si Si2 0.211045 0.425369 0.984059
Si Si3 0.939280 0.776902 0.274111
Si Si4 0.385276 0.809058 0.338311
Si Si5 0.933992 0.887745 0.974116
Si Si6 0.274390 0.460231 0.390214
Si Si7 0.461827 0.434703 0.096447
O O1 0.332524 0.885959 0.494122
O O2 0.251072 0.674100 0.446012
O O3 0.377119 0.782096 0.786308
O O4 0.099275 0.072294 0.560601
O O5 0.288041 0.379245 0.201139
O O6 0.328084 0.408445 0.951598
O O7 0.193372 0.251268 0.865123
O O8 0.038636 0.653219 0.912374
O O9 0.110122 0.542901 0.361113
O O10 0.946883 0.881249 0.165644
O O11 0.566807 0.726750 0.447593
O O12 0.394111 0.610476 0.234573
O O13 0.250340 0.998504 0.183233
O O14 0.000000 0.000000 0.000000
O O15 0.500000 0.500000 0.000000
#
# Coordination Sequence:
#
# PCOD8000928 Si02
#       7
#     2   2   2   2   2   2   2
#     4  11  21  39  68  95 130 170 223 267 326 387
#     4  11  22  44  66  93 138 172 214 272 332 387
#     4  11  25  41  66  99 132 176 215 266 335 388
#     4  11  20  40  67  96 126 167 223 275 315 372
#     4  11  21  39  69  99 126 171 227 268 310 395
#     4  10  19  40  66  93 125 175 215 260 317 393
#     4  11  21  39  70  99 124 170 229 270 312 391
#
# _framework density 23.090339
#
# number of rings (size 3 to 8) (size 9 to 14) (size 15 to 20)
#    0.000    1.143    4.286    4.714    0.000    0.571 
#    2.571    3.571    6.286    0.000    0.000    0.000 
#    0.000    0.000    0.000    0.000    0.000    0.000 
#
# Total GULP energy -173500.084938 kJ/mol
# GULP energy per Si atom -12392.863210 kJ/mol
# Density = 2.303778 g / cm^3
# Si number density = 23.090339 Si / 1000 Ang^3
#
#
#
# Elastic Constant Matrix: (Units=GPa)
#
#
# Indices 1 2 3 4 5 6 
#
# 1 116.1253 22.1788 36.8364 5.9733 1.9162 -18.5035
# 2 22.1788 54.0682 29.1812 -2.9267 -1.7746 -9.9726
# 3 36.8364 29.1812 95.8280 -18.2332 16.5488 -15.6736
# 4 5.9733 -2.9267 -18.2332 45.1559 -10.1596 6.9408
# 5 1.9162 -1.7746 16.5488 -10.1596 38.0739 2.5467
# 6 -18.5035 -9.9726 -15.6736 6.9408 2.5467 30.0412
#
#
#
# Elastic Compliance Matrix: (Units=1/GPa)
#
#
# Indices 1 2 3 4 5 6 
#
# 1 0.011153 -0.001941 -0.003473 -0.003955 -0.000557 0.005374
# 2 -0.001941 0.023539 -0.006693 -0.000522 0.003769 0.002927
# 3 -0.003473 -0.006693 0.016371 0.004672 -0.006249 0.003630
# 4 -0.003955 -0.000522 0.004672 0.026877 0.005775 -0.006871
# 5 -0.000557 0.003769 -0.006249 0.005775 0.031149 -0.006327
# 6 0.005374 0.002927 0.003630 -0.006871 -0.006327 0.041587
#
#
# Mechanical properties :
#
#
# Convention : Reuss Voigt Hill
#
# Bulk Modulus (GPa) = 37.24869 49.15713 43.20291
# Shear Modulus (GPa) = 27.19748 34.50919 30.85334
#
# Velocity S-wave (km/s) = 3.43574 3.87011 3.65937
# Velocity P-wave (km/s) = 5.64852 6.42694 6.05026
#
# Compressibility (1/GPa) = 0.02684658
#
# Stress axis : x y z
#
# Youngs Moduli (GPa) = 89.66298 42.48210 61.08544
#
# Poissons Ratio (x) = 0.08248 0.21217
# Poissons Ratio (y) = 0.17408 0.40886
# Poissons Ratio (z) = 0.31143 0.28434
#
# Static dielectric constant tensor:
#      x y z
#    x 4.165760 -0.394750 0.320770 
#    y -0.394750 4.088530 -0.241490 
#    z 0.320770 -0.241490 4.153980 
# 
# 
# High freq. dielectric constant tensor:
#      x y z
#    x 1.900000 -0.026220 0.019620 
#    y -0.026220 1.900680 -0.005630 
#    z 0.019620 -0.005630 1.905010 
# 
# From -- ./inp_files/244694.got.cif
#   From: 2010.06.25/outbox.cif.g09.slc.cpg/sg2_123_cif.got.tgz:244694.got - 2010.06.27 13:26:56.
