data_PCOD8000256
_publ_section_title
;
Structure prediction by ZEFSAII (Michael W. Deem and Ramdas Pophale) SiO2 
 PCOD8000256
Probable space group: P 1
;
_chemical_formula_sum "Si O2"
_cell_formula_units_Z 6
_cell_length_a 5.277201
_cell_length_b 7.608230
_cell_length_c 7.639131
_cell_angle_alpha 60.896275
_cell_angle_beta 90.288576
_cell_angle_gamma 63.311352
_cell_volume 229.413474
_symmetry_space_group_name_H-M "P 1"
_symmetry_group_IT_number 1
_symmetry_cell_setting 'triclinic'
loop_
_space_group_symop_operation_xyz
x,y,z
loop_
_atom_site_type_symbol
_atom_site_label
_atom_site_fract_x
_atom_site_fract_y
_atom_site_fract_z
Si Si1 0.225720 0.497840 0.804640
Si Si2 0.866918 0.260744 0.834539
Si Si3 0.267577 0.873282 0.466881
Si Si4 0.365895 0.797055 0.117504
Si Si5 0.711281 0.280395 0.447911
Si Si6 0.670477 0.863834 0.770332
O O1 0.578411 0.350520 0.914041
O O2 0.104319 0.323429 0.873382
O O3 0.028409 0.689035 0.861336
O O4 0.175810 0.672843 0.554959
O O5 0.801413 0.357801 0.589025
O O6 0.024493 0.974788 0.970319
O O7 0.989678 0.129016 0.393594
O O8 0.389600 0.880319 0.273546
O O9 0.528555 0.778153 0.660460
O O10 0.470198 0.521598 0.234062
O O11 0.563494 0.856266 0.966054
O O12 0.567151 0.130444 0.585894
#
# Coordination Sequence:
#
# PCOD8000256 Si02
#       6
#     1   1   1   1   1   1
#     4  11  24  50  82 112 169 201 260 343 384 463
#     4  12  25  51  82 118 158 210 265 329 392 477
#     4  11  25  51  80 119 157 209 266 331 391 475
#     4  12  27  50  82 117 156 222 258 323 416 461
#     4  11  26  52  76 119 164 202 272 332 387 483
#     4  11  25  54  80 117 164 208 265 336 392 473
#
# _framework density 26.153654
#
# number of rings (size 3 to 8) (size 9 to 14) (size 15 to 20)
#    0.000    0.667    5.000    1.000    2.333    0.000 
#   27.000    0.000    0.000    0.000    0.000    0.000 
#    0.000    0.000    0.000    0.000    0.000    0.000 
#
# Total GULP energy -74341.557296 kJ/mol
# GULP energy per Si atom -12390.259549 kJ/mol
# Density = 2.609413 g / cm^3
# Si number density = 26.153654 Si / 1000 Ang^3
#
#
#
# Elastic Constant Matrix: (Units=GPa)
#
#
# Indices 1 2 3 4 5 6 
#
# 1 134.0349 67.8069 55.0517 -16.5998 -28.8847 -34.3611
# 2 67.8069 141.7436 73.8823 -17.9330 -22.6920 -46.5104
# 3 55.0517 73.8823 136.3978 -12.6518 -20.1228 -36.9393
# 4 -16.5998 -17.9330 -12.6518 71.1096 -14.3466 3.0830
# 5 -28.8847 -22.6920 -20.1228 -14.3466 31.3973 -6.8609
# 6 -34.3611 -46.5104 -36.9393 3.0830 -6.8609 59.4757
#
#
#
# Elastic Compliance Matrix: (Units=1/GPa)
#
#
# Indices 1 2 3 4 5 6 
#
# 1 0.015383 0.000446 0.000390 0.007437 0.020629 0.011472
# 2 0.000446 0.015341 -0.002295 0.006165 0.015531 0.012301
# 3 0.000390 -0.002295 0.011903 0.003208 0.009264 0.006726
# 4 0.007437 0.006165 0.003208 0.022723 0.026576 0.012998
# 5 0.020629 0.015531 0.009264 0.026576 0.088582 0.038658
# 6 0.011472 0.012301 0.006726 0.012998 0.038658 0.041024
#
#
# Mechanical properties :
#
#
# Convention : Reuss Voigt Hill
#
# Bulk Modulus (GPa) = 25.18392 89.51756 57.35074
# Shear Modulus (GPa) = 23.68454 46.75889 35.22171
#
# Velocity S-wave (km/s) = 3.01257 4.23289 3.67375
# Velocity P-wave (km/s) = 4.66379 7.62835 6.32228
#
# Compressibility (1/GPa) = 0.03970788
#
# Stress axis : x y z
#
# Youngs Moduli (GPa) = 65.00826 65.18679 84.01285
#
# Poissons Ratio (x) = -0.02906 -0.03277
# Poissons Ratio (y) = -0.02898 0.19281
# Poissons Ratio (z) = -0.02536 0.14961
#
# Static dielectric constant tensor:
#      x y z
#    x 4.553690 -0.395110 -0.053240 
#    y -0.395110 5.106740 -0.228920 
#    z -0.053240 -0.228920 4.555150 
# 
# 
# High freq. dielectric constant tensor:
#      x y z
#    x 2.024880 -0.023150 -0.015010 
#    y -0.023150 2.079430 -0.018800 
#    z -0.015010 -0.018800 2.036140 
# 
# From -- ./inp_files/2939.got.cif
#   From: 2010.03.12/outbox.cif.g09.slc.cpg/sg1_2_cif.got.tgz:2939.got - 2010.03.29 11:57:58.
