data_PCOD8000754
_publ_section_title
;
Structure prediction by ZEFSAII (Michael W. Deem and Ramdas Pophale) SiO2 
 PCOD8000754
Probable space group: P -1
;
_chemical_formula_sum "Si O2"
_cell_formula_units_Z 16
_cell_length_a 8.737584
_cell_length_b 15.814555
_cell_length_c 8.534816
_cell_angle_alpha 71.971730
_cell_angle_beta 67.326389
_cell_angle_gamma 47.961796
_cell_volume 805.934880
_symmetry_space_group_name_H-M "P -1"
_symmetry_group_IT_number 2
_symmetry_cell_setting 'triclinic'
loop_
_space_group_symop_operation_xyz
x,y,z
-x,-y,-z
loop_
_atom_site_type_symbol
_atom_site_label
_atom_site_fract_x
_atom_site_fract_y
_atom_site_fract_z
Si Si1 0.270674 0.462040 0.192084
Si Si2 0.348222 0.564942 0.375736
Si Si3 0.264675 0.092285 0.100383
Si Si4 0.086637 0.340261 0.996286
Si Si5 0.913926 0.656285 0.640238
Si Si6 0.492038 0.311111 0.903685
Si Si7 0.223631 0.950807 0.000187
Si Si8 0.431218 0.089470 0.342373
O O1 0.390460 0.481605 0.264106
O O2 0.132711 0.429606 0.345239
O O3 0.117118 0.573744 0.080264
O O4 0.451758 0.356446 0.072035
O O5 0.500000 0.500000 0.500000
O O6 0.393093 0.650085 0.258286
O O7 0.102174 0.635891 0.477307
O O8 0.265283 0.096505 0.286277
O O9 0.170492 0.214076 0.992226
O O10 0.500000 0.000000 0.000000
O O11 0.147884 0.043736 0.114433
O O12 0.267814 0.355040 0.889158
O O13 0.020469 0.364758 0.190744
O O14 0.697085 0.782867 0.613949
O O15 0.647719 0.175251 0.911109
O O16 0.359327 0.951094 0.809594
O O17 0.000000 0.000000 0.000000
O O18 0.500000 0.000000 0.500000
#
# Coordination Sequence:
#
# PCOD8000754 Si02
#       8
#     2   2   2   2   2   2   2   2
#     4  11  22  41  67  89 117 173 210 242 316 375
#     4  12  26  40  57  94 133 155 203 260 311 366
#     4   9  18  39  62  91 120 163 207 246 296 367
#     4  10  19  39  71  86 118 163 212 250 298 380
#     4  10  21  42  61  90 127 161 206 254 307 369
#     4  11  22  42  62  93 125 159 205 265 306 359
#     4  11  23  41  65  94 125 158 213 256 305 367
#     4  10  21  41  66  91 126 162 206 253 306 369
#
# _framework density 19.852720000000001
#
# number of rings (size 3 to 8) (size 9 to 14) (size 15 to 20)
#    0.000    1.500    5.000    3.750    3.500    1.000 
#    4.500    0.625    0.000    0.000    0.000    0.000 
#    0.000    0.000    0.000    0.000    0.000    0.000 
#
# Total GULP energy -198325.157107 kJ/mol
# GULP energy per Si atom -12395.322319 kJ/mol
# Density = 1.980753 g / cm^3
# Si number density = 19.852720 Si / 1000 Ang^3
#
#
#
# Elastic Constant Matrix: (Units=GPa)
#
#
# Indices 1 2 3 4 5 6 
#
# 1 109.0548 36.1372 43.6351 -9.3667 3.9599 21.4322
# 2 36.1372 105.7719 36.3814 -13.3510 3.9387 25.4312
# 3 43.6351 36.3814 93.7217 -22.8892 -14.0238 12.7909
# 4 -9.3667 -13.3510 -22.8892 29.2343 -2.2921 -3.5692
# 5 3.9599 3.9387 -14.0238 -2.2921 38.4682 -0.5931
# 6 21.4322 25.4312 12.7909 -3.5692 -0.5931 33.6948
#
#
#
# Elastic Compliance Matrix: (Units=1/GPa)
#
#
# Indices 1 2 3 4 5 6 
#
# 1 0.012911 -0.001246 -0.005785 -0.001888 -0.003505 -0.005338
# 2 -0.001246 0.013247 -0.003432 0.001822 -0.002490 -0.007754
# 3 -0.005785 -0.003432 0.018848 0.012073 0.008546 0.000544
# 4 -0.001888 0.001822 0.012073 0.044449 0.007059 0.000075
# 5 -0.003505 -0.002490 0.008546 0.007059 0.030180 0.002144
# 6 -0.005338 -0.007754 0.000544 0.000075 0.002144 0.038765
#
#
# Mechanical properties :
#
#
# Convention : Reuss Voigt Hill
#
# Bulk Modulus (GPa) = 41.52397 60.09508 50.80952
# Shear Modulus (GPa) = 26.68748 33.10579 29.89663
#
# Velocity S-wave (km/s) = 3.67041 4.08802 3.88483
# Velocity P-wave (km/s) = 6.23891 7.25387 6.76545
#
# Compressibility (1/GPa) = 0.02408248
#
# Stress axis : x y z
#
# Youngs Moduli (GPa) = 77.45169 75.48638 53.05487
#
# Poissons Ratio (x) = 0.09404 0.30691
# Poissons Ratio (y) = 0.09649 0.18208
# Poissons Ratio (z) = 0.44803 0.25906
#
# Static dielectric constant tensor:
#      x y z
#    x 4.828150 0.945070 0.426670 
#    y 0.945070 4.218370 0.353270 
#    z 0.426670 0.353270 3.832920 
# 
# 
# High freq. dielectric constant tensor:
#      x y z
#    x 1.773420 0.011030 -0.001860 
#    y 0.011030 1.789250 -0.002730 
#    z -0.001860 -0.002730 1.756990 
# 
# From -- ./inp_files/178227.got.cif
#   From: 2010.06.25/outbox.cif.g09.slc.cpg/sg2_90_cif.got.tgz:178227.got - 2010.06.27 13:26:56.
