data_PCOD8000012
_publ_section_title
;
Structure prediction by ZEFSAII (Michael W. Deem and Ramdas Pophale) SiO2 
 PCOD8000012
Probable space group: P 1
;
_chemical_formula_sum "Si O2"
_cell_formula_units_Z 6
_cell_length_a 11.594247
_cell_length_b 5.348920
_cell_length_c 10.367339
_cell_angle_alpha 105.617257
_cell_angle_beta 26.632672
_cell_angle_gamma 91.320531
_cell_volume 239.735697
_symmetry_space_group_name_H-M "P 1"
_symmetry_group_IT_number 1
_symmetry_cell_setting 'triclinic'
loop_
_space_group_symop_operation_xyz
x,y,z
loop_
_atom_site_type_symbol
_atom_site_label
_atom_site_fract_x
_atom_site_fract_y
_atom_site_fract_z
Si Si1 0.138500 0.645850 0.547390
Si Si2 0.464261 0.994463 0.215927
Si Si3 0.657964 0.608400 0.467879
Si Si4 0.216240 0.491376 0.727015
Si Si5 0.735528 0.453960 0.647689
Si Si6 0.409875 0.105335 0.979035
O O1 0.317531 0.786530 0.321894
O O2 0.106208 0.710792 0.742536
O O3 0.324037 0.275976 0.289725
O O4 0.818606 0.784853 0.820798
O O5 0.387450 0.148969 0.455961
O O6 0.437087 0.550108 0.597393
O O7 0.767452 0.389012 0.452914
O O8 0.487016 0.950801 0.738672
O O9 0.937327 0.549645 0.097296
O O10 0.549970 0.823843 0.905380
O O11 0.556530 0.313331 0.873254
O O12 0.055521 0.314887 0.374065
#
# Coordination Sequence:
#
# PCOD8000012 Si02
#       6
#     1   1   1   1   1   1
#     4  10  20  31  39  48  57  66  75  84  93 102
#     4  10  20  31  39  48  57  66  75  84  93 102
#     4  10  20  28  38  46  56  64  74  82  92 100
#     4  10  20  28  38  46  56  64  74  82  92 100
#     4  10  20  31  39  48  57  66  75  84  93 102
#     4  10  20  31  39  48  57  66  75  84  93 102
#
# _framework density 25.027560999999999
#
# number of rings (size 3 to 8) (size 9 to 14) (size 15 to 20)
#    2.000    0.000    0.000    6.000    0.000    8.000 
#    0.000    0.000    0.000    0.000    0.000    0.000 
#    0.000    0.000    0.000    0.000    0.000    0.000 
#
# Total GULP energy -74410.225445 kJ/mol
# GULP energy per Si atom -12401.704241 kJ/mol
# Density = 2.497060 g / cm^3
# Si number density = 25.027561 Si / 1000 Ang^3
#
#
#
# Elastic Constant Matrix: (Units=GPa)
#
#
# Indices 1 2 3 4 5 6 
#
# 1 247.1249 118.6843 29.5167 -5.0893 -37.7816 33.0853
# 2 118.6843 229.9339 91.5279 -10.9205 -21.2641 30.1084
# 3 29.5167 91.5279 316.5075 -8.4010 -12.6539 -36.0661
# 4 -5.0893 -10.9205 -8.4010 64.7758 4.6158 2.0979
# 5 -37.7816 -21.2641 -12.6539 4.6158 67.3906 -13.3362
# 6 33.0853 30.1084 -36.0661 2.0979 -13.3362 75.2810
#
#
#
# Elastic Compliance Matrix: (Units=1/GPa)
#
#
# Indices 1 2 3 4 5 6 
#
# 1 0.005816 -0.002773 0.000241 -0.000110 0.002255 -0.000929
# 2 -0.002773 0.006942 -0.002038 0.000795 -0.000318 -0.002613
# 3 0.000241 -0.002038 0.004080 0.000056 0.000809 0.002806
# 4 -0.000110 0.000795 0.000056 0.015673 -0.001045 -0.000865
# 5 0.002255 -0.000318 0.000809 -0.001045 0.016724 0.002516
# 6 -0.000929 -0.002613 0.002806 -0.000865 0.002516 0.016551
#
#
# Mechanical properties :
#
#
# Convention : Reuss Voigt Hill
#
# Bulk Modulus (GPa) = 129.91111 141.44713 135.67912
# Shear Modulus (GPa) = 64.52107 78.41199 71.46653
#
# Velocity S-wave (km/s) = 5.08291 5.60342 5.34950
# Velocity P-wave (km/s) = 9.29881 9.92490 9.61695
#
# Compressibility (1/GPa) = 0.00769757
#
# Stress axis : x y z
#
# Youngs Moduli (GPa) = 171.92527 144.04341 245.09526
#
# Poissons Ratio (x) = 0.39946 -0.05903
# Poissons Ratio (y) = 0.47678 0.49959
# Poissons Ratio (z) = -0.04141 0.29361
#
# Static dielectric constant tensor:
#      x y z
#    x 4.636070 -0.011490 0.380480 
#    y -0.011490 4.436660 0.194300 
#    z 0.380480 0.194300 4.450120 
# 
# 
# High freq. dielectric constant tensor:
#      x y z
#    x 2.039410 0.008470 0.030340 
#    y 0.008470 2.002630 0.006560 
#    z 0.030340 0.006560 2.025540 
# 
# From -- ./inp_files/2813.got.cif
#   From: 2010.03.12/outbox.cif.g09.slc.cpg/sg1_2_cif.got.tgz:2813.got - 2010.03.29 11:57:58.
