data_PCOD8000888
_publ_section_title
;
Structure prediction by ZEFSAII (Michael W. Deem and Ramdas Pophale) SiO2 
 PCOD8000888
Probable space group: P -1
;
_chemical_formula_sum "Si O2"
_cell_formula_units_Z 16
_cell_length_a 11.807392
_cell_length_b 15.817835
_cell_length_c 15.549765
_cell_angle_alpha 35.950735
_cell_angle_beta 123.582128
_cell_angle_gamma 148.751198
_cell_volume 787.072309
_symmetry_space_group_name_H-M "P -1"
_symmetry_group_IT_number 2
_symmetry_cell_setting 'triclinic'
loop_
_space_group_symop_operation_xyz
x,y,z
-x,-y,-z
loop_
_atom_site_type_symbol
_atom_site_label
_atom_site_fract_x
_atom_site_fract_y
_atom_site_fract_z
Si Si1 0.865093 0.023216 0.513733
Si Si2 0.620402 0.959636 0.616063
Si Si3 0.199581 0.795718 0.322806
Si Si4 0.316392 0.429859 0.255993
Si Si5 0.869196 0.999730 0.001723
Si Si6 0.279661 0.417907 0.962231
Si Si7 0.688885 0.094736 0.251655
Si Si8 0.094696 0.421802 0.036004
O O1 0.714047 0.976055 0.417315
O O2 0.156652 0.270503 0.408414
O O3 0.831160 0.076086 0.547147
O O4 0.741838 0.755934 0.679609
O O5 0.389392 0.650960 0.768056
O O6 0.500000 0.000000 0.500000
O O7 0.724743 0.062129 0.672422
O O8 0.133433 0.856133 0.173904
O O9 0.000000 0.500000 0.500000
O O10 0.408477 0.884440 0.293739
O O11 0.228840 0.501154 0.116823
O O12 0.606110 0.707425 0.164503
O O13 0.040934 0.156563 0.027413
O O14 0.000000 0.000000 0.000000
O O15 0.500000 0.500000 0.000000
O O16 0.166553 0.359884 0.053418
O O17 0.804818 0.170689 0.142936
O O18 0.817465 0.343280 0.150494
#
# Coordination Sequence:
#
# PCOD8000888 Si02
#       8
#     2   2   2   2   2   2   2   2
#     4  10  21  37  66  93 124 172 200 251 301 377
#     4  12  21  39  64  91 124 163 210 246 305 371
#     4  12  25  41  60  95 127 163 203 262 314 362
#     4  10  21  40  64  92 127 160 210 248 314 363
#     4  12  25  41  63  92 127 162 206 265 311 362
#     4  12  24  41  66  90 120 163 213 258 308 374
#     4  10  20  38  65  86 124 159 209 245 310 369
#     4  10  19  40  65  89 115 167 207 253 302 375
#
# _framework density 20.328499999999998
#
# number of rings (size 3 to 8) (size 9 to 14) (size 15 to 20)
#    0.000    1.000    3.750    3.750    1.750    0.000 
#    2.250    0.625    0.000    3.750    0.000    0.000 
#    0.000    0.000    0.000    0.000    0.000    0.000 
#
# Total GULP energy -198258.144027 kJ/mol
# GULP energy per Si atom -12391.134002 kJ/mol
# Density = 2.028223 g / cm^3
# Si number density = 20.328500 Si / 1000 Ang^3
#
#
#
# Elastic Constant Matrix: (Units=GPa)
#
#
# Indices 1 2 3 4 5 6 
#
# 1 164.7315 47.0783 48.0841 -13.1241 -23.1771 12.4067
# 2 47.0783 88.2821 45.8004 -14.4165 -12.6381 15.7853
# 3 48.0841 45.8004 115.6434 -19.0886 -3.0352 15.8150
# 4 -13.1241 -14.4165 -19.0886 33.6362 10.2753 -2.2084
# 5 -23.1771 -12.6381 -3.0352 10.2753 40.3973 1.5925
# 6 12.4067 15.7853 15.8150 -2.2084 1.5925 33.4539
#
#
#
# Elastic Compliance Matrix: (Units=1/GPa)
#
#
# Indices 1 2 3 4 5 6 
#
# 1 0.007987 -0.002483 -0.002172 -0.000399 0.003782 -0.000970
# 2 -0.002483 0.016633 -0.004418 0.002413 0.003023 -0.004823
# 3 -0.002172 -0.004418 0.012393 0.005005 -0.002871 -0.002502
# 4 -0.000399 0.002413 0.005005 0.035918 -0.008211 -0.000594
# 5 0.003782 0.003023 -0.002871 -0.008211 0.029878 -0.003436
# 6 -0.000970 -0.004823 -0.002502 -0.000594 -0.003436 0.033835
#
#
# Mechanical properties :
#
#
# Convention : Reuss Voigt Hill
#
# Bulk Modulus (GPa) = 52.99960 72.28693 62.64327
# Shear Modulus (GPa) = 31.04097 36.67710 33.85903
#
# Velocity S-wave (km/s) = 3.91188 4.25222 4.08560
# Velocity P-wave (km/s) = 6.82143 7.72950 7.28962
#
# Compressibility (1/GPa) = 0.01886807
#
# Stress axis : x y z
#
# Youngs Moduli (GPa) = 125.19631 60.12299 80.69229
#
# Poissons Ratio (x) = 0.14929 0.17524
# Poissons Ratio (y) = 0.31087 0.35647
# Poissons Ratio (z) = 0.27189 0.26560
#
# Static dielectric constant tensor:
#      x y z
#    x 4.126380 0.098840 0.034810 
#    y 0.098840 3.397220 -0.177790 
#    z 0.034810 -0.177790 3.705010 
# 
# 
# High freq. dielectric constant tensor:
#      x y z
#    x 1.821270 0.016390 -0.000930 
#    y 0.016390 1.751950 0.002760 
#    z -0.000930 0.002760 1.815930 
# 
# From -- ./inp_files/190169.got.cif
#   From: 2010.06.25/outbox.cif.g09.slc.cpg/sg2_96_cif.got.tgz:190169.got - 2010.06.27 13:26:56.
