data_PCOD8000158
_publ_section_title
;
Structure prediction by ZEFSAII (Michael W. Deem and Ramdas Pophale) SiO2 
 PCOD8000158
Probable space group: P 1
;
_chemical_formula_sum "Si O2"
_cell_formula_units_Z 8
_cell_length_a 12.513758
_cell_length_b 16.353256
_cell_length_c 5.097165
_cell_angle_alpha 124.428604
_cell_angle_beta 56.534700
_cell_angle_gamma 156.236665
_cell_volume 344.877582
_symmetry_space_group_name_H-M "P 1"
_symmetry_group_IT_number 1
_symmetry_cell_setting 'triclinic'
loop_
_space_group_symop_operation_xyz
x,y,z
loop_
_atom_site_type_symbol
_atom_site_label
_atom_site_fract_x
_atom_site_fract_y
_atom_site_fract_z
Si Si1 0.857820 0.666590 0.594250
Si Si2 0.005444 0.457565 0.506249
Si Si3 0.633225 0.048665 0.483711
Si Si4 0.278180 0.268000 0.708491
Si Si5 0.052335 0.192050 0.367817
Si Si6 0.353482 0.673358 0.935045
Si Si7 0.806844 0.852603 0.820260
Si Si8 0.096077 0.737784 0.898283
O O1 0.567792 0.416455 0.532297
O O2 0.789367 0.733896 0.756311
O O3 0.055883 0.754877 0.272784
O O4 0.990281 0.743851 0.838298
O O5 0.118685 0.502283 0.153231
O O6 0.735676 0.213106 0.479902
O O7 0.232727 0.596668 0.670172
O O8 0.929719 0.522633 0.713869
O O9 0.523971 0.889748 0.146569
O O10 0.887499 0.181760 0.545350
O O11 0.408250 0.929779 0.777902
O O12 0.193587 0.285548 0.625046
O O13 0.064151 0.033349 0.604376
O O14 0.278130 0.335836 0.095120
O O15 0.845812 0.959579 0.195330
O O16 0.540139 0.702287 0.750253
#
# Coordination Sequence:
#
# PCOD8000158 Si02
#       8
#     1   1   1   1   1   1   1   1
#     4  12  26  43  67  90 140 176 221 262 321 394
#     4  11  25  43  70  97 133 181 216 282 334 386
#     4  10  24  45  73  95 139 173 216 288 340 380
#     4  10  23  41  62 100 131 166 211 272 325 399
#     4   9  22  41  67 100 127 155 222 271 340 390
#     4  10  24  41  68 108 133 158 231 275 339 411
#     4   9  25  38  69  96 132 172 206 276 338 386
#     4  11  27  44  62 100 131 181 231 262 305 416
#
# _framework density 23.196636000000002
#
# number of rings (size 3 to 8) (size 9 to 14) (size 15 to 20)
#    0.750    1.000    0.000    2.250   10.500    6.000 
#    0.000    0.000    0.000    0.000    0.000    0.000 
#    0.000    0.000    0.000    0.000    0.000    0.000 
#
# Total GULP energy -99189.358490 kJ/mol
# GULP energy per Si atom -12398.669811 kJ/mol
# Density = 2.314384 g / cm^3
# Si number density = 23.196636 Si / 1000 Ang^3
#
#
#
# Elastic Constant Matrix: (Units=GPa)
#
#
# Indices 1 2 3 4 5 6 
#
# 1 100.8547 17.4374 21.8746 -8.9611 -0.4152 -9.3104
# 2 17.4374 85.6542 18.1933 -14.9819 -12.1329 -19.1344
# 3 21.8746 18.1933 43.2900 -12.1379 -2.2527 -12.2825
# 4 -8.9611 -14.9819 -12.1379 27.2018 -2.2947 -6.3688
# 5 -0.4152 -12.1329 -2.2527 -2.2947 42.4106 -1.5756
# 6 -9.3104 -19.1344 -12.2825 -6.3688 -1.5756 33.9832
#
#
#
# Elastic Compliance Matrix: (Units=1/GPa)
#
#
# Indices 1 2 3 4 5 6 
#
# 1 0.011302 -0.000821 -0.004614 0.001480 -0.000243 0.001233
# 2 -0.000821 0.017802 0.000648 0.013361 0.006319 0.012830
# 3 -0.004614 0.000648 0.034781 0.018227 0.003541 0.015252
# 4 0.001480 0.013361 0.018227 0.059613 0.009000 0.026106
# 5 -0.000243 0.006319 0.003541 0.009000 0.026345 0.007679
# 6 0.001233 0.012830 0.015252 0.026106 0.007679 0.047749
#
#
# Mechanical properties :
#
#
# Convention : Reuss Voigt Hill
#
# Bulk Modulus (GPa) = 18.41186 38.31216 28.36201
# Shear Modulus (GPa) = 22.19559 32.20535 27.20047
#
# Velocity S-wave (km/s) = 3.09665 3.73012 3.42805
# Velocity P-wave (km/s) = 4.55414 5.92485 5.28413
#
# Compressibility (1/GPa) = 0.05431282
#
# Stress axis : x y z
#
# Youngs Moduli (GPa) = 88.47794 56.17195 28.75130
#
# Poissons Ratio (x) = 0.04612 0.13265
# Poissons Ratio (y) = 0.07264 -0.01864
# Poissons Ratio (z) = 0.40822 -0.03642
#
# Static dielectric constant tensor:
#      x y z
#    x 4.089430 -0.080530 -0.040420 
#    y -0.080530 4.265310 -0.163930 
#    z -0.040420 -0.163930 3.834230 
# 
# 
# High freq. dielectric constant tensor:
#      x y z
#    x 1.918440 -0.006580 0.005230 
#    y -0.006580 1.918790 -0.012340 
#    z 0.005230 -0.012340 1.899080 
# 
# From -- ./inp_files/2474.got.cif
#   From: 2010.03.12/outbox.cif.g09.slc.cpg/sg1_2_cif.got.tgz:2474.got - 2010.03.29 11:57:58.
