data_PCOD8000615
_publ_section_title
;
Structure prediction by ZEFSAII (Michael W. Deem and Ramdas Pophale) SiO2 
 PCOD8000615
Probable space group: P -1
;
_chemical_formula_sum "Si O2"
_cell_formula_units_Z 16
_cell_length_a 13.698445
_cell_length_b 12.021322
_cell_length_c 9.885857
_cell_angle_alpha 126.162877
_cell_angle_beta 31.549942
_cell_angle_gamma 117.478079
_cell_volume 684.379912
_symmetry_space_group_name_H-M "P -1"
_symmetry_group_IT_number 2
_symmetry_cell_setting 'triclinic'
loop_
_space_group_symop_operation_xyz
x,y,z
-x,-y,-z
loop_
_atom_site_type_symbol
_atom_site_label
_atom_site_fract_x
_atom_site_fract_y
_atom_site_fract_z
Si Si1 0.923985 0.301800 0.627669
Si Si2 0.150568 0.388019 0.015235
Si Si3 0.370937 0.006079 0.483985
Si Si4 0.203308 0.203137 0.590201
Si Si5 0.529797 0.265187 0.563974
Si Si6 0.292779 0.134384 0.150434
Si Si7 0.201967 0.826815 0.051951
Si Si8 0.829182 0.234916 0.399772
O O1 0.799429 0.251149 0.859520
O O2 0.811133 0.287001 0.612250
O O3 0.126848 0.215431 0.317220
O O4 0.957371 0.462176 0.726897
O O5 0.186356 0.354606 0.790053
O O6 0.350093 0.377836 0.849392
O O7 0.029364 0.266924 0.127217
O O8 0.196929 0.930767 0.697022
O O9 0.311950 0.093483 0.482916
O O10 0.460110 0.110395 0.559394
O O11 0.520822 0.877272 0.168686
O O12 0.315422 0.212903 0.323434
O O13 0.997852 0.159579 0.774451
O O14 0.661118 0.310798 0.562132
O O15 0.644083 0.259304 0.283981
O O16 0.247788 0.981510 0.135037
#
# Coordination Sequence:
#
# PCOD8000615 Si02
#       8
#     2   2   2   2   2   2   2   2
#     4  11  25  43  67  94 131 179 219 264 321 388
#     4  11  26  44  64  94 136 176 223 259 318 389
#     4  10  22  39  67 103 128 167 217 267 334 386
#     4  10  19  39  65  96 132 167 205 278 324 372
#     4  10  24  44  68  99 132 165 217 276 320 394
#     4  10  21  39  68 100 132 159 222 271 326 389
#     4  10  20  43  69  99 129 163 217 274 329 384
#     4  12  24  45  66  93 135 178 214 271 321 379
#
# _framework density 23.378827999999999
#
# number of rings (size 3 to 8) (size 9 to 14) (size 15 to 20)
#    0.000    1.500    1.250    4.125    1.750    7.000 
#    4.500    0.000    0.000    0.000    0.000    0.000 
#    0.000    0.000    0.000    0.000    0.000    0.000 
#
# Total GULP energy -198387.481559 kJ/mol
# GULP energy per Si atom -12399.217597 kJ/mol
# Density = 2.332562 g / cm^3
# Si number density = 23.378828 Si / 1000 Ang^3
#
#
#
# Elastic Constant Matrix: (Units=GPa)
#
#
# Indices 1 2 3 4 5 6 
#
# 1 150.8076 26.8945 42.4464 -3.3159 3.5499 7.5527
# 2 26.8945 55.2602 44.3950 7.2893 9.3972 -1.0915
# 3 42.4464 44.3950 102.2300 -3.9023 -9.4135 -2.6523
# 4 -3.3159 7.2893 -3.9023 22.2434 7.1653 1.0111
# 5 3.5499 9.3972 -9.4135 7.1653 25.0246 0.1929
# 6 7.5527 -1.0915 -2.6523 1.0111 0.1929 24.0789
#
#
#
# Elastic Compliance Matrix: (Units=1/GPa)
#
#
# Indices 1 2 3 4 5 6 
#
# 1 0.007946 -0.001561 -0.002819 0.002031 -0.002160 -0.002941
# 2 -0.001561 0.037180 -0.017464 -0.009885 -0.017486 0.000806
# 3 -0.002819 -0.017464 0.019972 0.004472 0.013175 0.001999
# 4 0.002031 -0.009885 0.004472 0.052608 -0.009937 -0.002722
# 5 -0.002160 -0.017486 0.013175 -0.009937 0.054624 0.001316
# 6 -0.002941 0.000806 0.001999 -0.002722 0.001316 0.042813
#
#
# Mechanical properties :
#
#
# Convention : Reuss Voigt Hill
#
# Bulk Modulus (GPa) = 46.70904 59.52995 53.11950
# Shear Modulus (GPa) = 18.79928 27.24017 23.01972
#
# Velocity S-wave (km/s) = 2.83877 3.41715 3.14130
# Velocity P-wave (km/s) = 5.54684 6.40997 5.99396
#
# Compressibility (1/GPa) = 0.02140913
#
# Stress axis : x y z
#
# Youngs Moduli (GPa) = 125.85626 26.89647 50.07001
#
# Poissons Ratio (x) = 0.04199 0.14114
# Poissons Ratio (y) = 0.19648 0.87443
# Poissons Ratio (z) = 0.35476 0.46972
#
# Static dielectric constant tensor:
#      x y z
#    x 4.403010 0.108900 0.068260 
#    y 0.108900 3.982430 -0.179960 
#    z 0.068260 -0.179960 4.268730 
# 
# 
# High freq. dielectric constant tensor:
#      x y z
#    x 1.941850 0.000910 -0.001710 
#    y 0.000910 1.896740 -0.012540 
#    z -0.001710 -0.012540 1.924110 
# 
# From -- ./inp_files/451718.got.cif
#   From: 2010.06.25/outbox.cif.g09.slc.cpg/sg2_226_cif.got.tgz:451718.got - 2010.06.27 13:26:56.
