data_PCOD8000343
_publ_section_title
;
Structure prediction by ZEFSAII (Michael W. Deem and Ramdas Pophale) SiO2 
 PCOD8000343
Probable space group: P -1
;
_chemical_formula_sum "Si O2"
_cell_formula_units_Z 16
_cell_length_a 16.333688
_cell_length_b 15.178750
_cell_length_c 15.155031
_cell_angle_alpha 160.833930
_cell_angle_beta 139.122872
_cell_angle_gamma 41.113103
_cell_volume 793.729032
_symmetry_space_group_name_H-M "P -1"
_symmetry_group_IT_number 2
_symmetry_cell_setting 'triclinic'
loop_
_space_group_symop_operation_xyz
x,y,z
-x,-y,-z
loop_
_atom_site_type_symbol
_atom_site_label
_atom_site_fract_x
_atom_site_fract_y
_atom_site_fract_z
Si Si1 0.365516 0.280330 0.610719
Si Si2 0.832693 0.298345 0.651724
Si Si3 0.492133 0.247591 0.853814
Si Si4 0.150904 0.029211 0.964352
Si Si5 0.076221 0.186557 0.856924
Si Si6 0.550053 0.030970 0.876708
Si Si7 0.457796 0.518404 0.383214
Si Si8 0.891354 0.507716 0.489685
O O1 0.369512 0.257650 0.699644
O O2 0.233162 0.440771 0.622367
O O3 0.392800 0.978489 0.305728
O O4 0.471971 0.453033 0.830149
O O5 0.692453 0.380510 0.654956
O O6 0.929232 0.228544 0.746415
O O7 0.837315 0.039171 0.346813
O O8 0.868885 0.537333 0.847350
O O9 0.462812 0.157084 0.842533
O O10 0.084450 0.103914 0.887089
O O11 0.097932 0.771972 0.713805
O O12 0.302922 0.965361 0.018622
O O13 0.104387 0.266713 0.219973
O O14 0.533201 0.721511 0.585307
O O15 0.500186 0.214294 0.093194
O O16 0.500000 0.500000 0.500000
O O17 0.000000 0.500000 0.500000
#
# Coordination Sequence:
#
# PCOD8000343 Si02
#       8
#     2   2   2   2   2   2   2   2
#     4  10  19  39  59  85 114 148 194 237 297 347
#     4  10  21  41  61  89 124 154 201 238 296 353
#     4  10  20  36  63  83 113 153 193 239 282 355
#     4  12  23  41  63  88 116 155 210 236 291 364
#     4  10  21  40  67  85 115 168 197 240 286 351
#     4  12  22  38  62  87 119 156 197 243 290 350
#     4  12  24  38  58  92 126 152 190 246 303 341
#     4  12  24  41  61  87 123 153 195 254 297 348
#
# _framework density 20.158013
#
# number of rings (size 3 to 8) (size 9 to 14) (size 15 to 20)
#    0.000    1.000    2.500    5.250    0.000    0.000 
#    4.500    0.000    0.000    0.000    0.000    0.000 
#    0.000    0.000    0.000    0.000    0.000    0.000 
#
# Total GULP energy -198453.025439 kJ/mol
# GULP energy per Si atom -12403.314090 kJ/mol
# Density = 2.011213 g / cm^3
# Si number density = 20.158013 Si / 1000 Ang^3
#
#
#
# Elastic Constant Matrix: (Units=GPa)
#
#
# Indices 1 2 3 4 5 6 
#
# 1 102.6793 53.1898 33.0850 -6.6191 -3.7704 11.3706
# 2 53.1898 112.0055 36.3704 -3.5922 -4.9610 30.9917
# 3 33.0850 36.3704 96.5699 7.2756 -3.6299 4.2852
# 4 -6.6191 -3.5922 7.2756 31.8401 4.6528 -4.2731
# 5 -3.7704 -4.9610 -3.6299 4.6528 38.9047 5.6032
# 6 11.3706 30.9917 4.2852 -4.2731 5.6032 45.7697
#
#
#
# Elastic Compliance Matrix: (Units=1/GPa)
#
#
# Indices 1 2 3 4 5 6 
#
# 1 0.013721 -0.005828 -0.002789 0.003008 -0.000192 0.001103
# 2 -0.005828 0.015330 -0.003268 -0.000288 0.002408 -0.008948
# 3 -0.002789 -0.003268 0.012803 -0.003820 0.000784 0.001254
# 4 0.003008 -0.000288 -0.003820 0.034034 -0.004684 0.003556
# 5 -0.000192 0.002408 0.000784 -0.004684 0.027411 -0.005449
# 6 0.001103 -0.008948 0.001254 0.003556 -0.005449 0.028515
#
#
# Mechanical properties :
#
#
# Convention : Reuss Voigt Hill
#
# Bulk Modulus (GPa) = 55.29203 61.83835 58.56519
# Shear Modulus (GPa) = 30.93830 35.87689 33.40759
#
# Velocity S-wave (km/s) = 3.92189 4.22332 4.07539
# Velocity P-wave (km/s) = 6.92800 7.38413 7.15970
#
# Compressibility (1/GPa) = 0.01808579
#
# Stress axis : x y z
#
# Youngs Moduli (GPa) = 72.87979 65.23114 78.10645
#
# Poissons Ratio (x) = 0.38014 0.21783
# Poissons Ratio (y) = 0.42471 0.25524
# Poissons Ratio (z) = 0.20326 0.21316
#
# Static dielectric constant tensor:
#      x y z
#    x 3.461880 0.249240 -0.104890 
#    y 0.249240 3.887750 0.067480 
#    z -0.104890 0.067480 3.844500 
# 
# 
# High freq. dielectric constant tensor:
#      x y z
#    x 1.767020 0.021390 -0.007650 
#    y 0.021390 1.800440 0.005780 
#    z -0.007650 0.005780 1.808210 
# 
# From -- ./inp_files/534357.got.cif
#   From: 2010.06.25/outbox.cif.g09.slc.cpg/sg2_268_cif.got.tgz:534357.got - 2010.06.27 13:26:56.
