data_PCOD8000714
_publ_section_title
;
Structure prediction by ZEFSAII (Michael W. Deem and Ramdas Pophale) SiO2 
 PCOD8000714
Probable space group: P -1
;
_chemical_formula_sum "Si O2"
_cell_formula_units_Z 14
_cell_length_a 20.936884
_cell_length_b 8.962570
_cell_length_c 15.630038
_cell_angle_alpha 32.370386
_cell_angle_beta 153.257984
_cell_angle_gamma 149.256088
_cell_volume 635.664279
_symmetry_space_group_name_H-M "P -1"
_symmetry_group_IT_number 2
_symmetry_cell_setting 'triclinic'
loop_
_space_group_symop_operation_xyz
x,y,z
-x,-y,-z
loop_
_atom_site_type_symbol
_atom_site_label
_atom_site_fract_x
_atom_site_fract_y
_atom_site_fract_z
Si Si1 0.335420 0.790445 0.653031
Si Si2 0.105511 0.366589 0.458942
Si Si3 0.874794 0.670401 0.078896
Si Si4 0.598712 0.364293 0.431536
Si Si5 0.833004 0.795882 0.789075
Si Si6 0.585177 0.292063 0.021211
Si Si7 0.586943 0.354213 0.612831
O O1 0.222456 0.453468 0.640337
O O2 0.406928 0.780760 0.835067
O O3 0.231657 0.979506 0.440895
O O4 0.487129 0.979350 0.680094
O O5 0.221740 0.519017 0.443501
O O6 0.987215 0.523688 0.248293
O O7 0.000000 0.000000 0.500000
O O8 0.764329 0.465207 0.120294
O O9 0.774639 0.707161 0.861235
O O10 0.977391 0.014089 0.074690
O O11 0.606397 0.494193 0.473699
O O12 0.500000 0.000000 0.500000
O O13 0.506500 0.496327 0.195769
O O14 0.764882 0.478197 0.805747
O O15 0.500000 0.000000 0.000000
O O16 0.500000 0.500000 0.500000
#
# Coordination Sequence:
#
# PCOD8000714 Si02
#       7
#     2   2   2   2   2   2   2
#     4  10  21  39  65  97 132 172 223 283 328 397
#     4  11  25  44  65  96 145 179 217 284 355 392
#     4  10  22  40  67  95 132 175 225 274 334 406
#     4  12  26  45  69 100 141 178 225 284 344 404
#     4   9  19  36  65  92 122 166 226 273 321 388
#     4  12  24  41  71 101 132 181 235 276 337 416
#     4  10  19  39  68  95 128 173 228 271 327 404
#
# _framework density 22.024203
#
# number of rings (size 3 to 8) (size 9 to 14) (size 15 to 20)
#    0.000    1.429    1.429    5.143    4.000    4.000 
#    2.571    0.714    0.000    0.000    0.000    0.000 
#    0.000    0.000    0.000    0.000    0.000    0.000 
#
# Total GULP energy -173445.844069 kJ/mol
# GULP energy per Si atom -12388.988862 kJ/mol
# Density = 2.197408 g / cm^3
# Si number density = 22.024203 Si / 1000 Ang^3
#
#
#
# Elastic Constant Matrix: (Units=GPa)
#
#
# Indices 1 2 3 4 5 6 
#
# 1 105.9749 20.9833 33.8571 8.6143 -10.6912 19.0639
# 2 20.9833 171.0318 24.8961 10.9935 -7.3717 2.8288
# 3 33.8571 24.8961 108.0614 6.3983 -21.9550 -4.1779
# 4 8.6143 10.9935 6.3983 31.2581 -6.9625 -7.6548
# 5 -10.6912 -7.3717 -21.9550 -6.9625 44.9269 5.9834
# 6 19.0639 2.8288 -4.1779 -7.6548 5.9834 40.5629
#
#
#
# Elastic Compliance Matrix: (Units=1/GPa)
#
#
# Indices 1 2 3 4 5 6 
#
# 1 0.012416 -0.000581 -0.003497 -0.003911 0.001492 -0.007113
# 2 -0.000581 0.006224 -0.001140 -0.001932 0.000115 -0.000660
# 3 -0.003497 -0.001140 0.011565 0.000558 0.004404 0.002370
# 4 -0.003911 -0.001932 0.000558 0.036483 0.003562 0.008390
# 5 0.001492 0.000115 0.004404 0.003562 0.025787 -0.003387
# 6 -0.007113 -0.000660 0.002370 0.008390 -0.003387 0.030369
#
#
# Mechanical properties :
#
#
# Convention : Reuss Voigt Hill
#
# Bulk Modulus (GPa) = 50.57924 60.50456 55.54190
# Shear Modulus (GPa) = 35.74738 43.70502 39.72620
#
# Velocity S-wave (km/s) = 4.03314 4.45950 4.25167
# Velocity P-wave (km/s) = 6.68606 7.35171 7.02677
#
# Compressibility (1/GPa) = 0.01977096
#
# Stress axis : x y z
#
# Youngs Moduli (GPa) = 80.53835 160.66653 86.46469
#
# Poissons Ratio (x) = 0.09334 0.30234
# Poissons Ratio (y) = 0.04679 0.09855
# Poissons Ratio (z) = 0.28162 0.18313
#
# Static dielectric constant tensor:
#      x y z
#    x 3.938190 -0.075910 -0.247720 
#    y -0.075910 5.196110 0.353980 
#    z -0.247720 0.353980 3.793970 
# 
# 
# High freq. dielectric constant tensor:
#      x y z
#    x 1.850030 0.001980 -0.019810 
#    y 0.001980 1.894740 0.014400 
#    z -0.019810 0.014400 1.851210 
# 
# From -- ./inp_files/326398.got.cif
#   From: 2010.06.25/outbox.cif.g09.slc.cpg/sg2_164_cif.got.tgz:326398.got - 2010.06.27 13:26:56.
