data_PCOD8000718
_publ_section_title
;
Structure prediction by ZEFSAII (Michael W. Deem and Ramdas Pophale) SiO2 
 PCOD8000718
Probable space group: P -1
;
_chemical_formula_sum "Si O2"
_cell_formula_units_Z 16
_cell_length_a 14.623727
_cell_length_b 11.296807
_cell_length_c 18.235727
_cell_angle_alpha 126.542280
_cell_angle_beta 29.743826
_cell_angle_gamma 145.856920
_cell_volume 752.315474
_symmetry_space_group_name_H-M "P -1"
_symmetry_group_IT_number 2
_symmetry_cell_setting 'triclinic'
loop_
_space_group_symop_operation_xyz
x,y,z
-x,-y,-z
loop_
_atom_site_type_symbol
_atom_site_label
_atom_site_fract_x
_atom_site_fract_y
_atom_site_fract_z
Si Si1 0.097268 0.222067 0.836109
Si Si2 0.345310 0.368689 0.483054
Si Si3 0.815965 0.194972 0.719890
Si Si4 0.775381 0.514872 0.877525
Si Si5 0.244040 0.976779 0.447826
Si Si6 0.184035 0.700464 0.008053
Si Si7 0.096246 0.712463 0.867845
Si Si8 0.132071 0.222245 0.219641
O O1 0.442719 0.465957 0.672861
O O2 0.929227 0.201756 0.878717
O O3 0.023607 0.004749 0.801449
O O4 0.991041 0.216192 0.986561
O O5 0.500000 0.500000 0.500000
O O6 0.254611 0.142866 0.464194
O O7 0.066001 0.300552 0.641421
O O8 0.747668 0.323084 0.821911
O O9 0.902270 0.218725 0.583844
O O10 0.531373 0.916981 0.833472
O O11 0.874173 0.637395 0.775100
O O12 0.018866 0.719530 0.842857
O O13 0.463142 0.387301 0.071787
O O14 0.563409 0.115015 0.298432
O O15 0.042282 0.848867 0.612082
O O16 0.103534 0.561315 0.086177
O O17 0.000000 0.500000 0.000000
#
# Coordination Sequence:
#
# PCOD8000718 Si02
#       8
#     2   2   2   2   2   2   2   2
#     4  11  21  44  67  97 137 177 208 275 335 397
#     4  12  25  40  66 109 140 167 215 272 336 402
#     4  12  25  43  68  98 139 174 217 270 337 397
#     4  11  27  46  63  97 128 180 228 273 328 393
#     4  12  23  43  67  99 132 174 214 279 329 392
#     4  10  19  39  68  97 128 169 211 261 335 408
#     4  11  23  41  70  98 133 172 220 268 337 401
#     4  11  26  45  67  91 133 174 232 276 324 384
#
# _framework density 21.267674
#
# number of rings (size 3 to 8) (size 9 to 14) (size 15 to 20)
#    0.000    0.750    6.250    1.875    3.500    2.000 
#    0.000    0.000    0.000    0.000    0.000    0.000 
#    0.000    0.000    0.000    0.000    0.000    0.000 
#
# Total GULP energy -198398.499246 kJ/mol
# GULP energy per Si atom -12399.906203 kJ/mol
# Density = 2.121927 g / cm^3
# Si number density = 21.267674 Si / 1000 Ang^3
#
#
#
# Elastic Constant Matrix: (Units=GPa)
#
#
# Indices 1 2 3 4 5 6 
#
# 1 121.8196 51.7703 54.7173 -1.1875 -17.6189 11.6775
# 2 51.7703 60.2410 42.3770 -1.2057 6.2149 7.1127
# 3 54.7173 42.3770 121.2815 -9.2143 -3.8708 0.3280
# 4 -1.1875 -1.2057 -9.2143 31.5759 3.7717 4.7786
# 5 -17.6189 6.2149 -3.8708 3.7717 30.8821 -0.0142
# 6 11.6775 7.1127 0.3280 4.7786 -0.0142 19.4816
#
#
#
# Elastic Compliance Matrix: (Units=1/GPa)
#
#
# Indices 1 2 3 4 5 6 
#
# 1 0.017750 -0.014033 -0.002792 -0.001436 0.012774 -0.005107
# 2 -0.014033 0.035458 -0.006438 0.001607 -0.016148 -0.004831
# 3 -0.002792 -0.006438 0.011968 0.002551 0.000893 0.003198
# 4 -0.001436 0.001607 0.002551 0.034257 -0.005011 -0.008176
# 5 0.012774 -0.016148 0.000893 -0.005011 0.043642 -0.000515
# 6 -0.005107 -0.004831 0.003198 -0.008176 -0.000515 0.058107
#
#
# Mechanical properties :
#
#
# Convention : Reuss Voigt Hill
#
# Bulk Modulus (GPa) = 53.62436 66.78570 60.20503
# Shear Modulus (GPa) = 19.69074 26.68641 23.18858
#
# Velocity S-wave (km/s) = 3.04608 3.54614 3.30558
# Velocity P-wave (km/s) = 6.13517 6.94532 6.55277
#
# Compressibility (1/GPa) = 0.01864824
#
# Stress axis : x y z
#
# Youngs Moduli (GPa) = 56.33797 28.20266 83.55453
#
# Poissons Ratio (x) = 0.39578 0.23331
# Poissons Ratio (y) = 0.79062 0.53793
# Poissons Ratio (z) = 0.15731 0.18157
#
# Static dielectric constant tensor:
#      x y z
#    x 4.012720 -0.083930 -0.024850 
#    y -0.083930 3.891160 -0.024270 
#    z -0.024850 -0.024270 4.005200 
# 
# 
# High freq. dielectric constant tensor:
#      x y z
#    x 1.828730 0.005390 -0.004370 
#    y 0.005390 1.828330 0.005070 
#    z -0.004370 0.005070 1.844490 
# 
# From -- ./inp_files/207989.got.cif
#   From: 2010.06.25/outbox.cif.g09.slc.cpg/sg2_104_cif.got.tgz:207989.got - 2010.06.27 13:26:56.
