data_PCOD8000707
_publ_section_title
;
Structure prediction by ZEFSAII (Michael W. Deem and Ramdas Pophale) SiO2 
 PCOD8000707
Probable space group: P -1
;
_chemical_formula_sum "Si O2"
_cell_formula_units_Z 10
_cell_length_a 8.811293
_cell_length_b 10.223289
_cell_length_c 8.649647
_cell_angle_alpha 121.158842
_cell_angle_beta 68.850284
_cell_angle_gamma 70.231296
_cell_volume 468.422340
_symmetry_space_group_name_H-M "P -1"
_symmetry_group_IT_number 2
_symmetry_cell_setting 'triclinic'
loop_
_space_group_symop_operation_xyz
x,y,z
-x,-y,-z
loop_
_atom_site_type_symbol
_atom_site_label
_atom_site_fract_x
_atom_site_fract_y
_atom_site_fract_z
Si Si1 0.143077 0.392018 0.683342
Si Si2 0.466510 0.568829 0.879318
Si Si3 0.440258 0.206188 0.196148
Si Si4 0.400739 0.803310 0.558034
Si Si5 0.996056 0.759728 0.134750
O O1 0.202501 0.348642 0.452508
O O2 0.368003 0.268222 0.624569
O O3 0.023920 0.312262 0.735149
O O4 0.996730 0.631107 0.920056
O O5 0.558790 0.682795 0.884900
O O6 0.598936 0.375068 0.597978
O O7 0.500000 0.500000 0.000000
O O8 0.212000 0.726304 0.032025
O O9 0.615176 0.166402 0.231080
O O10 0.500000 0.000000 0.000000
O O11 0.204596 0.004854 0.667834
#
# Coordination Sequence:
#
# PCOD8000707 Si02
#       5
#     2   2   2   2   2
#     4   8  20  37  63  95 125 158 206 256 308 370
#     4  11  25  42  62  93 130 164 211 260 306 370
#     4  10  23  43  64  90 133 164 202 261 314 365
#     4   9  21  40  68  85 129 162 208 253 316 360
#     4  10  19  39  68  93 120 168 211 251 315 369
#
# _framework density 21.348255000000002
#
# number of rings (size 3 to 8) (size 9 to 14) (size 15 to 20)
#    1.200    1.200    0.000    1.200    2.800    4.800 
#    0.000    2.000    0.000    0.000    0.000    0.000 
#    0.000    0.000    0.000    0.000    0.000    0.000 
#
# Total GULP energy -123928.279340 kJ/mol
# GULP energy per Si atom -12392.827934 kJ/mol
# Density = 2.129967 g / cm^3
# Si number density = 21.348255 Si / 1000 Ang^3
#
#
#
# Elastic Constant Matrix: (Units=GPa)
#
#
# Indices 1 2 3 4 5 6 
#
# 1 34.4914 33.3709 36.0907 9.8567 14.2591 8.7220
# 2 33.3709 132.9520 64.9984 -3.1023 9.1656 28.2361
# 3 36.0907 64.9984 115.8606 4.3211 6.8739 21.6773
# 4 9.8567 -3.1023 4.3211 47.9668 -3.4492 -4.5287
# 5 14.2591 9.1656 6.8739 -3.4492 38.0224 0.2862
# 6 8.7220 28.2361 21.6773 -4.5287 0.2862 32.6535
#
#
#
# Elastic Compliance Matrix: (Units=1/GPa)
#
#
# Indices 1 2 3 4 5 6 
#
# 1 0.063846 -0.007778 -0.013108 -0.014273 -0.020968 -0.003422
# 2 -0.007778 0.012514 -0.003594 0.002217 0.000797 -0.006057
# 3 -0.013108 -0.003594 0.015126 0.001013 0.003165 -0.003320
# 4 -0.014273 0.002217 0.001013 0.024759 0.006847 0.004597
# 5 -0.020968 0.000797 0.003165 0.006847 0.033995 0.003463
# 6 -0.003422 -0.006057 -0.003320 0.004597 0.003463 0.039587
#
#
# Mechanical properties :
#
#
# Convention : Reuss Voigt Hill
#
# Bulk Modulus (GPa) = 23.51500 61.35821 42.43661
# Shear Modulus (GPa) = 19.76565 33.65148 26.70857
#
# Velocity S-wave (km/s) = 3.04611 3.97459 3.54091
# Velocity P-wave (km/s) = 4.83845 7.06166 6.05300
#
# Compressibility (1/GPa) = 0.04252605
#
# Stress axis : x y z
#
# Youngs Moduli (GPa) = 15.66259 79.90925 66.10983
#
# Poissons Ratio (x) = 0.62152 0.86658
# Poissons Ratio (y) = 0.12182 0.23763
# Poissons Ratio (z) = 0.20531 0.28723
#
# Static dielectric constant tensor:
#      x y z
#    x 3.538740 0.152740 -0.041350 
#    y 0.152740 3.540540 -0.041910 
#    z -0.041350 -0.041910 3.888760 
# 
# 
# High freq. dielectric constant tensor:
#      x y z
#    x 1.808470 0.013790 -0.002320 
#    y 0.013790 1.824770 0.002750 
#    z -0.002320 0.002750 1.845430 
# 
# From -- ./inp_files/17451.got.cif
#   From: 2010.06.25/outbox.cif.g09.slc.cpg/sg2_9_cif.got.tgz:17451.got - 2010.06.27 13:26:56.
