data_PCOD8000334
_publ_section_title
;
Structure prediction by ZEFSAII (Michael W. Deem and Ramdas Pophale) SiO2 
 PCOD8000334
Probable space group: P -1
;
_chemical_formula_sum "Si O2"
_cell_formula_units_Z 14
_cell_length_a 21.571266
_cell_length_b 5.138456
_cell_length_c 18.386079
_cell_angle_alpha 108.035810
_cell_angle_beta 159.941604
_cell_angle_gamma 71.673692
_cell_volume 662.890049
_symmetry_space_group_name_H-M "P -1"
_symmetry_group_IT_number 2
_symmetry_cell_setting 'triclinic'
loop_
_space_group_symop_operation_xyz
x,y,z
-x,-y,-z
loop_
_atom_site_type_symbol
_atom_site_label
_atom_site_fract_x
_atom_site_fract_y
_atom_site_fract_z
Si Si1 0.052907 0.993586 0.449978
Si Si2 0.913900 0.076540 0.740387
Si Si3 0.273490 0.211435 0.222035
Si Si4 0.654761 0.699829 0.258238
Si Si5 0.266844 0.783526 0.801117
Si Si6 0.136379 0.523307 0.409772
Si Si7 0.675587 0.185354 0.624170
O O1 0.179302 0.983802 0.660479
O O2 0.004688 0.698532 0.338291
O O3 0.179494 0.105446 0.536183
O O4 0.873040 0.193191 0.283236
O O5 0.828101 0.294547 0.606037
O O6 0.771632 0.061366 0.647777
O O7 0.951017 0.761524 0.728510
O O8 0.105709 0.190311 0.981782
O O9 0.459125 0.166948 0.376536
O O10 0.266825 0.506430 0.278240
O O11 0.255263 0.983591 0.243817
O O12 0.697803 0.522097 0.217129
O O13 0.671226 0.531988 0.338283
O O14 0.461157 0.871215 0.051668
#
# Coordination Sequence:
#
# PCOD8000334 Si02
#       7
#     2   2   2   2   2   2   2
#     4  10  19  39  58  89 118 156 203 260 293 360
#     4  12  22  41  60  89 124 170 188 244 300 367
#     4  10  21  39  65  93 117 150 204 253 290 346
#     4  10  19  39  58  89 118 156 203 260 293 360
#     4   9  20  34  66  89 108 158 208 258 310 333
#     4  11  24  39  60  84 134 162 204 234 304 372
#     4  10  21  39  65  93 117 150 204 253 290 346
#
# _framework density 21.119641999999999
#
# number of rings (size 3 to 8) (size 9 to 14) (size 15 to 20)
#    0.000    1.714    1.429    3.429    0.000    0.000 
#    2.571    2.857    0.000    0.000    0.000    0.000 
#    0.000    0.000    0.000    0.000    0.000    0.000 
#
# Total GULP energy -173489.286946 kJ/mol
# GULP energy per Si atom -12392.091925 kJ/mol
# Density = 2.107157 g / cm^3
# Si number density = 21.119642 Si / 1000 Ang^3
#
#
#
# Elastic Constant Matrix: (Units=GPa)
#
#
# Indices 1 2 3 4 5 6 
#
# 1 89.4916 26.4073 79.8725 -9.0156 5.2367 -2.8879
# 2 26.4073 77.4832 52.5850 -8.8463 10.5081 -3.2144
# 3 79.8725 52.5850 119.0644 -10.7249 20.7204 -21.8293
# 4 -9.0156 -8.8463 -10.7249 27.8990 -0.2723 0.1806
# 5 5.2367 10.5081 20.7204 -0.2723 21.2976 4.0952
# 6 -2.8879 -3.2144 -21.8293 0.1806 4.0952 24.6772
#
#
#
# Elastic Compliance Matrix: (Units=1/GPa)
#
#
# Indices 1 2 3 4 5 6 
#
# 1 0.071733 0.018503 -0.080989 -0.000979 0.065811 -0.071752
# 2 0.018503 0.024098 -0.030523 0.002223 0.018036 -0.024706
# 3 -0.080989 -0.030523 0.111105 0.005312 -0.092301 0.100107
# 4 -0.000979 0.002223 0.005312 0.038172 -0.006630 0.005694
# 5 0.065811 0.018036 -0.092301 -0.006630 0.129477 -0.093036
# 6 -0.071752 -0.024706 0.100107 0.005694 -0.093036 0.132860
#
#
# Mechanical properties :
#
#
# Convention : Reuss Voigt Hill
#
# Bulk Modulus (GPa) = 47.80833 67.08544 57.44689
# Shear Modulus (GPa) = 7.13842 23.25306 15.19574
#
# Velocity S-wave (km/s) = 1.84047 3.32176 2.68527
# Velocity P-wave (km/s) = 5.21560 6.82243 6.07240
#
# Compressibility (1/GPa) = 0.02091686
#
# Stress axis : x y z
#
# Youngs Moduli (GPa) = 13.94058 41.49737 9.00053
#
# Poissons Ratio (x) = -0.76783 0.72894
# Poissons Ratio (y) = -0.25794 0.27473
# Poissons Ratio (z) = 1.12903 1.26664
#
# Static dielectric constant tensor:
#      x y z
#    x 3.792310 -0.017520 -0.023280 
#    y -0.017520 3.913020 -0.074930 
#    z -0.023280 -0.074930 3.829840 
# 
# 
# High freq. dielectric constant tensor:
#      x y z
#    x 1.818120 0.001580 -0.009680 
#    y 0.001580 1.839110 -0.005680 
#    z -0.009680 -0.005680 1.814290 
# 
# From -- ./inp_files/576829.got.cif
#   From: 2010.06.25/outbox.cif.g09.slc.cpg/sg2_289_cif.got.tgz:576829.got - 2010.06.27 13:26:56.
