data_PCOD8000398
_publ_section_title
;
Structure prediction by ZEFSAII (Michael W. Deem and Ramdas Pophale) SiO2 
 PCOD8000398
Probable space group: P -1
;
_chemical_formula_sum "Si O2"
_cell_formula_units_Z 16
_cell_length_a 15.119124
_cell_length_b 11.405821
_cell_length_c 14.158912
_cell_angle_alpha 54.012723
_cell_angle_beta 29.901107
_cell_angle_gamma 74.109232
_cell_volume 799.439992
_symmetry_space_group_name_H-M "P -1"
_symmetry_group_IT_number 2
_symmetry_cell_setting 'triclinic'
loop_
_space_group_symop_operation_xyz
x,y,z
-x,-y,-z
loop_
_atom_site_type_symbol
_atom_site_label
_atom_site_fract_x
_atom_site_fract_y
_atom_site_fract_z
Si Si1 0.613190 0.974720 0.195306
Si Si2 0.341254 0.875132 0.123337
Si Si3 0.023404 0.066285 0.165814
Si Si4 0.881000 0.310726 0.147646
Si Si5 0.580145 0.703770 0.711156
Si Si6 0.670940 0.194398 0.207560
Si Si7 0.042365 0.113408 0.496641
Si Si8 0.542873 0.370898 0.932109
O O1 0.368329 0.817502 0.526097
O O2 0.729372 0.150533 0.072253
O O3 0.764908 0.903778 0.094220
O O4 0.588646 0.024399 0.088929
O O5 0.096665 0.805116 0.409915
O O6 0.349287 0.705339 0.191634
O O7 0.500000 0.000000 0.000000
O O8 0.027866 0.241289 0.069278
O O9 0.797508 0.902772 0.408542
O O10 0.028360 0.027161 0.288617
O O11 0.870297 0.315727 0.039703
O O12 0.000000 0.500000 0.000000
O O13 0.431305 0.694150 0.768600
O O14 0.438741 0.654257 0.961838
O O15 0.657620 0.573370 0.694388
O O16 0.500000 0.000000 0.500000
O O17 0.289988 0.279342 0.189355
O O18 0.000000 0.000000 0.500000
#
# Coordination Sequence:
#
# PCOD8000398 Si02
#       8
#     2   2   2   2   2   2   2   2
#     4  10  21  41  65  88 121 160 212 247 297 384
#     4  11  20  36  61  89 125 164 199 247 311 367
#     4  10  21  39  63  85 118 162 202 253 310 357
#     4  11  24  42  63  90 123 158 203 261 315 359
#     4  10  19  39  61  86 122 160 202 260 299 356
#     4  10  19  40  66  85 114 166 205 245 304 364
#     4  10  20  34  58  87 119 167 199 236 309 374
#     4  10  20  36  57  88 126 154 202 257 298 358
#
# _framework density 20.014012000000001
#
# number of rings (size 3 to 8) (size 9 to 14) (size 15 to 20)
#    0.000    1.750    5.000    0.750    0.000    2.000 
#    2.250    2.500    0.000    0.000    0.000    0.000 
#    0.000    0.000    0.000    0.000    0.000    0.000 
#
# Total GULP energy -198289.155413 kJ/mol
# GULP energy per Si atom -12393.072213 kJ/mol
# Density = 1.996846 g / cm^3
# Si number density = 20.014012 Si / 1000 Ang^3
#
#
#
# Elastic Constant Matrix: (Units=GPa)
#
#
# Indices 1 2 3 4 5 6 
#
# 1 114.3044 59.9995 20.2994 1.7154 -19.1066 7.4717
# 2 59.9995 177.6591 38.1324 4.8451 -14.3264 -11.8674
# 3 20.2994 38.1324 44.7025 7.8801 -5.2945 -2.9263
# 4 1.7154 4.8451 7.8801 34.2218 -0.4144 -6.5388
# 5 -19.1066 -14.3264 -5.2945 -0.4144 14.1148 2.4895
# 6 7.4717 -11.8674 -2.9263 -6.5388 2.4895 42.8575
#
#
#
# Elastic Compliance Matrix: (Units=1/GPa)
#
#
# Indices 1 2 3 4 5 6 
#
# 1 0.013612 -0.003263 -0.001803 -0.000453 0.015192 -0.004351
# 2 -0.003263 0.008117 -0.005234 0.000712 0.001441 0.002484
# 3 -0.001803 -0.005234 0.029028 -0.005859 0.003001 -0.000221
# 4 -0.000453 0.000712 -0.005859 0.031381 -0.002010 0.004781
# 5 0.015192 0.001441 0.003001 -0.002010 0.095333 -0.007889
# 6 -0.004351 0.002484 -0.000221 0.004781 -0.007889 0.025952
#
#
# Mechanical properties :
#
#
# Convention : Reuss Voigt Hill
#
# Bulk Modulus (GPa) = 33.16199 63.72540 48.44370
# Shear Modulus (GPa) = 21.36045 32.78782 27.07414
#
# Velocity S-wave (km/s) = 3.27046 4.05191 3.68198
# Velocity P-wave (km/s) = 5.55577 7.33486 6.50641
#
# Compressibility (1/GPa) = 0.03015500
#
# Stress axis : x y z
#
# Youngs Moduli (GPa) = 73.46193 123.19694 34.44966
#
# Poissons Ratio (x) = 0.40204 0.06213
# Poissons Ratio (y) = 0.23974 0.18032
# Poissons Ratio (z) = 0.13248 0.64486
#
# Static dielectric constant tensor:
#      x y z
#    x 4.044430 0.027350 -0.057600 
#    y 0.027350 3.854380 0.193700 
#    z -0.057600 0.193700 3.370890 
# 
# 
# High freq. dielectric constant tensor:
#      x y z
#    x 1.794940 -0.006390 -0.006140 
#    y -0.006390 1.790470 0.009150 
#    z -0.006140 0.009150 1.746290 
# 
# From -- ./inp_files/314592.got.cif
#   From: 2010.06.25/outbox.cif.g09.slc.cpg/sg2_158_cif.got.tgz:314592.got - 2010.06.27 13:26:56.
