data_PCOD8000598
_publ_section_title
;
Structure prediction by ZEFSAII (Michael W. Deem and Ramdas Pophale) SiO2 
 PCOD8000598
Probable space group: P -1
;
_chemical_formula_sum "Si O2"
_cell_formula_units_Z 16
_cell_length_a 16.249166
_cell_length_b 9.177023
_cell_length_c 12.260064
_cell_angle_alpha 76.751252
_cell_angle_beta 26.436978
_cell_angle_gamma 75.932277
_cell_volume 789.250047
_symmetry_space_group_name_H-M "P -1"
_symmetry_group_IT_number 2
_symmetry_cell_setting 'triclinic'
loop_
_space_group_symop_operation_xyz
x,y,z
-x,-y,-z
loop_
_atom_site_type_symbol
_atom_site_label
_atom_site_fract_x
_atom_site_fract_y
_atom_site_fract_z
Si Si1 0.322549 0.361458 0.169289
Si Si2 0.956792 0.632240 0.315105
Si Si3 0.429707 0.671846 0.569687
Si Si4 0.067486 0.291539 0.296859
Si Si5 0.312853 0.703412 0.143746
Si Si6 0.230901 0.153410 0.915092
Si Si7 0.707149 0.190229 0.076553
Si Si8 0.986014 0.334796 0.000731
O O1 0.231213 0.340610 0.399137
O O2 0.228127 0.274914 0.200111
O O3 0.303474 0.537402 0.132981
O O4 0.535373 0.295582 0.940136
O O5 0.041902 0.459953 0.251623
O O6 0.094932 0.744055 0.181759
O O7 0.914622 0.674181 0.232878
O O8 0.500000 0.500000 0.500000
O O9 0.575939 0.770471 0.321456
O O10 0.420041 0.709535 0.703835
O O11 0.227511 0.704350 0.748894
O O12 0.881519 0.238555 0.580627
O O13 0.125328 0.178332 0.150425
O O14 0.371204 0.805070 0.955168
O O15 0.274908 0.978054 0.870669
O O16 0.097355 0.214989 0.965943
O O17 0.000000 0.500000 0.000000
#
# Coordination Sequence:
#
# PCOD8000598 Si02
#       8
#     2   2   2   2   2   2   2   2
#     4  10  20  36  65  94 117 161 220 262 306 367
#     4  10  19  39  65  89 125 163 209 270 303 373
#     4  11  24  42  68  93 124 168 214 264 305 375
#     4  11  20  41  63  90 128 159 218 256 309 370
#     4  10  21  37  63  96 118 167 208 264 314 372
#     4  12  26  42  63  95 133 173 201 266 320 381
#     4  11  23  43  63  94 136 164 208 259 331 372
#     4  11  22  41  66  96 122 166 220 256 314 374
#
# _framework density 20.272410000000001
#
# number of rings (size 3 to 8) (size 9 to 14) (size 15 to 20)
#    0.000    1.250    5.000    1.875    1.750    3.500 
#    2.250    0.625    0.000    0.000    0.000    0.000 
#    0.000    0.000    0.000    0.000    0.000    0.000 
#
# Total GULP energy -198438.359423 kJ/mol
# GULP energy per Si atom -12402.397464 kJ/mol
# Density = 2.022627 g / cm^3
# Si number density = 20.272410 Si / 1000 Ang^3
#
#
#
# Elastic Constant Matrix: (Units=GPa)
#
#
# Indices 1 2 3 4 5 6 
#
# 1 127.2893 26.4592 51.7331 17.2160 15.1995 -10.8523
# 2 26.4592 97.4579 36.4794 -1.3080 11.0552 -3.7096
# 3 51.7331 36.4794 97.0958 4.0365 3.4483 -4.2138
# 4 17.2160 -1.3080 4.0365 14.9606 2.5870 3.1791
# 5 15.1995 11.0552 3.4483 2.5870 34.3765 -2.2077
# 6 -10.8523 -3.7096 -4.2138 3.1791 -2.2077 24.1078
#
#
#
# Elastic Compliance Matrix: (Units=1/GPa)
#
#
# Indices 1 2 3 4 5 6 
#
# 1 0.013342 -0.001045 -0.005702 -0.014680 -0.003471 0.006467
# 2 -0.001045 0.012566 -0.004216 0.004066 -0.003470 -0.000128
# 3 -0.005702 -0.004216 0.014730 0.001986 0.002205 -0.000701
# 4 -0.014680 0.004066 0.001986 0.087739 -0.002740 -0.017457
# 5 -0.003471 -0.003470 0.002205 -0.002740 0.031826 0.001565
# 6 0.006467 -0.000128 -0.000701 -0.017457 0.001565 0.046695
#
#
# Mechanical properties :
#
#
# Convention : Reuss Voigt Hill
#
# Bulk Modulus (GPa) = 53.44035 61.24294 57.34164
# Shear Modulus (GPa) = 21.27126 28.50041 24.88583
#
# Velocity S-wave (km/s) = 3.24276 3.75356 3.50747
# Velocity P-wave (km/s) = 6.35917 7.00437 6.68955
#
# Compressibility (1/GPa) = 0.01871245
#
# Stress axis : x y z
#
# Youngs Moduli (GPa) = 74.95106 79.58068 67.89074
#
# Poissons Ratio (x) = 0.08318 0.38710
# Poissons Ratio (y) = 0.07834 0.28619
# Poissons Ratio (z) = 0.42736 0.33547
#
# Static dielectric constant tensor:
#      x y z
#    x 3.835890 -0.091950 -0.021820 
#    y -0.091950 3.463540 -0.090490 
#    z -0.021820 -0.090490 3.837580 
# 
# 
# High freq. dielectric constant tensor:
#      x y z
#    x 1.799790 -0.002340 0.004340 
#    y -0.002340 1.764810 -0.005080 
#    z 0.004340 -0.005080 1.800730 
# 
# From -- ./inp_files/259049.got.cif
#   From: 2010.06.25/outbox.cif.g09.slc.cpg/sg2_130_cif.got.tgz:259049.got - 2010.06.27 13:26:56.
