data_PCOD8000678
_publ_section_title
;
Structure prediction by ZEFSAII (Michael W. Deem and Ramdas Pophale) SiO2 
 PCOD8000678
Probable space group: P -1
;
_chemical_formula_sum "Si O2"
_cell_formula_units_Z 14
_cell_length_a 14.664679
_cell_length_b 9.132824
_cell_length_c 15.451449
_cell_angle_alpha 65.351975
_cell_angle_beta 152.507375
_cell_angle_gamma 130.479075
_cell_volume 648.078839
_symmetry_space_group_name_H-M "P -1"
_symmetry_group_IT_number 2
_symmetry_cell_setting 'triclinic'
loop_
_space_group_symop_operation_xyz
x,y,z
-x,-y,-z
loop_
_atom_site_type_symbol
_atom_site_label
_atom_site_fract_x
_atom_site_fract_y
_atom_site_fract_z
Si Si1 0.242251 0.962489 0.270893
Si Si2 0.804426 0.829767 0.305533
Si Si3 0.190026 0.025047 0.897416
Si Si4 0.402991 0.942712 0.238512
Si Si5 0.614302 0.739343 0.536986
Si Si6 0.730376 0.612176 0.029588
Si Si7 0.979861 0.336238 0.582508
O O1 0.231109 0.959340 0.157674
O O2 0.963547 0.737193 0.124034
O O3 0.500000 0.000000 0.500000
O O4 0.298961 0.164407 0.315545
O O5 0.973539 0.792290 0.405277
O O6 0.719512 0.920725 0.140599
O O7 0.542702 0.609154 0.183872
O O8 0.000000 0.000000 0.500000
O O9 0.875734 0.879904 0.664495
O O10 0.326699 0.240730 0.016332
O O11 0.273838 0.901577 0.044656
O O12 0.407043 0.755511 0.315830
O O13 0.699638 0.169422 0.435028
O O14 0.500000 0.500000 0.500000
O O15 0.806654 0.537779 0.192287
O O16 0.000000 0.500000 0.500000
#
# Coordination Sequence:
#
# PCOD8000678 Si02
#       7
#     2   2   2   2   2   2   2
#     4   9  18  39  65  96 128 163 225 263 310 396
#     4  11  23  43  63  94 134 168 219 280 327 385
#     4  10  21  42  64  93 130 177 218 265 329 394
#     4  11  20  40  68  95 129 169 226 269 312 399
#     4  10  21  40  62  94 141 172 208 271 330 383
#     4  10  19  39  67  93 129 173 216 263 327 395
#     4  11  20  39  67  93 127 171 219 265 326 388
#
# _framework density 21.602309999999999
#
# number of rings (size 3 to 8) (size 9 to 14) (size 15 to 20)
#    0.000    1.714    5.714    3.429    0.000    2.857 
#    7.714    5.714    0.000    0.000    0.000    0.000 
#    0.000    0.000    0.000    0.000    0.000    0.000 
#
# Total GULP energy -173484.907344 kJ/mol
# GULP energy per Si atom -12391.779096 kJ/mol
# Density = 2.155314 g / cm^3
# Si number density = 21.602310 Si / 1000 Ang^3
#
#
#
# Elastic Constant Matrix: (Units=GPa)
#
#
# Indices 1 2 3 4 5 6 
#
# 1 99.5422 51.5132 53.6944 20.6968 5.9530 19.0867
# 2 51.5132 136.2919 55.3290 1.8186 -12.4080 12.7973
# 3 53.6944 55.3290 114.6305 11.0571 -5.5931 6.1705
# 4 20.6968 1.8186 11.0571 49.5554 9.1447 -0.9277
# 5 5.9530 -12.4080 -5.5931 9.1447 28.3338 -0.8223
# 6 19.0867 12.7973 6.1705 -0.9277 -0.8223 18.1485
#
#
#
# Elastic Compliance Matrix: (Units=1/GPa)
#
#
# Indices 1 2 3 4 5 6 
#
# 1 0.020514 -0.003968 -0.006452 -0.006232 -0.005808 -0.017165
# 2 -0.003968 0.010668 -0.003066 0.001083 0.004492 -0.002048
# 3 -0.006452 -0.003066 0.013180 -0.000590 0.002938 0.004569
# 4 -0.006232 0.001083 -0.000590 0.024095 -0.005908 0.006955
# 5 -0.005808 0.004492 0.002938 -0.005908 0.041069 0.003501
# 6 -0.017165 -0.002048 0.004569 0.006955 0.003501 0.073558
#
#
# Mechanical properties :
#
#
# Convention : Reuss Voigt Hill
#
# Bulk Modulus (GPa) = 57.50198 74.61531 66.05865
# Shear Modulus (GPa) = 23.16396 31.86942 27.51669
#
# Velocity S-wave (km/s) = 3.27814 3.84510 3.57288
# Velocity P-wave (km/s) = 6.40347 7.37079 6.90409
#
# Compressibility (1/GPa) = 0.01739070
#
# Stress axis : x y z
#
# Youngs Moduli (GPa) = 48.74658 93.73549 75.87317
#
# Poissons Ratio (x) = 0.37197 0.48954
# Poissons Ratio (y) = 0.19344 0.23259
# Poissons Ratio (z) = 0.31452 0.28735
#
# Static dielectric constant tensor:
#      x y z
#    x 4.290960 0.377400 0.020510 
#    y 0.377400 4.691160 -0.268890 
#    z 0.020510 -0.268890 3.889280 
# 
# 
# High freq. dielectric constant tensor:
#      x y z
#    x 1.841310 0.025790 0.016190 
#    y 0.025790 1.832590 -0.013630 
#    z 0.016190 -0.013630 1.846620 
# 
# From -- ./inp_files/201590.got.cif
#   From: 2010.06.25/outbox.cif.g09.slc.cpg/sg2_101_cif.got.tgz:201590.got - 2010.06.27 13:26:56.
