data_PCOD8000762
_publ_section_title
;
Structure prediction by ZEFSAII (Michael W. Deem and Ramdas Pophale) SiO2 
 PCOD8000762
Probable space group: P -1
;
_chemical_formula_sum "Si O2"
_cell_formula_units_Z 16
_cell_length_a 8.897090
_cell_length_b 8.927303
_cell_length_c 15.729332
_cell_angle_alpha 110.676297
_cell_angle_beta 140.127437
_cell_angle_gamma 79.451357
_cell_volume 741.244956
_symmetry_space_group_name_H-M "P -1"
_symmetry_group_IT_number 2
_symmetry_cell_setting 'triclinic'
loop_
_space_group_symop_operation_xyz
x,y,z
-x,-y,-z
loop_
_atom_site_type_symbol
_atom_site_label
_atom_site_fract_x
_atom_site_fract_y
_atom_site_fract_z
Si Si1 0.968664 0.778162 0.768523
Si Si2 0.730717 0.289210 0.767714
Si Si3 0.431050 0.406972 0.195807
Si Si4 0.503604 0.364226 0.402959
Si Si5 0.301317 0.098703 0.474118
Si Si6 0.301097 0.506212 0.843308
Si Si7 0.101923 0.766651 0.357263
Si Si8 0.923837 0.909217 0.034422
O O1 0.134845 0.640711 0.817490
O O2 0.761582 0.735470 0.740667
O O3 0.826254 0.787551 0.620473
O O4 0.121303 0.952431 0.889648
O O5 0.760473 0.467922 0.858019
O O6 0.448157 0.218251 0.629608
O O7 0.843886 0.302828 0.725693
O O8 0.854659 0.173749 0.857626
O O9 0.575099 0.429479 0.352311
O O10 0.597369 0.453380 0.197406
O O11 0.310554 0.221671 0.096143
O O12 0.500000 0.500000 0.500000
O O13 0.693024 0.252567 0.490561
O O14 0.500000 0.000000 0.500000
O O15 0.095683 0.960591 0.393244
O O16 0.147595 0.328308 0.738901
O O17 0.500000 0.500000 0.000000
O O18 0.000000 0.000000 0.000000
#
# Coordination Sequence:
#
# PCOD8000762 Si02
#       8
#     2   2   2   2   2   2   2   2
#     4  12  22  45  72 102 135 178 235 288 345 401
#     4  11  21  43  73 103 132 170 237 294 343 397
#     4  12  27  43  65 102 144 184 232 275 344 423
#     4  12  20  41  75 104 123 172 234 298 338 389
#     4  10  19  39  74 106 125 164 232 297 343 387
#     4  12  30  47  63  96 149 201 223 260 347 437
#     4  11  21  42  72  98 135 172 233 284 342 401
#     4  12  25  39  70 105 135 175 236 298 338 395
#
# _framework density 21.585308000000001
#
# number of rings (size 3 to 8) (size 9 to 14) (size 15 to 20)
#    0.000    0.500    8.750    1.125    1.750    1.000 
#    0.000    0.625    0.000    0.000    0.000    0.000 
#    0.000    0.000    0.000    0.000    0.000    0.000 
#
# Total GULP energy -198314.868487 kJ/mol
# GULP energy per Si atom -12394.679280 kJ/mol
# Density = 2.153618 g / cm^3
# Si number density = 21.585308 Si / 1000 Ang^3
#
#
#
# Elastic Constant Matrix: (Units=GPa)
#
#
# Indices 1 2 3 4 5 6 
#
# 1 101.2606 31.1015 47.9203 -4.6995 0.2296 37.0666
# 2 31.1015 105.0799 42.6500 -15.5671 8.1112 25.6284
# 3 47.9203 42.6500 101.3839 -13.8632 3.8467 14.2068
# 4 -4.6995 -15.5671 -13.8632 58.6273 7.6107 6.4024
# 5 0.2296 8.1112 3.8467 7.6107 28.8668 0.2049
# 6 37.0666 25.6284 14.2068 6.4024 0.2049 34.1375
#
#
#
# Elastic Compliance Matrix: (Units=1/GPa)
#
#
# Indices 1 2 3 4 5 6 
#
# 1 0.020807 0.002787 -0.007445 0.003150 -0.000630 -0.022173
# 2 0.002787 0.015039 -0.004908 0.005128 -0.004852 -0.013206
# 3 -0.007445 -0.004908 0.014887 0.001150 -0.000887 0.005363
# 4 0.003150 0.005128 0.001150 0.021141 -0.007110 -0.011671
# 5 -0.000630 -0.004852 -0.000887 -0.007110 0.037962 0.005801
# 6 -0.022173 -0.013206 0.005363 -0.011671 0.005801 0.063206
#
#
# Mechanical properties :
#
#
# Convention : Reuss Voigt Hill
#
# Bulk Modulus (GPa) = 31.64575 61.22978 46.43776
# Shear Modulus (GPa) = 24.66615 36.72981 30.69798
#
# Velocity S-wave (km/s) = 3.38409 4.12953 3.77526
# Velocity P-wave (km/s) = 5.47376 7.15300 6.36897
#
# Compressibility (1/GPa) = 0.03159982
#
# Stress axis : x y z
#
# Youngs Moduli (GPa) = 48.06039 66.49379 67.17488
#
# Poissons Ratio (x) = -0.18529 0.50013
# Poissons Ratio (y) = -0.13393 0.32968
# Poissons Ratio (z) = 0.35782 0.32634
#
# Static dielectric constant tensor:
#      x y z
#    x 3.582210 0.321610 0.024880 
#    y 0.321610 4.371060 0.207540 
#    z 0.024880 0.207540 4.220690 
# 
# 
# High freq. dielectric constant tensor:
#      x y z
#    x 1.800000 0.025420 -0.005650 
#    y 0.025420 1.872550 0.002630 
#    z -0.005650 0.002630 1.859170 
# 
# From -- ./inp_files/495544.got.cif
#   From: 2010.06.25/outbox.cif.g09.slc.cpg/sg2_248_cif.got.tgz:495544.got - 2010.06.27 13:26:56.
