data_PCOD8000345
_publ_section_title
;
Structure prediction by ZEFSAII (Michael W. Deem and Ramdas Pophale) SiO2 
 PCOD8000345
Probable space group: P -1
;
_chemical_formula_sum "Si O2"
_cell_formula_units_Z 14
_cell_length_a 8.820285
_cell_length_b 15.125866
_cell_length_c 11.609831
_cell_angle_alpha 132.100368
_cell_angle_beta 140.622506
_cell_angle_gamma 55.582000
_cell_volume 725.475115
_symmetry_space_group_name_H-M "P -1"
_symmetry_group_IT_number 2
_symmetry_cell_setting 'triclinic'
loop_
_space_group_symop_operation_xyz
x,y,z
-x,-y,-z
loop_
_atom_site_type_symbol
_atom_site_label
_atom_site_fract_x
_atom_site_fract_y
_atom_site_fract_z
Si Si1 0.472186 0.267247 0.046129
Si Si2 0.098401 0.703700 0.541585
Si Si3 0.230978 0.913173 0.367411
Si Si4 0.604696 0.828874 0.327066
Si Si5 0.387728 0.756751 0.538213
Si Si6 0.692577 0.887346 0.001856
Si Si7 0.436583 0.499999 0.595819
O O1 0.735779 0.221914 0.213530
O O2 0.409178 0.409673 0.161401
O O3 0.476741 0.242556 0.892706
O O4 0.285432 0.192256 0.938349
O O5 0.175164 0.728905 0.476450
O O6 0.157596 0.561652 0.486423
O O7 0.823713 0.746660 0.442173
O O8 0.388343 0.840659 0.299705
O O9 0.264191 0.844983 0.447879
O O10 0.957877 0.927334 0.173968
O O11 0.315310 0.043589 0.551175
O O12 0.510352 0.634370 0.442415
O O13 0.609418 0.811458 0.778808
O O14 0.500000 0.000000 0.000000
O O15 0.500000 0.500000 0.500000
#
# Coordination Sequence:
#
# PCOD8000345 Si02
#       7
#     2   2   2   2   2   2   2
#     4   9  19  35  62  84 109 146 192 230 284 328
#     4   8  18  35  62  81 110 144 189 231 280 331
#     4  11  25  36  56  83 120 152 189 229 283 342
#     4  11  22  40  53  82 118 157 187 227 284 343
#     4  10  19  39  59  87 114 141 191 242 278 328
#     4  11  21  36  61  89 110 144 191 242 284 326
#     4   8  16  37  61  88 109 144 188 236 285 328
#
# _framework density 19.297698
#
# number of rings (size 3 to 8) (size 9 to 14) (size 15 to 20)
#    0.857    1.429    1.429    3.429    0.000    2.857 
#    2.571    7.143    0.000    0.000    0.000    0.000 
#    0.000    0.000    0.000    0.000    0.000    0.000 
#
# Total GULP energy -173446.680757 kJ/mol
# GULP energy per Si atom -12389.048625 kJ/mol
# Density = 1.925378 g / cm^3
# Si number density = 19.297698 Si / 1000 Ang^3
#
#
#
# Elastic Constant Matrix: (Units=GPa)
#
#
# Indices 1 2 3 4 5 6 
#
# 1 58.7947 8.5289 38.5389 -4.5406 10.0778 -20.3251
# 2 8.5289 74.0854 12.9070 0.9563 15.2140 -19.4753
# 3 38.5389 12.9070 82.0819 2.8830 -7.1919 -12.7666
# 4 -4.5406 0.9563 2.8830 29.5700 -11.5314 -1.5239
# 5 10.0778 15.2140 -7.1919 -11.5314 26.6635 -3.9498
# 6 -20.3251 -19.4753 -12.7666 -1.5239 -3.9498 27.2531
#
#
#
# Elastic Compliance Matrix: (Units=1/GPa)
#
#
# Indices 1 2 3 4 5 6 
#
# 1 0.040012 0.009595 -0.018317 0.000474 -0.021629 0.025008
# 2 0.009595 0.021509 -0.006636 -0.004389 -0.017115 0.016691
# 3 -0.018317 -0.006636 0.022380 0.001390 0.016541 -0.005444
# 4 0.000474 -0.004389 0.001390 0.042484 0.021573 0.003370
# 5 -0.021629 -0.017115 0.016541 0.021573 0.067818 -0.009577
# 6 0.025008 0.016691 -0.005444 0.003370 -0.009577 0.063522
#
#
# Mechanical properties :
#
#
# Convention : Reuss Voigt Hill
#
# Bulk Modulus (GPa) = 18.80283 37.21239 28.00761
# Shear Modulus (GPa) = 16.33077 27.02979 21.68028
#
# Velocity S-wave (km/s) = 2.91220 3.74662 3.35545
# Velocity P-wave (km/s) = 4.59049 6.16777 5.43663
#
# Compressibility (1/GPa) = 0.05318349
#
# Stress axis : x y z
#
# Youngs Moduli (GPa) = 24.99223 46.49312 44.68180
#
# Poissons Ratio (x) = -0.44608 0.81845
# Poissons Ratio (y) = -0.23979 0.29652
# Poissons Ratio (z) = 0.45779 0.30854
#
# Static dielectric constant tensor:
#      x y z
#    x 3.263890 -0.258520 -0.100670 
#    y -0.258520 3.925020 0.206240 
#    z -0.100670 0.206240 3.473150 
# 
# 
# High freq. dielectric constant tensor:
#      x y z
#    x 1.721420 -0.013110 -0.012700 
#    y -0.013110 1.757250 0.001580 
#    z -0.012700 0.001580 1.745660 
# 
# From -- ./inp_files/395096.got.cif
#   From: 2010.06.25/outbox.cif.g09.slc.cpg/sg2_198_cif.got.tgz:395096.got - 2010.06.27 13:26:56.
