data_PCOD8000741
_publ_section_title
;
Structure prediction by ZEFSAII (Michael W. Deem and Ramdas Pophale) SiO2 
 PCOD8000741
Probable space group: P -1
;
_chemical_formula_sum "Si O2"
_cell_formula_units_Z 16
_cell_length_a 8.897108
_cell_length_b 8.208066
_cell_length_c 20.791486
_cell_angle_alpha 51.743597
_cell_angle_beta 73.418165
_cell_angle_gamma 113.156974
_cell_volume 746.231027
_symmetry_space_group_name_H-M "P -1"
_symmetry_group_IT_number 2
_symmetry_cell_setting 'triclinic'
loop_
_space_group_symop_operation_xyz
x,y,z
-x,-y,-z
loop_
_atom_site_type_symbol
_atom_site_label
_atom_site_fract_x
_atom_site_fract_y
_atom_site_fract_z
Si Si1 0.307279 0.171037 0.768563
Si Si2 0.636396 0.001951 0.928684
Si Si3 0.849837 0.307816 0.338860
Si Si4 0.411880 0.169153 0.402725
Si Si5 0.116993 0.149518 0.018250
Si Si6 0.431144 0.831555 0.859352
Si Si7 0.625034 0.824951 0.378566
Si Si8 0.272939 0.829424 0.379404
O O1 0.553096 0.552267 0.652858
O O2 0.226349 0.078334 0.727102
O O3 0.339086 0.974790 0.842156
O O4 0.099842 0.092053 0.847122
O O5 0.876542 0.348720 0.786957
O O6 0.474647 0.797856 0.934994
O O7 0.500000 0.000000 0.000000
O O8 0.688009 0.833232 0.996659
O O9 0.664025 0.309969 0.353679
O O10 0.804196 0.150114 0.451603
O O11 0.811121 0.099075 0.339644
O O12 0.343484 0.087916 0.355579
O O13 0.233270 0.492695 0.930062
O O14 0.000000 0.000000 0.000000
O O15 0.666682 0.054463 0.730396
O O16 0.500000 0.500000 0.500000
O O17 0.418340 0.777224 0.397611
O O18 0.000000 0.500000 0.500000
#
# Coordination Sequence:
#
# PCOD8000741 Si02
#       8
#     2   2   2   2   2   2   2   2
#     4  11  22  40  69  95 129 172 226 271 332 392
#     4  12  27  46  66  99 138 175 221 275 340 398
#     4  10  21  39  66  95 134 170 221 270 328 393
#     4  10  19  39  69  98 126 174 222 271 324 399
#     4  12  26  46  72  93 126 180 228 275 331 395
#     4  11  26  45  62 100 137 171 224 277 332 399
#     4  10  21  38  61  99 126 167 219 270 322 394
#     4  10  22  40  64  90 135 171 214 270 339 387
#
# _framework density 21.441078999999998
#
# number of rings (size 3 to 8) (size 9 to 14) (size 15 to 20)
#    0.000    1.250    2.500    3.000    5.250    1.000 
#    4.500    1.875    0.000    0.000    0.000    0.000 
#    0.000    0.000    0.000    0.000    0.000    0.000 
#
# Total GULP energy -198388.724907 kJ/mol
# GULP energy per Si atom -12399.295307 kJ/mol
# Density = 2.139228 g / cm^3
# Si number density = 21.441079 Si / 1000 Ang^3
#
#
#
# Elastic Constant Matrix: (Units=GPa)
#
#
# Indices 1 2 3 4 5 6 
#
# 1 70.6338 43.9465 25.3946 5.3220 14.2854 -5.8099
# 2 43.9465 153.9614 35.1566 11.7274 7.4729 -3.2946
# 3 25.3946 35.1566 102.5382 1.4407 -6.0397 -7.9171
# 4 5.3220 11.7274 1.4407 50.3203 -8.5159 6.5752
# 5 14.2854 7.4729 -6.0397 -8.5159 36.6518 -0.9397
# 6 -5.8099 -3.2946 -7.9171 6.5752 -0.9397 31.5680
#
#
#
# Elastic Compliance Matrix: (Units=1/GPa)
#
#
# Indices 1 2 3 4 5 6 
#
# 1 0.020262 -0.004246 -0.003802 -0.002787 -0.008237 0.002668
# 2 -0.004246 0.008268 -0.001808 -0.001533 -0.000687 -0.000073
# 3 -0.003802 -0.001808 0.011692 0.000915 0.004040 0.001973
# 4 -0.002787 -0.001533 0.000915 0.022252 0.006595 -0.004882
# 5 -0.008237 -0.000687 0.004040 0.006595 0.032807 -0.000971
# 6 0.002668 -0.000073 0.001973 -0.004882 -0.000971 0.033644
#
#
# Mechanical properties :
#
#
# Convention : Reuss Voigt Hill
#
# Bulk Modulus (GPa) = 48.75861 59.56985 54.16423
# Shear Modulus (GPa) = 32.15965 38.55042 35.35504
#
# Velocity S-wave (km/s) = 3.87707 4.24485 4.06512
# Velocity P-wave (km/s) = 6.54464 7.20197 6.88116
#
# Compressibility (1/GPa) = 0.02050920
#
# Stress axis : x y z
#
# Youngs Moduli (GPa) = 49.35432 120.94111 85.53212
#
# Poissons Ratio (x) = 0.51352 0.32521
# Poissons Ratio (y) = 0.20956 0.15464
# Poissons Ratio (z) = 0.18766 0.21866
#
# Static dielectric constant tensor:
#      x y z
#    x 3.403320 0.190250 0.057170 
#    y 0.190250 3.626780 0.279060 
#    z 0.057170 0.279060 3.927000 
# 
# 
# High freq. dielectric constant tensor:
#      x y z
#    x 1.819570 -0.012710 0.008980 
#    y -0.012710 1.863180 0.006770 
#    z 0.008980 0.006770 1.850090 
# 
# From -- ./inp_files/179405.got.cif
#   From: 2010.06.25/outbox.cif.g09.slc.cpg/sg2_90_cif.got.tgz:179405.got - 2010.06.27 13:26:56.
