data_PCOD8000629
_publ_section_title
;
Structure prediction by ZEFSAII (Michael W. Deem and Ramdas Pophale) SiO2 
 PCOD8000629
Probable space group: P -1
;
_chemical_formula_sum "Si O2"
_cell_formula_units_Z 16
_cell_length_a 16.750910
_cell_length_b 9.304659
_cell_length_c 13.574984
_cell_angle_alpha 100.216497
_cell_angle_beta 149.693134
_cell_angle_gamma 60.338531
_cell_volume 762.430854
_symmetry_space_group_name_H-M "P -1"
_symmetry_group_IT_number 2
_symmetry_cell_setting 'triclinic'
loop_
_space_group_symop_operation_xyz
x,y,z
-x,-y,-z
loop_
_atom_site_type_symbol
_atom_site_label
_atom_site_fract_x
_atom_site_fract_y
_atom_site_fract_z
Si Si1 0.676934 0.880625 0.553207
Si Si2 0.852822 0.958636 0.373513
Si Si3 0.814349 0.470683 0.648026
Si Si4 0.971037 0.420658 0.595313
Si Si5 0.783887 0.921946 0.874869
Si Si6 0.986901 0.734161 0.686489
Si Si7 0.503450 0.661499 0.060867
Si Si8 0.352272 0.709210 0.121676
O O1 0.752251 0.671742 0.642427
O O2 0.748333 0.948195 0.722184
O O3 0.786765 0.850877 0.563433
O O4 0.412927 0.047425 0.280833
O O5 0.872935 0.796322 0.314242
O O6 0.903522 0.897673 0.533941
O O7 0.000000 0.000000 0.500000
O O8 0.606499 0.166605 0.118033
O O9 0.945023 0.389246 0.675838
O O10 0.588328 0.523716 0.399386
O O11 0.975595 0.295955 0.877188
O O12 0.746163 0.564548 0.314308
O O13 0.057381 0.531914 0.693732
O O14 0.779491 0.088268 0.931176
O O15 0.205628 0.657194 0.960548
O O16 0.383624 0.750097 0.049301
O O17 0.500000 0.500000 0.000000
#
# Coordination Sequence:
#
# PCOD8000629 Si02
#       8
#     2   2   2   2   2   2   2   2
#     4   9  21  39  60  90 123 155 197 264 306 349
#     4  12  22  38  65  87 116 170 206 237 305 375
#     4   9  19  36  64  87 114 163 207 240 300 373
#     4  10  22  39  59  88 126 158 200 258 298 352
#     4  10  19  39  66  86 115 163 211 241 303 378
#     4  11  23  40  58  92 134 156 200 262 308 351
#     4  11  21  38  61  88 119 160 209 247 295 366
#     4  10  21  36  58  88 122 160 200 246 303 357
#
# _framework density 20.985506999999998
#
# number of rings (size 3 to 8) (size 9 to 14) (size 15 to 20)
#    0.000    1.750    2.500    2.250    0.000    1.000 
#    0.000    9.375    0.000    0.000    0.000    0.000 
#    0.000    0.000    0.000    0.000    0.000    0.000 
#
# Total GULP energy -198394.554614 kJ/mol
# GULP energy per Si atom -12399.659663 kJ/mol
# Density = 2.093774 g / cm^3
# Si number density = 20.985507 Si / 1000 Ang^3
#
#
#
# Elastic Constant Matrix: (Units=GPa)
#
#
# Indices 1 2 3 4 5 6 
#
# 1 67.8774 42.1795 20.3772 1.7289 -1.3309 -0.3096
# 2 42.1795 145.3579 62.7822 14.5584 -3.3661 -4.5387
# 3 20.3772 62.7822 129.4951 3.9206 -3.0741 10.7387
# 4 1.7289 14.5584 3.9206 39.3605 0.4483 2.4211
# 5 -1.3309 -3.3661 -3.0741 0.4483 21.3472 4.5723
# 6 -0.3096 -4.5387 10.7387 2.4211 4.5723 31.1046
#
#
#
# Elastic Compliance Matrix: (Units=1/GPa)
#
#
# Indices 1 2 3 4 5 6 
#
# 1 0.018052 -0.005256 -0.000267 0.001213 0.000371 -0.000644
# 2 -0.005256 0.010857 -0.004609 -0.003535 0.000069 0.003388
# 3 -0.000267 -0.004609 0.010391 0.000944 0.001716 -0.004588
# 4 0.001213 -0.003535 0.000944 0.026746 -0.000293 -0.002868
# 5 0.000371 0.000069 0.001716 -0.000293 0.048787 -0.007727
# 6 -0.000644 0.003388 -0.004588 -0.002868 -0.007727 0.035581
#
#
# Mechanical properties :
#
#
# Convention : Reuss Voigt Hill
#
# Bulk Modulus (GPa) = 52.52993 65.93422 59.23207
# Shear Modulus (GPa) = 28.24481 32.85523 30.55002
#
# Velocity S-wave (km/s) = 3.67266 3.96108 3.81959
# Velocity P-wave (km/s) = 6.56281 7.23929 6.90933
#
# Compressibility (1/GPa) = 0.01903677
#
# Stress axis : x y z
#
# Youngs Moduli (GPa) = 55.39501 92.10811 96.23303
#
# Poissons Ratio (x) = 0.48413 0.02569
# Poissons Ratio (y) = 0.29116 0.44352
# Poissons Ratio (z) = 0.01479 0.42451
#
# Static dielectric constant tensor:
#      x y z
#    x 3.573840 -0.198410 -0.014360 
#    y -0.198410 3.839790 0.121120 
#    z -0.014360 0.121120 4.015260 
# 
# 
# High freq. dielectric constant tensor:
#      x y z
#    x 1.797420 -0.020910 0.001260 
#    y -0.020910 1.827240 0.011950 
#    z 0.001260 0.011950 1.829550 
# 
# From -- ./inp_files/315220.got.cif
#   From: 2010.06.25/outbox.cif.g09.slc.cpg/sg2_158_cif.got.tgz:315220.got - 2010.06.27 13:26:56.
