data_PCOD8000139
_publ_section_title
;
Structure prediction by ZEFSAII (Michael W. Deem and Ramdas Pophale) SiO2 
 PCOD8000139
Probable space group: P 1
;
_chemical_formula_sum "Si O2"
_cell_formula_units_Z 8
_cell_length_a 9.392185
_cell_length_b 11.766018
_cell_length_c 14.445065
_cell_angle_alpha 152.020898
_cell_angle_beta 29.184252
_cell_angle_gamma 140.829033
_cell_volume 365.117883
_symmetry_space_group_name_H-M "P 1"
_symmetry_group_IT_number 1
_symmetry_cell_setting 'triclinic'
loop_
_space_group_symop_operation_xyz
x,y,z
loop_
_atom_site_type_symbol
_atom_site_label
_atom_site_fract_x
_atom_site_fract_y
_atom_site_fract_z
Si Si1 0.243460 0.783230 0.674810
Si Si2 0.677067 0.495608 0.114310
Si Si3 0.589734 0.620832 0.908864
Si Si4 0.094490 0.763170 0.409055
Si Si5 0.429270 0.333883 0.957857
Si Si6 0.683053 0.099343 0.970137
Si Si7 0.552905 0.519834 0.471629
Si Si8 0.327555 0.629319 0.867750
O O1 0.433146 0.693231 0.416000
O O2 0.314092 0.629696 0.616611
O O3 0.905624 0.745451 0.813817
O O4 0.313191 0.066270 0.852194
O O5 0.675827 0.422820 0.955264
O O6 0.596717 0.252307 0.040072
O O7 0.980710 0.609971 0.060291
O O8 0.578112 0.374700 0.801194
O O9 0.480063 0.542524 0.813093
O O10 0.372386 0.817465 0.222809
O O11 0.811508 0.720201 0.474149
O O12 0.155329 0.516755 0.255270
O O13 0.004913 0.980588 0.686184
O O14 0.423291 0.904983 0.991722
O O15 0.692926 0.269897 0.177315
O O16 0.419124 0.466216 0.610571
#
# Coordination Sequence:
#
# PCOD8000139 Si02
#       8
#     1   1   1   1   1   1   1   1
#     4  11  24  44  70  97 135 174 221 272 336 387
#     4  11  25  43  70  98 130 180 221 272 329 395
#     4  10  24  41  66 105 134 171 220 271 334 396
#     4   9  22  43  66  97 134 169 224 266 332 387
#     4  10  24  44  66  96 138 171 216 279 324 387
#     4  10  23  44  70  96 132 171 225 276 320 394
#     4  10  22  43  73  96 129 181 223 268 330 398
#     4  11  24  42  67 101 134 175 224 264 335 396
#
# _framework density 21.910733
#
# number of rings (size 3 to 8) (size 9 to 14) (size 15 to 20)
#    0.750    1.000    0.000    3.750    5.250    4.000 
#    2.250    1.250    0.000    0.000    0.000    0.000 
#    0.000    0.000    0.000    0.000    0.000    0.000 
#
# Total GULP energy -99146.282544 kJ/mol
# GULP energy per Si atom -12393.285318 kJ/mol
# Density = 2.186086 g / cm^3
# Si number density = 21.910733 Si / 1000 Ang^3
#
#
#
# Elastic Constant Matrix: (Units=GPa)
#
#
# Indices 1 2 3 4 5 6 
#
# 1 146.8276 60.9745 52.7158 -12.5654 10.9699 -2.5683
# 2 60.9745 91.3665 47.5190 -16.0429 5.0612 6.7395
# 3 52.7158 47.5190 142.3806 0.5739 15.2531 4.2681
# 4 -12.5654 -16.0429 0.5739 39.0658 4.0365 -9.1590
# 5 10.9699 5.0612 15.2531 4.0365 33.3941 -10.3217
# 6 -2.5683 6.7395 4.2681 -9.1590 -10.3217 34.4606
#
#
#
# Elastic Compliance Matrix: (Units=1/GPa)
#
#
# Indices 1 2 3 4 5 6 
#
# 1 0.010031 -0.005573 -0.001800 0.001584 -0.001160 0.002134
# 2 -0.005573 0.017687 -0.003748 0.005056 -0.000427 -0.002194
# 3 -0.001800 -0.003748 0.009398 -0.002423 -0.003542 -0.002270
# 4 0.001584 0.005056 -0.002423 0.030011 -0.001674 0.006904
# 5 -0.001160 -0.000427 -0.003542 -0.001674 0.035495 0.010622
# 6 0.002134 -0.002194 -0.002270 0.006904 0.010622 0.034905
#
#
# Mechanical properties :
#
#
# Convention : Reuss Voigt Hill
#
# Bulk Modulus (GPa) = 67.23529 78.11037 72.67283
# Shear Modulus (GPa) = 30.35330 36.00847 33.18088
#
# Velocity S-wave (km/s) = 3.72602 4.05831 3.89571
# Velocity P-wave (km/s) = 7.01880 7.59517 7.31267
#
# Compressibility (1/GPa) = 0.01487314
#
# Stress axis : x y z
#
# Youngs Moduli (GPa) = 99.69154 56.53907 106.40402
#
# Poissons Ratio (x) = 0.31509 0.19153
# Poissons Ratio (y) = 0.55559 0.39884
# Poissons Ratio (z) = 0.17944 0.21193
#
# Static dielectric constant tensor:
#      x y z
#    x 3.999380 -0.065950 0.124920 
#    y -0.065950 3.711310 -0.057920 
#    z 0.124920 -0.057920 4.049200 
# 
# 
# High freq. dielectric constant tensor:
#      x y z
#    x 1.869550 -0.001490 0.004460 
#    y -0.001490 1.849030 -0.006860 
#    z 0.004460 -0.006860 1.855550 
# 
# From -- ./inp_files/7173.got.cif
#   From: 2010.03.12/outbox.cif.g09.slc.cpg/sg1_4_cif.got.tgz:7173.got - 2010.03.29 11:57:58.
