data_PCOD8000067
_publ_section_title
;
Structure prediction by ZEFSAII (Michael W. Deem and Ramdas Pophale) SiO2 
 PCOD8000067
Probable space group: P 1
;
_chemical_formula_sum "Si O2"
_cell_formula_units_Z 8
_cell_length_a 11.764790
_cell_length_b 5.150432
_cell_length_c 10.802496
_cell_angle_alpha 93.952480
_cell_angle_beta 35.242215
_cell_angle_gamma 104.762310
_cell_volume 353.693874
_symmetry_space_group_name_H-M "P 1"
_symmetry_group_IT_number 1
_symmetry_cell_setting 'triclinic'
loop_
_space_group_symop_operation_xyz
x,y,z
loop_
_atom_site_type_symbol
_atom_site_label
_atom_site_fract_x
_atom_site_fract_y
_atom_site_fract_z
Si Si1 0.889140 0.774890 0.259290
Si Si2 0.813618 0.129872 0.543309
Si Si3 0.398328 0.178787 0.918632
Si Si4 0.026090 0.321410 0.009632
Si Si5 0.462384 0.580284 0.492189
Si Si6 0.553633 0.009657 0.992743
Si Si7 0.601399 0.134186 0.239454
Si Si8 0.213391 0.602125 0.142327
O O1 0.649290 0.644136 0.425671
O O2 0.880115 0.894833 0.408604
O O3 0.985181 0.519666 0.162327
O O4 0.019856 0.027558 0.060996
O O5 0.992219 0.430456 0.392559
O O6 0.607008 0.170586 0.661222
O O7 0.762749 0.027060 0.727551
O O8 0.303252 0.409127 0.966113
O O9 0.462671 0.228084 0.010348
O O10 0.215923 0.868642 0.062889
O O11 0.243278 0.471668 0.754063
O O12 0.841780 0.271653 0.071837
O O13 0.476157 0.853698 0.413273
O O14 0.476964 0.345717 0.376475
O O15 0.608075 0.072827 0.087060
O O16 0.375290 0.708951 0.116475
#
# Coordination Sequence:
#
# PCOD8000067 Si02
#       8
#     1   1   1   1   1   1   1   1
#     4  10  22  38  59  87 113 144 191 235 275 338
#     4   9  21  38  58  85 117 152 179 231 285 332
#     4   8  21  35  52  80 116 144 187 219 266 337
#     4  10  22  40  60  84 110 148 194 232 282 330
#     4  10  22  39  61  80 114 148 189 237 285 315
#     4   8  22  37  56  86 119 143 189 227 275 344
#     4  10  21  39  58  86 113 146 189 236 273 338
#     4   9  19  36  52  78 114 151 182 219 269 332
#
# _framework density 22.61843
#
# number of rings (size 3 to 8) (size 9 to 14) (size 15 to 20)
#    1.500    1.000    0.000    0.750    1.750    9.000 
#    0.000    0.000    0.000    0.000    0.000    0.000 
#    0.000    0.000    0.000    0.000    0.000    0.000 
#
# Total GULP energy -99110.049471 kJ/mol
# GULP energy per Si atom -12388.756184 kJ/mol
# Density = 2.256695 g / cm^3
# Si number density = 22.618430 Si / 1000 Ang^3
#
#
#
# Elastic Constant Matrix: (Units=GPa)
#
#
# Indices 1 2 3 4 5 6 
#
# 1 57.8257 46.7533 43.8253 -0.2382 0.0450 1.2540
# 2 46.7533 144.3333 75.1759 0.7856 -17.1707 -1.7211
# 3 43.8253 75.1759 186.8509 -16.7972 -14.8588 13.9108
# 4 -0.2382 0.7856 -16.7972 38.2092 3.6003 -5.3442
# 5 0.0450 -17.1707 -14.8588 3.6003 25.5237 11.4824
# 6 1.2540 -1.7211 13.9108 -5.3442 11.4824 38.8250
#
#
#
# Elastic Compliance Matrix: (Units=1/GPa)
#
#
# Indices 1 2 3 4 5 6 
#
# 1 0.026327 -0.007367 -0.004134 -0.000294 -0.008635 0.002818
# 2 -0.007367 0.011414 -0.002455 -0.002105 0.006874 -0.000699
# 3 -0.004134 -0.002455 0.008194 0.002662 0.004493 -0.003874
# 4 -0.000294 -0.002105 0.002662 0.028603 -0.006004 0.004675
# 5 -0.008635 0.006874 0.004493 -0.006004 0.055499 -0.018266
# 6 0.002818 -0.000699 -0.003874 0.004675 -0.018266 0.033068
#
#
# Mechanical properties :
#
#
# Convention : Reuss Voigt Hill
#
# Bulk Modulus (GPa) = 55.48177 80.05767 67.76972
# Shear Modulus (GPa) = 25.37736 35.39528 30.38632
#
# Velocity S-wave (km/s) = 3.35323 3.96016 3.66926
# Velocity P-wave (km/s) = 6.29086 7.50881 6.92665
#
# Compressibility (1/GPa) = 0.01802394
#
# Stress axis : x y z
#
# Youngs Moduli (GPa) = 37.98362 87.60879 122.03828
#
# Poissons Ratio (x) = 0.64542 0.50449
# Poissons Ratio (y) = 0.27983 0.29960
# Poissons Ratio (z) = 0.15702 0.21508
#
# Static dielectric constant tensor:
#      x y z
#    x 4.014830 0.003150 -0.340160 
#    y 0.003150 4.334150 -0.153040 
#    z -0.340160 -0.153040 3.980660 
# 
# 
# High freq. dielectric constant tensor:
#      x y z
#    x 1.880410 0.000790 -0.026890 
#    y 0.000790 1.910100 -0.014160 
#    z -0.026890 -0.014160 1.892270 
# 
# From -- ./inp_files/510.got.cif
#   From: 2010.03.12/outbox.cif.g09.slc.cpg/sg1_1_cif.got.tgz:510.got - 2010.03.29 11:57:58.
