data_PCOD8000719
_publ_section_title
;
Structure prediction by ZEFSAII (Michael W. Deem and Ramdas Pophale) SiO2 
 PCOD8000719
Probable space group: P -1
;
_chemical_formula_sum "Si O2"
_cell_formula_units_Z 16
_cell_length_a 17.253541
_cell_length_b 21.619475
_cell_length_c 14.125653
_cell_angle_alpha 22.165279
_cell_angle_beta 32.734448
_cell_angle_gamma 21.064733
_cell_volume 704.120236
_symmetry_space_group_name_H-M "P -1"
_symmetry_group_IT_number 2
_symmetry_cell_setting 'triclinic'
loop_
_space_group_symop_operation_xyz
x,y,z
-x,-y,-z
loop_
_atom_site_type_symbol
_atom_site_label
_atom_site_fract_x
_atom_site_fract_y
_atom_site_fract_z
Si Si1 0.635845 0.936562 0.359908
Si Si2 0.042297 0.063390 0.015112
Si Si3 0.192439 0.551843 0.118407
Si Si4 0.584042 0.424568 0.914790
Si Si5 0.134214 0.749377 0.521766
Si Si6 0.669420 0.067648 0.615654
Si Si7 0.426227 0.180344 0.037291
Si Si8 0.791749 0.010707 0.783435
O O1 0.777833 0.981441 0.160961
O O2 0.805160 0.642567 0.585644
O O3 0.500000 0.000000 0.500000
O O4 0.457278 0.100866 0.226448
O O5 0.912093 0.278240 0.922573
O O6 0.846807 0.165226 0.002080
O O7 0.170442 0.803978 0.304230
O O8 0.435982 0.408551 0.042424
O O9 0.039736 0.728700 0.934606
O O10 0.540091 0.640165 0.607342
O O11 0.500000 0.500000 0.000000
O O12 0.243096 0.478468 0.794406
O O13 0.225245 0.780045 0.472438
O O14 0.874783 0.966924 0.493698
O O15 0.694916 0.047263 0.730803
O O16 0.646302 0.903585 0.836598
O O17 0.660432 0.038041 0.963783
#
# Coordination Sequence:
#
# PCOD8000719 Si02
#       8
#     2   2   2   2   2   2   2   2
#     4  12  27  43  68 102 138 182 232 287 353 412
#     4  10  21  44  70  98 131 185 232 284 342 411
#     4  10  21  42  68  96 131 174 235 285 337 407
#     4  10  19  39  68  97 129 171 231 282 334 397
#     4  11  23  45  69 101 141 185 227 286 352 412
#     4  12  24  42  71 105 137 183 236 284 343 417
#     4  12  26  45  67 102 149 181 224 292 357 405
#     4  11  24  43  71 102 134 186 239 280 336 418
#
# _framework density 22.723390999999999
#
# number of rings (size 3 to 8) (size 9 to 14) (size 15 to 20)
#    0.000    1.000    6.250    3.375    3.500    0.000 
#    0.000    0.625    0.000    0.000    0.000    0.000 
#    0.000    0.000    0.000    0.000    0.000    0.000 
#
# Total GULP energy -198358.904151 kJ/mol
# GULP energy per Si atom -12397.431509 kJ/mol
# Density = 2.267167 g / cm^3
# Si number density = 22.723391 Si / 1000 Ang^3
#
#
#
# Elastic Constant Matrix: (Units=GPa)
#
#
# Indices 1 2 3 4 5 6 
#
# 1 128.3679 48.9537 69.9443 20.4367 18.0573 -19.4374
# 2 48.9537 85.0588 27.5791 21.7921 16.9534 -0.7135
# 3 69.9443 27.5791 142.0076 6.4001 18.9554 10.0294
# 4 20.4367 21.7921 6.4001 50.0765 -6.1970 7.0513
# 5 18.0573 16.9534 18.9554 -6.1970 37.0786 1.8123
# 6 -19.4374 -0.7135 10.0294 7.0513 1.8123 20.3457
#
#
#
# Elastic Compliance Matrix: (Units=1/GPa)
#
#
# Indices 1 2 3 4 5 6 
#
# 1 0.024031 -0.005495 -0.011692 -0.011414 -0.006738 0.033085
# 2 -0.005495 0.017530 0.000603 -0.005949 -0.006530 -0.002288
# 3 -0.011692 0.000603 0.013802 0.005582 0.000268 -0.019911
# 4 -0.011414 -0.005949 0.005582 0.031632 0.011978 -0.025895
# 5 -0.006738 -0.006530 0.000268 0.011978 0.035793 -0.014138
# 6 0.033085 -0.002288 -0.019911 -0.025895 -0.014138 0.100727
#
#
# Mechanical properties :
#
#
# Convention : Reuss Voigt Hill
#
# Bulk Modulus (GPa) = 45.05196 72.04317 58.54757
# Shear Modulus (GPa) = 18.93371 35.43064 27.18217
#
# Velocity S-wave (km/s) = 2.88970 3.95297 3.46239
# Velocity P-wave (km/s) = 5.56804 7.25313 6.46572
#
# Compressibility (1/GPa) = 0.02219659
#
# Stress axis : x y z
#
# Youngs Moduli (GPa) = 41.61320 57.04584 72.45192
#
# Poissons Ratio (x) = 0.31344 0.84709
# Poissons Ratio (y) = 0.22865 -0.04371
# Poissons Ratio (z) = 0.48653 -0.03441
#
# Static dielectric constant tensor:
#      x y z
#    x 3.320770 0.189210 0.643560 
#    y 0.189210 3.722930 -0.575590 
#    z 0.643560 -0.575590 3.846660 
# 
# 
# High freq. dielectric constant tensor:
#      x y z
#    x 1.888360 -0.018770 0.002080 
#    y -0.018770 1.892890 0.002010 
#    z 0.002080 0.002010 1.907110 
# 
# From -- ./inp_files/539265.got.cif
#   From: 2010.06.25/outbox.cif.g09.slc.cpg/sg2_270_cif.got.tgz:539265.got - 2010.06.27 13:26:56.
