data_PCOD8000324
_publ_section_title
;
Structure prediction by ZEFSAII (Michael W. Deem and Ramdas Pophale) SiO2 
 PCOD8000324
Probable space group: P -1
;
_chemical_formula_sum "Si O2"
_cell_formula_units_Z 16
_cell_length_a 7.443923
_cell_length_b 8.829381
_cell_length_c 17.423590
_cell_angle_alpha 83.953797
_cell_angle_beta 64.639571
_cell_angle_gamma 127.410128
_cell_volume 707.380998
_symmetry_space_group_name_H-M "P -1"
_symmetry_group_IT_number 2
_symmetry_cell_setting 'triclinic'
loop_
_space_group_symop_operation_xyz
x,y,z
-x,-y,-z
loop_
_atom_site_type_symbol
_atom_site_label
_atom_site_fract_x
_atom_site_fract_y
_atom_site_fract_z
Si Si1 0.212057 0.432527 0.404029
Si Si2 0.836952 0.360708 0.962650
Si Si3 0.690338 0.738562 0.918587
Si Si4 0.781189 0.210994 0.627299
Si Si5 0.795338 0.606068 0.321719
Si Si6 0.701534 0.294948 0.250991
Si Si7 0.939019 0.817893 0.123240
Si Si8 0.357896 0.366422 0.231908
O O1 0.276067 0.642862 0.360546
O O2 0.484376 0.514398 0.396772
O O3 0.149933 0.309423 0.341321
O O4 0.926136 0.255200 0.516507
O O5 0.858858 0.190438 0.957882
O O6 0.981988 0.539725 0.856106
O O7 0.505444 0.218182 0.045966
O O8 0.000000 0.500000 0.000000
O O9 0.805619 0.753357 0.812084
O O10 0.956218 0.946001 0.912024
O O11 0.500000 0.500000 0.000000
O O12 0.997021 0.266002 0.649887
O O13 0.464731 0.957416 0.699321
O O14 0.740221 0.396696 0.321786
O O15 0.945234 0.772859 0.213935
O O16 0.509018 0.294633 0.231951
O O17 0.614377 0.633698 0.158590
#
# Coordination Sequence:
#
# PCOD8000324 Si02
#       8
#     2   2   2   2   2   2   2   2
#     4   9  22  39  59  89 123 151 194 252 293 356
#     4  10  19  39  58  80 115 151 190 241 278 343
#     4  12  23  35  57  88 114 154 199 235 295 352
#     4  11  20  39  64  87 116 158 197 239 308 348
#     4   9  20  38  61  86 119 153 195 243 293 357
#     4   9  20  37  61  86 114 153 202 235 289 362
#     4   9  20  38  59  81 116 156 191 234 294 347
#     4   9  20  41  53  81 124 148 188 251 288 341
#
# _framework density 22.618645999999998
#
# number of rings (size 3 to 8) (size 9 to 14) (size 15 to 20)
#    0.000    2.750    2.500    1.500    0.000    6.500 
#    2.250    7.500    0.000    0.000    0.000    0.000 
#    0.000    0.000    0.000    0.000    0.000    0.000 
#
# Total GULP energy -198249.195555 kJ/mol
# GULP energy per Si atom -12390.574722 kJ/mol
# Density = 2.256716 g / cm^3
# Si number density = 22.618646 Si / 1000 Ang^3
#
#
#
# Elastic Constant Matrix: (Units=GPa)
#
#
# Indices 1 2 3 4 5 6 
#
# 1 29.9612 5.2936 2.6148 8.4299 -6.8674 1.0076
# 2 5.2936 135.8256 34.2792 -1.6116 7.1154 1.1458
# 3 2.6148 34.2792 72.1583 14.8841 -11.5881 -11.5471
# 4 8.4299 -1.6116 14.8841 39.1121 -7.3236 -0.6638
# 5 -6.8674 7.1154 -11.5881 -7.3236 14.9991 -4.5419
# 6 1.0076 1.1458 -11.5471 -0.6638 -4.5419 13.7608
#
#
#
# Elastic Compliance Matrix: (Units=1/GPa)
#
#
# Indices 1 2 3 4 5 6 
#
# 1 0.042426 -0.006317 0.010848 -0.007178 0.032408 0.016873
# 2 -0.006317 0.012225 -0.012744 0.002044 -0.023239 -0.018821
# 3 0.010848 -0.012744 0.036496 -0.006531 0.050307 0.047181
# 4 -0.007178 0.002044 -0.006531 0.030593 0.005034 -0.001988
# 5 0.032408 -0.023239 0.050307 0.005034 0.162859 0.095773
# 6 0.016873 -0.018821 0.047181 -0.001988 0.095773 0.144108
#
#
# Mechanical properties :
#
#
# Convention : Reuss Voigt Hill
#
# Bulk Modulus (GPa) = 13.38288 35.81337 24.59813
# Shear Modulus (GPa) = 10.63740 26.62489 18.63114
#
# Velocity S-wave (km/s) = 2.17098 3.43464 2.87314
# Velocity P-wave (km/s) = 3.49482 5.62112 4.68032
#
# Compressibility (1/GPa) = 0.07472232
#
# Stress axis : x y z
#
# Youngs Moduli (GPa) = 23.57033 81.79693 27.40041
#
# Poissons Ratio (x) = 0.51668 -0.29725
# Poissons Ratio (y) = 0.14888 0.34920
# Poissons Ratio (z) = -0.25570 1.04245
#
# Static dielectric constant tensor:
#      x y z
#    x 3.337710 -0.059090 -0.040360 
#    y -0.059090 4.321480 -0.113890 
#    z -0.040360 -0.113890 4.717330 
# 
# 
# High freq. dielectric constant tensor:
#      x y z
#    x 1.862760 -0.006780 -0.009720 
#    y -0.006780 1.899130 0.014350 
#    z -0.009720 0.014350 1.886060 
# 
# From -- ./inp_files/556225.got.cif
#   From: 2010.06.25/outbox.cif.g09.slc.cpg/sg2_279_cif.got.tgz:556225.got - 2010.06.27 13:26:56.
