data_PCOD8000816
_publ_section_title
;
Structure prediction by ZEFSAII (Michael W. Deem and Ramdas Pophale) SiO2 
 PCOD8000816
Probable space group: P -1
;
_chemical_formula_sum "Si O2"
_cell_formula_units_Z 16
_cell_length_a 12.514508
_cell_length_b 14.457325
_cell_length_c 7.171439
_cell_angle_alpha 83.377737
_cell_angle_beta 121.660841
_cell_angle_gamma 130.953660
_cell_volume 779.505628
_symmetry_space_group_name_H-M "P -1"
_symmetry_group_IT_number 2
_symmetry_cell_setting 'triclinic'
loop_
_space_group_symop_operation_xyz
x,y,z
-x,-y,-z
loop_
_atom_site_type_symbol
_atom_site_label
_atom_site_fract_x
_atom_site_fract_y
_atom_site_fract_z
Si Si1 0.429835 0.994617 0.736722
Si Si2 0.697417 0.205376 0.638601
Si Si3 0.996995 0.729004 0.885857
Si Si4 0.822182 0.456583 0.790725
Si Si5 0.882305 0.076334 0.351287
Si Si6 0.685440 0.669986 0.792449
Si Si7 0.531863 0.395374 0.746115
Si Si8 0.765288 0.815493 0.195388
O O1 0.383273 0.877618 0.604748
O O2 0.258133 0.970815 0.606718
O O3 0.571015 0.127921 0.719979
O O4 0.500000 0.000000 0.000000
O O5 0.722251 0.329528 0.596607
O O6 0.881935 0.250626 0.844812
O O7 0.874279 0.583041 0.714274
O O8 0.873196 0.743533 0.855873
O O9 0.118125 0.838627 0.814255
O O10 0.702384 0.417627 0.872146
O O11 0.000000 0.500000 0.000000
O O12 0.076164 0.168039 0.595452
O O13 0.825634 0.953642 0.220547
O O14 0.593433 0.530966 0.830922
O O15 0.560902 0.650855 0.529121
O O16 0.714305 0.763494 0.951458
O O17 0.405267 0.286635 0.809213
#
# Coordination Sequence:
#
# PCOD8000816 Si02
#       8
#     2   2   2   2   2   2   2   2
#     4  11  22  38  61  86 120 154 193 243 282 344
#     4  10  21  39  63  85 112 160 195 231 296 341
#     4  10  19  40  62  83 120 153 189 243 291 340
#     4   9  20  38  65  86 114 153 192 236 287 343
#     4  11  23  39  57  87 120 153 195 240 287 342
#     4  10  21  37  63  86 114 154 190 238 296 336
#     4  10  20  39  61  87 117 147 193 243 284 343
#     4  11  23  39  59  87 117 153 197 237 285 350
#
# _framework density 20.525832000000001
#
# number of rings (size 3 to 8) (size 9 to 14) (size 15 to 20)
#    0.000    1.750    2.500    1.875    0.000    1.500 
#    2.250    0.625    2.750    0.000    0.000    0.000 
#    0.000    0.000    0.000    0.000    0.000    0.000 
#
# Total GULP energy -198392.230969 kJ/mol
# GULP energy per Si atom -12399.514436 kJ/mol
# Density = 2.047911 g / cm^3
# Si number density = 20.525832 Si / 1000 Ang^3
#
#
#
# Elastic Constant Matrix: (Units=GPa)
#
#
# Indices 1 2 3 4 5 6 
#
# 1 127.5022 40.8986 33.2233 3.9941 1.2713 12.9245
# 2 40.8986 108.1685 38.6413 11.5891 -14.1275 -4.2022
# 3 33.2233 38.6413 78.2853 8.7017 -22.0568 -1.3282
# 4 3.9941 11.5891 8.7017 23.9822 -5.8966 -0.1519
# 5 1.2713 -14.1275 -22.0568 -5.8966 26.2850 12.0981
# 6 12.9245 -4.2022 -1.3282 -0.1519 12.0981 33.9856
#
#
#
# Elastic Compliance Matrix: (Units=1/GPa)
#
#
# Indices 1 2 3 4 5 6 
#
# 1 0.010228 -0.003100 -0.004057 0.000226 -0.004156 -0.002951
# 2 -0.003100 0.012519 -0.003879 -0.003635 0.001950 0.001865
# 3 -0.004057 -0.003879 0.021516 -0.000845 0.018061 -0.004529
# 4 0.000226 -0.003635 -0.000845 0.045997 0.009343 -0.003689
# 5 -0.004156 0.001950 0.018061 0.009343 0.066211 -0.021000
# 6 -0.002951 0.001865 -0.004529 -0.003689 -0.021000 0.038059
#
#
# Mechanical properties :
#
#
# Convention : Reuss Voigt Hill
#
# Bulk Modulus (GPa) = 45.06059 59.94248 52.50153
# Shear Modulus (GPa) = 22.32171 30.26344 26.29257
#
# Velocity S-wave (km/s) = 3.30129 3.84397 3.58292
# Velocity P-wave (km/s) = 6.04418 6.99773 6.53837
#
# Compressibility (1/GPa) = 0.02219234
#
# Stress axis : x y z
#
# Youngs Moduli (GPa) = 97.77286 79.87868 46.47757
#
# Poissons Ratio (x) = 0.24759 0.18854
# Poissons Ratio (y) = 0.30305 0.18028
# Poissons Ratio (z) = 0.39663 0.30984
#
# Static dielectric constant tensor:
#      x y z
#    x 3.974360 -0.004810 0.085770 
#    y -0.004810 4.021490 0.315990 
#    z 0.085770 0.315990 3.406400 
# 
# 
# High freq. dielectric constant tensor:
#      x y z
#    x 1.820500 0.004990 0.009230 
#    y 0.004990 1.813220 0.021810 
#    z 0.009230 0.021810 1.771920 
# 
# From -- ./inp_files/77951.got.cif
#   From: 2010.06.25/outbox.cif.g09.slc.cpg/sg2_39_cif.got.tgz:77951.got - 2010.06.27 13:26:56.
