data_PCOD8000502
_publ_section_title
;
Structure prediction by ZEFSAII (Michael W. Deem and Ramdas Pophale) SiO2 
 PCOD8000502
Probable space group: P -1
;
_chemical_formula_sum "Si O2"
_cell_formula_units_Z 14
_cell_length_a 10.846877
_cell_length_b 14.720880
_cell_length_c 6.894132
_cell_angle_alpha 46.115202
_cell_angle_beta 95.796800
_cell_angle_gamma 115.222260
_cell_volume 685.117414
_symmetry_space_group_name_H-M "P -1"
_symmetry_group_IT_number 2
_symmetry_cell_setting 'triclinic'
loop_
_space_group_symop_operation_xyz
x,y,z
-x,-y,-z
loop_
_atom_site_type_symbol
_atom_site_label
_atom_site_fract_x
_atom_site_fract_y
_atom_site_fract_z
Si Si1 0.088364 0.151956 0.183189
Si Si2 0.648687 0.872629 0.703079
Si Si3 0.843606 0.398111 0.780285
Si Si4 0.136192 0.451457 0.818705
Si Si5 0.646534 0.310616 0.228620
Si Si6 0.180434 0.890565 0.946248
Si Si7 0.619570 0.030394 0.814247
O O1 0.244308 0.177586 0.113653
O O2 0.982273 0.141262 0.008868
O O3 0.112544 0.292235 0.103132
O O4 0.000000 0.000000 0.500000
O O5 0.521912 0.744055 0.747665
O O6 0.736227 0.008083 0.373861
O O7 0.575598 0.910308 0.815994
O O8 0.845057 0.516218 0.457128
O O9 0.992026 0.457830 0.837976
O O10 0.719130 0.369340 0.948180
O O11 0.813411 0.256417 0.862596
O O12 0.279521 0.563526 0.787247
O O13 0.668654 0.179313 0.492109
O O14 0.249284 0.962121 0.056491
O O15 0.500000 0.000000 0.000000
#
# Coordination Sequence:
#
# PCOD8000502 Si02
#       7
#     2   2   2   2   2   2   2
#     4   9  22  44  63  84 120 163 200 244 299 362
#     4  11  23  38  60  90 127 161 197 244 294 364
#     4  10  20  38  60  92 122 151 199 257 297 349
#     4  10  22  39  62  87 121 156 201 246 303 356
#     4  12  22  35  62  92 124 154 199 250 305 346
#     4  10  19  39  63  89 121 159 202 247 296 351
#     4  12  22  35  62  96 123 155 201 250 303 347
#
# _framework density 20.434452
#
# number of rings (size 3 to 8) (size 9 to 14) (size 15 to 20)
#    0.000    1.429    4.286    1.714    0.000    1.143 
#    0.000    3.571    0.000    0.000    0.000    0.000 
#    0.000    0.000    0.000    0.000    0.000    0.000 
#
# Total GULP energy -173458.788717 kJ/mol
# GULP energy per Si atom -12389.913480 kJ/mol
# Density = 2.038794 g / cm^3
# Si number density = 20.434452 Si / 1000 Ang^3
#
#
#
# Elastic Constant Matrix: (Units=GPa)
#
#
# Indices 1 2 3 4 5 6 
#
# 1 115.7444 55.5484 39.0910 1.1888 11.3420 26.9952
# 2 55.5484 121.5841 25.8080 -4.3928 10.1681 29.2197
# 3 39.0910 25.8080 67.3455 -4.8016 -0.5563 -1.9625
# 4 1.1888 -4.3928 -4.8016 29.4970 3.4664 3.5349
# 5 11.3420 10.1681 -0.5563 3.4664 25.4742 0.4316
# 6 26.9952 29.2197 -1.9625 3.5349 0.4316 35.0678
#
#
#
# Elastic Compliance Matrix: (Units=1/GPa)
#
#
# Indices 1 2 3 4 5 6 
#
# 1 0.015718 -0.002336 -0.008614 -0.000416 -0.006019 -0.010519
# 2 -0.002336 0.012775 -0.003631 0.003037 -0.004394 -0.009302
# 3 -0.008614 -0.003631 0.021697 0.001428 0.005383 0.010660
# 4 -0.000416 0.003037 0.001428 0.035965 -0.005794 -0.005685
# 5 -0.006019 -0.004394 0.005383 -0.005794 0.044449 0.008633
# 6 -0.010519 -0.009302 0.010660 -0.005685 0.008633 0.045427
#
#
# Mechanical properties :
#
#
# Convention : Reuss Voigt Hill
#
# Bulk Modulus (GPa) = 47.55425 60.61878 54.08651
# Shear Modulus (GPa) = 23.56243 30.28956 26.92599
#
# Velocity S-wave (km/s) = 3.39938 3.85421 3.63392
# Velocity P-wave (km/s) = 6.22333 7.03818 6.64326
#
# Compressibility (1/GPa) = 0.02102862
#
# Stress axis : x y z
#
# Youngs Moduli (GPa) = 63.62332 78.27557 46.08931
#
# Poissons Ratio (x) = 0.18287 0.39701
# Poissons Ratio (y) = 0.14864 0.16733
# Poissons Ratio (z) = 0.54804 0.28418
#
# Static dielectric constant tensor:
#      x y z
#    x 3.949360 0.403940 0.192050 
#    y 0.403940 3.740660 -0.094770 
#    z 0.192050 -0.094770 3.775150 
# 
# 
# High freq. dielectric constant tensor:
#      x y z
#    x 1.789270 0.034250 0.005310 
#    y 0.034250 1.790510 -0.007480 
#    z 0.005310 -0.007480 1.795200 
# 
# From -- ./inp_files/66189.got.cif
#   From: 2010.06.25/outbox.cif.g09.slc.cpg/sg2_34_cif.got.tgz:66189.got - 2010.06.27 13:26:56.
