data_PCOD8000228
_publ_section_title
;
Structure prediction by ZEFSAII (Michael W. Deem and Ramdas Pophale) SiO2 
 PCOD8000228
Probable space group: P 1
;
_chemical_formula_sum "Si O2"
_cell_formula_units_Z 8
_cell_length_a 12.145565
_cell_length_b 6.563472
_cell_length_c 11.084168
_cell_angle_alpha 134.259128
_cell_angle_beta 35.456995
_cell_angle_gamma 134.368360
_cell_volume 348.431087
_symmetry_space_group_name_H-M "P 1"
_symmetry_group_IT_number 1
_symmetry_cell_setting 'triclinic'
loop_
_space_group_symop_operation_xyz
x,y,z
loop_
_atom_site_type_symbol
_atom_site_label
_atom_site_fract_x
_atom_site_fract_y
_atom_site_fract_z
Si Si1 0.483640 0.718070 0.563790
Si Si2 0.764786 0.278702 0.401426
Si Si3 0.184132 0.815021 0.709540
Si Si4 0.761777 0.412476 0.942636
Si Si5 0.678249 0.235629 0.194973
Si Si6 0.553874 0.779158 0.793399
Si Si7 0.428072 0.624361 0.210402
Si Si8 0.211007 0.399428 0.080320
O O1 0.262878 0.644150 0.674179
O O2 0.510855 0.397213 0.427047
O O3 0.497648 0.853435 0.740114
O O4 0.646469 0.955550 0.430678
O O5 0.799799 0.245074 0.213531
O O6 0.640488 0.505238 0.627186
O O7 0.987408 0.403619 0.307710
O O8 0.307901 0.799339 0.471348
O O9 0.953892 0.651998 0.811413
O O10 0.217262 0.143755 0.872359
O O11 0.733070 0.075081 0.789487
O O12 0.813648 0.420734 0.042333
O O13 0.555016 0.479086 0.124965
O O14 0.576515 0.888094 0.105884
O O15 0.350114 0.709987 0.025208
O O16 0.296505 0.377464 0.130886
#
# Coordination Sequence:
#
# PCOD8000228 Si02
#       8
#     1   1   1   1   1   1   1   1
#     4  11  22  45  71 100 150 182 233 296 352 420
#     4  11  25  47  70 106 144 184 239 298 348 427
#     4  12  25  46  74 104 140 196 232 288 365 414
#     4  12  27  45  71 107 141 188 237 294 359 418
#     4  11  21  46  70  97 147 183 227 301 350 410
#     4  11  26  45  70 105 146 186 237 296 353 423
#     4  12  26  49  70 104 152 180 242 300 340 431
#     4  12  26  47  76 103 142 197 233 287 367 417
#
# _framework density 22.960066000000001
#
# number of rings (size 3 to 8) (size 9 to 14) (size 15 to 20)
#    0.000    0.500    5.000    3.000    3.500    2.000 
#    6.750    0.000    0.000    0.000    0.000    0.000 
#    0.000    0.000    0.000    0.000    0.000    0.000 
#
# Total GULP energy -99123.318541 kJ/mol
# GULP energy per Si atom -12390.414818 kJ/mol
# Density = 2.290781 g / cm^3
# Si number density = 22.960066 Si / 1000 Ang^3
#
#
#
# Elastic Constant Matrix: (Units=GPa)
#
#
# Indices 1 2 3 4 5 6 
#
# 1 131.5878 40.4919 29.8820 -12.8503 -0.4458 2.5505
# 2 40.4919 95.3185 20.9485 3.1344 -1.6725 9.0300
# 3 29.8820 20.9485 67.6333 -8.0509 -1.5330 6.4128
# 4 -12.8503 3.1344 -8.0509 33.4926 4.8664 2.6701
# 5 -0.4458 -1.6725 -1.5330 4.8664 34.6653 -4.4880
# 6 2.5505 9.0300 6.4128 2.6701 -4.4880 42.0423
#
#
#
# Elastic Compliance Matrix: (Units=1/GPa)
#
#
# Indices 1 2 3 4 5 6 
#
# 1 0.009686 -0.003660 -0.002781 0.003453 -0.000616 0.000338
# 2 -0.003660 0.012904 -0.002564 -0.003174 0.000664 -0.001886
# 3 -0.002781 -0.002564 0.017436 0.003563 -0.000171 -0.002185
# 4 0.003453 -0.003174 0.003563 0.033275 -0.004974 -0.002716
# 5 -0.000616 0.000664 -0.000171 -0.004974 0.030007 0.003440
# 6 0.000338 -0.001886 -0.002185 -0.002716 0.003440 0.025043
#
#
# Mechanical properties :
#
#
# Convention : Reuss Voigt Hill
#
# Bulk Modulus (GPa) = 45.41997 53.02050 49.22023
# Shear Modulus (GPa) = 32.53121 35.58785 34.05953
#
# Velocity S-wave (km/s) = 3.76820 3.94126 3.85570
# Velocity P-wave (km/s) = 6.22556 6.62224 6.42696
#
# Compressibility (1/GPa) = 0.02201675
#
# Stress axis : x y z
#
# Youngs Moduli (GPa) = 103.24516 77.49546 57.35334
#
# Poissons Ratio (x) = 0.28361 0.15949
# Poissons Ratio (y) = 0.37785 0.14705
# Poissons Ratio (z) = 0.28710 0.19869
#
# Static dielectric constant tensor:
#      x y z
#    x 4.334970 0.002290 0.156340 
#    y 0.002290 3.946710 0.068810 
#    z 0.156340 0.068810 4.040130 
# 
# 
# High freq. dielectric constant tensor:
#      x y z
#    x 1.919640 -0.002890 0.010770 
#    y -0.002890 1.902060 0.006700 
#    z 0.010770 0.006700 1.896800 
# 
# From -- ./inp_files/2423.got.cif
#   From: 2010.03.12/outbox.cif.g09.slc.cpg/sg1_2_cif.got.tgz:2423.got - 2010.03.29 11:57:58.
