data_PCOD8000506
_publ_section_title
;
Structure prediction by ZEFSAII (Michael W. Deem and Ramdas Pophale) SiO2 
 PCOD8000506
Probable space group: P -1
;
_chemical_formula_sum "Si O2"
_cell_formula_units_Z 16
_cell_length_a 7.251211
_cell_length_b 11.514171
_cell_length_c 14.248362
_cell_angle_alpha 75.383121
_cell_angle_beta 136.334019
_cell_angle_gamma 88.558563
_cell_volume 755.409302
_symmetry_space_group_name_H-M "P -1"
_symmetry_group_IT_number 2
_symmetry_cell_setting 'triclinic'
loop_
_space_group_symop_operation_xyz
x,y,z
-x,-y,-z
loop_
_atom_site_type_symbol
_atom_site_label
_atom_site_fract_x
_atom_site_fract_y
_atom_site_fract_z
Si Si1 0.653284 0.692316 0.628469
Si Si2 0.217113 0.077926 0.073296
Si Si3 0.811074 0.369900 0.435270
Si Si4 0.017310 0.817921 0.856430
Si Si5 0.733530 0.057119 0.607964
Si Si6 0.786390 0.885885 0.314788
Si Si7 0.343014 0.213909 0.908286
Si Si8 0.984776 0.479266 0.658675
O O1 0.477921 0.664615 0.658273
O O2 0.895308 0.743117 0.750008
O O3 0.429513 0.795978 0.458477
O O4 0.775946 0.570768 0.635345
O O5 0.086559 0.195429 0.073216
O O6 0.513292 0.983138 0.242553
O O7 0.268383 0.140864 0.983119
O O8 0.000000 0.000000 0.000000
O O9 0.800917 0.452652 0.321262
O O10 0.091996 0.246734 0.557738
O O11 0.813362 0.448502 0.514952
O O12 0.899329 0.971483 0.771124
O O13 0.348220 0.773171 0.974018
O O14 0.963878 0.051010 0.612534
O O15 0.500000 0.000000 0.500000
O O16 0.690647 0.862683 0.179779
O O17 0.141093 0.356691 0.800961
#
# Coordination Sequence:
#
# PCOD8000506 Si02
#       8
#     2   2   2   2   2   2   2   2
#     4  10  22  40  61  88 125 160 199 252 304 356
#     4  12  23  37  64  93 120 164 201 250 308 358
#     4   9  21  41  63  93 116 154 210 249 295 364
#     4  11  23  39  59  92 125 159 206 249 302 366
#     4   9  19  38  60  88 123 158 196 249 304 361
#     4  10  19  39  63  89 125 152 200 263 299 354
#     4  11  23  41  60  90 124 159 205 249 302 363
#     4  10  22  41  65  86 120 164 199 249 301 358
#
# _framework density 21.180568000000001
#
# number of rings (size 3 to 8) (size 9 to 14) (size 15 to 20)
#    0.000    1.750    2.500    1.500    1.750    2.500 
#    2.250    3.125    0.000    0.000    0.000    0.000 
#    0.000    0.000    0.000    0.000    0.000    0.000 
#
# Total GULP energy -198302.850196 kJ/mol
# GULP energy per Si atom -12393.928137 kJ/mol
# Density = 2.113236 g / cm^3
# Si number density = 21.180568 Si / 1000 Ang^3
#
#
#
# Elastic Constant Matrix: (Units=GPa)
#
#
# Indices 1 2 3 4 5 6 
#
# 1 90.7834 31.8009 28.5059 -12.5167 21.4769 6.9965
# 2 31.8009 64.0381 31.2161 -21.2711 10.9042 6.2880
# 3 28.5059 31.2161 61.7835 -10.4275 22.8467 -0.4734
# 4 -12.5167 -21.2711 -10.4275 28.6546 3.8865 6.1484
# 5 21.4769 10.9042 22.8467 3.8865 36.3313 1.6143
# 6 6.9965 6.2880 -0.4734 6.1484 1.6143 31.5997
#
#
#
# Elastic Compliance Matrix: (Units=1/GPa)
#
#
# Indices 1 2 3 4 5 6 
#
# 1 0.015553 -0.003486 -0.001800 0.005294 -0.007430 -0.003428
# 2 -0.003486 0.029571 -0.009102 0.019398 -0.002771 -0.008881
# 3 -0.001800 -0.009102 0.027443 0.003783 -0.013982 0.002599
# 4 0.005294 0.019398 0.003783 0.058610 -0.016911 -0.015515
# 5 -0.007430 -0.002771 -0.013982 -0.016911 0.043214 0.003070
# 6 -0.003428 -0.008881 0.002599 -0.015515 0.003070 0.037073
#
#
# Mechanical properties :
#
#
# Convention : Reuss Voigt Hill
#
# Bulk Modulus (GPa) = 22.83494 44.40567 33.62031
# Shear Modulus (GPa) = 19.62039 27.65593 23.63816
#
# Velocity S-wave (km/s) = 3.04688 3.61740 3.34433
# Velocity P-wave (km/s) = 4.81482 6.20147 5.55161
#
# Compressibility (1/GPa) = 0.04379253
#
# Stress axis : x y z
#
# Youngs Moduli (GPa) = 64.29444 33.81719 36.43876
#
# Poissons Ratio (x) = 0.11789 0.06559
# Poissons Ratio (y) = 0.22413 0.33165
# Poissons Ratio (z) = 0.11572 0.30779
#
# Static dielectric constant tensor:
#      x y z
#    x 4.001350 0.294320 0.044620 
#    y 0.294320 3.888840 -0.301560 
#    z 0.044620 -0.301560 3.999320 
# 
# 
# High freq. dielectric constant tensor:
#      x y z
#    x 1.836460 0.015180 0.016320 
#    y 0.015180 1.822270 -0.010850 
#    z 0.016320 -0.010850 1.822110 
# 
# From -- ./inp_files/69172.got.cif
#   From: 2010.06.25/outbox.cif.g09.slc.cpg/sg2_35_cif.got.tgz:69172.got - 2010.06.27 13:26:56.
