data_PCOD8000073
_publ_section_title
;
Structure prediction by ZEFSAII (Michael W. Deem and Ramdas Pophale) SiO2 
 PCOD8000073
Probable space group: P 1
;
_chemical_formula_sum "Si O2"
_cell_formula_units_Z 8
_cell_length_a 16.804816
_cell_length_b 7.874504
_cell_length_c 13.642248
_cell_angle_alpha 43.263220
_cell_angle_beta 23.571238
_cell_angle_gamma 34.697557
_cell_volume 408.385112
_symmetry_space_group_name_H-M "P 1"
_symmetry_group_IT_number 1
_symmetry_cell_setting 'triclinic'
loop_
_space_group_symop_operation_xyz
x,y,z
loop_
_atom_site_type_symbol
_atom_site_label
_atom_site_fract_x
_atom_site_fract_y
_atom_site_fract_z
Si Si1 0.168950 0.129020 0.573990
Si Si2 0.905131 0.720928 0.742590
Si Si3 0.982103 0.596961 0.262822
Si Si4 0.607469 0.202534 0.533128
Si Si5 0.137153 0.036036 0.419319
Si Si6 0.067799 0.663859 0.924843
Si Si7 0.711214 0.678942 0.173428
Si Si8 0.495652 0.134198 0.901316
O O1 0.140224 0.096143 0.505379
O O2 0.025516 0.473503 0.624952
O O3 0.070292 0.958307 0.815233
O O4 0.446553 0.984541 0.348551
O O5 0.698245 0.040197 0.793788
O O6 0.798974 0.610672 0.990404
O O7 0.090914 0.780074 0.559024
O O8 0.933386 0.357206 0.463701
O O9 0.783877 0.926722 0.381598
O O10 0.969140 0.594332 0.161177
O O11 0.259239 0.482382 0.029898
O O12 0.340864 0.383037 0.710961
O O13 0.710311 0.407526 0.335037
O O14 0.614123 0.076278 0.685645
O O15 0.394274 0.925424 0.124413
O O16 0.894397 0.722899 0.006586
#
# Coordination Sequence:
#
# PCOD8000073 Si02
#       8
#     1   1   1   1   1   1   1   1
#     4  11  23  42  63  90 126 160 201 255 303 355
#     4  12  23  40  67  90 121 168 196 249 315 353
#     4   9  20  42  58  88 122 159 197 256 298 348
#     4  10  21  40  64  85 122 162 201 251 304 352
#     4  10  22  43  60  92 126 153 208 250 294 371
#     4  10  22  40  60  90 126 156 205 253 293 365
#     4  11  23  40  62  93 122 159 210 247 298 373
#     4   9  22  39  60  88 125 155 200 255 291 361
#
# _framework density 19.589352000000002
#
# number of rings (size 3 to 8) (size 9 to 14) (size 15 to 20)
#    0.750    1.000    2.500    1.500    1.750    2.000 
#    4.500    0.000    0.000    0.000    0.000    0.000 
#    0.000    0.000    0.000    0.000    0.000    0.000 
#
# Total GULP energy -99142.988961 kJ/mol
# GULP energy per Si atom -12392.873620 kJ/mol
# Density = 1.954477 g / cm^3
# Si number density = 19.589352 Si / 1000 Ang^3
#
#
#
# Elastic Constant Matrix: (Units=GPa)
#
#
# Indices 1 2 3 4 5 6 
#
# 1 120.1861 40.7139 46.6711 1.6734 0.0421 -0.4377
# 2 40.7139 92.8543 38.2917 14.1353 -3.7644 4.5627
# 3 46.6711 38.2917 94.5197 2.4847 1.9324 4.0961
# 4 1.6734 14.1353 2.4847 28.3674 -2.1371 2.0793
# 5 0.0421 -3.7644 1.9324 -2.1371 31.4426 -5.5470
# 6 -0.4377 4.5627 4.0961 2.0793 -5.5470 24.6817
#
#
#
# Elastic Compliance Matrix: (Units=1/GPa)
#
#
# Indices 1 2 3 4 5 6 
#
# 1 0.011088 -0.003393 -0.004202 0.001312 0.000182 0.001452
# 2 -0.003393 0.015168 -0.004265 -0.006786 0.001397 -0.001271
# 3 -0.004202 -0.004265 0.014481 0.001135 -0.001700 -0.002167
# 4 0.001312 -0.006786 0.001135 0.038699 0.001420 -0.001852
# 5 0.000182 0.001397 -0.001700 0.001420 0.033483 0.007433
# 6 0.001452 -0.001271 -0.002167 -0.001852 0.007433 0.042963
#
#
# Mechanical properties :
#
#
# Convention : Reuss Voigt Hill
#
# Bulk Modulus (GPa) = 58.75813 62.10151 60.42982
# Shear Modulus (GPa) = 26.98707 29.02389 28.00548
#
# Velocity S-wave (km/s) = 3.71568 3.85335 3.78514
# Velocity P-wave (km/s) = 6.96193 7.18110 7.07237
#
# Compressibility (1/GPa) = 0.01701892
#
# Stress axis : x y z
#
# Youngs Moduli (GPa) = 90.18459 65.92803 69.05584
#
# Poissons Ratio (x) = 0.22368 0.29015
# Poissons Ratio (y) = 0.30598 0.29450
# Poissons Ratio (z) = 0.37893 0.28116
#
# Static dielectric constant tensor:
#      x y z
#    x 3.490900 -0.293310 0.073690 
#    y -0.293310 3.287140 -0.090810 
#    z 0.073690 -0.090810 3.696160 
# 
# 
# High freq. dielectric constant tensor:
#      x y z
#    x 1.766140 -0.022450 0.010400 
#    y -0.022450 1.736760 -0.005010 
#    z 0.010400 -0.005010 1.774840 
# 
# From -- ./inp_files/6794.got.cif
#   From: 2010.03.12/outbox.cif.g09.slc.cpg/sg1_4_cif.got.tgz:6794.got - 2010.03.29 11:57:58.
