data_PCOD8000543
_publ_section_title
;
Structure prediction by ZEFSAII (Michael W. Deem and Ramdas Pophale) SiO2 
 PCOD8000543
Probable space group: P -1
;
_chemical_formula_sum "Si O2"
_cell_formula_units_Z 16
_cell_length_a 12.174779
_cell_length_b 8.362303
_cell_length_c 12.272917
_cell_angle_alpha 77.395909
_cell_angle_beta 49.011848
_cell_angle_gamma 55.213327
_cell_volume 749.689378
_symmetry_space_group_name_H-M "P -1"
_symmetry_group_IT_number 2
_symmetry_cell_setting 'triclinic'
loop_
_space_group_symop_operation_xyz
x,y,z
-x,-y,-z
loop_
_atom_site_type_symbol
_atom_site_label
_atom_site_fract_x
_atom_site_fract_y
_atom_site_fract_z
Si Si1 0.528531 0.276499 0.890961
Si Si2 0.785635 0.610176 0.042155
Si Si3 0.386181 0.474150 0.490737
Si Si4 0.290914 0.740647 0.024787
Si Si5 0.094290 0.074985 0.709192
Si Si6 0.814176 0.116836 0.543027
Si Si7 0.174979 0.326685 0.762144
Si Si8 0.738279 0.259725 0.185227
O O1 0.367228 0.257164 0.969765
O O2 0.630710 0.174272 0.954436
O O3 0.660454 0.171237 0.719192
O O4 0.447093 0.511894 0.922852
O O5 0.759955 0.744002 0.144485
O O6 0.770417 0.433438 0.123741
O O7 0.971627 0.524814 0.873337
O O8 0.500000 0.500000 0.500000
O O9 0.222708 0.681775 0.514920
O O10 0.305549 0.365533 0.611628
O O11 0.532053 0.340723 0.323719
O O12 0.120002 0.763900 0.189131
O O13 0.215295 0.863174 0.941454
O O14 0.184438 0.156846 0.710342
O O15 0.179381 0.017777 0.541252
O O16 0.138265 0.877514 0.774232
O O17 0.000000 0.000000 0.500000
#
# Coordination Sequence:
#
# PCOD8000543 Si02
#       8
#     2   2   2   2   2   2   2   2
#     4  10  19  39  64  86 124 171 219 244 321 395
#     4  10  20  40  66  91 123 179 212 255 324 390
#     4  12  22  44  65  90 129 180 214 254 335 400
#     4  10  20  36  65  93 121 169 218 260 304 388
#     4  12  23  37  65 105 129 157 224 277 314 365
#     4  12  23  40  68  97 129 169 220 264 320 389
#     4  11  23  38  63  99 131 163 213 279 319 374
#     4  11  21  39  68  95 124 169 222 258 317 392
#
# _framework density 21.342174
#
# number of rings (size 3 to 8) (size 9 to 14) (size 15 to 20)
#    0.000    1.000    8.750    0.375    0.000    0.500 
#    0.000    0.625    0.000    1.500    0.000    0.000 
#    0.000    0.000    0.000    0.000    0.000    0.000 
#
# Total GULP energy -198221.481473 kJ/mol
# GULP energy per Si atom -12388.842592 kJ/mol
# Density = 2.129360 g / cm^3
# Si number density = 21.342174 Si / 1000 Ang^3
#
#
#
# Elastic Constant Matrix: (Units=GPa)
#
#
# Indices 1 2 3 4 5 6 
#
# 1 165.1350 15.5019 41.0125 11.5155 19.7032 -1.8946
# 2 15.5019 34.1900 11.0000 11.5504 -1.6137 -2.6042
# 3 41.0125 11.0000 128.8069 24.2938 4.8598 10.0247
# 4 11.5155 11.5504 24.2938 24.5640 5.6115 0.8492
# 5 19.7032 -1.6137 4.8598 5.6115 53.0297 2.6276
# 6 -1.8946 -2.6042 10.0247 0.8492 2.6276 31.9331
#
#
#
# Elastic Compliance Matrix: (Units=1/GPa)
#
#
# Indices 1 2 3 4 5 6 
#
# 1 0.007135 -0.002817 -0.002140 0.000667 -0.002664 0.001067
# 2 -0.002817 0.036622 0.000729 -0.017588 0.003819 0.002744
# 3 -0.002140 0.000729 0.010436 -0.009793 0.001054 -0.003170
# 4 0.000667 -0.017588 -0.009793 0.059757 -0.006239 0.000604
# 5 -0.002664 0.003819 0.001054 -0.006239 0.020612 -0.001708
# 6 0.001067 0.002744 -0.003170 0.000604 -0.001708 0.032722
#
#
# Mechanical properties :
#
#
# Convention : Reuss Voigt Hill
#
# Bulk Modulus (GPa) = 21.86330 51.46229 36.66280
# Shear Modulus (GPa) = 26.18006 39.27985 32.72995
#
# Velocity S-wave (km/s) = 3.50620 4.29474 3.92034
# Velocity P-wave (km/s) = 5.16311 6.98272 6.14068
#
# Compressibility (1/GPa) = 0.04573876
#
# Stress axis : x y z
#
# Youngs Moduli (GPa) = 140.15362 27.30603 95.81766
#
# Poissons Ratio (x) = 0.07691 0.20502
# Poissons Ratio (y) = 0.39476 -0.06984
# Poissons Ratio (z) = 0.29988 -0.01990
#
# Static dielectric constant tensor:
#      x y z
#    x 4.428440 -0.230370 0.233470 
#    y -0.230370 3.535160 0.237510 
#    z 0.233470 0.237510 4.544300 
# 
# 
# High freq. dielectric constant tensor:
#      x y z
#    x 1.853480 -0.016800 0.012730 
#    y -0.016800 1.785940 0.029630 
#    z 0.012730 0.029630 1.851740 
# 
# From -- ./inp_files/417054.got.cif
#   From: 2010.06.25/outbox.cif.g09.slc.cpg/sg2_209_cif.got.tgz:417054.got - 2010.06.27 13:26:56.
