data_PCOD8000991
_publ_section_title
;
Structure prediction by ZEFSAII (Michael W. Deem and Ramdas Pophale) SiO2 
 PCOD8000991
Probable space group: P -1
;
_chemical_formula_sum "Si O2"
_cell_formula_units_Z 14
_cell_length_a 28.227747
_cell_length_b 10.220039
_cell_length_c 11.668198
_cell_angle_alpha 140.130287
_cell_angle_beta 22.083625
_cell_angle_gamma 150.279544
_cell_volume 614.763400
_symmetry_space_group_name_H-M "P -1"
_symmetry_group_IT_number 2
_symmetry_cell_setting 'triclinic'
loop_
_space_group_symop_operation_xyz
x,y,z
-x,-y,-z
loop_
_atom_site_type_symbol
_atom_site_label
_atom_site_fract_x
_atom_site_fract_y
_atom_site_fract_z
Si Si1 0.361322 0.054629 0.593975
Si Si2 0.527923 0.266418 0.594394
Si Si3 0.219338 0.087490 0.282022
Si Si4 0.040306 0.806336 0.280053
Si Si5 0.280398 0.550823 0.346969
Si Si6 0.437925 0.170671 0.251099
Si Si7 0.816697 0.874441 0.360391
O O1 0.374757 0.823704 0.391118
O O2 0.484228 0.263106 0.556872
O O3 0.415096 0.222521 0.467736
O O4 0.171943 0.899988 0.948293
O O5 0.711616 0.552664 0.391882
O O6 0.500000 0.000000 0.500000
O O7 0.413652 0.256294 0.937421
O O8 0.190427 0.297371 0.462896
O O9 0.170858 0.992349 0.457083
O O10 0.112415 0.829949 0.261298
O O11 0.867386 0.504115 0.437391
O O12 0.000000 0.000000 0.500000
O O13 0.410715 0.563704 0.980657
O O14 0.266473 0.049335 0.488824
O O15 0.500000 0.000000 0.000000
O O16 0.000000 0.000000 0.000000
#
# Coordination Sequence:
#
# PCOD8000991 Si02
#       7
#     2   2   2   2   2   2   2
#     4  10  22  39  64  97 133 172 227 281 338 402
#     4  11  24  44  71 100 133 183 231 280 340 412
#     4  10  22  42  66  93 135 177 232 277 339 407
#     4   9  20  36  61  96 124 168 223 281 331 391
#     4  10  19  40  68  93 128 180 227 279 332 407
#     4  10  24  42  66  97 134 179 227 276 346 401
#     4  12  27  45  70 102 138 183 227 285 347 402
#
# _framework density 22.772988999999999
#
# number of rings (size 3 to 8) (size 9 to 14) (size 15 to 20)
#    0.000    1.714    1.429    1.714    8.000    1.714 
#   10.286    0.714    0.000    0.000    0.000    0.000 
#    0.000    0.000    0.000    0.000    0.000    0.000 
#
# Total GULP energy -173465.514183 kJ/mol
# GULP energy per Si atom -12390.393870 kJ/mol
# Density = 2.272116 g / cm^3
# Si number density = 22.772989 Si / 1000 Ang^3
#
#
#
# Elastic Constant Matrix: (Units=GPa)
#
#
# Indices 1 2 3 4 5 6 
#
# 1 128.0773 7.7717 72.5241 3.1432 18.7140 11.8531
# 2 7.7717 54.5977 23.5270 2.7812 -5.2524 13.8444
# 3 72.5241 23.5270 166.5051 -15.2051 12.3151 22.4277
# 4 3.1432 2.7812 -15.2051 30.9793 8.4676 -9.0239
# 5 18.7140 -5.2524 12.3151 8.4676 45.6649 9.0579
# 6 11.8531 13.8444 22.4277 -9.0239 9.0579 33.6356
#
#
#
# Elastic Compliance Matrix: (Units=1/GPa)
#
#
# Indices 1 2 3 4 5 6 
#
# 1 0.011062 0.000812 -0.004904 -0.003355 -0.002246 -0.001258
# 2 0.000812 0.024142 -0.003533 -0.009743 0.007693 -0.012553
# 3 -0.004904 -0.003533 0.009434 0.005594 -0.001753 -0.001136
# 4 -0.003355 -0.009743 0.005594 0.044697 -0.012900 0.016928
# 5 -0.002246 0.007693 -0.001753 -0.012900 0.029046 -0.012489
# 6 -0.001258 -0.012553 -0.001136 0.016928 -0.012489 0.044003
#
#
# Mechanical properties :
#
#
# Convention : Reuss Voigt Hill
#
# Bulk Modulus (GPa) = 34.02546 61.86954 47.94750
# Shear Modulus (GPa) = 26.67654 38.41313 32.54483
#
# Velocity S-wave (km/s) = 3.42630 4.11150 3.78444
# Velocity P-wave (km/s) = 5.53410 7.05452 6.34005
#
# Compressibility (1/GPa) = 0.02938975
#
# Stress axis : x y z
#
# Youngs Moduli (GPa) = 90.39731 41.42136 105.99449
#
# Poissons Ratio (x) = -0.03365 0.51979
# Poissons Ratio (y) = -0.07344 0.37448
# Poissons Ratio (z) = 0.44330 0.14634
#
# Static dielectric constant tensor:
#      x y z
#    x 4.605250 0.285650 -0.095980 
#    y 0.285650 4.231890 -0.390150 
#    z -0.095980 -0.390150 4.682390 
# 
# 
# High freq. dielectric constant tensor:
#      x y z
#    x 1.902560 0.014420 0.002880 
#    y 0.014420 1.880630 0.007430 
#    z 0.002880 0.007430 1.905510 
# 
# From -- ./inp_files/244711.got.cif
#   From: 2010.06.25/outbox.cif.g09.slc.cpg/sg2_123_cif.got.tgz:244711.got - 2010.06.27 13:26:56.
