data_PCOD8000059
_publ_section_title
;
Structure prediction by ZEFSAII (Michael W. Deem and Ramdas Pophale) SiO2 
 PCOD8000059
Probable space group: P 1
;
_chemical_formula_sum "Si O2"
_cell_formula_units_Z 8
_cell_length_a 14.188917
_cell_length_b 8.733622
_cell_length_c 8.538091
_cell_angle_alpha 100.679245
_cell_angle_beta 135.707165
_cell_angle_gamma 43.342399
_cell_volume 362.426148
_symmetry_space_group_name_H-M "P 1"
_symmetry_group_IT_number 1
_symmetry_cell_setting 'triclinic'
loop_
_space_group_symop_operation_xyz
x,y,z
loop_
_atom_site_type_symbol
_atom_site_label
_atom_site_fract_x
_atom_site_fract_y
_atom_site_fract_z
Si Si1 0.560810 0.328140 0.399540
Si Si2 0.749309 0.786446 0.491985
Si Si3 0.420052 0.095741 0.617408
Si Si4 0.397968 0.469565 0.577582
Si Si5 0.065022 0.974579 0.785824
Si Si6 0.890074 0.018631 0.274115
Si Si7 0.912163 0.644800 0.313944
Si Si8 0.245005 0.140117 0.105607
O O1 0.451311 0.479974 0.470019
O O2 0.655076 0.057287 0.445669
O O3 0.314857 0.605581 0.039129
O O4 0.813428 0.186138 0.637820
O O5 0.858878 0.634361 0.421591
O O6 0.496688 0.928482 0.253783
O O7 0.995260 0.509120 0.852466
O O8 0.438496 0.243353 0.580781
O O9 0.337098 0.053941 0.379994
O O10 0.214418 0.300722 0.557212
O O11 0.710618 0.764137 0.973187
O O12 0.599497 0.350232 0.918335
O O13 0.095709 0.813646 0.334309
O O14 0.972956 0.060529 0.511442
O O15 0.154872 0.057536 0.945481
O O16 0.871663 0.870982 0.310757
#
# Coordination Sequence:
#
# PCOD8000059 Si02
#       8
#     1   1   1   1   1   1   1   1
#     4  12  24  42  68  98 125 166 226 262 304 377
#     4  12  24  42  68  98 125 166 226 262 304 377
#     4  10  21  38  62  93 127 163 206 261 323 366
#     4  10  21  37  64  95 121 160 216 269 301 366
#     4  12  26  44  64  95 136 171 204 262 332 382
#     4  10  21  38  62  93 127 163 206 261 323 366
#     4  10  21  37  64  95 121 160 216 269 301 366
#     4  12  26  44  64  95 136 171 204 262 332 382
#
# _framework density 22.073459
#
# number of rings (size 3 to 8) (size 9 to 14) (size 15 to 20)
#    0.000    1.000    2.500    4.500    7.000    0.000 
#    0.000    7.500    0.000    0.000    0.000    0.000 
#    0.000    0.000    0.000    0.000    0.000    0.000 
#
# Total GULP energy -99251.633840 kJ/mol
# GULP energy per Si atom -12406.454230 kJ/mol
# Density = 2.202322 g / cm^3
# Si number density = 22.073459 Si / 1000 Ang^3
#
#
#
# Elastic Constant Matrix: (Units=GPa)
#
#
# Indices 1 2 3 4 5 6 
#
# 1 106.7475 27.1252 27.0668 7.4587 20.3494 -24.7444
# 2 27.1252 51.1567 23.4280 15.8564 -2.1322 -6.2648
# 3 27.0668 23.4280 125.5519 9.8114 10.1477 1.6738
# 4 7.4587 15.8564 9.8114 50.4778 -6.7458 2.0346
# 5 20.3494 -2.1322 10.1477 -6.7458 35.5862 -5.9783
# 6 -24.7444 -6.2648 1.6738 2.0346 -5.9783 20.2641
#
#
#
# Elastic Compliance Matrix: (Units=1/GPa)
#
#
# Indices 1 2 3 4 5 6 
#
# 1 0.016661 -0.005473 -0.002101 -0.001924 -0.006761 0.017025
# 2 -0.005473 0.026905 -0.003830 -0.006354 0.005328 0.004162
# 3 -0.002101 -0.003830 0.009458 -0.000473 -0.002702 -0.005280
# 4 -0.001924 -0.006354 -0.000473 0.022974 0.004318 -0.005308
# 5 -0.006761 0.005328 -0.002702 0.004318 0.034436 0.003341
# 6 0.017025 0.004162 -0.005280 -0.005308 0.003341 0.073379
#
#
# Mechanical properties :
#
#
# Convention : Reuss Voigt Hill
#
# Bulk Modulus (GPa) = 33.09432 48.74402 40.91917
# Shear Modulus (GPa) = 23.07421 34.98802 29.03111
#
# Velocity S-wave (km/s) = 3.23668 3.98562 3.63051
# Velocity P-wave (km/s) = 5.38456 6.58109 6.01266
#
# Compressibility (1/GPa) = 0.03021667
#
# Stress axis : x y z
#
# Youngs Moduli (GPa) = 60.02101 37.16798 105.72836
#
# Poissons Ratio (x) = 0.20341 0.22211
# Poissons Ratio (y) = 0.32847 0.40496
# Poissons Ratio (z) = 0.12609 0.14236
#
# Static dielectric constant tensor:
#      x y z
#    x 4.081280 -0.244810 0.046610 
#    y -0.244810 3.602760 -0.115260 
#    z 0.046610 -0.115260 4.307460 
# 
# 
# High freq. dielectric constant tensor:
#      x y z
#    x 1.865340 -0.028370 0.008510 
#    y -0.028370 1.844720 -0.002740 
#    z 0.008510 -0.002740 1.890890 
# 
# From -- ./inp_files/1174.got.cif
#   From: 2010.03.12/outbox.cif.g09.slc.cpg/sg1_1_cif.got.tgz:1174.got - 2010.03.29 11:57:58.
