data_PCOD8000419
_publ_section_title
;
Structure prediction by ZEFSAII (Michael W. Deem and Ramdas Pophale) SiO2 
 PCOD8000419
Probable space group: P -1
;
_chemical_formula_sum "Si O2"
_cell_formula_units_Z 14
_cell_length_a 7.839984
_cell_length_b 8.621119
_cell_length_c 14.229674
_cell_angle_alpha 136.142624
_cell_angle_beta 102.723818
_cell_angle_gamma 82.330204
_cell_volume 649.559472
_symmetry_space_group_name_H-M "P -1"
_symmetry_group_IT_number 2
_symmetry_cell_setting 'triclinic'
loop_
_space_group_symop_operation_xyz
x,y,z
-x,-y,-z
loop_
_atom_site_type_symbol
_atom_site_label
_atom_site_fract_x
_atom_site_fract_y
_atom_site_fract_z
Si Si1 0.709331 0.926782 0.657509
Si Si2 0.195343 0.331726 0.278530
Si Si3 0.400864 0.717535 0.056204
Si Si4 0.340704 0.783825 0.559949
Si Si5 0.177427 0.630454 0.820968
Si Si6 0.183846 0.114001 0.554191
Si Si7 0.567452 0.145580 0.195736
O O1 0.655236 0.157914 0.800911
O O2 0.845134 0.804356 0.688791
O O3 0.546146 0.744790 0.551418
O O4 0.775952 0.977919 0.584676
O O5 0.215015 0.596117 0.416052
O O6 0.373571 0.251474 0.216304
O O7 0.022238 0.290411 0.176054
O O8 0.531210 0.877817 0.079676
O O9 0.500000 0.500000 0.000000
O O10 0.228432 0.646827 0.943762
O O11 0.313176 0.785827 0.669529
O O12 0.311393 0.022246 0.609562
O O13 0.192072 0.380979 0.673640
O O14 0.317264 0.790406 0.852344
O O15 0.000000 0.000000 0.500000
#
# Coordination Sequence:
#
# PCOD8000419 Si02
#       7
#     2   2   2   2   2   2   2
#     4  10  23  41  65  91 131 173 210 274 322 383
#     4  10  21  38  63  98 133 162 222 263 327 384
#     4  10  23  47  68  95 129 171 220 261 330 394
#     4  10  19  39  61  92 130 169 211 266 320 378
#     4  12  23  41  70  95 131 175 213 271 321 386
#     4  12  24  38  62  99 132 166 220 264 323 379
#     4  10  23  40  68  95 129 173 215 267 325 385
#
# _framework density 21.553068
#
# number of rings (size 3 to 8) (size 9 to 14) (size 15 to 20)
#    0.000    1.714    1.429    6.000    2.000    4.571 
#    0.000    0.714    0.000    0.000    0.000    0.000 
#    0.000    0.000    0.000    0.000    0.000    0.000 
#
# Total GULP energy -173526.775109 kJ/mol
# GULP energy per Si atom -12394.769651 kJ/mol
# Density = 2.150401 g / cm^3
# Si number density = 21.553068 Si / 1000 Ang^3
#
#
#
# Elastic Constant Matrix: (Units=GPa)
#
#
# Indices 1 2 3 4 5 6 
#
# 1 92.3172 41.6607 50.2285 -10.7949 10.1407 -4.3812
# 2 41.6607 105.1863 44.8458 4.6796 -0.9064 -18.7809
# 3 50.2285 44.8458 111.6542 -0.2358 7.2345 -0.2854
# 4 -10.7949 4.6796 -0.2358 46.2733 -2.9737 1.7482
# 5 10.1407 -0.9064 7.2345 -2.9737 28.0699 -11.4619
# 6 -4.3812 -18.7809 -0.2854 1.7482 -11.4619 37.1560
#
#
#
# Elastic Compliance Matrix: (Units=1/GPa)
#
#
# Indices 1 2 3 4 5 6 
#
# 1 0.016988 -0.005217 -0.005183 0.004203 -0.005584 -0.002594
# 2 -0.005217 0.015204 -0.004194 -0.002680 0.006977 0.009316
# 3 -0.005183 -0.004194 0.013169 -0.000788 -0.003203 -0.003580
# 4 0.004203 -0.002680 -0.000788 0.022946 0.000269 -0.001862
# 5 -0.005584 0.006977 -0.003203 0.000269 0.045625 0.016905
# 6 -0.002594 0.009316 -0.003580 -0.001862 0.016905 0.036591
#
#
# Mechanical properties :
#
#
# Convention : Reuss Voigt Hill
#
# Bulk Modulus (GPa) = 61.82773 64.73643 63.28208
# Shear Modulus (GPa) = 27.01231 33.79470 30.40350
#
# Velocity S-wave (km/s) = 3.54403 3.96406 3.75992
# Velocity P-wave (km/s) = 6.74503 7.14512 6.94796
#
# Compressibility (1/GPa) = 0.01617397
#
# Stress axis : x y z
#
# Youngs Moduli (GPa) = 58.86418 65.77312 75.93723
#
# Poissons Ratio (x) = 0.34314 0.39357
# Poissons Ratio (y) = 0.30710 0.31845
# Poissons Ratio (z) = 0.30508 0.27582
#
# Static dielectric constant tensor:
#      x y z
#    x 3.646280 -0.107570 0.114220 
#    y -0.107570 3.524880 0.275880 
#    z 0.114220 0.275880 3.934500 
# 
# 
# High freq. dielectric constant tensor:
#      x y z
#    x 1.826030 -0.011790 0.016140 
#    y -0.011790 1.858120 -0.002360 
#    z 0.016140 -0.002360 1.849810 
# 
# From -- ./inp_files/292735.got.cif
#   From: 2010.06.25/outbox.cif.g09.slc.cpg/sg2_147_cif.got.tgz:292735.got - 2010.06.27 13:26:56.
