data_PCOD8000776
_publ_section_title
;
Structure prediction by ZEFSAII (Michael W. Deem and Ramdas Pophale) SiO2 
 PCOD8000776
Probable space group: P -1
;
_chemical_formula_sum "Si O2"
_cell_formula_units_Z 16
_cell_length_a 13.674579
_cell_length_b 9.173552
_cell_length_c 20.463996
_cell_angle_alpha 105.981512
_cell_angle_beta 20.954164
_cell_angle_gamma 93.668054
_cell_volume 730.128146
_symmetry_space_group_name_H-M "P -1"
_symmetry_group_IT_number 2
_symmetry_cell_setting 'triclinic'
loop_
_space_group_symop_operation_xyz
x,y,z
-x,-y,-z
loop_
_atom_site_type_symbol
_atom_site_label
_atom_site_fract_x
_atom_site_fract_y
_atom_site_fract_z
Si Si1 0.297322 0.104764 0.980273
Si Si2 0.299891 0.541634 0.956185
Si Si3 0.059895 0.037453 0.754019
Si Si4 0.219152 0.802317 0.304073
Si Si5 0.357981 0.188129 0.379543
Si Si6 0.203838 0.548748 0.736561
Si Si7 0.366422 0.036945 0.693396
Si Si8 0.325605 0.599665 0.805693
O O1 0.484356 0.187410 0.909715
O O2 0.527020 0.917810 0.774070
O O3 0.069366 0.237890 0.079956
O O4 0.120451 0.069614 0.145365
O O5 0.620413 0.376132 0.771721
O O6 0.392329 0.483237 0.815139
O O7 0.218645 0.743016 0.046608
O O8 0.959750 0.562661 0.191241
O O9 0.272975 0.968583 0.679554
O O10 0.306785 0.966243 0.529227
O O11 0.013590 0.766534 0.374942
O O12 0.000000 0.000000 0.500000
O O13 0.395763 0.355913 0.367283
O O14 0.561198 0.091770 0.306124
O O15 0.500000 0.500000 0.500000
O O16 0.344352 0.494494 0.715769
O O17 0.054834 0.231996 0.931983
#
# Coordination Sequence:
#
# PCOD8000776 Si02
#       8
#     2   2   2   2   2   2   2   2
#     4  10  19  40  59  86 117 158 198 241 297 355
#     4  10  22  40  58  87 124 153 199 250 289 349
#     4  10  21  36  63  92 121 152 190 251 309 345
#     4   9  22  40  61  84 118 162 208 237 291 351
#     4  11  19  37  64  86 111 164 204 237 288 359
#     4  11  24  35  59  89 129 156 187 244 310 357
#     4  10  20  33  61  92 121 150 192 243 304 357
#     4  11  21  36  60  92 123 150 199 247 293 357
#
# _framework density 21.913961
#
# number of rings (size 3 to 8) (size 9 to 14) (size 15 to 20)
#    0.000    1.750    3.750    1.500    7.000    0.500 
#    0.000    1.250    0.000    0.000    0.000    0.000 
#    0.000    0.000    0.000    0.000    0.000    0.000 
#
# Total GULP energy -198213.843608 kJ/mol
# GULP energy per Si atom -12388.365226 kJ/mol
# Density = 2.186408 g / cm^3
# Si number density = 21.913961 Si / 1000 Ang^3
#
#
#
# Elastic Constant Matrix: (Units=GPa)
#
#
# Indices 1 2 3 4 5 6 
#
# 1 46.1424 17.1121 24.9151 1.6334 -13.7583 -3.5511
# 2 17.1121 100.2157 26.9270 -21.2614 -23.1913 -9.1349
# 3 24.9151 26.9270 71.0134 -23.0931 -9.9927 -0.1368
# 4 1.6334 -21.2614 -23.0931 33.2662 -6.8256 -3.3622
# 5 -13.7583 -23.1913 -9.9927 -6.8256 31.0702 -4.1036
# 6 -3.5511 -9.1349 -0.1368 -3.3622 -4.1036 24.2327
#
#
#
# Elastic Compliance Matrix: (Units=1/GPa)
#
#
# Indices 1 2 3 4 5 6 
#
# 1 0.031999 -0.002433 -0.012748 -0.010317 0.006430 0.003357
# 2 -0.002433 0.020253 0.003041 0.020975 0.021453 0.013838
# 3 -0.012748 0.003041 0.026728 0.023862 0.011072 0.004615
# 4 -0.010317 0.020975 0.023862 0.070461 0.037227 0.022610
# 5 0.006430 0.021453 0.011072 0.037227 0.066147 0.025458
# 6 0.003357 0.013838 0.004615 0.022610 0.025458 0.054449
#
#
# Mechanical properties :
#
#
# Convention : Reuss Voigt Hill
#
# Bulk Modulus (GPa) = 18.28219 39.47555 28.87887
# Shear Modulus (GPa) = 15.99739 27.60831 21.80285
#
# Velocity S-wave (km/s) = 2.70480 3.55329 3.15767
# Velocity P-wave (km/s) = 4.25622 5.90656 5.14795
#
# Compressibility (1/GPa) = 0.05469805
#
# Stress axis : x y z
#
# Youngs Moduli (GPa) = 31.25129 49.37580 37.41368
#
# Poissons Ratio (x) = 0.12016 0.47694
# Poissons Ratio (y) = 0.07605 -0.11376
# Poissons Ratio (z) = 0.39839 -0.15013
#
# Static dielectric constant tensor:
#      x y z
#    x 4.352400 -0.643740 -0.550770 
#    y -0.643740 4.704920 -0.098700 
#    z -0.550770 -0.098700 4.396550 
# 
# 
# High freq. dielectric constant tensor:
#      x y z
#    x 1.826620 -0.008910 -0.011430 
#    y -0.008910 1.867820 -0.022930 
#    z -0.011430 -0.022930 1.856030 
# 
# From -- ./inp_files/217507.got.cif
#   From: 2010.06.25/outbox.cif.g09.slc.cpg/sg2_109_cif.got.tgz:217507.got - 2010.06.27 13:26:56.
