data_PCOD8000865
_publ_section_title
;
Structure prediction by ZEFSAII (Michael W. Deem and Ramdas Pophale) SiO2 
 PCOD8000865
Probable space group: P -1
;
_chemical_formula_sum "Si O2"
_cell_formula_units_Z 16
_cell_length_a 9.206000
_cell_length_b 25.051133
_cell_length_c 21.086218
_cell_angle_alpha 160.713332
_cell_angle_beta 149.492686
_cell_angle_gamma 30.478236
_cell_volume 780.365408
_symmetry_space_group_name_H-M "P -1"
_symmetry_group_IT_number 2
_symmetry_cell_setting 'triclinic'
loop_
_space_group_symop_operation_xyz
x,y,z
-x,-y,-z
loop_
_atom_site_type_symbol
_atom_site_label
_atom_site_fract_x
_atom_site_fract_y
_atom_site_fract_z
Si Si1 0.320140 0.944577 0.525453
Si Si2 0.397691 0.846821 0.217467
Si Si3 0.431449 0.324228 0.780835
Si Si4 0.156324 0.267398 0.426931
Si Si5 0.649483 0.790144 0.706711
Si Si6 0.634051 0.156570 0.158309
Si Si7 0.034892 0.351315 0.209567
Si Si8 0.935195 0.181882 0.429537
O O1 0.324947 0.805307 0.316981
O O2 0.582746 0.868853 0.590336
O O3 0.374004 0.110154 0.698789
O O4 0.000000 0.000000 0.500000
O O5 0.564622 0.726608 0.201228
O O6 0.201029 0.020329 0.370851
O O7 0.198868 0.754717 0.000356
O O8 0.092955 0.328575 0.636073
O O9 0.500000 0.500000 0.000000
O O10 0.210987 0.255956 0.360366
O O11 0.833317 0.237550 0.279736
O O12 0.134762 0.454744 0.653319
O O13 0.844613 0.662819 0.689113
O O14 0.317773 0.763024 0.550067
O O15 0.618486 0.982960 0.927956
O O16 0.300466 0.283021 0.181567
O O17 0.783623 0.122757 0.245594
#
# Coordination Sequence:
#
# PCOD8000865 Si02
#       8
#     2   2   2   2   2   2   2   2
#     4  11  25  44  64  95 130 170 220 263 319 384
#     4  11  21  41  71  86 126 172 217 261 312 386
#     4  11  24  43  67  94 125 162 224 272 318 372
#     4  12  24  38  62  97 138 160 207 277 321 369
#     4  11  22  39  65  94 130 172 209 254 324 390
#     4  11  20  41  67  89 127 171 215 257 311 391
#     4  11  22  41  63  96 129 170 213 260 327 374
#     4  10  19  40  64  91 119 170 217 254 306 385
#
# _framework density 20.503215000000001
#
# number of rings (size 3 to 8) (size 9 to 14) (size 15 to 20)
#    0.000    1.000    5.000    4.125    3.500    0.000 
#    2.250    1.250    0.000    0.000    0.000    0.000 
#    0.000    0.000    0.000    0.000    0.000    0.000 
#
# Total GULP energy -198398.743550 kJ/mol
# GULP energy per Si atom -12399.921472 kJ/mol
# Density = 2.045655 g / cm^3
# Si number density = 20.503215 Si / 1000 Ang^3
#
#
#
# Elastic Constant Matrix: (Units=GPa)
#
#
# Indices 1 2 3 4 5 6 
#
# 1 147.4266 41.6480 51.6664 5.4702 26.1536 -26.9529
# 2 41.6480 66.8662 36.5498 4.3287 9.7131 -7.9913
# 3 51.6664 36.5498 139.6678 5.9593 27.7822 -20.4126
# 4 5.4702 4.3287 5.9593 24.6845 -0.5782 6.8074
# 5 26.1536 9.7131 27.7822 -0.5782 32.0668 -1.0770
# 6 -26.9529 -7.9913 -20.4126 6.8074 -1.0770 24.8875
#
#
#
# Elastic Compliance Matrix: (Units=1/GPa)
#
#
# Indices 1 2 3 4 5 6 
#
# 1 0.012059 -0.004645 0.000689 -0.005916 -0.008683 0.013376
# 2 -0.004645 0.019667 -0.003817 -0.001057 0.001068 -0.001510
# 3 0.000689 -0.003817 0.011355 -0.005153 -0.009006 0.009854
# 4 -0.005916 -0.001057 -0.005153 0.050174 0.009700 -0.024278
# 5 -0.008683 0.001068 -0.009006 0.009700 0.045345 -0.017138
# 6 0.013376 -0.001510 0.009854 -0.024278 -0.017138 0.068163
#
#
# Mechanical properties :
#
#
# Convention : Reuss Voigt Hill
#
# Bulk Modulus (GPa) = 36.31489 68.18767 52.25128
# Shear Modulus (GPa) = 21.59945 31.26753 26.43349
#
# Velocity S-wave (km/s) = 3.24924 3.90937 3.59449
# Velocity P-wave (km/s) = 5.64154 7.32849 6.53964
#
# Compressibility (1/GPa) = 0.02753691
#
# Stress axis : x y z
#
# Youngs Moduli (GPa) = 82.92550 50.84595 88.06540
#
# Poissons Ratio (x) = 0.23617 -0.06069
# Poissons Ratio (y) = 0.38517 0.33611
# Poissons Ratio (z) = -0.05715 0.19406
#
# Static dielectric constant tensor:
#      x y z
#    x 3.893160 -0.067200 0.233570 
#    y -0.067200 3.666540 -0.150430 
#    z 0.233570 -0.150430 3.874320 
# 
# 
# High freq. dielectric constant tensor:
#      x y z
#    x 1.805040 0.003920 0.015960 
#    y 0.003920 1.790650 -0.008190 
#    z 0.015960 -0.008190 1.806240 
# 
# From -- ./inp_files/179440.got.cif
#   From: 2010.06.25/outbox.cif.g09.slc.cpg/sg2_90_cif.got.tgz:179440.got - 2010.06.27 13:26:56.
