data_PCOD8000828
_publ_section_title
;
Structure prediction by ZEFSAII (Michael W. Deem and Ramdas Pophale) SiO2 
 PCOD8000828
Probable space group: P -1
;
_chemical_formula_sum "Si O2"
_cell_formula_units_Z 16
_cell_length_a 7.941942
_cell_length_b 6.758131
_cell_length_c 15.076891
_cell_angle_alpha 67.294800
_cell_angle_beta 101.515997
_cell_angle_gamma 103.363733
_cell_volume 720.773636
_symmetry_space_group_name_H-M "P -1"
_symmetry_group_IT_number 2
_symmetry_cell_setting 'triclinic'
loop_
_space_group_symop_operation_xyz
x,y,z
-x,-y,-z
loop_
_atom_site_type_symbol
_atom_site_label
_atom_site_fract_x
_atom_site_fract_y
_atom_site_fract_z
Si Si1 0.075698 0.005875 0.152578
Si Si2 0.533444 0.726583 0.111643
Si Si3 0.398502 0.116946 0.712980
Si Si4 0.217043 0.919859 0.000073
Si Si5 0.954298 0.764272 0.351843
Si Si6 0.242783 0.608766 0.500721
Si Si7 0.402583 0.259755 0.237068
Si Si8 0.404444 0.417095 0.398766
O O1 0.015787 0.809650 0.249386
O O2 0.127193 0.883925 0.092229
O O3 0.232874 0.182361 0.174418
O O4 0.921474 0.136561 0.085085
O O5 0.566180 0.869876 0.180229
O O6 0.356519 0.759575 0.037776
O O7 0.523753 0.471833 0.171883
O O8 0.691540 0.825118 0.045935
O O9 0.191263 0.082524 0.671923
O O10 0.499279 0.334835 0.642543
O O11 0.473091 0.917858 0.712518
O O12 0.857640 0.515880 0.403237
O O13 0.131834 0.795918 0.425261
O O14 0.251508 0.429474 0.452440
O O15 0.441728 0.713607 0.529060
O O16 0.329268 0.313227 0.316715
#
# Coordination Sequence:
#
# PCOD8000828 Si02
#       8
#     2   2   2   2   2   2   2   2
#     4  11  22  39  61  96 127 166 205 268 315 368
#     4  10  21  42  65  88 121 174 212 255 313 372
#     4  10  19  40  62  90 128 169 206 260 311 371
#     4  10  22  41  66  89 129 166 211 258 319 367
#     4  10  20  37  65  86 129 167 201 261 315 368
#     4   9  19  39  66  94 119 168 215 252 319 383
#     4  11  23  38  67  95 125 168 214 255 318 375
#     4   9  20  40  65  92 124 166 212 261 313 377
#
# _framework density 22.198371000000002
#
# number of rings (size 3 to 8) (size 9 to 14) (size 15 to 20)
#    0.000    2.000    2.500    0.750    1.750    1.000 
#    0.000   18.750    0.000    0.000    0.000    0.000 
#    0.000    0.000    0.000    0.000    0.000    0.000 
#
# Total GULP energy -198228.867481 kJ/mol
# GULP energy per Si atom -12389.304218 kJ/mol
# Density = 2.214785 g / cm^3
# Si number density = 22.198371 Si / 1000 Ang^3
#
#
#
# Elastic Constant Matrix: (Units=GPa)
#
#
# Indices 1 2 3 4 5 6 
#
# 1 109.1565 23.9071 42.3123 -6.3352 20.3365 -2.0140
# 2 23.9071 62.6739 31.2508 -5.0782 8.7618 -4.5891
# 3 42.3123 31.2508 122.6045 3.6482 1.0342 -1.2125
# 4 -6.3352 -5.0782 3.6482 17.0625 0.1471 4.2708
# 5 20.3365 8.7618 1.0342 0.1471 56.8196 2.4466
# 6 -2.0140 -4.5891 -1.2125 4.2708 2.4466 11.1773
#
#
#
# Elastic Compliance Matrix: (Units=1/GPa)
#
#
# Indices 1 2 3 4 5 6 
#
# 1 0.012046 -0.001737 -0.003822 0.004785 -0.003990 0.000088
# 2 -0.001737 0.020123 -0.004589 0.004795 -0.002677 0.006205
# 3 -0.003822 -0.004589 0.010784 -0.005144 0.001886 0.000150
# 4 0.004785 0.004795 -0.005144 0.068859 -0.001516 -0.023706
# 5 -0.003990 -0.002677 0.001886 -0.001516 0.019640 -0.005333
# 6 0.000088 0.006205 0.000150 -0.023706 -0.005333 0.102272
#
#
# Mechanical properties :
#
#
# Convention : Reuss Voigt Hill
#
# Bulk Modulus (GPa) = 44.13613 54.37504 49.25558
# Shear Modulus (GPa) = 19.11522 30.14286 24.62904
#
# Velocity S-wave (km/s) = 2.93765 3.68895 3.33453
# Velocity P-wave (km/s) = 5.60644 6.53396 6.08789
#
# Compressibility (1/GPa) = 0.02265718
#
# Stress axis : x y z
#
# Youngs Moduli (GPa) = 83.01525 49.69344 92.73296
#
# Poissons Ratio (x) = 0.08632 0.35445
# Poissons Ratio (y) = 0.14420 0.42551
# Poissons Ratio (z) = 0.31731 0.22802
#
# Static dielectric constant tensor:
#      x y z
#    x 4.447430 0.013110 0.124240 
#    y 0.013110 3.287640 0.093890 
#    z 0.124240 0.093890 4.491740 
# 
# 
# High freq. dielectric constant tensor:
#      x y z
#    x 1.889950 0.001430 0.004480 
#    y 0.001430 1.797920 0.003550 
#    z 0.004480 0.003550 1.905610 
# 
# From -- ./inp_files/552388.got.cif
#   From: 2010.06.25/outbox.cif.g09.slc.cpg/sg2_277_cif.got.tgz:552388.got - 2010.06.27 13:26:56.
