data_PCOD8000658
_publ_section_title
;
Structure prediction by ZEFSAII (Michael W. Deem and Ramdas Pophale) SiO2 
 PCOD8000658
Probable space group: P -1
;
_chemical_formula_sum "Si O2"
_cell_formula_units_Z 16
_cell_length_a 19.210984
_cell_length_b 9.506956
_cell_length_c 8.871169
_cell_angle_alpha 70.738673
_cell_angle_beta 55.250073
_cell_angle_gamma 116.340041
_cell_volume 729.208274
_symmetry_space_group_name_H-M "P -1"
_symmetry_group_IT_number 2
_symmetry_cell_setting 'triclinic'
loop_
_space_group_symop_operation_xyz
x,y,z
-x,-y,-z
loop_
_atom_site_type_symbol
_atom_site_label
_atom_site_fract_x
_atom_site_fract_y
_atom_site_fract_z
Si Si1 0.578888 0.452880 0.905785
Si Si2 0.113260 0.836464 0.380882
Si Si3 0.887211 0.025107 0.376653
Si Si4 0.463928 0.903097 0.751009
Si Si5 0.164325 0.620689 0.269321
Si Si6 0.650084 0.388588 0.551996
Si Si7 0.051284 0.286934 0.792239
Si Si8 0.119625 0.135277 0.079164
O O1 0.555781 0.349273 0.803393
O O2 0.751414 0.721901 0.621205
O O3 0.500000 0.500000 0.000000
O O4 0.517203 0.246663 0.181019
O O5 0.159323 0.909879 0.473667
O O6 0.215528 0.863601 0.155671
O O7 0.943470 0.543054 0.682570
O O8 0.139746 0.036992 0.209888
O O9 0.020307 0.129791 0.263588
O O10 0.946799 0.187431 0.093622
O O11 0.500000 0.000000 0.500000
O O12 0.552707 0.123065 0.687453
O O13 0.294660 0.694918 0.057579
O O14 0.061035 0.430309 0.606241
O O15 0.784534 0.506241 0.430590
O O16 0.715395 0.584501 0.268781
O O17 0.972131 0.033145 0.900409
#
# Coordination Sequence:
#
# PCOD8000658 Si02
#       8
#     2   2   2   2   2   2   2   2
#     4  12  26  45  69 100 135 173 227 275 324 406
#     4  10  23  37  65  96 129 168 212 283 325 388
#     4  11  21  38  68  96 125 163 226 269 332 377
#     4  12  29  46  66  95 138 184 220 266 339 406
#     4  10  23  45  61  90 138 171 216 266 339 384
#     4  11  22  43  70  91 127 180 223 266 335 391
#     4  10  19  40  69  92 121 165 218 273 317 390
#     4  10  19  39  66  95 124 165 220 270 326 384
#
# _framework density 21.941604999999999
#
# number of rings (size 3 to 8) (size 9 to 14) (size 15 to 20)
#    0.000    1.250    3.750    2.250    7.000    1.500 
#    2.250    1.250    0.000    0.000    0.000    0.000 
#    0.000    0.000    0.000    0.000    0.000    0.000 
#
# Total GULP energy -198293.134321 kJ/mol
# GULP energy per Si atom -12393.320895 kJ/mol
# Density = 2.189167 g / cm^3
# Si number density = 21.941605 Si / 1000 Ang^3
#
#
#
# Elastic Constant Matrix: (Units=GPa)
#
#
# Indices 1 2 3 4 5 6 
#
# 1 66.2317 36.5052 38.6268 6.7699 6.6750 -17.5216
# 2 36.5052 118.0358 35.9235 6.1650 9.2569 5.2802
# 3 38.6268 35.9235 98.6488 4.3504 18.7044 -11.1112
# 4 6.7699 6.1650 4.3504 27.4820 4.0503 1.1580
# 5 6.6750 9.2569 18.7044 4.0503 26.2553 1.1421
# 6 -17.5216 5.2802 -11.1112 1.1580 1.1421 26.3925
#
#
#
# Elastic Compliance Matrix: (Units=1/GPa)
#
#
# Indices 1 2 3 4 5 6 
#
# 1 0.027797 -0.007286 -0.005982 -0.004974 -0.000236 0.017622
# 2 -0.007286 0.011822 -0.002309 -0.000104 -0.000300 -0.008157
# 3 -0.005982 -0.002309 0.015337 0.000729 -0.008847 0.003298
# 4 -0.004974 -0.000104 0.000729 0.038438 -0.004954 -0.004447
# 5 -0.000236 -0.000300 -0.008847 -0.004954 0.045562 -0.005575
# 6 0.017622 -0.008157 0.003298 -0.004447 -0.005575 0.053046
#
#
# Mechanical properties :
#
#
# Convention : Reuss Voigt Hill
#
# Bulk Modulus (GPa) = 42.01528 56.11416 49.06472
# Shear Modulus (GPa) = 21.63637 27.48336 24.55986
#
# Velocity S-wave (km/s) = 3.14361 3.54300 3.34927
# Velocity P-wave (km/s) = 5.68917 6.50899 6.11284
#
# Compressibility (1/GPa) = 0.02380087
#
# Stress axis : x y z
#
# Youngs Moduli (GPa) = 35.97451 84.58677 65.20127
#
# Poissons Ratio (x) = 0.61633 0.39004
# Poissons Ratio (y) = 0.26213 0.15058
# Poissons Ratio (z) = 0.21520 0.19535
#
# Static dielectric constant tensor:
#      x y z
#    x 3.757230 0.039560 0.189640 
#    y 0.039560 4.067920 0.011410 
#    z 0.189640 0.011410 4.014800 
# 
# 
# High freq. dielectric constant tensor:
#      x y z
#    x 1.850150 0.004120 0.012410 
#    y 0.004120 1.871760 -0.001230 
#    z 0.012410 -0.001230 1.854810 
# 
# From -- ./inp_files/271490.got.cif
#   From: 2010.06.25/outbox.cif.g09.slc.cpg/sg2_136_cif.got.tgz:271490.got - 2010.06.27 13:26:56.
