data_PCOD8000237
_publ_section_title
;
Structure prediction by ZEFSAII (Michael W. Deem and Ramdas Pophale) SiO2 
 PCOD8000237
Probable space group: P 1
;
_chemical_formula_sum "Si O2"
_cell_formula_units_Z 8
_cell_length_a 7.941779
_cell_length_b 4.998894
_cell_length_c 15.992037
_cell_angle_alpha 89.958185
_cell_angle_beta 146.142224
_cell_angle_gamma 100.906255
_cell_volume 332.833105
_symmetry_space_group_name_H-M "P 1"
_symmetry_group_IT_number 1
_symmetry_cell_setting 'triclinic'
loop_
_space_group_symop_operation_xyz
x,y,z
loop_
_atom_site_type_symbol
_atom_site_label
_atom_site_fract_x
_atom_site_fract_y
_atom_site_fract_z
Si Si1 0.391990 0.449020 0.621800
Si Si2 0.795221 0.063752 0.294933
Si Si3 0.800366 0.084945 0.810063
Si Si4 0.936188 0.274024 0.577605
Si Si5 0.181645 0.167872 0.127934
Si Si6 0.650516 0.704423 0.381762
Si Si7 0.720408 0.875785 0.072488
Si Si8 0.308122 0.236343 0.888148
O O1 0.683880 0.333674 0.724930
O O2 0.108016 0.346430 0.435623
O O3 0.253944 0.312854 0.654421
O O4 0.524519 0.787468 0.678404
O O5 0.476605 0.106046 0.203607
O O6 0.840218 0.811171 0.371569
O O7 0.776294 0.988946 0.190365
O O8 0.131474 0.109891 0.901198
O O9 0.886233 0.127496 0.943269
O O10 0.826643 0.541740 0.513158
O O11 0.032609 0.259819 0.712590
O O12 0.649854 0.982378 0.433911
O O13 0.297607 0.490799 0.211577
O O14 0.045430 0.961451 0.151511
O O15 0.575937 0.538449 0.015271
O O16 0.481065 0.016789 0.929139
#
# Coordination Sequence:
#
# PCOD8000237 Si02
#       8
#     1   1   1   1   1   1   1   1
#     4  11  24  44  68 105 138 193 234 293 362 426
#     4  11  26  49  76 106 153 185 242 302 361 433
#     4  12  26  43  74 102 146 190 240 291 364 422
#     4  11  23  43  72  98 148 187 233 293 363 422
#     4  12  26  47  77 107 145 195 240 296 365 433
#     4  11  23  43  73 102 139 195 232 293 360 424
#     4  12  28  45  76 109 142 194 245 298 360 430
#     4  12  26  48  68 111 151 185 246 306 351 434
#
# _framework density 24.036069999999999
#
# number of rings (size 3 to 8) (size 9 to 14) (size 15 to 20)
#    0.000    0.500    3.750    5.250    3.500    2.000 
#    0.000    0.000    2.750    0.000    0.000    0.000 
#    0.000    0.000    0.000    0.000    0.000    0.000 
#
# Total GULP energy -99179.061644 kJ/mol
# GULP energy per Si atom -12397.382706 kJ/mol
# Density = 2.398136 g / cm^3
# Si number density = 24.036070 Si / 1000 Ang^3
#
#
#
# Elastic Constant Matrix: (Units=GPa)
#
#
# Indices 1 2 3 4 5 6 
#
# 1 90.0939 3.8324 23.4666 7.8692 -4.1706 14.9678
# 2 3.8324 98.3057 25.5800 13.7525 -1.5942 5.1061
# 3 23.4666 25.5800 104.7507 12.3450 -10.3019 10.8318
# 4 7.8692 13.7525 12.3450 56.9413 1.1429 6.7935
# 5 -4.1706 -1.5942 -10.3019 1.1429 39.1496 -7.8834
# 6 14.9678 5.1061 10.8318 6.7935 -7.8834 31.0167
#
#
#
# Elastic Compliance Matrix: (Units=1/GPa)
#
#
# Indices 1 2 3 4 5 6 
#
# 1 0.012613 0.000488 -0.002344 -0.000719 -0.000293 -0.005265
# 2 0.000488 0.011143 -0.002525 -0.002112 -0.000256 -0.000791
# 3 -0.002344 -0.002525 0.011234 -0.001372 0.002346 -0.001479
# 4 -0.000719 -0.002112 -0.001372 0.018912 -0.001764 -0.003417
# 5 -0.000293 -0.000256 0.002346 -0.001764 0.027529 0.006747
# 6 -0.005265 -0.000791 -0.001479 -0.003417 0.006747 0.037892
#
#
# Mechanical properties :
#
#
# Convention : Reuss Voigt Hill
#
# Bulk Modulus (GPa) = 38.12955 44.32315 41.22635
# Shear Modulus (GPa) = 36.54231 41.43960 38.99095
#
# Velocity S-wave (km/s) = 3.90335 4.15668 4.03201
# Velocity P-wave (km/s) = 6.01770 6.44342 6.23420
#
# Compressibility (1/GPa) = 0.02622638
#
# Stress axis : x y z
#
# Youngs Moduli (GPa) = 79.28064 89.74524 89.01849
#
# Poissons Ratio (x) = -0.04376 0.20869
# Poissons Ratio (y) = -0.03866 0.22476
# Poissons Ratio (z) = 0.18586 0.22659
#
# Static dielectric constant tensor:
#      x y z
#    x 4.103550 0.069980 -0.095120 
#    y 0.069980 4.377120 0.117460 
#    z -0.095120 0.117460 4.327810 
# 
# 
# High freq. dielectric constant tensor:
#      x y z
#    x 1.938510 0.001240 -0.004110 
#    y 0.001240 1.963140 0.004370 
#    z -0.004110 0.004370 1.964580 
# 
# From -- ./inp_files/7403.got.cif
#   From: 2010.03.12/outbox.cif.g09.slc.cpg/sg1_4_cif.got.tgz:7403.got - 2010.03.29 11:57:58.
