data_PCOD8000219
_publ_section_title
;
Structure prediction by ZEFSAII (Michael W. Deem and Ramdas Pophale) SiO2 
 PCOD8000219
Probable space group: P 1
;
_chemical_formula_sum "Si O2"
_cell_formula_units_Z 6
_cell_length_a 13.771704
_cell_length_b 5.256694
_cell_length_c 5.256194
_cell_angle_alpha 97.679077
_cell_angle_beta 127.637758
_cell_angle_gamma 100.220154
_cell_volume 281.887321
_symmetry_space_group_name_H-M "P 1"
_symmetry_group_IT_number 1
_symmetry_cell_setting 'triclinic'
loop_
_space_group_symop_operation_xyz
x,y,z
loop_
_atom_site_type_symbol
_atom_site_label
_atom_site_fract_x
_atom_site_fract_y
_atom_site_fract_z
Si Si1 0.109840 0.989650 0.570410
Si Si2 0.609961 0.490346 0.571031
Si Si3 0.393629 0.057731 0.921993
Si Si4 0.893515 0.557271 0.921111
Si Si5 0.001643 0.448829 0.570074
Si Si6 0.501923 0.949650 0.571256
O O1 0.001726 0.857620 0.161659
O O2 0.097917 0.761164 0.738631
O O3 0.086397 0.249776 0.693579
O O4 0.251715 0.085330 0.684678
O O5 0.501632 0.358327 0.162273
O O6 0.598081 0.262060 0.739541
O O7 0.586808 0.750815 0.694598
O O8 0.751693 0.585361 0.684454
O O9 0.405784 0.877452 0.162516
O O10 0.416996 0.911458 0.684972
O O11 0.905642 0.376725 0.161379
O O12 0.916555 0.410969 0.683347
#
# Coordination Sequence:
#
# PCOD8000219 Si02
#       6
#     1   1   1   1   1   1
#     4  10  26  40  66  90 126 160 206 250 306 360
#     4  10  26  40  66  90 126 160 206 250 306 360
#     4  10  26  40  66  90 126 160 206 250 306 360
#     4  10  26  40  66  90 126 160 206 250 306 360
#     4  10  26  40  66  90 126 160 206 250 306 360
#     4  10  26  40  66  90 126 160 206 250 306 360
#
# _framework density 21.285102999999999
#
# number of rings (size 3 to 8) (size 9 to 14) (size 15 to 20)
#    2.000    0.000    0.000    0.000   14.000    0.000 
#    0.000    0.000    0.000    0.000    0.000    0.000 
#    0.000    0.000    0.000    0.000    0.000    0.000 
#
# Total GULP energy -74345.132928 kJ/mol
# GULP energy per Si atom -12390.855488 kJ/mol
# Density = 2.123666 g / cm^3
# Si number density = 21.285103 Si / 1000 Ang^3
#
#
#
# Elastic Constant Matrix: (Units=GPa)
#
#
# Indices 1 2 3 4 5 6 
#
# 1 224.0265 70.1285 89.4131 -4.9373 4.3527 -39.5176
# 2 70.1285 145.6538 34.7668 -8.3989 6.7289 -33.8277
# 3 89.4131 34.7668 96.7123 3.6821 11.1402 0.6935
# 4 -4.9373 -8.3989 3.6821 13.9154 6.9185 4.7843
# 5 4.3527 6.7289 11.1402 6.9185 57.1979 -4.1227
# 6 -39.5176 -33.8277 0.6935 4.7843 -4.1227 35.1568
#
#
#
# Elastic Compliance Matrix: (Units=1/GPa)
#
#
# Indices 1 2 3 4 5 6 
#
# 1 0.010733 0.000200 -0.010358 0.001429 0.001905 0.012490
# 2 0.000200 0.010198 -0.004049 0.004142 -0.000241 0.009525
# 3 -0.010358 -0.004049 0.022080 -0.004760 -0.003595 -0.015748
# 4 0.001429 0.004142 -0.004760 0.083612 -0.010280 -0.006898
# 5 0.001905 -0.000241 -0.003595 -0.010280 0.019720 0.005691
# 6 0.012490 0.009525 -0.015748 -0.006898 0.005691 0.053565
#
#
# Mechanical properties :
#
#
# Convention : Reuss Voigt Hill
#
# Bulk Modulus (GPa) = 68.50973 95.00104 81.75538
# Shear Modulus (GPa) = 21.44182 39.39297 30.41740
#
# Velocity S-wave (km/s) = 3.17734 4.30668 3.78437
# Velocity P-wave (km/s) = 6.76145 8.33424 7.58870
#
# Compressibility (1/GPa) = 0.01459647
#
# Stress axis : x y z
#
# Youngs Moduli (GPa) = 93.17123 98.05815 45.28947
#
# Poissons Ratio (x) = -0.01960 0.46911
# Poissons Ratio (y) = -0.01863 0.18338
# Poissons Ratio (z) = 0.96508 0.39705
#
# Static dielectric constant tensor:
#      x y z
#    x 3.671220 -0.071330 0.021840 
#    y -0.071330 3.541590 -0.009340 
#    z 0.021840 -0.009340 3.511270 
# 
# 
# High freq. dielectric constant tensor:
#      x y z
#    x 1.839140 -0.011240 0.003450 
#    y -0.011240 1.818520 -0.001480 
#    z 0.003450 -0.001480 1.813920 
# 
# From -- ./inp_files/208.got.cif
#   From: 2010.03.12/outbox.cif.g09.slc.cpg/sg1_1_cif.got.tgz:208.got - 2010.03.29 11:57:58.
