data_PCOD8000286
_publ_section_title
;
Structure prediction by ZEFSAII (Michael W. Deem and Ramdas Pophale) SiO2 
 PCOD8000286
Probable space group: P 1
;
_chemical_formula_sum "Si O2"
_cell_formula_units_Z 8
_cell_length_a 9.068992
_cell_length_b 9.068976
_cell_length_c 8.371039
_cell_angle_alpha 113.113217
_cell_angle_beta 113.113076
_cell_angle_gamma 47.056353
_cell_volume 455.461603
_symmetry_space_group_name_H-M "P 1"
_symmetry_group_IT_number 1
_symmetry_cell_setting 'triclinic'
loop_
_space_group_symop_operation_xyz
x,y,z
loop_
_atom_site_type_symbol
_atom_site_label
_atom_site_fract_x
_atom_site_fract_y
_atom_site_fract_z
Si Si1 0.729960 0.759840 0.324960
Si Si2 0.364930 0.978722 0.486587
Si Si3 0.410880 0.436164 0.643531
Si Si4 0.542231 0.156023 0.839462
Si Si5 0.439408 0.053202 0.056207
Si Si6 0.146048 0.343754 0.324963
Si Si7 0.822367 0.024676 0.643528
Si Si8 0.260744 0.874542 0.701425
O O1 0.840877 0.844265 0.485148
O O2 0.902510 0.516301 0.267003
O O3 0.551388 0.799144 0.378958
O O4 0.630565 0.871351 0.162097
O O5 0.448211 0.062004 0.672315
O O6 0.185353 0.165180 0.378959
O O7 0.277769 0.891561 0.524446
O O8 0.412244 0.390457 0.815906
O O9 0.230466 0.454675 0.485154
O O10 0.389012 0.638186 0.700873
O O11 0.628263 0.242061 0.578154
O O12 0.776663 0.026037 0.815902
O O13 0.526972 0.140762 0.015712
O O14 0.257564 0.244361 0.162105
O O15 0.350235 0.964040 0.877993
O O16 0.024387 0.002810 0.700868
#
# Coordination Sequence:
#
# PCOD8000286 Si02
#       8
#     1   1   1   1   1   1   1   1
#     4  10  18  36  59  76 105 150 178 210 264 327
#     4   8  18  34  54  82 106 133 187 222 250 321
#     4   9  18  35  58  79 104 140 186 215 255 319
#     4   7  16  36  52  74 108 142 171 223 250 316
#     4  10  20  36  52  82 117 129 179 228 263 311
#     4  10  18  36  59  76 105 150 178 210 264 327
#     4   9  18  35  58  79 104 140 186 215 255 319
#     4  11  20  34  60  82 107 138 173 233 273 292
#
# _framework density 17.564599999999999
#
# number of rings (size 3 to 8) (size 9 to 14) (size 15 to 20)
#    0.750    2.000    3.750    0.000    0.000    2.000 
#    2.250    7.500    0.000    0.000    0.000    0.000 
#    0.000    0.000    0.000    0.000    0.000    0.000 
#
# Total GULP energy -99106.240191 kJ/mol
# GULP energy per Si atom -12388.280024 kJ/mol
# Density = 1.752462 g / cm^3
# Si number density = 17.564600 Si / 1000 Ang^3
#
#
#
# Elastic Constant Matrix: (Units=GPa)
#
#
# Indices 1 2 3 4 5 6 
#
# 1 110.6369 68.0984 44.9490 -9.1694 -31.5483 8.4150
# 2 68.0984 125.9067 37.5537 -15.4587 -21.2489 -17.5260
# 3 44.9490 37.5537 74.1221 -12.3319 -26.4380 4.4016
# 4 -9.1694 -15.4587 -12.3319 12.2593 10.2679 -5.5025
# 5 -31.5483 -21.2489 -26.4380 10.2679 29.4889 -1.8226
# 6 8.4150 -17.5260 4.4016 -5.5025 -1.8226 29.6616
#
#
#
# Elastic Compliance Matrix: (Units=1/GPa)
#
#
# Indices 1 2 3 4 5 6 
#
# 1 0.025727 -0.015940 -0.003563 -0.033185 0.023105 -0.020925
# 2 -0.015940 0.022820 -0.002125 0.037426 -0.014038 0.024401
# 3 -0.003563 -0.002125 0.022246 0.005829 0.012467 -0.001699
# 4 -0.033185 0.037426 0.005829 0.193979 -0.066986 0.062532
# 5 0.023105 -0.014038 0.012467 -0.066986 0.081525 -0.024117
# 6 -0.020925 0.024401 -0.001699 0.062532 -0.024117 0.064438
#
#
# Mechanical properties :
#
#
# Convention : Reuss Voigt Hill
#
# Bulk Modulus (GPa) = 36.31389 67.98532 52.14960
# Shear Modulus (GPa) = 10.79517 24.95292 17.87405
#
# Velocity S-wave (km/s) = 2.48180 3.77322 3.19347
# Velocity P-wave (km/s) = 5.37883 7.60085 6.58425
#
# Compressibility (1/GPa) = 0.02753768
#
# Stress axis : x y z
#
# Youngs Moduli (GPa) = 38.86987 43.82104 44.95249
#
# Poissons Ratio (x) = 0.69850 0.16015
# Poissons Ratio (y) = 0.61958 0.09552
# Poissons Ratio (z) = 0.13848 0.09312
#
# Static dielectric constant tensor:
#      x y z
#    x 3.397670 0.084000 -0.336680 
#    y 0.084000 3.256680 -0.157000 
#    z -0.336680 -0.157000 3.147350 
# 
# 
# High freq. dielectric constant tensor:
#      x y z
#    x 1.671840 -0.002450 -0.012470 
#    y -0.002450 1.675950 -0.005820 
#    z -0.012470 -0.005820 1.658620 
# 
# From -- ./inp_files/3692.got.cif
#   From: 2010.03.12/outbox.cif.g09.slc.cpg/sg1_2_cif.got.tgz:3692.got - 2010.03.29 11:57:58.
