data_PCOD8000946
_publ_section_title
;
Structure prediction by ZEFSAII (Michael W. Deem and Ramdas Pophale) SiO2 
 PCOD8000946
Probable space group: P -1
;
_chemical_formula_sum "Si O2"
_cell_formula_units_Z 14
_cell_length_a 8.339280
_cell_length_b 20.851799
_cell_length_c 9.342502
_cell_angle_alpha 138.778768
_cell_angle_beta 100.206439
_cell_angle_gamma 52.367835
_cell_volume 713.292499
_symmetry_space_group_name_H-M "P -1"
_symmetry_group_IT_number 2
_symmetry_cell_setting 'triclinic'
loop_
_space_group_symop_operation_xyz
x,y,z
-x,-y,-z
loop_
_atom_site_type_symbol
_atom_site_label
_atom_site_fract_x
_atom_site_fract_y
_atom_site_fract_z
Si Si1 0.137394 0.864058 0.198480
Si Si2 0.913289 0.132966 0.130916
Si Si3 0.923156 0.569039 0.259444
Si Si4 0.324888 0.313752 0.077218
Si Si5 0.235772 0.159193 0.212790
Si Si6 0.366173 0.401280 0.511626
Si Si7 0.975486 0.723218 0.938170
O O1 0.414904 0.778103 0.103056
O O2 0.066848 0.787829 0.120610
O O3 0.042833 0.908957 0.098145
O O4 0.000000 0.000000 0.500000
O O5 0.648994 0.290406 0.383454
O O6 0.073489 0.149090 0.243391
O O7 0.000000 0.000000 0.000000
O O8 0.800095 0.729132 0.508502
O O9 0.726887 0.581758 0.315722
O O10 0.000000 0.500000 0.000000
O O11 0.155163 0.465515 0.224823
O O12 0.212411 0.252542 0.943829
O O13 0.318073 0.333936 0.280771
O O14 0.156436 0.210415 0.123005
O O15 0.500000 0.000000 0.000000
O O16 0.228858 0.554599 0.682567
#
# Coordination Sequence:
#
# PCOD8000946 Si02
#       7
#     2   2   2   2   2   2   2
#     4  10  24  39  60  91 124 157 204 263 304 356
#     4  10  23  39  62  87 118 165 202 249 305 370
#     4  11  22  38  61  95 122 153 202 262 316 351
#     4  10  20  39  68  84 119 163 203 256 296 375
#     4  11  22  37  63  88 124 163 204 251 306 376
#     4  10  19  40  67  86 115 158 212 249 294 378
#     4  10  20  39  65  89 112 164 216 240 302 374
#
# _framework density 19.627292000000001
#
# number of rings (size 3 to 8) (size 9 to 14) (size 15 to 20)
#    0.000    1.714    2.857    1.714    4.000    5.714 
#    5.143    0.714    0.000    0.000    0.000    0.000 
#    0.000    0.000    0.000    0.000    0.000    0.000 
#
# Total GULP energy -173446.118741 kJ/mol
# GULP energy per Si atom -12389.008482 kJ/mol
# Density = 1.958262 g / cm^3
# Si number density = 19.627292 Si / 1000 Ang^3
#
#
#
# Elastic Constant Matrix: (Units=GPa)
#
#
# Indices 1 2 3 4 5 6 
#
# 1 163.7520 49.8503 77.5714 20.5103 -0.5732 -3.2278
# 2 49.8503 83.4493 53.8996 28.2215 -9.5472 -0.6651
# 3 77.5714 53.8996 152.9222 14.6137 -4.3377 -1.3312
# 4 20.5103 28.2215 14.6137 38.9469 6.0845 -3.9647
# 5 -0.5732 -9.5472 -4.3377 6.0845 30.3962 8.8052
# 6 -3.2278 -0.6651 -1.3312 -3.9647 8.8052 26.1779
#
#
#
# Elastic Compliance Matrix: (Units=1/GPa)
#
#
# Indices 1 2 3 4 5 6 
#
# 1 0.008696 -0.002878 -0.003339 -0.000911 -0.001368 0.001151
# 2 -0.002878 0.023826 -0.005096 -0.016347 0.011848 -0.006470
# 3 -0.003339 -0.005096 0.009825 0.001943 -0.000802 0.000522
# 4 -0.000911 -0.016347 0.001943 0.040972 -0.016341 0.011273
# 5 -0.001368 0.011848 -0.000802 -0.016341 0.044808 -0.017455
# 6 0.001151 -0.006470 0.000522 0.011273 -0.017455 0.045783
#
#
# Mechanical properties :
#
#
# Convention : Reuss Voigt Hill
#
# Bulk Modulus (GPa) = 50.70353 84.75181 67.72767
# Shear Modulus (GPa) = 24.61714 33.69102 29.15408
#
# Velocity S-wave (km/s) = 3.54535 4.14761 3.85825
# Velocity P-wave (km/s) = 6.53059 8.13703 7.37766
#
# Compressibility (1/GPa) = 0.01972249
#
# Stress axis : x y z
#
# Youngs Moduli (GPa) = 114.98890 41.97033 101.77814
#
# Poissons Ratio (x) = 0.12078 0.33982
# Poissons Ratio (y) = 0.33091 0.51869
# Poissons Ratio (z) = 0.38392 0.21389
#
# Static dielectric constant tensor:
#      x y z
#    x 3.997420 -0.062060 -0.023210 
#    y -0.062060 3.725280 0.276550 
#    z -0.023210 0.276550 3.387610 
# 
# 
# High freq. dielectric constant tensor:
#      x y z
#    x 1.781410 0.002530 -0.004920 
#    y 0.002530 1.757470 0.022730 
#    z -0.004920 0.022730 1.750170 
# 
# From -- ./inp_files/149320.got.cif
#   From: 2010.06.25/outbox.cif.g09.slc.cpg/sg2_75_cif.got.tgz:149320.got - 2010.06.27 13:26:56.
