data_PCOD8000384
_publ_section_title
;
Structure prediction by ZEFSAII (Michael W. Deem and Ramdas Pophale) SiO2 
 PCOD8000384
Probable space group: P -1
;
_chemical_formula_sum "Si O2"
_cell_formula_units_Z 16
_cell_length_a 8.587800
_cell_length_b 15.392908
_cell_length_c 15.234870
_cell_angle_alpha 36.513645
_cell_angle_beta 140.733480
_cell_angle_gamma 132.883325
_cell_volume 749.312327
_symmetry_space_group_name_H-M "P -1"
_symmetry_group_IT_number 2
_symmetry_cell_setting 'triclinic'
loop_
_space_group_symop_operation_xyz
x,y,z
-x,-y,-z
loop_
_atom_site_type_symbol
_atom_site_label
_atom_site_fract_x
_atom_site_fract_y
_atom_site_fract_z
Si Si1 0.913690 0.739380 0.287505
Si Si2 0.362635 0.440000 0.165413
Si Si3 0.040916 0.197401 0.322465
Si Si4 0.236826 0.937132 0.541111
Si Si5 0.810072 0.973653 0.745771
Si Si6 0.020498 0.328393 0.950104
Si Si7 0.357707 0.729965 0.023507
Si Si8 0.068513 0.493620 0.658908
O O1 0.645453 0.792208 0.115104
O O2 0.997622 0.654556 0.307975
O O3 0.103105 0.890498 0.261081
O O4 0.900785 0.619627 0.458873
O O5 0.334304 0.607416 0.035972
O O6 0.651688 0.423562 0.304425
O O7 0.213361 0.351427 0.252000
O O8 0.252870 0.383533 0.069975
O O9 0.218954 0.074997 0.485334
O O10 0.936768 0.200218 0.374798
O O11 0.808432 0.157194 0.184202
O O12 0.520559 0.910550 0.683642
O O13 0.134619 0.963196 0.379114
O O14 0.956956 0.836880 0.939533
O O15 0.761448 0.327176 0.889154
O O16 0.024649 0.444882 0.779179
#
# Coordination Sequence:
#
# PCOD8000384 Si02
#       8
#     2   2   2   2   2   2   2   2
#     4  10  24  42  60  83 125 169 201 248 294 366
#     4  10  20  39  65  89 121 156 197 257 300 361
#     4  10  19  39  60  91 120 155 198 245 310 353
#     4  10  22  37  62  90 122 154 196 254 305 358
#     4  11  23  40  62  93 127 154 203 254 302 360
#     4  11  22  39  63  95 122 156 203 256 306 353
#     4  10  22  40  60  87 126 160 203 240 303 368
#     4  10  23  42  63  89 121 161 210 246 300 360
#
# _framework density 21.352912
#
# number of rings (size 3 to 8) (size 9 to 14) (size 15 to 20)
#    0.000    1.750    2.500    2.625    5.250    3.500 
#    0.000    3.750    0.000    0.000    0.000    0.000 
#    0.000    0.000    0.000    0.000    0.000    0.000 
#
# Total GULP energy -198339.745934 kJ/mol
# GULP energy per Si atom -12396.234121 kJ/mol
# Density = 2.130431 g / cm^3
# Si number density = 21.352912 Si / 1000 Ang^3
#
#
#
# Elastic Constant Matrix: (Units=GPa)
#
#
# Indices 1 2 3 4 5 6 
#
# 1 84.9549 0.7530 19.5969 1.6492 -19.0063 3.3954
# 2 0.7530 79.1458 0.5629 -1.0617 -2.8947 -9.3770
# 3 19.5969 0.5629 64.2177 -4.4746 -7.1316 2.4328
# 4 1.6492 -1.0617 -4.4746 13.8240 -0.2050 3.1802
# 5 -19.0063 -2.8947 -7.1316 -0.2050 41.2945 -6.6691
# 6 3.3954 -9.3770 2.4328 3.1802 -6.6691 20.9448
#
#
#
# Elastic Compliance Matrix: (Units=1/GPa)
#
#
# Indices 1 2 3 4 5 6 
#
# 1 0.014005 0.000135 -0.003850 -0.002947 0.005865 0.000552
# 2 0.000135 0.013508 -0.000229 -0.000586 0.002064 0.006799
# 3 -0.003850 -0.000229 0.017391 0.006594 0.000890 -0.002216
# 4 -0.002947 -0.000586 0.006594 0.077736 -0.001969 -0.012981
# 5 0.005865 0.002064 0.000890 -0.001969 0.028708 0.009310
# 6 0.000552 0.006799 -0.002216 -0.012981 0.009310 0.055892
#
#
# Mechanical properties :
#
#
# Convention : Reuss Voigt Hill
#
# Bulk Modulus (GPa) = 27.01483 30.01601 28.51542
# Shear Modulus (GPa) = 21.98119 29.03969 25.51044
#
# Velocity S-wave (km/s) = 3.21194 3.69180 3.46020
# Velocity P-wave (km/s) = 5.14145 5.67980 5.41732
#
# Compressibility (1/GPa) = 0.03701671
#
# Stress axis : x y z
#
# Youngs Moduli (GPa) = 71.40240 74.02788 57.50045
#
# Poissons Ratio (x) = -0.00996 0.22137
# Poissons Ratio (y) = -0.00960 0.01314
# Poissons Ratio (z) = 0.27489 0.01692
#
# Static dielectric constant tensor:
#      x y z
#    x 3.963660 0.010060 0.019110 
#    y 0.010060 3.645010 -0.030560 
#    z 0.019110 -0.030560 3.990610 
# 
# 
# High freq. dielectric constant tensor:
#      x y z
#    x 1.840710 -0.002530 0.003800 
#    y -0.002530 1.815300 -0.006990 
#    z 0.003800 -0.006990 1.838070 
# 
# From -- ./inp_files/503958.got.cif
#   From: 2010.06.25/outbox.cif.g09.slc.cpg/sg2_252_cif.got.tgz:503958.got - 2010.06.27 13:26:56.
