data_PCOD8000961
_publ_section_title
;
Structure prediction by ZEFSAII (Michael W. Deem and Ramdas Pophale) SiO2 
 PCOD8000961
Probable space group: P -1
;
_chemical_formula_sum "Si O2"
_cell_formula_units_Z 16
_cell_length_a 11.914311
_cell_length_b 11.680101
_cell_length_c 11.746604
_cell_angle_alpha 51.179944
_cell_angle_beta 82.031305
_cell_angle_gamma 122.967750
_cell_volume 725.737267
_symmetry_space_group_name_H-M "P -1"
_symmetry_group_IT_number 2
_symmetry_cell_setting 'triclinic'
loop_
_space_group_symop_operation_xyz
x,y,z
-x,-y,-z
loop_
_atom_site_type_symbol
_atom_site_label
_atom_site_fract_x
_atom_site_fract_y
_atom_site_fract_z
Si Si1 0.702765 0.509033 0.470976
Si Si2 0.634491 0.242655 0.247000
Si Si3 0.084692 0.471984 0.159317
Si Si4 0.719527 0.857499 0.227992
Si Si5 0.896053 0.561832 0.212177
Si Si6 0.385037 0.237190 0.218858
Si Si7 0.182593 0.039830 0.594327
Si Si8 0.045987 0.214434 0.515189
O O1 0.724440 0.691912 0.293431
O O2 0.479939 0.268195 0.704657
O O3 0.744418 0.426729 0.422373
O O4 0.859602 0.648585 0.462045
O O5 0.789067 0.491575 0.152575
O O6 0.513274 0.227069 0.197471
O O7 0.500000 0.000000 0.500000
O O8 0.749606 0.281010 0.102501
O O9 0.159123 0.430830 0.267498
O O10 0.964665 0.466147 0.251062
O O11 0.941533 0.238356 0.236726
O O12 0.713045 0.859169 0.363359
O O13 0.913372 0.137293 0.975378
O O14 0.355486 0.232057 0.359540
O O15 0.500000 0.500000 0.000000
O O16 0.186379 0.995318 0.325788
O O17 0.053402 0.049312 0.591609
#
# Coordination Sequence:
#
# PCOD8000961 Si02
#       8
#     2   2   2   2   2   2   2   2
#     4  10  24  44  67  95 129 177 226 264 330 390
#     4  12  25  40  66 101 135 171 218 281 343 398
#     4  11  23  41  66  98 129 175 211 276 347 388
#     4  10  22  44  68  96 125 175 225 277 321 393
#     4  12  25  41  69  94 139 169 222 277 328 396
#     4  11  22  36  64 100 127 169 217 271 336 394
#     4  10  19  40  67  91 131 165 217 279 335 381
#     4  10  22  44  65  91 138 173 215 274 322 407
#
# _framework density 22.046544999999998
#
# number of rings (size 3 to 8) (size 9 to 14) (size 15 to 20)
#    0.000    1.250    1.250    6.000    5.250    0.500 
#    9.000    0.625    0.000    0.000    0.000    0.000 
#    0.000    0.000    0.000    0.000    0.000    0.000 
#
# Total GULP energy -198294.935897 kJ/mol
# GULP energy per Si atom -12393.433494 kJ/mol
# Density = 2.199637 g / cm^3
# Si number density = 22.046545 Si / 1000 Ang^3
#
#
#
# Elastic Constant Matrix: (Units=GPa)
#
#
# Indices 1 2 3 4 5 6 
#
# 1 111.6764 38.2193 35.6196 -3.1772 -7.2033 -3.5980
# 2 38.2193 78.2596 12.5912 6.3401 -8.2011 -2.5547
# 3 35.6196 12.5912 114.6355 2.8329 -0.2545 -3.4794
# 4 -3.1772 6.3401 2.8329 32.9322 -1.8687 -5.3680
# 5 -7.2033 -8.2011 -0.2545 -1.8687 29.7828 0.8399
# 6 -3.5980 -2.5547 -3.4794 -5.3680 0.8399 42.2655
#
#
#
# Elastic Compliance Matrix: (Units=1/GPa)
#
#
# Indices 1 2 3 4 5 6 
#
# 1 0.012012 -0.005385 -0.003181 0.002678 0.001542 0.000745
# 2 -0.005385 0.015987 0.000009 -0.003432 0.002884 0.000015
# 3 -0.003181 0.000009 0.009749 -0.001125 -0.000766 0.000405
# 4 0.002678 -0.003432 -0.001125 0.032120 0.001596 0.003976
# 5 0.001542 0.002884 -0.000766 0.001596 0.034844 -0.000247
# 6 0.000745 0.000015 0.000405 0.003976 -0.000247 0.024267
#
#
# Mechanical properties :
#
#
# Convention : Reuss Voigt Hill
#
# Bulk Modulus (GPa) = 48.46470 53.04797 50.75634
# Shear Modulus (GPa) = 32.68571 35.53886 34.11229
#
# Velocity S-wave (km/s) = 3.85460 4.01932 3.93782
# Velocity P-wave (km/s) = 6.46848 6.75677 6.61420
#
# Compressibility (1/GPa) = 0.02063357
#
# Stress axis : x y z
#
# Youngs Moduli (GPa) = 83.25202 62.54943 102.57388
#
# Poissons Ratio (x) = 0.33685 0.32628
# Poissons Ratio (y) = 0.44834 -0.00093
# Poissons Ratio (z) = 0.26482 -0.00057
#
# Static dielectric constant tensor:
#      x y z
#    x 4.104450 0.001910 -0.137080 
#    y 0.001910 3.900000 -0.047270 
#    z -0.137080 -0.047270 3.963270 
# 
# 
# High freq. dielectric constant tensor:
#      x y z
#    x 1.874340 0.000940 -0.009830 
#    y 0.000940 1.856160 -0.002260 
#    z -0.009830 -0.002260 1.862600 
# 
# From -- ./inp_files/427569.got.cif
#   From: 2010.06.25/outbox.cif.g09.slc.cpg/sg2_214_cif.got.tgz:427569.got - 2010.06.27 13:26:56.
