data_PCOD8000206
_publ_section_title
;
Structure prediction by ZEFSAII (Michael W. Deem and Ramdas Pophale) SiO2 
 PCOD8000206
Probable space group: P 1
;
_chemical_formula_sum "Si O2"
_cell_formula_units_Z 8
_cell_length_a 5.453571
_cell_length_b 11.003189
_cell_length_c 12.050610
_cell_angle_alpha 154.839803
_cell_angle_beta 89.006073
_cell_angle_gamma 92.232824
_cell_volume 306.926879
_symmetry_space_group_name_H-M "P 1"
_symmetry_group_IT_number 1
_symmetry_cell_setting 'triclinic'
loop_
_space_group_symop_operation_xyz
x,y,z
loop_
_atom_site_type_symbol
_atom_site_label
_atom_site_fract_x
_atom_site_fract_y
_atom_site_fract_z
Si Si1 0.795930 0.488010 0.159090
Si Si2 0.937278 0.504828 0.566401
Si Si3 0.324984 0.805682 0.462089
Si Si4 0.884749 0.558530 0.969800
Si Si5 0.199361 0.092276 0.490348
Si Si6 0.211171 0.006346 0.069462
Si Si7 0.542614 0.566449 0.776636
Si Si8 0.067403 0.993016 0.821996
O O1 0.560878 0.617915 0.328391
O O2 0.744174 0.507491 0.044906
O O3 0.063479 0.633977 0.305463
O O4 0.828431 0.162323 0.928878
O O5 0.112027 0.241275 0.346494
O O6 0.667709 0.423245 0.548548
O O7 0.952769 0.669725 0.583696
O O8 0.030099 0.720939 0.842783
O O9 0.278558 0.000014 0.731372
O O10 0.379324 0.993971 0.506508
O O11 0.690286 0.640905 0.948476
O O12 0.095769 0.817176 0.192269
O O13 0.981577 0.251118 0.682878
O O14 0.332932 0.321772 0.598980
O O15 0.468889 0.885188 0.003459
O O16 0.206812 0.122521 0.038052
#
# Coordination Sequence:
#
# PCOD8000206 Si02
#       8
#     1   1   1   1   1   1   1   1
#     4  11  26  49  80 120 164 207 270 336 413 489
#     4  10  26  49  73 114 150 205 268 327 391 477
#     4  11  26  49  80 120 164 207 270 336 413 489
#     4  11  28  50  77 122 162 210 270 334 411 492
#     4  11  28  50  77 122 162 210 270 334 411 492
#     4  10  26  49  73 114 150 205 268 327 391 477
#     4  12  28  50  84 110 166 216 268 332 414 480
#     4  10  24  50  78 112 158 204 276 330 406 480
#
# _framework density 26.064841000000001
#
# number of rings (size 3 to 8) (size 9 to 14) (size 15 to 20)
#    0.750    0.500    1.250    1.500    7.000   12.000 
#    0.000    0.000    0.000    0.000    0.000    0.000 
#    0.000    0.000    0.000    0.000    0.000    0.000 
#
# Total GULP energy -99130.122521 kJ/mol
# GULP energy per Si atom -12391.265315 kJ/mol
# Density = 2.600552 g / cm^3
# Si number density = 26.064841 Si / 1000 Ang^3
#
#
#
# Elastic Constant Matrix: (Units=GPa)
#
#
# Indices 1 2 3 4 5 6 
#
# 1 92.7429 48.6335 45.9677 1.7511 -35.4046 -28.5856
# 2 48.6335 153.7440 44.8102 3.9494 -20.8355 -31.2825
# 3 45.9677 44.8102 133.5030 17.3095 -29.5483 -23.9439
# 4 1.7511 3.9494 17.3095 30.7563 -2.7933 -9.6734
# 5 -35.4046 -20.8355 -29.5483 -2.7933 50.9933 12.8761
# 6 -28.5856 -31.2825 -23.9439 -9.6734 12.8761 36.7318
#
#
#
# Elastic Compliance Matrix: (Units=1/GPa)
#
#
# Indices 1 2 3 4 5 6 
#
# 1 0.019703 -0.002359 -0.002920 0.004627 0.008871 0.009530
# 2 -0.002359 0.008623 -0.001386 0.001371 -0.000106 0.005002
# 3 -0.002920 -0.001386 0.010432 -0.004940 0.002923 0.001022
# 4 0.004627 0.001371 -0.004940 0.038531 0.000075 0.011670
# 5 0.008871 -0.000106 0.002923 0.000075 0.027666 -0.000960
# 6 0.009530 0.005002 0.001022 0.011670 -0.000960 0.042977
#
#
# Mechanical properties :
#
#
# Convention : Reuss Voigt Hill
#
# Bulk Modulus (GPa) = 39.32645 73.20142 56.26393
# Shear Modulus (GPa) = 29.45706 39.73484 34.59595
#
# Velocity S-wave (km/s) = 3.36541 3.90867 3.64717
# Velocity P-wave (km/s) = 5.49745 6.96531 6.27446
#
# Compressibility (1/GPa) = 0.02542818
#
# Stress axis : x y z
#
# Youngs Moduli (GPa) = 50.75244 115.97149 95.86288
#
# Poissons Ratio (x) = 0.27361 0.27988
# Poissons Ratio (y) = 0.11974 0.13286
# Poissons Ratio (z) = 0.14818 0.16072
#
# Static dielectric constant tensor:
#      x y z
#    x 4.388390 -0.131170 -0.098450 
#    y -0.131170 4.950840 0.031150 
#    z -0.098450 0.031150 4.693800 
# 
# 
# High freq. dielectric constant tensor:
#      x y z
#    x 2.023180 -0.009610 -0.009380 
#    y -0.009610 2.063020 -0.000470 
#    z -0.009380 -0.000470 2.047240 
# 
# From -- ./inp_files/426.got.cif
#   From: 2010.03.12/outbox.cif.g09.slc.cpg/sg1_1_cif.got.tgz:426.got - 2010.03.29 11:57:58.
