data_PCOD8000643
_publ_section_title
;
Structure prediction by ZEFSAII (Michael W. Deem and Ramdas Pophale) SiO2 
 PCOD8000643
Probable space group: P -1
;
_chemical_formula_sum "Si O2"
_cell_formula_units_Z 16
_cell_length_a 9.658952
_cell_length_b 15.818610
_cell_length_c 19.187936
_cell_angle_alpha 151.483753
_cell_angle_beta 145.158203
_cell_angle_gamma 34.272081
_cell_volume 737.746400
_symmetry_space_group_name_H-M "P -1"
_symmetry_group_IT_number 2
_symmetry_cell_setting 'triclinic'
loop_
_space_group_symop_operation_xyz
x,y,z
-x,-y,-z
loop_
_atom_site_type_symbol
_atom_site_label
_atom_site_fract_x
_atom_site_fract_y
_atom_site_fract_z
Si Si1 0.561336 0.295216 0.446979
Si Si2 0.083680 0.338023 0.691133
Si Si3 0.272251 0.250230 0.159520
Si Si4 0.308582 0.417869 0.055679
Si Si5 0.942034 0.019111 0.844207
Si Si6 0.443908 0.082890 0.773039
Si Si7 0.389415 0.660913 0.735990
Si Si8 0.435842 0.638674 0.141675
O O1 0.380416 0.308290 0.316185
O O2 0.415034 0.484429 0.569104
O O3 0.846839 0.278540 0.525152
O O4 0.599388 0.112121 0.376867
O O5 0.219714 0.213436 0.723711
O O6 0.302451 0.312649 0.703187
O O7 0.971209 0.560403 0.830356
O O8 0.486798 0.200031 0.150079
O O9 0.174459 0.080841 0.013776
O O10 0.460472 0.428659 0.195892
O O11 0.381715 0.540436 0.116092
O O12 0.408681 0.195724 0.913083
O O13 0.000000 0.500000 0.000000
O O14 0.735237 0.038701 0.833439
O O15 0.805394 0.158026 0.823496
O O16 0.082305 0.795129 0.718403
O O17 0.500000 0.500000 0.000000
#
# Coordination Sequence:
#
# PCOD8000643 Si02
#       8
#     2   2   2   2   2   2   2   2
#     4  11  25  42  64  90 134 183 213 255 329 401
#     4  10  19  39  66  90 122 163 225 254 312 394
#     4  11  21  42  67  91 127 176 218 265 329 390
#     4  12  23  40  70 103 132 161 222 281 323 375
#     4  11  22  41  69  96 130 164 227 272 320 384
#     4  11  23  42  66  95 127 177 214 265 331 389
#     4  11  25  40  60  99 135 166 218 277 321 375
#     4  11  20  42  70  99 123 171 216 271 327 385
#
# _framework density 21.687670000000001
#
# number of rings (size 3 to 8) (size 9 to 14) (size 15 to 20)
#    0.000    1.000    3.750    5.250    0.000    4.500 
#    0.000    2.500    0.000    8.250    0.000    0.000 
#    0.000    0.000    0.000    0.000    0.000    0.000 
#
# Total GULP energy -198389.716349 kJ/mol
# GULP energy per Si atom -12399.357272 kJ/mol
# Density = 2.163831 g / cm^3
# Si number density = 21.687670 Si / 1000 Ang^3
#
#
#
# Elastic Constant Matrix: (Units=GPa)
#
#
# Indices 1 2 3 4 5 6 
#
# 1 120.4184 53.3231 56.3897 4.7768 7.5533 -8.5703
# 2 53.3231 124.4284 39.4799 7.1720 -6.5989 -14.5621
# 3 56.3897 39.4799 98.7250 2.1989 11.9127 -8.4045
# 4 4.7768 7.1720 2.1989 24.5328 6.6430 2.9467
# 5 7.5533 -6.5989 11.9127 6.6430 32.7579 2.1328
# 6 -8.5703 -14.5621 -8.4045 2.9467 2.1328 40.7996
#
#
#
# Elastic Compliance Matrix: (Units=1/GPa)
#
#
# Indices 1 2 3 4 5 6 
#
# 1 0.012672 -0.003691 -0.005533 -0.000505 -0.001572 0.000323
# 2 -0.003691 0.011251 -0.002637 -0.003935 0.004696 0.002736
# 3 -0.005533 -0.002637 0.015023 0.001760 -0.005149 0.001133
# 4 -0.000505 -0.003935 0.001760 0.045081 -0.010206 -0.003870
# 5 -0.001572 0.004696 -0.005149 -0.010206 0.035833 -0.000851
# 6 0.000323 0.002736 0.001133 -0.003870 -0.000851 0.026112
#
#
# Mechanical properties :
#
#
# Convention : Reuss Voigt Hill
#
# Bulk Modulus (GPa) = 65.69195 71.32858 68.51027
# Shear Modulus (GPa) = 28.60910 32.57666 30.59288
#
# Velocity S-wave (km/s) = 3.63594 3.87988 3.75989
# Velocity P-wave (km/s) = 6.92694 7.28228 7.10683
#
# Compressibility (1/GPa) = 0.01522256
#
# Stress axis : x y z
#
# Youngs Moduli (GPa) = 78.91648 88.87814 66.56506
#
# Poissons Ratio (x) = 0.32806 0.36832
# Poissons Ratio (y) = 0.29129 0.17555
# Poissons Ratio (z) = 0.43667 0.23440
#
# Static dielectric constant tensor:
#      x y z
#    x 4.186500 -0.101210 0.340210 
#    y -0.101210 4.122900 0.106330 
#    z 0.340210 0.106330 3.888000 
# 
# 
# High freq. dielectric constant tensor:
#      x y z
#    x 1.854280 -0.004710 0.019210 
#    y -0.004710 1.871830 0.003090 
#    z 0.019210 0.003090 1.833940 
# 
# From -- ./inp_files/561447.got.cif
#   From: 2010.06.25/outbox.cif.g09.slc.cpg/sg2_281_cif.got.tgz:561447.got - 2010.06.27 13:26:56.
