data_PCOD8000507
_publ_section_title
;
Structure prediction by ZEFSAII (Michael W. Deem and Ramdas Pophale) SiO2 
 PCOD8000507
Probable space group: P -1
;
_chemical_formula_sum "Si O2"
_cell_formula_units_Z 16
_cell_length_a 13.759670
_cell_length_b 14.470564
_cell_length_c 13.837908
_cell_angle_alpha 29.240453
_cell_angle_beta 30.937466
_cell_angle_gamma 47.781689
_cell_volume 659.054877
_symmetry_space_group_name_H-M "P -1"
_symmetry_group_IT_number 2
_symmetry_cell_setting 'triclinic'
loop_
_space_group_symop_operation_xyz
x,y,z
-x,-y,-z
loop_
_atom_site_type_symbol
_atom_site_label
_atom_site_fract_x
_atom_site_fract_y
_atom_site_fract_z
Si Si1 0.791280 0.842426 0.309351
Si Si2 0.104818 0.653240 0.689687
Si Si3 0.658652 0.891229 0.168076
Si Si4 0.027230 0.235594 0.497036
Si Si5 0.621577 0.960868 0.841970
Si Si6 0.776559 0.421851 0.660252
Si Si7 0.429588 0.285150 0.207772
Si Si8 0.423628 0.543959 0.399654
O O1 0.676782 0.866857 0.288664
O O2 0.843763 0.634782 0.460813
O O3 0.650131 0.866027 0.497406
O O4 0.000000 0.000000 0.000000
O O5 0.295784 0.588611 0.555813
O O6 0.973367 0.654088 0.705458
O O7 0.164339 0.873497 0.487832
O O8 0.000000 0.500000 0.000000
O O9 0.557974 0.675787 0.399604
O O10 0.506749 0.017725 0.163061
O O11 0.875111 0.009225 0.829534
O O12 0.253519 0.249330 0.311168
O O13 0.959387 0.341899 0.550217
O O14 0.629566 0.731854 0.048284
O O15 0.500000 0.000000 0.000000
O O16 0.683989 0.460033 0.604867
O O17 0.619825 0.260696 0.009837
O O18 0.500000 0.500000 0.000000
#
# Coordination Sequence:
#
# PCOD8000507 Si02
#       8
#     2   2   2   2   2   2   2   2
#     4  10  20  36  60  93 127 165 215 277 317 386
#     4  10  22  40  62  95 130 165 216 276 319 392
#     4  11  20  38  67  90 124 180 215 259 337 382
#     4  11  21  43  67  91 132 178 213 270 341 378
#     4  10  19  39  63  89 125 165 219 262 316 394
#     4   9  20  40  65  88 126 174 212 267 328 383
#     4  10  22  39  64  93 128 163 224 270 316 397
#     4   9  20  39  64  91 125 173 215 263 328 384
#
# _framework density 24.277189
#
# number of rings (size 3 to 8) (size 9 to 14) (size 15 to 20)
#    0.000    2.000    5.000    0.000    0.000    7.000 
#    2.250    2.500    5.500    0.000    0.000    0.000 
#    0.000    0.000    0.000    0.000    0.000    0.000 
#
# Total GULP energy -198209.722859 kJ/mol
# GULP energy per Si atom -12388.107679 kJ/mol
# Density = 2.422193 g / cm^3
# Si number density = 24.277189 Si / 1000 Ang^3
#
#
#
# Elastic Constant Matrix: (Units=GPa)
#
#
# Indices 1 2 3 4 5 6 
#
# 1 124.8413 12.1858 53.7561 2.2790 12.4855 16.4064
# 2 12.1858 67.6630 45.3092 -14.2794 6.4751 7.3388
# 3 53.7561 45.3092 172.3236 -18.7541 13.6122 18.9243
# 4 2.2790 -14.2794 -18.7541 44.1903 7.3455 6.0740
# 5 12.4855 6.4751 13.6122 7.3455 43.9614 1.2633
# 6 16.4064 7.3388 18.9243 6.0740 1.2633 17.4334
#
#
#
# Elastic Compliance Matrix: (Units=1/GPa)
#
#
# Indices 1 2 3 4 5 6 
#
# 1 0.010108 0.000760 -0.002415 0.000008 -0.002033 -0.007066
# 2 0.000760 0.019403 -0.003726 0.006030 -0.002734 -0.006741
# 3 -0.002415 -0.003726 0.008906 0.004004 -0.001988 -0.007077
# 4 0.000008 0.006030 0.004004 0.029678 -0.006608 -0.016754
# 5 -0.002033 -0.002734 -0.001988 -0.006608 0.025283 0.005693
# 6 -0.007066 -0.006741 -0.007077 -0.016754 0.005693 0.079955
#
#
# Mechanical properties :
#
#
# Convention : Reuss Voigt Hill
#
# Bulk Modulus (GPa) = 36.16222 65.25891 50.71057
# Shear Modulus (GPa) = 25.86460 38.02215 31.94337
#
# Velocity S-wave (km/s) = 3.26757 3.96178 3.63130
# Velocity P-wave (km/s) = 5.40036 6.91857 6.20607
#
# Compressibility (1/GPa) = 0.02765317
#
# Stress axis : x y z
#
# Youngs Moduli (GPa) = 98.93322 51.53918 112.28149
#
# Poissons Ratio (x) = -0.03916 0.27121
# Poissons Ratio (y) = -0.07516 0.41837
# Poissons Ratio (z) = 0.23897 0.19204
#
# Static dielectric constant tensor:
#      x y z
#    x 0.240930 1.863020 0.407410 
#    y 1.863020 3.479710 -0.822010 
#    z 0.407410 -0.822010 4.655970 
# 
# 
# High freq. dielectric constant tensor:
#      x y z
#    x 1.978360 0.026080 0.007250 
#    y 0.026080 1.932430 -0.018070 
#    z 0.007250 -0.018070 1.971970 
# 
# From -- ./inp_files/534097.got.cif
#   From: 2010.06.25/outbox.cif.g09.slc.cpg/sg2_268_cif.got.tgz:534097.got - 2010.06.27 13:26:56.
