data_PCOD8000756
_publ_section_title
;
Structure prediction by ZEFSAII (Michael W. Deem and Ramdas Pophale) SiO2 
 PCOD8000756
Probable space group: P -1
;
_chemical_formula_sum "Si O2"
_cell_formula_units_Z 14
_cell_length_a 19.860308
_cell_length_b 12.686321
_cell_length_c 9.925708
_cell_angle_alpha 50.425321
_cell_angle_beta 41.400005
_cell_angle_gamma 23.861978
_cell_volume 657.753508
_symmetry_space_group_name_H-M "P -1"
_symmetry_group_IT_number 2
_symmetry_cell_setting 'triclinic'
loop_
_space_group_symop_operation_xyz
x,y,z
-x,-y,-z
loop_
_atom_site_type_symbol
_atom_site_label
_atom_site_fract_x
_atom_site_fract_y
_atom_site_fract_z
Si Si1 0.453424 0.350746 0.414625
Si Si2 0.673841 0.040429 0.068875
Si Si3 0.375071 0.287044 0.105164
Si Si4 0.725295 0.705839 0.364398
Si Si5 0.156153 0.923153 0.386325
Si Si6 0.998466 0.301752 0.520341
Si Si7 0.599063 0.053697 0.697876
O O1 0.608845 0.170914 0.205732
O O2 0.280143 0.434906 0.588171
O O3 0.361753 0.607207 0.352343
O O4 0.569560 0.192731 0.507436
O O5 0.478903 0.249837 0.100032
O O6 0.792265 0.759184 0.130384
O O7 0.824559 0.971687 0.830285
O O8 0.139229 0.575821 0.243938
O O9 0.440841 0.053299 0.206282
O O10 0.444036 0.269669 0.873083
O O11 0.862927 0.540349 0.423551
O O12 0.500000 0.000000 0.500000
O O13 0.084620 0.062520 0.524149
O O14 0.000000 0.000000 0.500000
O O15 0.177172 0.194110 0.382752
#
# Coordination Sequence:
#
# PCOD8000756 Si02
#       7
#     2   2   2   2   2   2   2
#     4  11  22  44  70  96 140 173 228 278 330 403
#     4  11  21  43  72  98 130 182 223 281 340 387
#     4  11  21  43  69  99 137 177 218 283 343 392
#     4  10  19  39  71  97 127 169 224 278 329 387
#     4  12  25  43  66 101 136 181 231 275 329 409
#     4  12  23  43  67  99 145 174 220 279 340 402
#     4  11  25  42  68 104 138 174 223 280 343 396
#
# _framework density 21.284571
#
# number of rings (size 3 to 8) (size 9 to 14) (size 15 to 20)
#    0.000    0.857    7.143    1.714    0.000    1.143 
#    7.714    0.714    0.000    0.000    0.000    0.000 
#    0.000    0.000    0.000    0.000    0.000    0.000 
#
# Total GULP energy -173620.313545 kJ/mol
# GULP energy per Si atom -12401.450968 kJ/mol
# Density = 2.123613 g / cm^3
# Si number density = 21.284571 Si / 1000 Ang^3
#
#
#
# Elastic Constant Matrix: (Units=GPa)
#
#
# Indices 1 2 3 4 5 6 
#
# 1 83.5105 29.1862 49.1181 -0.5386 3.2320 -12.1500
# 2 29.1862 70.2830 40.8325 4.0046 6.9033 2.8137
# 3 49.1181 40.8325 131.6057 16.6144 5.9501 1.2644
# 4 -0.5386 4.0046 16.6144 36.3098 6.3611 3.4439
# 5 3.2320 6.9033 5.9501 6.3611 42.2174 4.2685
# 6 -12.1500 2.8137 1.2644 3.4439 4.2685 34.5812
#
#
#
# Elastic Compliance Matrix: (Units=1/GPa)
#
#
# Indices 1 2 3 4 5 6 
#
# 1 0.017910 -0.004476 -0.005682 0.002891 -0.000951 0.006694
# 2 -0.004476 0.018730 -0.004069 0.000326 -0.001918 -0.002743
# 3 -0.005682 -0.004069 0.011593 -0.004847 0.000364 -0.001651
# 4 0.002891 0.000326 -0.004847 0.030609 -0.004064 -0.001380
# 5 -0.000951 -0.001918 0.000364 -0.004064 0.024924 -0.002863
# 6 0.006694 -0.002743 -0.001651 -0.001380 -0.002863 0.032044
#
#
# Mechanical properties :
#
#
# Convention : Reuss Voigt Hill
#
# Bulk Modulus (GPa) = 50.55617 58.18585 54.37101
# Shear Modulus (GPa) = 29.26429 33.70585 31.48507
#
# Velocity S-wave (km/s) = 3.71200 3.98374 3.85027
# Velocity P-wave (km/s) = 6.49430 6.96826 6.73545
#
# Compressibility (1/GPa) = 0.01977998
#
# Stress axis : x y z
#
# Youngs Moduli (GPa) = 55.83436 53.38900 86.25910
#
# Poissons Ratio (x) = 0.23895 0.49013
# Poissons Ratio (y) = 0.24989 0.35099
# Poissons Ratio (z) = 0.31726 0.21724
#
# Static dielectric constant tensor:
#      x y z
#    x 3.921410 0.289240 -0.067380 
#    y 0.289240 4.002540 -0.129360 
#    z -0.067380 -0.129360 4.146920 
# 
# 
# High freq. dielectric constant tensor:
#      x y z
#    x 1.833600 0.005920 0.001170 
#    y 0.005920 1.823450 0.009050 
#    z 0.001170 0.009050 1.832480 
# 
# From -- ./inp_files/333009.got.cif
#   From: 2010.06.25/outbox.cif.g09.slc.cpg/sg2_167_cif.got.tgz:333009.got - 2010.06.27 13:26:56.
