data_PCOD8000053
_publ_section_title
;
Structure prediction by ZEFSAII (Michael W. Deem and Ramdas Pophale) SiO2 
 PCOD8000053
Probable space group: P 1
;
_chemical_formula_sum "Si O2"
_cell_formula_units_Z 8
_cell_length_a 13.819503
_cell_length_b 9.182724
_cell_length_c 11.252221
_cell_angle_alpha 139.685651
_cell_angle_beta 29.728827
_cell_angle_gamma 149.605950
_cell_volume 357.740722
_symmetry_space_group_name_H-M "P 1"
_symmetry_group_IT_number 1
_symmetry_cell_setting 'triclinic'
loop_
_space_group_symop_operation_xyz
x,y,z
loop_
_atom_site_type_symbol
_atom_site_label
_atom_site_fract_x
_atom_site_fract_y
_atom_site_fract_z
Si Si1 0.434380 0.034760 0.946310
Si Si2 0.666609 0.272113 0.300723
Si Si3 0.794143 0.047121 0.236643
Si Si4 0.739728 0.094911 0.875355
Si Si5 0.950808 0.917282 0.393264
Si Si6 0.265381 0.711289 0.695669
Si Si7 0.167057 0.925410 0.728629
Si Si8 0.932944 0.334505 0.505562
O O1 0.518346 0.003062 0.964526
O O2 0.674221 0.286935 0.771669
O O3 0.293150 0.752728 0.834558
O O4 0.247279 0.105926 0.215525
O O5 0.790364 0.225820 0.247226
O O6 0.838743 0.598375 0.271430
O O7 0.403735 0.194057 0.571683
O O8 0.639840 0.073784 0.098924
O O9 0.964168 0.290077 0.307202
O O10 0.518192 0.780189 0.413586
O O11 0.931260 0.920149 0.965385
O O12 0.805689 0.879076 0.647255
O O13 0.009330 0.398556 0.743110
O O14 0.906586 0.080838 0.446626
O O15 0.233580 0.932196 0.801291
O O16 0.141770 0.657406 0.528727
#
# Coordination Sequence:
#
# PCOD8000053 Si02
#       8
#     1   1   1   1   1   1   1   1
#     4  10  21  38  68 101 131 169 223 279 331 380
#     4  11  27  44  63 102 148 172 220 284 342 400
#     4  10  25  42  70  97 138 182 217 282 340 395
#     4  11  24  43  67 102 135 176 228 276 332 403
#     4  11  23  43  69 101 136 177 225 285 329 400
#     4  10  20  44  68 102 132 167 236 276 320 404
#     4  11  23  45  69  98 138 181 222 275 341 406
#     4  10  23  41  70 103 126 176 239 271 325 406
#
# _framework density 22.362566000000001
#
# number of rings (size 3 to 8) (size 9 to 14) (size 15 to 20)
#    0.000    1.500    3.750    0.750    1.750    6.000 
#    4.500    0.000    0.000    0.000    0.000    0.000 
#    0.000    0.000    0.000    0.000    0.000    0.000 
#
# Total GULP energy -99116.081457 kJ/mol
# GULP energy per Si atom -12389.510182 kJ/mol
# Density = 2.231167 g / cm^3
# Si number density = 22.362566 Si / 1000 Ang^3
#
#
#
# Elastic Constant Matrix: (Units=GPa)
#
#
# Indices 1 2 3 4 5 6 
#
# 1 132.8501 40.6155 62.8535 7.3111 5.7868 7.9195
# 2 40.6155 67.1476 19.3146 2.7363 -5.2505 -0.5365
# 3 62.8535 19.3146 143.2963 -1.2112 -13.5046 -4.0707
# 4 7.3111 2.7363 -1.2112 29.3413 9.4791 -0.0767
# 5 5.7868 -5.2505 -13.5046 9.4791 41.9957 -1.2856
# 6 7.9195 -0.5365 -4.0707 -0.0767 -1.2856 23.9972
#
#
#
# Elastic Compliance Matrix: (Units=1/GPa)
#
#
# Indices 1 2 3 4 5 6 
#
# 1 0.012491 -0.006368 -0.005164 -0.001449 -0.004015 -0.005360
# 2 -0.006368 0.018932 0.000674 -0.001391 0.003862 0.002842
# 3 -0.005164 0.000674 0.009626 0.000365 0.003918 0.003563
# 4 -0.001449 -0.001391 0.000365 0.037257 -0.008261 0.000185
# 5 -0.004015 0.003862 0.003918 -0.008261 0.028081 0.003554
# 6 -0.005360 0.002842 0.003563 0.000185 0.003554 0.044299
#
#
# Mechanical properties :
#
#
# Convention : Reuss Voigt Hill
#
# Bulk Modulus (GPa) = 51.72052 65.42905 58.57478
# Shear Modulus (GPa) = 27.95700 33.76753 30.86226
#
# Velocity S-wave (km/s) = 3.53961 3.89009 3.71898
# Velocity P-wave (km/s) = 6.31534 7.03554 6.68515
#
# Compressibility (1/GPa) = 0.01933468
#
# Stress axis : x y z
#
# Youngs Moduli (GPa) = 80.05596 52.82112 103.88455
#
# Poissons Ratio (x) = 0.33637 0.53641
# Poissons Ratio (y) = 0.50980 -0.07006
# Poissons Ratio (z) = 0.41337 -0.03562
#
# Static dielectric constant tensor:
#      x y z
#    x 4.013010 0.293300 0.009950 
#    y 0.293300 3.677420 -0.051450 
#    z 0.009950 -0.051450 4.296270 
# 
# 
# High freq. dielectric constant tensor:
#      x y z
#    x 1.880450 0.021490 0.000160 
#    y 0.021490 1.850200 -0.009190 
#    z 0.000160 -0.009190 1.899700 
# 
# From -- ./inp_files/5594.got.cif
#   From: 2010.03.12/outbox.cif.g09.slc.cpg/sg1_3_cif.got.tgz:5594.got - 2010.03.29 11:57:58.
