data_PCOD8000971
_publ_section_title
;
Structure prediction by ZEFSAII (Michael W. Deem and Ramdas Pophale) SiO2 
 PCOD8000971
Probable space group: P -1
;
_chemical_formula_sum "Si O2"
_cell_formula_units_Z 16
_cell_length_a 9.807639
_cell_length_b 16.109887
_cell_length_c 9.705731
_cell_angle_alpha 142.951718
_cell_angle_beta 67.633982
_cell_angle_gamma 122.250840
_cell_volume 778.270842
_symmetry_space_group_name_H-M "P -1"
_symmetry_group_IT_number 2
_symmetry_cell_setting 'triclinic'
loop_
_space_group_symop_operation_xyz
x,y,z
-x,-y,-z
loop_
_atom_site_type_symbol
_atom_site_label
_atom_site_fract_x
_atom_site_fract_y
_atom_site_fract_z
Si Si1 0.695471 0.633483 0.202708
Si Si2 0.822058 0.371033 0.384741
Si Si3 0.372451 0.156262 0.885110
Si Si4 0.292688 0.792004 0.069821
Si Si5 0.232229 0.833329 0.615375
Si Si6 0.644465 0.557602 0.818897
Si Si7 0.421795 0.120922 0.509912
Si Si8 0.025907 0.670285 0.233741
O O1 0.548831 0.499393 0.159170
O O2 0.647039 0.773317 0.398309
O O3 0.857824 0.684334 0.294556
O O4 0.727054 0.582774 0.971408
O O5 0.803912 0.227728 0.295611
O O6 0.692131 0.439162 0.562117
O O7 0.000000 0.500000 0.500000
O O8 0.790871 0.314230 0.166222
O O9 0.556961 0.240844 0.978359
O O10 0.364567 0.086496 0.643911
O O11 0.267094 0.012277 0.831566
O O12 0.299407 0.283414 0.076152
O O13 0.160254 0.769967 0.207361
O O14 0.361070 0.969210 0.240931
O O15 0.383942 0.802964 0.462301
O O16 0.078593 0.730810 0.447419
O O17 0.000000 0.500000 0.000000
#
# Coordination Sequence:
#
# PCOD8000971 Si02
#       8
#     2   2   2   2   2   2   2   2
#     4  10  21  36  66  95 125 160 215 264 316 363
#     4  12  26  43  62  90 133 174 208 252 318 388
#     4  10  20  39  69  94 124 161 213 272 308 363
#     4  11  22  39  64  94 128 167 211 252 317 385
#     4  11  21  42  64  91 129 165 212 261 313 370
#     4  10  21  41  62  92 127 166 208 265 312 375
#     4  10  19  40  67  96 122 164 210 269 312 368
#     4  12  22  36  64  98 123 162 214 268 312 365
#
# _framework density 20.558395000000001
#
# number of rings (size 3 to 8) (size 9 to 14) (size 15 to 20)
#    0.000    1.250    3.750    3.750    1.750    3.000 
#    2.250    0.625    0.000    0.000    0.000    0.000 
#    0.000    0.000    0.000    0.000    0.000    0.000 
#
# Total GULP energy -198412.435508 kJ/mol
# GULP energy per Si atom -12400.777219 kJ/mol
# Density = 2.051160 g / cm^3
# Si number density = 20.558395 Si / 1000 Ang^3
#
#
#
# Elastic Constant Matrix: (Units=GPa)
#
#
# Indices 1 2 3 4 5 6 
#
# 1 108.0319 21.1749 25.9795 12.3961 18.8312 -10.2517
# 2 21.1749 94.4195 13.0589 21.0070 -4.5468 -13.5890
# 3 25.9795 13.0589 78.6710 6.2289 15.5522 -13.7086
# 4 12.3961 21.0070 6.2289 25.4099 0.7147 -2.5013
# 5 18.8312 -4.5468 15.5522 0.7147 28.3988 6.7862
# 6 -10.2517 -13.5890 -13.7086 -2.5013 6.7862 26.8312
#
#
#
# Elastic Compliance Matrix: (Units=1/GPa)
#
#
# Indices 1 2 3 4 5 6 
#
# 1 0.012287 -0.001450 -0.000723 -0.003811 -0.009218 0.005567
# 2 -0.001450 0.014130 -0.000828 -0.010411 0.002868 0.004483
# 3 -0.000723 -0.000828 0.017501 -0.001830 -0.011837 0.011069
# 4 -0.003811 -0.010411 -0.001830 0.049898 0.001412 -0.003369
# 5 -0.009218 0.002868 -0.011837 0.001412 0.053365 -0.021483
# 6 0.005567 0.004483 0.011069 -0.003369 -0.021483 0.052443
#
#
# Mechanical properties :
#
#
# Convention : Reuss Voigt Hill
#
# Bulk Modulus (GPa) = 26.37396 44.61656 35.49526
# Shear Modulus (GPa) = 22.90791 30.85525 26.88158
#
# Velocity S-wave (km/s) = 3.34171 3.87829 3.61996
# Velocity P-wave (km/s) = 5.26745 6.46563 5.89705
#
# Compressibility (1/GPa) = 0.03791618
#
# Stress axis : x y z
#
# Youngs Moduli (GPa) = 81.38675 70.76905 57.13964
#
# Poissons Ratio (x) = 0.10265 0.04129
# Poissons Ratio (y) = 0.11805 0.04732
# Poissons Ratio (z) = 0.05881 0.05860
#
# Static dielectric constant tensor:
#      x y z
#    x 3.317980 -0.139060 0.024830 
#    y -0.139060 3.831990 0.186220 
#    z 0.024830 0.186220 3.522930 
# 
# 
# High freq. dielectric constant tensor:
#      x y z
#    x 1.801900 -0.008290 0.007260 
#    y -0.008290 1.806110 0.022480 
#    z 0.007260 0.022480 1.790230 
# 
# From -- ./inp_files/207639.got.cif
#   From: 2010.06.25/outbox.cif.g09.slc.cpg/sg2_104_cif.got.tgz:207639.got - 2010.06.27 13:26:56.
