data_PCOD8000187
_publ_section_title
;
Structure prediction by ZEFSAII (Michael W. Deem and Ramdas Pophale) SiO2 
 PCOD8000187
Probable space group: P 1
;
_chemical_formula_sum "Si O2"
_cell_formula_units_Z 6
_cell_length_a 8.763387
_cell_length_b 5.366366
_cell_length_c 5.221797
_cell_angle_alpha 83.856936
_cell_angle_beta 91.179981
_cell_angle_gamma 99.355058
_cell_volume 240.909583
_symmetry_space_group_name_H-M "P 1"
_symmetry_group_IT_number 1
_symmetry_cell_setting 'triclinic'
loop_
_space_group_symop_operation_xyz
x,y,z
loop_
_atom_site_type_symbol
_atom_site_label
_atom_site_fract_x
_atom_site_fract_y
_atom_site_fract_z
Si Si1 0.684690 0.267220 0.371460
Si Si2 0.857992 0.629617 0.714199
Si Si3 0.113520 0.838375 0.348640
Si Si4 0.994367 0.308708 0.129648
Si Si5 0.572392 0.618616 0.984489
Si Si6 0.453121 0.811149 0.480096
O O1 0.725025 0.521717 0.515938
O O2 0.845531 0.185551 0.302636
O O3 0.579065 0.048968 0.551841
O O4 0.584885 0.334361 0.113667
O O5 0.755677 0.743575 0.918562
O O6 0.990581 0.838564 0.576211
O O7 0.939858 0.393937 0.841741
O O8 0.084120 0.570006 0.229543
O O9 0.282724 0.880258 0.471296
O O10 0.099607 0.085100 0.142004
O O11 0.463989 0.604312 0.728290
O O12 0.497131 0.753771 0.197686
#
# Coordination Sequence:
#
# PCOD8000187 Si02
#       6
#     1   1   1   1   1   1
#     4  10  24  45  73 108 139 193 245 302 355 439
#     4  10  23  47  78 103 146 191 252 296 361 437
#     4  11  27  47  69 111 148 193 239 305 366 435
#     4  10  25  45  74 104 148 194 245 295 365 435
#     4  11  25  47  70 107 141 190 242 295 365 429
#     4  12  28  43  76 105 150 185 241 303 370 427
#
# _framework density 24.905612999999999
#
# number of rings (size 3 to 8) (size 9 to 14) (size 15 to 20)
#    0.000    1.333    1.667    1.000   14.000    2.667 
#    0.000    0.000    0.000    0.000    0.000    0.000 
#    0.000    0.000    0.000    0.000    0.000    0.000 
#
# Total GULP energy -74338.222501 kJ/mol
# GULP energy per Si atom -12389.703750 kJ/mol
# Density = 2.484893 g / cm^3
# Si number density = 24.905613 Si / 1000 Ang^3
#
#
#
# Elastic Constant Matrix: (Units=GPa)
#
#
# Indices 1 2 3 4 5 6 
#
# 1 92.2081 38.9092 38.5294 -8.8471 31.1345 -17.7253
# 2 38.9092 92.4490 20.1427 -13.2203 11.7820 -9.3262
# 3 38.5294 20.1427 124.9309 -9.6205 17.0729 -16.5464
# 4 -8.8471 -13.2203 -9.6205 29.9223 -15.5783 8.9579
# 5 31.1345 11.7820 17.0729 -15.5783 41.0597 -7.6351
# 6 -17.7253 -9.3262 -16.5464 8.9579 -7.6351 38.9216
#
#
#
# Elastic Compliance Matrix: (Units=1/GPa)
#
#
# Indices 1 2 3 4 5 6 
#
# 1 0.019612 -0.006306 -0.003047 -0.006378 -0.013288 0.004987
# 2 -0.006306 0.013954 -0.000326 0.005929 0.003083 -0.000427
# 3 -0.003047 -0.000326 0.009464 0.000943 -0.000766 0.002190
# 4 -0.006378 0.005929 0.000943 0.046769 0.018976 -0.008124
# 5 -0.013288 0.003083 -0.000766 0.018976 0.040688 -0.002024
# 6 0.004987 -0.000427 0.002190 -0.008124 -0.002024 0.030265
#
#
# Mechanical properties :
#
#
# Convention : Reuss Voigt Hill
#
# Bulk Modulus (GPa) = 42.24351 56.08339 49.16345
# Shear Modulus (GPa) = 26.59568 36.11449 31.35509
#
# Velocity S-wave (km/s) = 3.27136 3.81209 3.55203
# Velocity P-wave (km/s) = 5.59172 6.47636 6.05023
#
# Compressibility (1/GPa) = 0.02367227
#
# Stress axis : x y z
#
# Youngs Moduli (GPa) = 50.98821 71.66561 105.66266
#
# Poissons Ratio (x) = 0.45193 0.32191
# Poissons Ratio (y) = 0.32153 0.03448
# Poissons Ratio (z) = 0.15534 0.02338
#
# Static dielectric constant tensor:
#      x y z
#    x 4.462940 -0.064430 0.022340 
#    y -0.064430 4.092760 -0.263210 
#    z 0.022340 -0.263210 4.618450 
# 
# 
# High freq. dielectric constant tensor:
#      x y z
#    x 1.992300 -0.017460 0.009710 
#    y -0.017460 1.960560 -0.021780 
#    z 0.009710 -0.021780 2.000120 
# 
# From -- ./inp_files/39.got.cif
#   From: 2010.03.12/outbox.cif.g09.slc.cpg/sg1_1_cif.got.tgz:39.got - 2010.03.29 11:57:58.
