data_PCOD8000785
_publ_section_title
;
Structure prediction by ZEFSAII (Michael W. Deem and Ramdas Pophale) SiO2 
 PCOD8000785
Probable space group: P -1
;
_chemical_formula_sum "Si O2"
_cell_formula_units_Z 16
_cell_length_a 8.057809
_cell_length_b 11.542457
_cell_length_c 18.784541
_cell_angle_alpha 140.879623
_cell_angle_beta 129.246900
_cell_angle_gamma 80.113129
_cell_volume 646.449730
_symmetry_space_group_name_H-M "P -1"
_symmetry_group_IT_number 2
_symmetry_cell_setting 'triclinic'
loop_
_space_group_symop_operation_xyz
x,y,z
-x,-y,-z
loop_
_atom_site_type_symbol
_atom_site_label
_atom_site_fract_x
_atom_site_fract_y
_atom_site_fract_z
Si Si1 0.381485 0.636369 0.041921
Si Si2 0.643731 0.602047 0.798654
Si Si3 0.423141 0.281032 0.715316
Si Si4 0.210894 0.413637 0.479844
Si Si5 0.957867 0.266816 0.647421
Si Si6 0.242329 0.942051 0.942275
Si Si7 0.290315 0.538618 0.390563
Si Si8 0.632388 0.099039 0.242794
O O1 0.376105 0.671092 0.141883
O O2 0.592105 0.908787 0.196022
O O3 0.500000 0.500000 0.000000
O O4 0.072475 0.456711 0.834985
O O5 0.621449 0.445296 0.781892
O O6 0.333067 0.489983 0.630797
O O7 0.816349 0.611837 0.784632
O O8 0.804939 0.871523 0.000255
O O9 0.228336 0.346590 0.714324
O O10 0.222681 0.004310 0.501684
O O11 0.387225 0.349654 0.454642
O O12 0.280221 0.656447 0.579272
O O13 0.876506 0.183029 0.289711
O O14 0.752676 0.268287 0.539827
O O15 0.941049 0.669684 0.712949
O O16 0.500000 0.000000 0.000000
O O17 0.328144 0.960374 0.056890
#
# Coordination Sequence:
#
# PCOD8000785 Si02
#       8
#     2   2   2   2   2   2   2   2
#     4  10  22  36  64  92 130 167 217 268 313 380
#     4   9  21  36  61  87 127 163 216 262 323 388
#     4  10  22  39  60  99 126 172 223 260 315 396
#     4   8  21  36  64  87 123 170 211 261 333 379
#     4  10  21  38  66  92 127 175 216 268 318 383
#     4  11  21  36  65  92 121 167 220 270 322 392
#     4  10  20  39  64  93 126 166 213 273 333 378
#     4  10  19  40  60  93 123 173 213 261 326 384
#
# _framework density 24.750568999999999
#
# number of rings (size 3 to 8) (size 9 to 14) (size 15 to 20)
#    0.750    1.500    1.250    1.125    7.000    0.500 
#    2.250    1.250    2.750    0.000    0.000    2.625 
#    0.000    0.000    0.000    0.000    0.000    0.000 
#
# Total GULP energy -198246.476890 kJ/mol
# GULP energy per Si atom -12390.404806 kJ/mol
# Density = 2.469424 g / cm^3
# Si number density = 24.750569 Si / 1000 Ang^3
#
#
#
# Elastic Constant Matrix: (Units=GPa)
#
#
# Indices 1 2 3 4 5 6 
#
# 1 50.1660 30.0133 10.0486 1.9323 11.8629 -9.0561
# 2 30.0133 157.2427 48.5291 19.4354 6.6112 5.0109
# 3 10.0486 48.5291 119.4756 -2.7864 0.7235 -6.1126
# 4 1.9323 19.4354 -2.7864 37.3345 -4.7914 1.5580
# 5 11.8629 6.6112 0.7235 -4.7914 28.8689 -3.4964
# 6 -9.0561 5.0109 -6.1126 1.5580 -3.4964 42.0016
#
#
#
# Elastic Compliance Matrix: (Units=1/GPa)
#
#
# Indices 1 2 3 4 5 6 
#
# 1 0.025841 -0.004720 0.000069 -0.000246 -0.008925 0.005411
# 2 -0.004720 0.009067 -0.003520 -0.004780 -0.001148 -0.002530
# 3 0.000069 -0.003520 0.009945 0.002646 0.001196 0.001883
# 4 -0.000246 -0.004780 0.002646 0.030265 0.006188 0.000295
# 5 -0.008925 -0.001148 0.001196 0.006188 0.039744 0.001466
# 6 0.005411 -0.002530 0.001883 0.000295 0.001466 0.025662
#
#
# Mechanical properties :
#
#
# Convention : Reuss Voigt Hill
#
# Bulk Modulus (GPa) = 35.07523 56.00739 45.54131
# Shear Modulus (GPa) = 30.05363 37.52722 33.79042
#
# Velocity S-wave (km/s) = 3.48840 3.89809 3.69892
# Velocity P-wave (km/s) = 5.51612 6.55271 6.05663
#
# Compressibility (1/GPa) = 0.02851015
#
# Stress axis : x y z
#
# Youngs Moduli (GPa) = 38.69831 110.29557 100.55770
#
# Poissons Ratio (x) = 0.52064 -0.00695
# Poissons Ratio (y) = 0.18267 0.35393
# Poissons Ratio (z) = -0.00268 0.38820
#
# Static dielectric constant tensor:
#      x y z
#    x 4.158180 0.056880 -0.296390 
#    y 0.056880 4.409710 -0.123340 
#    z -0.296390 -0.123340 4.300830 
# 
# 
# High freq. dielectric constant tensor:
#      x y z
#    x 1.968050 -0.000650 -0.014440 
#    y -0.000650 1.997630 -0.013880 
#    z -0.014440 -0.013880 1.988170 
# 
# From -- ./inp_files/589144.got.cif
#   From: 2010.06.25/outbox.cif.g09.slc.cpg/sg2_295_cif.got.tgz:589144.got - 2010.06.27 13:26:56.
