data_PCOD8000275
_publ_section_title
;
Structure prediction by ZEFSAII (Michael W. Deem and Ramdas Pophale) SiO2 
 PCOD8000275
Probable space group: P 1
;
_chemical_formula_sum "Si O2"
_cell_formula_units_Z 8
_cell_length_a 11.293162
_cell_length_b 8.658673
_cell_length_c 8.158531
_cell_angle_alpha 115.008485
_cell_angle_beta 143.846976
_cell_angle_gamma 50.488591
_cell_volume 355.771864
_symmetry_space_group_name_H-M "P 1"
_symmetry_group_IT_number 1
_symmetry_cell_setting 'triclinic'
loop_
_space_group_symop_operation_xyz
x,y,z
loop_
_atom_site_type_symbol
_atom_site_label
_atom_site_fract_x
_atom_site_fract_y
_atom_site_fract_z
Si Si1 0.258650 0.769080 0.869190
Si Si2 0.195141 0.435512 0.489560
Si Si3 0.816858 0.718264 0.963424
Si Si4 0.624843 0.530159 0.429681
Si Si5 0.482796 0.948352 0.995835
Si Si6 0.729941 0.105593 0.889162
Si Si7 0.741096 0.125401 0.532896
Si Si8 0.981345 0.291423 0.438956
O O1 0.242242 0.590661 0.698439
O O2 0.441140 0.789786 0.969275
O O3 0.366332 0.699677 0.140848
O O4 0.003665 0.982878 0.682106
O O5 0.445043 0.219364 0.651364
O O6 0.008186 0.412173 0.375485
O O7 0.078742 0.522880 0.219417
O O8 0.669034 0.641916 0.673707
O O9 0.685918 0.834347 0.035550
O O10 0.851050 0.866055 0.951751
O O11 0.612912 0.347138 0.408310
O O12 0.829650 0.450483 0.484639
O O13 0.242241 0.124975 0.721859
O O14 0.574443 0.040461 0.274591
O O15 0.778552 0.137559 0.772429
O O16 0.843289 0.188919 0.176485
#
# Coordination Sequence:
#
# PCOD8000275 Si02
#       8
#     1   1   1   1   1   1   1   1
#     4  12  26  47  75 101 142 187 233 287 349 413
#     4  12  26  47  75 101 142 187 233 287 349 413
#     4  12  27  46  73 107 140 185 235 285 352 414
#     4  12  27  46  73 107 140 185 235 285 352 414
#     4  12  25  48  74 101 145 184 230 293 347 410
#     4  12  28  48  71 106 142 184 235 288 347 416
#     4  12  28  48  71 106 142 184 235 288 347 416
#     4  12  25  48  74 101 145 184 230 293 347 410
#
# _framework density 22.486319000000002
#
# number of rings (size 3 to 8) (size 9 to 14) (size 15 to 20)
#    0.000    0.000    5.000    4.500    7.000    3.000 
#    0.000    0.000    0.000    0.000    0.000    0.000 
#    0.000    0.000    0.000    0.000    0.000    0.000 
#
# Total GULP energy -99274.397687 kJ/mol
# GULP energy per Si atom -12409.299711 kJ/mol
# Density = 2.243514 g / cm^3
# Si number density = 22.486319 Si / 1000 Ang^3
#
#
#
# Elastic Constant Matrix: (Units=GPa)
#
#
# Indices 1 2 3 4 5 6 
#
# 1 77.5584 10.7017 6.1806 -3.4549 0.5318 9.8148
# 2 10.7017 91.6557 35.4926 1.5653 -1.7775 19.6611
# 3 6.1806 35.4926 126.9367 -0.5455 -14.8835 19.5831
# 4 -3.4549 1.5653 -0.5455 42.7528 4.1688 -10.5491
# 5 0.5318 -1.7775 -14.8835 4.1688 37.5191 5.4367
# 6 9.8148 19.6611 19.5831 -10.5491 5.4367 24.1435
#
#
#
# Elastic Compliance Matrix: (Units=1/GPa)
#
#
# Indices 1 2 3 4 5 6 
#
# 1 0.013647 -0.000486 0.000488 -0.000423 0.000884 -0.005933
# 2 -0.000486 0.014411 -0.001904 -0.003789 0.002112 -0.012125
# 3 0.000488 -0.001904 0.010550 -0.002714 0.005795 -0.009696
# 4 -0.000423 -0.003789 -0.002714 0.029066 -0.007351 0.019814
# 5 0.000884 0.002112 0.005795 -0.007351 0.032360 -0.017278
# 6 -0.005933 -0.012125 -0.009696 0.019814 -0.017278 0.074117
#
#
# Mechanical properties :
#
#
# Convention : Reuss Voigt Hill
#
# Bulk Modulus (GPa) = 28.73042 44.54452 36.63747
# Shear Modulus (GPa) = 26.37752 37.13481 31.75616
#
# Velocity S-wave (km/s) = 3.42869 4.06820 3.76206
# Velocity P-wave (km/s) = 5.33659 6.47454 5.93291
#
# Compressibility (1/GPa) = 0.03480631
#
# Stress axis : x y z
#
# Youngs Moduli (GPa) = 73.27385 69.39180 94.78592
#
# Poissons Ratio (x) = 0.03370 -0.04629
# Poissons Ratio (y) = 0.03558 0.18045
# Poissons Ratio (z) = -0.03578 0.13211
#
# Static dielectric constant tensor:
#      x y z
#    x 4.086290 0.046930 0.002380 
#    y 0.046930 4.305630 -0.365980 
#    z 0.002380 -0.365980 4.501320 
# 
# 
# High freq. dielectric constant tensor:
#      x y z
#    x 1.885020 0.011570 -0.005950 
#    y 0.011570 1.898480 -0.007630 
#    z -0.005950 -0.007630 1.906200 
# 
# From -- ./inp_files/4440.got.cif
#   From: 2010.03.12/outbox.cif.g09.slc.cpg/sg1_3_cif.got.tgz:4440.got - 2010.03.29 11:57:58.
