data_PCOD8000745
_publ_section_title
;
Structure prediction by ZEFSAII (Michael W. Deem and Ramdas Pophale) SiO2 
 PCOD8000745
Probable space group: P -1
;
_chemical_formula_sum "Si O2"
_cell_formula_units_Z 16
_cell_length_a 8.837479
_cell_length_b 11.042087
_cell_length_c 17.225778
_cell_angle_alpha 148.712800
_cell_angle_beta 75.719648
_cell_angle_gamma 113.357581
_cell_volume 786.320035
_symmetry_space_group_name_H-M "P -1"
_symmetry_group_IT_number 2
_symmetry_cell_setting 'triclinic'
loop_
_space_group_symop_operation_xyz
x,y,z
-x,-y,-z
loop_
_atom_site_type_symbol
_atom_site_label
_atom_site_fract_x
_atom_site_fract_y
_atom_site_fract_z
Si Si1 0.787687 0.265221 0.689526
Si Si2 0.250796 0.433478 0.273213
Si Si3 0.072742 0.502148 0.904035
Si Si4 0.425492 0.702535 0.646517
Si Si5 0.641982 0.990878 0.918273
Si Si6 0.957440 0.537173 0.438438
Si Si7 0.834263 0.972723 0.381320
Si Si8 0.551549 0.089515 0.402139
O O1 0.715449 0.452335 0.755479
O O2 0.920449 0.436159 0.827411
O O3 0.858325 0.102041 0.534177
O O4 0.643087 0.056243 0.640004
O O5 0.261507 0.162610 0.132348
O O6 0.388453 0.625356 0.417789
O O7 0.062056 0.414892 0.305633
O O8 0.156663 0.297266 0.770898
O O9 0.000000 0.500000 0.000000
O O10 0.217649 0.756630 0.995091
O O11 0.500000 0.500000 0.500000
O O12 0.541153 0.851222 0.781216
O O13 0.233084 0.574120 0.626792
O O14 0.423704 0.895892 0.685189
O O15 0.500000 0.000000 0.000000
O O16 0.000000 0.500000 0.500000
O O17 0.017536 0.837342 0.585554
O O18 0.654800 0.943508 0.351745
#
# Coordination Sequence:
#
# PCOD8000745 Si02
#       8
#     2   2   2   2   2   2   2   2
#     4  10  23  44  73  94 125 176 232 274 332 388
#     4  10  22  44  68  98 131 170 228 285 325 403
#     4  12  29  46  62 100 144 180 216 275 343 407
#     4  12  23  41  72 100 134 175 229 276 332 398
#     4  12  30  45  65 100 144 181 220 278 344 403
#     4  10  19  39  70 102 124 167 231 281 324 379
#     4  10  23  41  72  95 131 169 227 275 325 404
#     4  10  20  40  73 102 121 168 229 285 325 383
#
# _framework density 20.347950000000001
#
# number of rings (size 3 to 8) (size 9 to 14) (size 15 to 20)
#    0.000    1.500    3.750    2.625   12.250    0.500 
#    2.250    1.250    0.000    0.000    0.000    0.000 
#    0.000    0.000    0.000    0.000    0.000    0.000 
#
# Total GULP energy -198288.388563 kJ/mol
# GULP energy per Si atom -12393.024285 kJ/mol
# Density = 2.030164 g / cm^3
# Si number density = 20.347950 Si / 1000 Ang^3
#
#
#
# Elastic Constant Matrix: (Units=GPa)
#
#
# Indices 1 2 3 4 5 6 
#
# 1 109.8157 48.9212 64.6944 13.6235 7.0519 10.4884
# 2 48.9212 120.6202 62.9105 13.9029 2.2976 17.1493
# 3 64.6944 62.9105 121.5388 8.4432 1.4819 -1.9931
# 4 13.6235 13.9029 8.4432 39.0587 -9.9729 7.8185
# 5 7.0519 2.2976 1.4819 -9.9729 37.7797 7.5223
# 6 10.4884 17.1493 -1.9931 7.8185 7.5223 42.3979
#
#
#
# Elastic Compliance Matrix: (Units=1/GPa)
#
#
# Indices 1 2 3 4 5 6 
#
# 1 0.014578 -0.001709 -0.006644 -0.003337 -0.002817 -0.002112
# 2 -0.001709 0.012820 -0.005688 -0.001720 0.000256 -0.004758
# 3 -0.006644 -0.005688 0.014761 0.000284 0.000175 0.004555
# 4 -0.003337 -0.001720 0.000284 0.031102 0.010120 -0.005997
# 5 -0.002817 0.000256 0.000175 0.010120 0.030991 -0.006763
# 6 -0.002112 -0.004758 0.004555 -0.005997 -0.006763 0.028553
#
#
# Mechanical properties :
#
#
# Convention : Reuss Voigt Hill
#
# Bulk Modulus (GPa) = 71.03180 78.33632 74.68406
# Shear Modulus (GPa) = 30.19719 35.54382 32.87050
#
# Velocity S-wave (km/s) = 3.85650 4.18401 4.02359
# Velocity P-wave (km/s) = 7.40368 7.86913 7.63995
#
# Compressibility (1/GPa) = 0.01407820
#
# Stress axis : x y z
#
# Youngs Moduli (GPa) = 68.59673 78.00290 67.74517
#
# Poissons Ratio (x) = 0.13330 0.45008
# Poissons Ratio (y) = 0.11722 0.38533
# Poissons Ratio (z) = 0.45574 0.44367
#
# Static dielectric constant tensor:
#      x y z
#    x 3.774060 0.037130 0.072750 
#    y 0.037130 4.311250 0.068370 
#    z 0.072750 0.068370 3.523410 
# 
# 
# High freq. dielectric constant tensor:
#      x y z
#    x 1.805440 -0.003590 0.009210 
#    y -0.003590 1.818380 0.005310 
#    z 0.009210 0.005310 1.773400 
# 
# From -- ./inp_files/559392.got.cif
#   From: 2010.06.25/outbox.cif.g09.slc.cpg/sg2_280_cif.got.tgz:559392.got - 2010.06.27 13:26:56.
