data_PCOD8000035
_publ_section_title
;
Structure prediction by ZEFSAII (Michael W. Deem and Ramdas Pophale) SiO2 
 PCOD8000035
Probable space group: P 1
;
_chemical_formula_sum "Si O2"
_cell_formula_units_Z 8
_cell_length_a 11.598602
_cell_length_b 19.116989
_cell_length_c 7.427619
_cell_angle_alpha 42.584285
_cell_angle_beta 141.331513
_cell_angle_gamma 155.515942
_cell_volume 424.359680
_symmetry_space_group_name_H-M "P 1"
_symmetry_group_IT_number 1
_symmetry_cell_setting 'triclinic'
loop_
_space_group_symop_operation_xyz
x,y,z
loop_
_atom_site_type_symbol
_atom_site_label
_atom_site_fract_x
_atom_site_fract_y
_atom_site_fract_z
Si Si1 0.430830 0.908020 0.883940
Si Si2 0.534681 0.412079 0.063252
Si Si3 0.852136 0.085389 0.749239
Si Si4 0.454731 0.730651 0.018648
Si Si5 0.843191 0.403962 0.704629
Si Si6 0.470481 0.408020 0.383933
Si Si7 0.772397 0.665100 0.569299
Si Si8 0.815790 0.150939 0.198575
O O1 0.129033 0.843370 0.640762
O O2 0.686357 0.065112 0.758403
O O3 0.340622 0.750929 0.009485
O O4 0.566146 0.972668 0.127108
O O5 0.747519 0.408022 0.383942
O O6 0.473344 0.450034 0.100415
O O7 0.713941 0.558787 0.859450
O O8 0.211589 0.232980 0.930793
O O9 0.770110 0.120343 0.413683
O O10 0.710824 0.908020 0.883942
O O11 0.603401 0.695698 0.354204
O O12 0.189854 0.583059 0.837094
O O13 0.630827 0.366010 0.667457
O O14 0.786118 0.257250 0.908430
O O15 0.650000 0.571131 0.408362
O O16 0.136234 0.244906 0.359495
#
# Coordination Sequence:
#
# PCOD8000035 Si02
#       8
#     1   1   1   1   1   1   1   1
#     4  10  24  40  62  96 124 156 208 256 298 368
#     4  10  22  41  63  94 122 158 214 247 293 386
#     4  10  22  43  61  92 127 155 211 253 294 377
#     4  10  22  43  61  92 127 155 211 253 294 377
#     4  10  22  41  63  94 122 158 214 247 293 386
#     4  10  20  40  62  94 120 154 212 254 286 372
#     4  12  22  42  66  85 131 166 193 259 315 343
#     4  12  22  42  66  85 131 166 193 259 315 343
#
# _framework density 18.851929999999999
#
# number of rings (size 3 to 8) (size 9 to 14) (size 15 to 20)
#    1.500    0.000    5.000    0.000    3.500    0.000 
#    9.000    0.000    0.000    0.000    0.000    0.000 
#    0.000    0.000    0.000    0.000    0.000    0.000 
#
# Total GULP energy -99134.956541 kJ/mol
# GULP energy per Si atom -12391.869568 kJ/mol
# Density = 1.880902 g / cm^3
# Si number density = 18.851930 Si / 1000 Ang^3
#
#
#
# Elastic Constant Matrix: (Units=GPa)
#
#
# Indices 1 2 3 4 5 6 
#
# 1 67.8913 21.6805 37.8704 6.0106 -1.0707 -0.7304
# 2 21.6805 101.5817 49.0344 23.4724 -0.7831 -0.7509
# 3 37.8704 49.0344 134.5193 6.5904 -0.9169 0.2773
# 4 6.0106 23.4724 6.5904 35.7927 0.2250 -0.2262
# 5 -1.0707 -0.7831 -0.9169 0.2250 32.3259 9.1624
# 6 -0.7304 -0.7509 0.2773 -0.2262 9.1624 29.0405
#
#
#
# Elastic Compliance Matrix: (Units=1/GPa)
#
#
# Indices 1 2 3 4 5 6 
#
# 1 0.017761 -0.001343 -0.004446 -0.001283 0.000343 0.000336
# 2 -0.001343 0.014153 -0.004376 -0.008249 0.000158 0.000260
# 3 -0.004446 -0.004376 0.010197 0.001736 0.000122 -0.000347
# 4 -0.001283 -0.008249 0.001736 0.033248 -0.000465 0.000144
# 5 0.000343 0.000158 0.000122 -0.000465 0.033995 -0.010717
# 6 0.000336 0.000260 -0.000347 0.000144 -0.010717 0.037836
#
#
# Mechanical properties :
#
#
# Convention : Reuss Voigt Hill
#
# Bulk Modulus (GPa) = 45.91242 57.90698 51.90970
# Shear Modulus (GPa) = 28.60749 32.45896 30.53322
#
# Velocity S-wave (km/s) = 3.89971 4.15394 4.02883
# Velocity P-wave (km/s) = 6.68462 7.33419 7.01693
#
# Compressibility (1/GPa) = 0.02178060
#
# Stress axis : x y z
#
# Youngs Moduli (GPa) = 56.30318 70.65866 98.06588
#
# Poissons Ratio (x) = 0.09488 0.43601
# Poissons Ratio (y) = 0.07561 0.42915
# Poissons Ratio (z) = 0.25033 0.30921
#
# Static dielectric constant tensor:
#      x y z
#    x 3.352900 -0.009070 -0.002920 
#    y -0.009070 3.490900 0.304140 
#    z -0.002920 0.304140 3.410130 
# 
# 
# High freq. dielectric constant tensor:
#      x y z
#    x 1.723980 -0.000710 0.000030 
#    y -0.000710 1.738020 0.023450 
#    z 0.000030 0.023450 1.719400 
# 
# From -- ./inp_files/4770.got.cif
#   From: 2010.03.12/outbox.cif.g09.slc.cpg/sg1_3_cif.got.tgz:4770.got - 2010.03.29 11:57:58.
