data_PCOD8000777
_publ_section_title
;
Structure prediction by ZEFSAII (Michael W. Deem and Ramdas Pophale) SiO2 
 PCOD8000777
Probable space group: P -1
;
_chemical_formula_sum "Si O2"
_cell_formula_units_Z 14
_cell_length_a 16.454443
_cell_length_b 13.524391
_cell_length_c 4.867103
_cell_angle_alpha 80.144531
_cell_angle_beta 101.095847
_cell_angle_gamma 35.700651
_cell_volume 508.825697
_symmetry_space_group_name_H-M "P -1"
_symmetry_group_IT_number 2
_symmetry_cell_setting 'triclinic'
loop_
_space_group_symop_operation_xyz
x,y,z
-x,-y,-z
loop_
_atom_site_type_symbol
_atom_site_label
_atom_site_fract_x
_atom_site_fract_y
_atom_site_fract_z
Si Si1 0.789912 0.678266 0.012129
Si Si2 0.527179 0.637309 0.446046
Si Si3 0.237932 0.777089 0.037208
Si Si4 0.176268 0.227177 0.504055
Si Si5 0.064918 0.810136 0.521595
Si Si6 0.266688 0.910094 0.602188
Si Si7 0.643920 0.630777 0.044794
O O1 0.786972 0.777880 0.159657
O O2 0.648034 0.747051 0.980621
O O3 0.973608 0.429117 0.236931
O O4 0.747576 0.765886 0.643000
O O5 0.500410 0.733331 0.104565
O O6 0.350289 0.790943 0.418225
O O7 0.654979 0.405073 0.594666
O O8 0.618126 0.616494 0.729569
O O9 0.191947 0.758941 0.747650
O O10 0.352897 0.749288 0.990033
O O11 0.051637 0.021337 0.887942
O O12 0.277961 0.017937 0.603662
O O13 0.177715 0.596897 0.596107
O O14 0.930562 0.913088 0.617064
#
# Coordination Sequence:
#
# PCOD8000777 Si02
#       7
#     2   2   2   2   2   2   2
#     4  10  20  40  61  90 116 156 198 260 290 359
#     4  11  24  38  63  89 130 158 202 234 322 349
#     4   8  17  38  63  90 121 163 199 250 296 362
#     4  10  21  36  64  91 116 151 208 245 308 335
#     4   8  17  36  66  87 122 152 215 236 305 342
#     4  10  19  40  59  95 122 162 197 260 285 373
#     4  11  22  43  60  92 120 167 194 258 290 371
#
# _framework density 27.514334999999999
#
# number of rings (size 3 to 8) (size 9 to 14) (size 15 to 20)
#    0.857    1.429    1.429    1.286    0.000    1.714 
#    0.000   16.429    0.000    0.000    0.000    0.000 
#    0.000    0.000    0.000    0.000    0.000    0.000 
#
# Total GULP energy -173447.826191 kJ/mol
# GULP energy per Si atom -12389.130442 kJ/mol
# Density = 2.745171 g / cm^3
# Si number density = 27.514335 Si / 1000 Ang^3
#
#
#
# Elastic Constant Matrix: (Units=GPa)
#
#
# Indices 1 2 3 4 5 6 
#
# 1 159.7753 -1.5633 36.9030 -3.3945 -38.2214 -0.8845
# 2 -1.5633 71.6717 33.6919 -5.6250 -11.5099 11.3282
# 3 36.9030 33.6919 92.0513 3.3877 -22.7409 -0.5253
# 4 -3.3945 -5.6250 3.3877 34.6393 -12.0464 0.4884
# 5 -38.2214 -11.5099 -22.7409 -12.0464 33.8384 0.2749
# 6 -0.8845 11.3282 -0.5253 0.4884 0.2749 33.1467
#
#
#
# Elastic Compliance Matrix: (Units=1/GPa)
#
#
# Indices 1 2 3 4 5 6 
#
# 1 0.010381 0.004474 -0.002615 0.006872 0.013948 -0.001510
# 2 0.004474 0.020919 -0.007255 0.008224 0.010280 -0.007351
# 3 -0.002615 -0.007255 0.015788 -0.001391 0.004673 0.002642
# 4 0.006872 0.008224 -0.001391 0.039282 0.023636 -0.003424
# 5 0.013948 0.010280 0.004673 0.023636 0.060391 -0.003916
# 6 -0.001510 -0.007351 0.002642 -0.003424 -0.003916 0.032766
#
#
# Mechanical properties :
#
#
# Convention : Reuss Voigt Hill
#
# Bulk Modulus (GPa) = 27.55180 51.28461 39.41820
# Shear Modulus (GPa) = 24.70165 37.28934 30.99549
#
# Velocity S-wave (km/s) = 2.99954 3.68539 3.36001
# Velocity P-wave (km/s) = 4.69379 6.06541 5.42314
#
# Compressibility (1/GPa) = 0.03629527
#
# Stress axis : x y z
#
# Youngs Moduli (GPa) = 96.33134 47.80418 63.34074
#
# Poissons Ratio (x) = -0.21385 0.16561
# Poissons Ratio (y) = -0.43094 0.45953
# Poissons Ratio (z) = 0.25187 0.34681
#
# Static dielectric constant tensor:
#      x y z
#    x 5.019160 -0.179220 -0.019020 
#    y -0.179220 4.950990 -0.401840 
#    z -0.019020 -0.401840 4.966520 
# 
# 
# High freq. dielectric constant tensor:
#      x y z
#    x 2.135070 -0.007080 0.004560 
#    y -0.007080 2.096030 -0.013630 
#    z 0.004560 -0.013630 2.114540 
# 
# From -- ./inp_files/110714.got.cif
#   From: 2010.06.25/outbox.cif.g09.slc.cpg/sg2_56_cif.got.tgz:110714.got - 2010.06.27 13:26:56.
