data_PCOD8000672
_publ_section_title
;
Structure prediction by ZEFSAII (Michael W. Deem and Ramdas Pophale) SiO2 
 PCOD8000672
Probable space group: P -1
;
_chemical_formula_sum "Si O2"
_cell_formula_units_Z 16
_cell_length_a 10.631612
_cell_length_b 8.797680
_cell_length_c 12.067234
_cell_angle_alpha 36.919287
_cell_angle_beta 98.777925
_cell_angle_gamma 98.322652
_cell_volume 669.559609
_symmetry_space_group_name_H-M "P -1"
_symmetry_group_IT_number 2
_symmetry_cell_setting 'triclinic'
loop_
_space_group_symop_operation_xyz
x,y,z
-x,-y,-z
loop_
_atom_site_type_symbol
_atom_site_label
_atom_site_fract_x
_atom_site_fract_y
_atom_site_fract_z
Si Si1 0.876957 0.159851 0.909273
Si Si2 0.517773 0.989649 0.690662
Si Si3 0.223857 0.738450 0.389704
Si Si4 0.748812 0.652010 0.192170
Si Si5 0.652428 0.732437 0.659241
Si Si6 0.477457 0.768715 0.047644
Si Si7 0.038585 0.575670 0.775579
Si Si8 0.086838 0.037092 0.360751
O O1 0.830470 0.320627 0.703799
O O2 0.918012 0.375220 0.876883
O O3 0.766712 0.952157 0.049013
O O4 0.000000 0.000000 0.000000
O O5 0.574463 0.795700 0.723424
O O6 0.628235 0.180573 0.640598
O O7 0.407739 0.145301 0.528856
O O8 0.456841 0.852534 0.869707
O O9 0.205422 0.496338 0.607589
O O10 0.139285 0.970887 0.285715
O O11 0.602640 0.596599 0.173280
O O12 0.828961 0.564584 0.144942
O O13 0.641563 0.423764 0.823598
O O14 0.795643 0.845079 0.618723
O O15 0.500000 0.000000 0.000000
O O16 0.019840 0.743622 0.787649
O O17 0.025821 0.784207 0.554942
#
# Coordination Sequence:
#
# PCOD8000672 Si02
#       8
#     2   2   2   2   2   2   2   2
#     4  10  21  37  63  88 120 169 207 252 308 369
#     4  10  21  41  67  92 124 172 208 256 326 379
#     4  10  19  39  67  88 125 166 204 260 311 382
#     4  10  21  39  62  89 125 163 208 246 317 376
#     4  10  22  41  68  95 125 165 212 260 320 385
#     4  12  25  40  63  96 130 164 213 266 315 378
#     4   9  20  39  63  87 122 165 200 262 301 369
#     4   9  20  38  63  94 122 157 211 256 309 367
#
# _framework density 23.896305000000002
#
# number of rings (size 3 to 8) (size 9 to 14) (size 15 to 20)
#    0.000    2.000    2.500    0.375    3.500    5.000 
#    2.250    2.500    0.000    1.500    0.000    0.000 
#    0.000    0.000    0.000    0.000    0.000    0.000 
#
# Total GULP energy -198238.832364 kJ/mol
# GULP energy per Si atom -12389.927023 kJ/mol
# Density = 2.384192 g / cm^3
# Si number density = 23.896305 Si / 1000 Ang^3
#
#
#
# Elastic Constant Matrix: (Units=GPa)
#
#
# Indices 1 2 3 4 5 6 
#
# 1 53.5715 1.6440 13.0654 -5.0440 -10.0370 10.2477
# 2 1.6440 62.3809 32.6709 -14.0824 1.2472 4.0079
# 3 13.0654 32.6709 122.8938 3.1724 -4.3593 5.0154
# 4 -5.0440 -14.0824 3.1724 44.3987 9.9313 -1.8587
# 5 -10.0370 1.2472 -4.3593 9.9313 26.9805 -6.7424
# 6 10.2477 4.0079 5.0154 -1.8587 -6.7424 26.9358
#
#
#
# Elastic Compliance Matrix: (Units=1/GPa)
#
#
# Indices 1 2 3 4 5 6 
#
# 1 0.021572 0.001237 -0.002203 0.001514 0.005426 -0.006518
# 2 0.001237 0.021425 -0.006104 0.008454 -0.005454 -0.003304
# 3 -0.002203 -0.006104 0.010160 -0.003446 0.002429 0.000225
# 4 0.001514 0.008454 -0.003446 0.028047 -0.011225 -0.002067
# 5 0.005426 -0.005454 0.002429 -0.011225 0.046124 0.009066
# 6 -0.006518 -0.003304 0.000225 -0.002067 0.009066 0.042182
#
#
# Mechanical properties :
#
#
# Convention : Reuss Voigt Hill
#
# Bulk Modulus (GPa) = 25.62975 37.06744 31.34859
# Shear Modulus (GPa) = 25.42531 32.42739 28.92635
#
# Velocity S-wave (km/s) = 3.26542 3.68775 3.48299
# Velocity P-wave (km/s) = 4.99659 5.80329 5.41498
#
# Compressibility (1/GPa) = 0.03901716
#
# Stress axis : x y z
#
# Youngs Moduli (GPa) = 46.35659 46.67545 98.42518
#
# Poissons Ratio (x) = -0.05776 0.21683
# Poissons Ratio (y) = -0.05736 0.60079
# Poissons Ratio (z) = 0.10212 0.28491
#
# Static dielectric constant tensor:
#      x y z
#    x 4.513220 0.053080 -0.106730 
#    y 0.053080 4.433230 -0.459290 
#    z -0.106730 -0.459290 4.295190 
# 
# 
# High freq. dielectric constant tensor:
#      x y z
#    x 1.949440 -0.000900 -0.004090 
#    y -0.000900 1.935100 -0.024230 
#    z -0.004090 -0.024230 1.942610 
# 
# From -- ./inp_files/416149.got.cif
#   From: 2010.06.25/outbox.cif.g09.slc.cpg/sg2_209_cif.got.tgz:416149.got - 2010.06.27 13:26:56.
