data_PCOD8000196
_publ_section_title
;
Structure prediction by ZEFSAII (Michael W. Deem and Ramdas Pophale) SiO2 
 PCOD8000196
Probable space group: P 1
;
_chemical_formula_sum "Si O2"
_cell_formula_units_Z 8
_cell_length_a 13.364039
_cell_length_b 5.112910
_cell_length_c 7.185994
_cell_angle_alpha 101.034812
_cell_angle_beta 42.434858
_cell_angle_gamma 84.723293
_cell_volume 304.353691
_symmetry_space_group_name_H-M "P 1"
_symmetry_group_IT_number 1
_symmetry_cell_setting 'triclinic'
loop_
_space_group_symop_operation_xyz
x,y,z
loop_
_atom_site_type_symbol
_atom_site_label
_atom_site_fract_x
_atom_site_fract_y
_atom_site_fract_z
Si Si1 0.213100 0.729980 0.164680
Si Si2 0.743187 0.783884 0.269223
Si Si3 0.599654 0.152599 0.014756
Si Si4 0.202327 0.024823 0.845854
Si Si5 0.458265 0.252148 0.592027
Si Si6 0.854807 0.277126 0.320114
Si Si7 0.409348 0.728072 0.218679
Si Si8 0.885558 0.660958 0.647354
O O1 0.253595 0.849815 0.317767
O O2 0.072518 0.603409 0.366191
O O3 0.395101 0.509168 0.857343
O O4 0.164998 0.958909 0.098493
O O5 0.754494 0.517329 0.345789
O O6 0.556705 0.949481 0.511341
O O7 0.798880 0.006473 0.343376
O O8 0.836968 0.672305 0.932471
O O9 0.565847 0.303204 0.285211
O O10 0.537437 0.402447 0.978867
O O11 0.505152 0.937851 0.096813
O O12 0.786716 0.963951 0.723969
O O13 0.288504 0.254306 0.750553
O O14 0.322121 0.744228 0.540813
O O15 0.036514 0.168198 0.987720
O O16 0.844387 0.409444 0.562292
#
# Coordination Sequence:
#
# PCOD8000196 Si02
#       8
#     1   1   1   1   1   1   1   1
#     4  12  25  44  72 104 140 187 235 293 356 423
#     4  11  29  48  74 108 147 193 243 298 359 432
#     4  10  25  48  70 103 144 188 232 298 353 423
#     4  11  25  47  69 106 146 186 234 300 357 424
#     4  10  24  46  71  99 147 182 236 292 356 417
#     4  12  27  47  77 106 148 194 240 294 370 430
#     4  11  26  44  75 102 142 186 242 288 357 425
#     4  11  27  48  72 110 148 188 242 301 362 430
#
# _framework density 26.285205000000001
#
# number of rings (size 3 to 8) (size 9 to 14) (size 15 to 20)
#    0.000    1.000    2.500    1.500    7.000    9.000 
#    0.000    0.000    0.000    0.000    0.000    0.000 
#    0.000    0.000    0.000    0.000    0.000    0.000 
#
# Total GULP energy -99130.473714 kJ/mol
# GULP energy per Si atom -12391.309214 kJ/mol
# Density = 2.622538 g / cm^3
# Si number density = 26.285205 Si / 1000 Ang^3
#
#
#
# Elastic Constant Matrix: (Units=GPa)
#
#
# Indices 1 2 3 4 5 6 
#
# 1 105.5546 10.6657 22.9247 1.7360 1.2209 -3.0623
# 2 10.6657 82.3001 10.7582 6.1501 7.7165 -12.3066
# 3 22.9247 10.7582 103.6520 11.8064 -1.1087 2.3766
# 4 1.7360 6.1501 11.8064 33.4678 -3.6272 -3.0260
# 5 1.2209 7.7165 -1.1087 -3.6272 50.0014 7.2580
# 6 -3.0623 -12.3066 2.3766 -3.0260 7.2580 38.3651
#
#
#
# Elastic Compliance Matrix: (Units=1/GPa)
#
#
# Indices 1 2 3 4 5 6 
#
# 1 0.010061 -0.000922 -0.002201 0.000465 -0.000223 0.000723
# 2 -0.000922 0.013544 -0.001122 -0.001933 -0.002921 0.004741
# 3 -0.002201 -0.001122 0.010695 -0.003547 0.000433 -0.001560
# 4 0.000465 -0.001933 -0.003547 0.031863 0.002270 0.001720
# 5 -0.000223 -0.002921 0.000433 0.002270 0.021332 -0.004838
# 6 0.000723 0.004741 -0.001560 0.001720 -0.004838 0.028791
#
#
# Mechanical properties :
#
#
# Convention : Reuss Voigt Hill
#
# Bulk Modulus (GPa) = 38.74395 42.24489 40.49442
# Shear Modulus (GPa) = 37.48675 40.84406 39.16540
#
# Velocity S-wave (km/s) = 3.78054 3.94621 3.86426
# Velocity P-wave (km/s) = 5.81623 6.07207 5.94552
#
# Compressibility (1/GPa) = 0.02581048
#
# Stress axis : x y z
#
# Youngs Moduli (GPa) = 99.39439 73.83376 93.49847
#
# Poissons Ratio (x) = 0.06806 0.20583
# Poissons Ratio (y) = 0.09163 0.10487
# Poissons Ratio (z) = 0.21881 0.08281
#
# Static dielectric constant tensor:
#      x y z
#    x 4.915150 0.008290 0.055310 
#    y 0.008290 4.257150 0.335700 
#    z 0.055310 0.335700 5.291600 
# 
# 
# High freq. dielectric constant tensor:
#      x y z
#    x 2.063820 0.000150 -0.003480 
#    y 0.000150 2.035100 0.011230 
#    z -0.003480 0.011230 2.075110 
# 
# From -- ./inp_files/5655.got.cif
#   From: 2010.03.12/outbox.cif.g09.slc.cpg/sg1_3_cif.got.tgz:5655.got - 2010.03.29 11:57:58.
