data_PCOD8000383
_publ_section_title
;
Structure prediction by ZEFSAII (Michael W. Deem and Ramdas Pophale) SiO2 
 PCOD8000383
Probable space group: P -1
;
_chemical_formula_sum "Si O2"
_cell_formula_units_Z 16
_cell_length_a 17.541884
_cell_length_b 11.358559
_cell_length_c 9.251873
_cell_angle_alpha 117.835800
_cell_angle_beta 114.665793
_cell_angle_gamma 29.376889
_cell_volume 799.435329
_symmetry_space_group_name_H-M "P -1"
_symmetry_group_IT_number 2
_symmetry_cell_setting 'triclinic'
loop_
_space_group_symop_operation_xyz
x,y,z
-x,-y,-z
loop_
_atom_site_type_symbol
_atom_site_label
_atom_site_fract_x
_atom_site_fract_y
_atom_site_fract_z
Si Si1 0.141692 0.219638 0.123715
Si Si2 0.131405 0.002516 0.479978
Si Si3 0.030078 0.154110 0.180261
Si Si4 0.942090 0.379219 0.794901
Si Si5 0.694524 0.493354 0.719476
Si Si6 0.742281 0.378271 0.008390
Si Si7 0.472785 0.677781 0.151796
Si Si8 0.560868 0.289582 0.512025
O O1 0.060937 0.266751 0.230045
O O2 0.113798 0.413674 0.211331
O O3 0.325290 0.947861 0.119331
O O4 0.060489 0.254220 0.945015
O O5 0.014735 0.152850 0.338128
O O6 0.035632 0.159683 0.636415
O O7 0.206069 0.757514 0.419683
O O8 0.255354 0.955752 0.517295
O O9 0.175278 0.877016 0.068310
O O10 0.870654 0.321506 0.078521
O O11 0.787052 0.508620 0.796095
O O12 0.652853 0.511494 0.861750
O O13 0.529881 0.717911 0.630281
O O14 0.625096 0.557003 0.152086
O O15 0.465113 0.672955 0.315138
O O16 0.500000 0.500000 0.000000
O O17 0.500000 0.500000 0.500000
#
# Coordination Sequence:
#
# PCOD8000383 Si02
#       8
#     2   2   2   2   2   2   2   2
#     4  11  24  43  61  88 127 165 215 240 305 380
#     4  10  21  37  64  90 117 163 204 256 312 351
#     4  10  19  39  60  91 120 153 211 254 299 367
#     4  11  25  41  62  89 127 171 199 257 303 363
#     4  10  21  39  60  93 126 152 210 259 302 361
#     4  10  21  35  64  93 122 156 199 264 305 348
#     4  12  22  38  65  91 121 164 203 254 306 364
#     4  10  22  37  59  98 125 149 203 260 313 360
#
# _framework density 20.014127999999999
#
# number of rings (size 3 to 8) (size 9 to 14) (size 15 to 20)
#    0.000    1.500    3.750    1.875    7.000    0.500 
#    0.000    2.500    0.000    0.000    0.000    0.000 
#    0.000    0.000    0.000    0.000    0.000    0.000 
#
# Total GULP energy -198341.945011 kJ/mol
# GULP energy per Si atom -12396.371563 kJ/mol
# Density = 1.996858 g / cm^3
# Si number density = 20.014128 Si / 1000 Ang^3
#
#
#
# Elastic Constant Matrix: (Units=GPa)
#
#
# Indices 1 2 3 4 5 6 
#
# 1 106.4728 24.9915 14.9472 -4.8489 1.9510 0.5791
# 2 24.9915 55.3929 19.3886 -18.7754 2.6902 1.7575
# 3 14.9472 19.3886 53.3466 -18.1106 4.6876 -9.1776
# 4 -4.8489 -18.7754 -18.1106 27.0186 -5.4354 3.3001
# 5 1.9510 2.6902 4.6876 -5.4354 26.9600 5.1462
# 6 0.5791 1.7575 -9.1776 3.3001 5.1462 22.7429
#
#
#
# Elastic Compliance Matrix: (Units=1/GPa)
#
#
# Indices 1 2 3 4 5 6 
#
# 1 0.010775 -0.005136 -0.002233 -0.003205 -0.000486 -0.000203
# 2 -0.005136 0.027678 -0.004358 0.016855 0.003085 -0.006911
# 3 -0.002233 -0.004358 0.027468 0.013000 -0.003542 0.010393
# 4 -0.003205 0.016855 0.013000 0.059627 0.009609 -0.006801
# 5 -0.000486 0.003085 -0.003542 0.009609 0.041758 -0.012499
# 6 -0.000203 -0.006911 0.010393 -0.006801 -0.012499 0.052518
#
#
# Mechanical properties :
#
#
# Convention : Reuss Voigt Hill
#
# Bulk Modulus (GPa) = 23.54774 37.09633 30.32203
# Shear Modulus (GPa) = 19.42245 25.73665 22.57955
#
# Velocity S-wave (km/s) = 3.11856 3.58987 3.36248
# Velocity P-wave (km/s) = 4.97578 5.97981 5.50075
#
# Compressibility (1/GPa) = 0.04246692
#
# Stress axis : x y z
#
# Youngs Moduli (GPa) = 92.80632 36.12960 36.40653
#
# Poissons Ratio (x) = 0.18557 0.08128
# Poissons Ratio (y) = 0.47667 0.15867
# Poissons Ratio (z) = 0.20720 0.15746
#
# Static dielectric constant tensor:
#      x y z
#    x 3.965250 -0.348170 0.007690 
#    y -0.348170 3.655000 -0.308540 
#    z 0.007690 -0.308540 3.657460 
# 
# 
# High freq. dielectric constant tensor:
#      x y z
#    x 1.790980 -0.016660 -0.006470 
#    y -0.016660 1.757400 -0.032020 
#    z -0.006470 -0.032020 1.774350 
# 
# From -- ./inp_files/184930.got.cif
#   From: 2010.06.25/outbox.cif.g09.slc.cpg/sg2_93_cif.got.tgz:184930.got - 2010.06.27 13:26:56.
