data_PCOD8000682
_publ_section_title
;
Structure prediction by ZEFSAII (Michael W. Deem and Ramdas Pophale) SiO2 
 PCOD8000682
Probable space group: P -1
;
_chemical_formula_sum "Si O2"
_cell_formula_units_Z 16
_cell_length_a 15.678999
_cell_length_b 8.788373
_cell_length_c 10.391481
_cell_angle_alpha 115.613343
_cell_angle_beta 34.998959
_cell_angle_gamma 118.403170
_cell_volume 719.819611
_symmetry_space_group_name_H-M "P -1"
_symmetry_group_IT_number 2
_symmetry_cell_setting 'triclinic'
loop_
_space_group_symop_operation_xyz
x,y,z
-x,-y,-z
loop_
_atom_site_type_symbol
_atom_site_label
_atom_site_fract_x
_atom_site_fract_y
_atom_site_fract_z
Si Si1 0.815649 0.327532 0.284445
Si Si2 0.083605 0.756496 0.614166
Si Si3 0.606052 0.778310 0.969147
Si Si4 0.304298 0.551301 0.185751
Si Si5 0.753409 0.616895 0.059815
Si Si6 0.526100 0.815664 0.360491
Si Si7 0.908156 0.371447 0.910387
Si Si8 0.141313 0.928029 0.342468
O O1 0.845195 0.194896 0.311893
O O2 0.636004 0.324087 0.502371
O O3 0.914214 0.522414 0.267334
O O4 0.865968 0.269788 0.060515
O O5 0.138155 0.584390 0.436765
O O6 0.136574 0.901185 0.492429
O O7 0.901849 0.723564 0.837933
O O8 0.429006 0.729299 0.128296
O O9 0.617951 0.844130 0.124557
O O10 0.675058 0.608180 0.808827
O O11 0.699712 0.934276 0.824768
O O12 0.333692 0.519255 0.988161
O O13 0.638874 0.738897 0.289233
O O14 0.804452 0.515252 0.080136
O O15 0.500000 0.000000 0.500000
O O16 0.869132 0.247188 0.790322
O O17 0.000000 0.000000 0.500000
#
# Coordination Sequence:
#
# PCOD8000682 Si02
#       8
#     2   2   2   2   2   2   2   2
#     4  10  23  42  68  89 129 180 217 263 325 387
#     4  11  22  41  69  95 126 172 221 262 322 389
#     4  10  23  37  63 100 132 165 212 271 332 377
#     4  10  19  39  67  94 125 171 211 265 321 397
#     4  10  22  38  69  96 121 175 223 263 321 387
#     4  11  22  41  64  92 133 174 215 266 328 386
#     4  10  23  44  65  95 130 168 226 270 315 399
#     4  12  25  39  64 102 134 167 215 281 325 373
#
# _framework density 22.227791
#
# number of rings (size 3 to 8) (size 9 to 14) (size 15 to 20)
#    0.000    1.500    2.500    2.625    5.250    1.000 
#    0.000    6.875    0.000    0.000    0.000    0.000 
#    0.000    0.000    0.000    0.000    0.000    0.000 
#
# Total GULP energy -198291.452263 kJ/mol
# GULP energy per Si atom -12393.215766 kJ/mol
# Density = 2.217720 g / cm^3
# Si number density = 22.227791 Si / 1000 Ang^3
#
#
#
# Elastic Constant Matrix: (Units=GPa)
#
#
# Indices 1 2 3 4 5 6 
#
# 1 109.7205 47.0514 58.5307 -9.5043 4.5813 -19.0737
# 2 47.0514 99.7903 57.3900 -4.5917 -12.1920 -8.0054
# 3 58.5307 57.3900 115.9064 -9.2801 -13.0597 -14.8295
# 4 -9.5043 -4.5917 -9.2801 43.1823 -12.2558 -4.1653
# 5 4.5813 -12.1920 -13.0597 -12.2558 49.4280 -6.3011
# 6 -19.0737 -8.0054 -14.8295 -4.1653 -6.3011 32.7258
#
#
#
# Elastic Compliance Matrix: (Units=1/GPa)
#
#
# Indices 1 2 3 4 5 6 
#
# 1 0.014506 -0.003836 -0.004971 0.001451 -0.002614 0.004945
# 2 -0.003836 0.015200 -0.005290 0.000386 0.002760 -0.000334
# 3 -0.004971 -0.005290 0.015003 0.003190 0.004403 0.003861
# 4 0.001451 0.000386 0.003190 0.027353 0.008543 0.007512
# 5 -0.002614 0.002760 0.004403 0.008543 0.025343 0.007114
# 6 0.004945 -0.000334 0.003861 0.007512 0.007114 0.037433
#
#
# Mechanical properties :
#
#
# Convention : Reuss Voigt Hill
#
# Bulk Modulus (GPa) = 60.55523 72.37351 66.46437
# Shear Modulus (GPa) = 29.66717 35.89689 32.78203
#
# Velocity S-wave (km/s) = 3.65730 4.02301 3.84451
# Velocity P-wave (km/s) = 6.71838 7.36275 7.04793
#
# Compressibility (1/GPa) = 0.01651385
#
# Stress axis : x y z
#
# Youngs Moduli (GPa) = 68.93902 65.78823 66.65503
#
# Poissons Ratio (x) = 0.25239 0.33136
# Poissons Ratio (y) = 0.26448 0.35259
# Poissons Ratio (z) = 0.34271 0.34800
#
# Static dielectric constant tensor:
#      x y z
#    x 4.271270 -0.100000 -0.097610 
#    y -0.100000 3.790320 -0.041690 
#    z -0.097610 -0.041690 4.072970 
# 
# 
# High freq. dielectric constant tensor:
#      x y z
#    x 1.883750 -0.003980 -0.010060 
#    y -0.003980 1.841800 -0.005510 
#    z -0.010060 -0.005510 1.876840 
# 
# From -- ./inp_files/461455.got.cif
#   From: 2010.06.25/outbox.cif.g09.slc.cpg/sg2_231_cif.got.tgz:461455.got - 2010.06.27 13:26:56.
