data_PCOD8000855
_publ_section_title
;
Structure prediction by ZEFSAII (Michael W. Deem and Ramdas Pophale) SiO2 
 PCOD8000855
Probable space group: P -1
;
_chemical_formula_sum "Si O2"
_cell_formula_units_Z 16
_cell_length_a 15.961919
_cell_length_b 9.436264
_cell_length_c 10.278226
_cell_angle_alpha 111.171311
_cell_angle_beta 35.602163
_cell_angle_gamma 118.882951
_cell_volume 787.618561
_symmetry_space_group_name_H-M "P -1"
_symmetry_group_IT_number 2
_symmetry_cell_setting 'triclinic'
loop_
_space_group_symop_operation_xyz
x,y,z
-x,-y,-z
loop_
_atom_site_type_symbol
_atom_site_label
_atom_site_fract_x
_atom_site_fract_y
_atom_site_fract_z
Si Si1 0.737570 0.318271 0.440042
Si Si2 0.694947 0.345195 0.038692
Si Si3 0.176293 0.826376 0.965939
Si Si4 0.579003 0.874680 0.311113
Si Si5 0.172131 0.317785 0.625833
Si Si6 0.308694 0.801479 0.263318
Si Si7 0.339290 0.368536 0.699234
Si Si8 0.602414 0.838575 0.776274
O O1 0.807866 0.221738 0.219894
O O2 0.552202 0.267441 0.646422
O O3 0.819268 0.506791 0.373184
O O4 0.774887 0.281550 0.527731
O O5 0.760830 0.284444 0.060241
O O6 0.729244 0.537541 0.076345
O O7 0.509833 0.245315 0.231978
O O8 0.772134 0.312139 0.795990
O O9 0.276333 0.017638 0.923789
O O10 0.001778 0.802311 0.210746
O O11 0.642499 0.792599 0.319018
O O12 0.500000 0.000000 0.500000
O O13 0.221832 0.315121 0.710990
O O14 0.280838 0.256224 0.375314
O O15 0.294005 0.977293 0.327186
O O16 0.492986 0.828721 0.036966
O O17 0.500000 0.500000 0.500000
#
# Coordination Sequence:
#
# PCOD8000855 Si02
#       8
#     2   2   2   2   2   2   2   2
#     4  11  21  39  64  95 122 160 219 254 301 371
#     4  10  19  40  64  87 122 173 207 247 309 376
#     4  11  24  40  62  97 131 163 203 261 323 363
#     4  10  22  36  61  93 122 162 209 257 299 374
#     4  12  24  38  64  98 133 158 200 271 323 361
#     4   9  21  39  66  87 120 171 219 252 300 369
#     4  12  19  37  62  94 121 162 209 260 310 363
#     4   9  20  39  65  87 121 170 211 253 311 371
#
# _framework density 20.314402999999999
#
# number of rings (size 3 to 8) (size 9 to 14) (size 15 to 20)
#    0.750    0.750    3.750    1.875    3.500    1.000 
#    0.000    1.250    0.000    0.000    0.000    0.000 
#    0.000    0.000    0.000    0.000    0.000    0.000 
#
# Total GULP energy -198308.618237 kJ/mol
# GULP energy per Si atom -12394.288640 kJ/mol
# Density = 2.026817 g / cm^3
# Si number density = 20.314403 Si / 1000 Ang^3
#
#
#
# Elastic Constant Matrix: (Units=GPa)
#
#
# Indices 1 2 3 4 5 6 
#
# 1 52.5938 15.5601 19.9571 -7.9041 10.3298 -12.3036
# 2 15.5601 76.4313 11.2806 -0.5491 3.5205 -13.4482
# 3 19.9571 11.2806 62.9940 -5.8765 -8.0443 -0.0027
# 4 -7.9041 -0.5491 -5.8765 27.5919 5.1646 -1.1309
# 5 10.3298 3.5205 -8.0443 5.1646 39.4791 -4.8724
# 6 -12.3036 -13.4482 -0.0027 -1.1309 -4.8724 28.1994
#
#
#
# Elastic Compliance Matrix: (Units=1/GPa)
#
#
# Indices 1 2 3 4 5 6 
#
# 1 0.028441 -0.002210 -0.008979 0.008273 -0.008904 0.010148
# 2 -0.002210 0.014919 -0.002060 -0.000458 -0.000363 0.006069
# 3 -0.008979 -0.002060 0.019894 0.000330 0.006070 -0.003836
# 4 0.008273 -0.000458 0.000330 0.040109 -0.006832 0.003819
# 5 -0.008904 -0.000363 0.006070 -0.006832 0.029926 0.000839
# 6 0.010148 0.006069 -0.003836 0.003819 0.000839 0.043082
#
#
# Mechanical properties :
#
#
# Convention : Reuss Voigt Hill
#
# Bulk Modulus (GPa) = 27.20736 31.73496 29.47116
# Shear Modulus (GPa) = 23.24266 28.73548 25.98907
#
# Velocity S-wave (km/s) = 3.38619 3.76511 3.58067
# Velocity P-wave (km/s) = 5.35823 5.87854 5.62441
#
# Compressibility (1/GPa) = 0.03675476
#
# Stress axis : x y z
#
# Youngs Moduli (GPa) = 35.16067 67.02881 50.26613
#
# Poissons Ratio (x) = 0.14812 0.45136
# Poissons Ratio (y) = 0.07770 0.10357
# Poissons Ratio (z) = 0.31572 0.13810
#
# Static dielectric constant tensor:
#      x y z
#    x 3.521060 0.111450 -0.066130 
#    y 0.111450 3.883620 -0.001580 
#    z -0.066130 -0.001580 3.581020 
# 
# 
# High freq. dielectric constant tensor:
#      x y z
#    x 1.774840 0.001080 0.001770 
#    y 0.001080 1.798380 0.003300 
#    z 0.001770 0.003300 1.765740 
# 
# From -- ./inp_files/462185.got.cif
#   From: 2010.06.25/outbox.cif.g09.slc.cpg/sg2_232_cif.got.tgz:462185.got - 2010.06.27 13:26:56.
