data_PCOD8000266
_publ_section_title
;
Structure prediction by ZEFSAII (Michael W. Deem and Ramdas Pophale) SiO2 
 PCOD8000266
Probable space group: P 1
;
_chemical_formula_sum "Si O2"
_cell_formula_units_Z 8
_cell_length_a 11.575295
_cell_length_b 5.222296
_cell_length_c 7.903101
_cell_angle_alpha 89.463094
_cell_angle_beta 139.303961
_cell_angle_gamma 86.353450
_cell_volume 309.657454
_symmetry_space_group_name_H-M "P 1"
_symmetry_group_IT_number 1
_symmetry_cell_setting 'triclinic'
loop_
_space_group_symop_operation_xyz
x,y,z
loop_
_atom_site_type_symbol
_atom_site_label
_atom_site_fract_x
_atom_site_fract_y
_atom_site_fract_z
Si Si1 0.502010 0.653020 0.429930
Si Si2 0.881793 0.965752 0.545840
Si Si3 0.686645 0.722623 0.054614
Si Si4 0.548476 0.372903 0.146359
Si Si5 0.163946 0.281071 0.729649
Si Si6 0.964577 0.391781 0.166782
Si Si7 0.651828 0.114386 0.761027
Si Si8 0.110504 0.620659 0.003029
O O1 0.527274 0.596826 0.261138
O O2 0.556045 0.395229 0.603745
O O3 0.295175 0.738043 0.243713
O O4 0.608318 0.901120 0.576249
O O5 0.808083 0.748010 0.352052
O O6 0.731742 0.203733 0.399735
O O7 0.061457 0.034223 0.651838
O O8 0.946855 0.848157 0.800741
O O9 0.555977 0.513175 0.970108
O O10 0.804817 0.615710 0.026704
O O11 0.587669 0.996773 0.873379
O O12 0.378582 0.208777 0.961168
O O13 0.099917 0.383100 0.473559
O O14 0.118593 0.476206 0.832645
O O15 0.068634 0.438124 0.110830
O O16 0.864387 0.135090 0.024412
#
# Coordination Sequence:
#
# PCOD8000266 Si02
#       8
#     1   1   1   1   1   1   1   1
#     4  11  30  52  78 120 162 211 276 335 400 491
#     4  12  25  50  80 117 167 212 270 334 413 480
#     4  12  25  47  76 118 157 220 264 331 408 479
#     4  11  28  48  81 117 159 217 265 340 408 478
#     4  11  26  52  75 117 160 206 283 329 409 483
#     4  12  26  50  79 114 165 217 266 340 400 480
#     4  12  27  50  78 115 162 210 271 326 406 480
#     4  11  29  49  79 118 164 215 271 337 406 483
#
# _framework density 25.834997000000001
#
# number of rings (size 3 to 8) (size 9 to 14) (size 15 to 20)
#    0.000    0.500    5.000    0.000   12.250    1.000 
#    0.000    1.250    0.000    0.000    0.000    0.000 
#    0.000    0.000    0.000    0.000    0.000    0.000 
#
# Total GULP energy -99134.759818 kJ/mol
# GULP energy per Si atom -12391.844977 kJ/mol
# Density = 2.577620 g / cm^3
# Si number density = 25.834997 Si / 1000 Ang^3
#
#
#
# Elastic Constant Matrix: (Units=GPa)
#
#
# Indices 1 2 3 4 5 6 
#
# 1 105.7751 28.4377 55.1024 5.0775 3.6969 17.3230
# 2 28.4377 96.1328 32.0256 8.5864 2.2122 1.2404
# 3 55.1024 32.0256 126.7086 9.2978 -8.3284 -0.5284
# 4 5.0775 8.5864 9.2978 49.5623 12.3362 -5.1461
# 5 3.6969 2.2122 -8.3284 12.3362 38.3798 -1.6767
# 6 17.3230 1.2404 -0.5284 -5.1461 -1.6767 24.4382
#
#
#
# Elastic Compliance Matrix: (Units=1/GPa)
#
#
# Indices 1 2 3 4 5 6 
#
# 1 0.015280 -0.002165 -0.006317 -0.000397 -0.003077 -0.011153
# 2 -0.002165 0.011820 -0.001980 -0.001277 -0.000466 0.000591
# 3 -0.006317 -0.001980 0.011543 -0.001671 0.003972 0.004749
# 4 -0.000397 -0.001277 -0.001671 0.023095 -0.007470 0.004661
# 5 -0.003077 -0.000466 0.003972 -0.007470 0.029762 0.002760
# 6 -0.011153 0.000591 0.004749 0.004661 0.002760 0.050069
#
#
# Mechanical properties :
#
#
# Convention : Reuss Voigt Hill
#
# Bulk Modulus (GPa) = 56.44170 62.19420 59.31795
# Shear Modulus (GPa) = 29.69093 36.67944 33.18519
#
# Velocity S-wave (km/s) = 3.39374 3.77206 3.58789
# Velocity P-wave (km/s) = 6.10336 6.56484 6.33830
#
# Compressibility (1/GPa) = 0.01771740
#
# Stress axis : x y z
#
# Youngs Moduli (GPa) = 65.44375 84.60465 86.62979
#
# Poissons Ratio (x) = 0.18320 0.54727
# Poissons Ratio (y) = 0.14171 0.17154
# Poissons Ratio (z) = 0.41343 0.16753
#
# Static dielectric constant tensor:
#      x y z
#    x 4.598490 0.190450 -0.068040 
#    y 0.190450 4.572020 0.188080 
#    z -0.068040 0.188080 5.113820 
# 
# 
# High freq. dielectric constant tensor:
#      x y z
#    x 2.025810 0.018320 -0.014120 
#    y 0.018320 2.033100 0.010340 
#    z -0.014120 0.010340 2.049800 
# 
# From -- ./inp_files/5153.got.cif
#   From: 2010.03.12/outbox.cif.g09.slc.cpg/sg1_3_cif.got.tgz:5153.got - 2010.03.29 11:57:58.
