data_PCOD8000027
_publ_section_title
;
Structure prediction by ZEFSAII (Michael W. Deem and Ramdas Pophale) SiO2 
 PCOD8000027
Probable space group: P 1
;
_chemical_formula_sum "Si O2"
_cell_formula_units_Z 8
_cell_length_a 9.141574
_cell_length_b 5.100853
_cell_length_c 8.395470
_cell_angle_alpha 72.314729
_cell_angle_beta 108.257768
_cell_angle_gamma 106.200775
_cell_volume 346.812974
_symmetry_space_group_name_H-M "P 1"
_symmetry_group_IT_number 1
_symmetry_cell_setting 'triclinic'
loop_
_space_group_symop_operation_xyz
x,y,z
loop_
_atom_site_type_symbol
_atom_site_label
_atom_site_fract_x
_atom_site_fract_y
_atom_site_fract_z
Si Si1 0.914750 0.957770 0.714870
Si Si2 0.111835 0.614592 0.009534
Si Si3 0.677515 0.625065 0.209195
Si Si4 0.349054 0.957423 0.543707
Si Si5 0.200600 0.361531 0.604415
Si Si6 0.963383 0.001320 0.070242
Si Si7 0.397685 0.607134 0.899078
Si Si8 0.634919 0.005988 0.404753
O O1 0.750520 0.872176 0.582545
O O2 0.878756 0.050751 0.864656
O O3 0.023429 0.210462 0.608082
O O4 0.006017 0.695843 0.809283
O O5 0.101863 0.828881 0.112124
O O6 0.289006 0.644373 0.005862
O O7 0.041379 0.304038 0.111185
O O8 0.840709 0.829884 0.183009
O O9 0.714028 0.327364 0.330497
O O10 0.598408 0.793076 0.283451
O O11 0.561912 0.553439 0.031406
O O12 0.210573 0.688383 0.501827
O O13 0.433685 0.885892 0.749292
O O14 0.271061 0.223089 0.502768
O O15 0.471723 0.021425 0.430935
O O16 0.306413 0.348349 0.804667
#
# Coordination Sequence:
#
# PCOD8000027 Si02
#       8
#     1   1   1   1   1   1   1   1
#     4  10  22  42  69  95 121 162 215 267 307 370
#     4  10  20  38  73  95 114 153 226 269 301 348
#     4  12  28  43  60  94 139 172 201 254 326 385
#     4  10  21  42  65  95 118 166 219 254 309 365
#     4  10  20  38  73  95 114 153 226 269 301 348
#     4  10  21  42  65  95 118 166 219 254 309 365
#     4  10  22  42  69  95 121 162 215 267 307 370
#     4  12  28  43  60  94 139 172 201 254 326 385
#
# _framework density 23.067191000000001
#
# number of rings (size 3 to 8) (size 9 to 14) (size 15 to 20)
#    1.500    0.000    2.500    2.250    3.500    0.000 
#    4.500    7.500    0.000    0.000    0.000    0.000 
#    0.000    0.000    0.000    0.000    0.000    0.000 
#
# Total GULP energy -99141.046473 kJ/mol
# GULP energy per Si atom -12392.630809 kJ/mol
# Density = 2.301469 g / cm^3
# Si number density = 23.067191 Si / 1000 Ang^3
#
#
#
# Elastic Constant Matrix: (Units=GPa)
#
#
# Indices 1 2 3 4 5 6 
#
# 1 56.9490 11.6192 7.2497 1.2275 -18.6255 -2.2436
# 2 11.6192 115.7134 2.6137 1.3732 -6.1356 -12.6569
# 3 7.2497 2.6137 32.3028 1.2773 -11.2154 -0.2192
# 4 1.2275 1.3732 1.2773 29.1948 -1.2368 -11.4775
# 5 -18.6255 -6.1356 -11.2154 -1.2368 28.3969 -0.3851
# 6 -2.2436 -12.6569 -0.2192 -11.4775 -0.3851 34.3537
#
#
#
# Elastic Compliance Matrix: (Units=1/GPa)
#
#
# Indices 1 2 3 4 5 6 
#
# 1 0.022654 -0.001372 0.000106 0.000201 0.014629 0.001206
# 2 -0.001372 0.009235 -0.000051 0.001131 0.001175 0.003704
# 3 0.000106 -0.000051 0.035905 -0.000948 0.014199 0.000060
# 4 0.000201 0.001131 -0.000948 0.039704 0.001917 0.013710
# 5 0.014629 0.001175 0.014199 0.001917 0.050792 0.002689
# 6 0.001206 0.003704 0.000060 0.013710 0.002689 0.035163
#
#
# Mechanical properties :
#
#
# Convention : Reuss Voigt Hill
#
# Bulk Modulus (GPa) = 15.34675 27.54782 21.44728
# Shear Modulus (GPa) = 22.95616 30.62125 26.78870
#
# Velocity S-wave (km/s) = 3.15808 3.64741 3.41153
# Velocity P-wave (km/s) = 4.46827 5.45037 4.98357
#
# Compressibility (1/GPa) = 0.06516038
#
# Stress axis : x y z
#
# Youngs Moduli (GPa) = 44.14296 108.28448 27.85118
#
# Poissons Ratio (x) = 0.14856 -0.00296
# Poissons Ratio (y) = 0.06056 0.00142
# Poissons Ratio (z) = -0.00469 0.00552
#
# Static dielectric constant tensor:
#      x y z
#    x 3.731950 -0.058570 -0.214690 
#    y -0.058570 3.990210 -0.047370 
#    z -0.214690 -0.047370 3.837940 
# 
# 
# High freq. dielectric constant tensor:
#      x y z
#    x 1.898020 -0.000220 -0.019110 
#    y -0.000220 1.908830 -0.004240 
#    z -0.019110 -0.004240 1.893620 
# 
# From -- ./inp_files/3402.got.cif
#   From: 2010.03.12/outbox.cif.g09.slc.cpg/sg1_2_cif.got.tgz:3402.got - 2010.03.29 11:57:58.
