data_PCOD8000393
_publ_section_title
;
Structure prediction by ZEFSAII (Michael W. Deem and Ramdas Pophale) SiO2 
 PCOD8000393
Probable space group: P -1
;
_chemical_formula_sum "Si O2"
_cell_formula_units_Z 16
_cell_length_a 11.918230
_cell_length_b 8.828524
_cell_length_c 21.333245
_cell_angle_alpha 76.840197
_cell_angle_beta 142.597122
_cell_angle_gamma 129.523466
_cell_volume 846.801564
_symmetry_space_group_name_H-M "P -1"
_symmetry_group_IT_number 2
_symmetry_cell_setting 'triclinic'
loop_
_space_group_symop_operation_xyz
x,y,z
-x,-y,-z
loop_
_atom_site_type_symbol
_atom_site_label
_atom_site_fract_x
_atom_site_fract_y
_atom_site_fract_z
Si Si1 0.450532 0.928728 0.664513
Si Si2 0.717179 0.479376 0.836403
Si Si3 0.348904 0.508703 0.482424
Si Si4 0.295032 0.795668 0.375899
Si Si5 0.825335 0.665052 0.115094
Si Si6 0.127525 0.940630 0.600065
Si Si7 0.011859 0.384616 0.928471
Si Si8 0.331525 0.222823 0.277503
O O1 0.166168 0.818849 0.580587
O O2 0.423861 0.730218 0.651079
O O3 0.542416 0.092188 0.629590
O O4 0.702361 0.099933 0.812237
O O5 0.963959 0.539174 0.903894
O O6 0.656291 0.599441 0.762702
O O7 0.428594 0.189180 0.740360
O O8 0.819775 0.584169 0.942011
O O9 0.500000 0.500000 0.500000
O O10 0.219309 0.571294 0.381946
O O11 0.588946 0.716133 0.619888
O O12 0.085486 0.246103 0.421698
O O13 0.988838 0.689655 0.244247
O O14 0.500000 0.000000 0.500000
O O15 0.807958 0.530501 0.062869
O O16 0.500000 0.500000 0.000000
O O17 0.013779 0.940366 0.154659
O O18 0.000000 0.000000 0.500000
#
# Coordination Sequence:
#
# PCOD8000393 Si02
#       8
#     2   2   2   2   2   2   2   2
#     4   9  20  39  63  84 117 155 202 252 299 356
#     4  10  19  39  61  85 114 157 201 251 301 356
#     4  12  24  38  60  91 122 162 202 243 313 366
#     4  10  19  42  63  84 122 165 196 247 310 360
#     4  10  22  41  59  89 123 157 202 251 300 367
#     4  11  22  39  58  89 123 153 203 252 290 357
#     4   8  19  38  62  76 117 158 196 242 311 350
#     4  10  21  39  62  86 118 157 202 249 309 355
#
# _framework density 18.894628000000001
#
# number of rings (size 3 to 8) (size 9 to 14) (size 15 to 20)
#    0.000    2.250    3.750    0.750    3.500    3.500 
#   11.250    0.625    0.000    0.000    0.000    0.000 
#    0.000    0.000    0.000    0.000    0.000    0.000 
#
# Total GULP energy -198304.220587 kJ/mol
# GULP energy per Si atom -12394.013787 kJ/mol
# Density = 1.885162 g / cm^3
# Si number density = 18.894628 Si / 1000 Ang^3
#
#
#
# Elastic Constant Matrix: (Units=GPa)
#
#
# Indices 1 2 3 4 5 6 
#
# 1 148.2541 47.3729 62.4056 -2.0728 10.5648 -9.6304
# 2 47.3729 118.4660 31.5978 -10.4308 11.1752 -2.1873
# 3 62.4056 31.5978 106.9093 -8.8778 -4.8593 2.4197
# 4 -2.0728 -10.4308 -8.8778 31.0216 -0.3333 3.6689
# 5 10.5648 11.1752 -4.8593 -0.3333 38.1682 0.9354
# 6 -9.6304 -2.1873 2.4197 3.6689 0.9354 28.3608
#
#
#
# Elastic Compliance Matrix: (Units=1/GPa)
#
#
# Indices 1 2 3 4 5 6 
#
# 1 0.010427 -0.002468 -0.005783 -0.002323 -0.003024 0.004244
# 2 -0.002468 0.010306 -0.001475 0.002876 -0.002492 -0.000207
# 3 -0.005783 -0.001475 0.013724 0.003541 0.003905 -0.003835
# 4 -0.002323 0.002876 0.003541 0.034705 0.000687 -0.005381
# 5 -0.003024 -0.002492 0.003905 0.000687 0.028333 -0.002576
# 6 0.004244 -0.000207 -0.003835 -0.005381 -0.002576 0.037793
#
#
# Mechanical properties :
#
#
# Convention : Reuss Voigt Hill
#
# Bulk Modulus (GPa) = 66.64932 72.93135 69.79034
# Shear Modulus (GPa) = 31.30044 34.99366 33.14705
#
# Velocity S-wave (km/s) = 4.07452 4.30821 4.19299
# Velocity P-wave (km/s) = 7.58198 7.96431 7.77550
#
# Compressibility (1/GPa) = 0.01500390
#
# Stress axis : x y z
#
# Youngs Moduli (GPa) = 95.90542 97.03018 72.86511
#
# Poissons Ratio (x) = 0.23946 0.42141
# Poissons Ratio (y) = 0.23668 0.10749
# Poissons Ratio (z) = 0.55466 0.14314
#
# Static dielectric constant tensor:
#      x y z
#    x 3.662100 -0.166210 -0.106440 
#    y -0.166210 3.568560 -0.178410 
#    z -0.106440 -0.178410 3.624550 
# 
# 
# High freq. dielectric constant tensor:
#      x y z
#    x 1.738080 -0.018920 -0.009710 
#    y -0.018920 1.720590 -0.010860 
#    z -0.009710 -0.010860 1.737640 
# 
# From -- ./inp_files/305947.got.cif
#   From: 2010.06.25/outbox.cif.g09.slc.cpg/sg2_153_cif.got.tgz:305947.got - 2010.06.27 13:26:56.
