data_PCOD8000967
_publ_section_title
;
Structure prediction by ZEFSAII (Michael W. Deem and Ramdas Pophale) SiO2 
 PCOD8000967
Probable space group: P -1
;
_chemical_formula_sum "Si O2"
_cell_formula_units_Z 16
_cell_length_a 8.858464
_cell_length_b 9.840839
_cell_length_c 9.534632
_cell_angle_alpha 79.434232
_cell_angle_beta 101.712829
_cell_angle_gamma 115.420361
_cell_volume 730.710930
_symmetry_space_group_name_H-M "P -1"
_symmetry_group_IT_number 2
_symmetry_cell_setting 'triclinic'
loop_
_space_group_symop_operation_xyz
x,y,z
-x,-y,-z
loop_
_atom_site_type_symbol
_atom_site_label
_atom_site_fract_x
_atom_site_fract_y
_atom_site_fract_z
Si Si1 0.722789 0.342133 0.277620
Si Si2 0.793819 0.694571 0.749653
Si Si3 0.160689 0.888122 0.750058
Si Si4 0.619493 0.773236 0.936648
Si Si5 0.058153 0.546475 0.160295
Si Si6 0.575372 0.812125 0.221207
Si Si7 0.722730 0.119646 0.921527
Si Si8 0.508481 0.350266 0.483235
O O1 0.770375 0.197974 0.332746
O O2 0.568469 0.301737 0.147449
O O3 0.672007 0.376194 0.416151
O O4 0.889132 0.487069 0.234106
O O5 0.738790 0.702406 0.899277
O O6 0.817198 0.537754 0.759317
O O7 0.660322 0.730692 0.623587
O O8 0.962387 0.836967 0.713310
O O9 0.245854 0.067561 0.710163
O O10 0.204918 0.839484 0.917901
O O11 0.715672 0.957357 0.899671
O O12 0.606683 0.723313 0.109473
O O13 0.157754 0.727817 0.170943
O O14 0.000000 0.500000 0.000000
O O15 0.470839 0.900476 0.117447
O O16 0.476634 0.723281 0.353467
O O17 0.500000 0.500000 0.500000
#
# Coordination Sequence:
#
# PCOD8000967 Si02
#       8
#     2   2   2   2   2   2   2   2
#     4  10  20  41  66  88 124 168 211 250 318 374
#     4  10  23  41  64  93 135 158 208 265 323 369
#     4  10  19  40  67  94 123 158 213 269 306 368
#     4  10  20  40  68  98 123 163 211 271 312 365
#     4  11  20  38  67  95 123 165 209 261 315 374
#     4  11  21  38  67  91 127 167 211 252 315 379
#     4  11  19  37  67 101 127 152 221 266 310 362
#     4  11  26  44  57  89 135 171 205 259 317 381
#
# _framework density 21.896484999999998
#
# number of rings (size 3 to 8) (size 9 to 14) (size 15 to 20)
#    0.000    1.500    5.000    1.500    0.000    4.000 
#    2.250    8.750    0.000    0.000    0.000    0.000 
#    0.000    0.000    0.000    0.000    0.000    0.000 
#
# Total GULP energy -198235.526138 kJ/mol
# GULP energy per Si atom -12389.720384 kJ/mol
# Density = 2.184665 g / cm^3
# Si number density = 21.896485 Si / 1000 Ang^3
#
#
#
# Elastic Constant Matrix: (Units=GPa)
#
#
# Indices 1 2 3 4 5 6 
#
# 1 117.4886 24.0654 40.9532 2.7494 -34.4141 8.6596
# 2 24.0654 81.8620 26.1386 -3.4365 -21.7870 12.5898
# 3 40.9532 26.1386 109.5367 -6.6464 -37.0238 -4.8296
# 4 2.7494 -3.4365 -6.6464 24.7397 -2.5377 -1.0996
# 5 -34.4141 -21.7870 -37.0238 -2.5377 39.6229 -2.7879
# 6 8.6596 12.5898 -4.8296 -1.0996 -2.7879 26.1794
#
#
#
# Elastic Compliance Matrix: (Units=1/GPa)
#
#
# Indices 1 2 3 4 5 6 
#
# 1 0.011860 -0.000277 -0.001840 -0.001165 0.008122 -0.003313
# 2 -0.000277 0.015716 -0.001614 0.002141 0.006539 -0.006978
# 3 -0.001840 -0.001614 0.014906 0.005487 0.012193 0.005664
# 4 -0.001165 0.002141 0.005487 0.043308 0.008282 0.003069
# 5 0.008122 0.006539 0.012193 0.008282 0.047943 0.001872
# 6 -0.003313 -0.006978 0.005664 0.003069 0.001872 0.044023
#
#
# Mechanical properties :
#
#
# Convention : Reuss Voigt Hill
#
# Bulk Modulus (GPa) = 28.55490 54.57793 41.56641
# Shear Modulus (GPa) = 25.39482 32.62375 29.00929
#
# Velocity S-wave (km/s) = 3.40923 3.86412 3.64378
# Velocity P-wave (km/s) = 5.34475 6.69986 6.06030
#
# Compressibility (1/GPa) = 0.03502026
#
# Stress axis : x y z
#
# Youngs Moduli (GPa) = 84.31778 63.63035 67.08546
#
# Poissons Ratio (x) = 0.01762 0.12341
# Poissons Ratio (y) = 0.02335 0.10830
# Poissons Ratio (z) = 0.15511 0.10273
#
# Static dielectric constant tensor:
#      x y z
#    x 3.902800 0.137140 -0.251090 
#    y 0.137140 4.001300 0.132670 
#    z -0.251090 0.132670 3.494660 
# 
# 
# High freq. dielectric constant tensor:
#      x y z
#    x 1.861890 0.016710 -0.005690 
#    y 0.016710 1.862160 0.007480 
#    z -0.005690 0.007480 1.839300 
# 
# From -- ./inp_files/187680.got.cif
#   From: 2010.06.25/outbox.cif.g09.slc.cpg/sg2_94_cif.got.tgz:187680.got - 2010.06.27 13:26:56.
