data_PCOD8000163
_publ_section_title
;
Structure prediction by ZEFSAII (Michael W. Deem and Ramdas Pophale) SiO2 
 PCOD8000163
Probable space group: P 1
;
_chemical_formula_sum "Si O2"
_cell_formula_units_Z 8
_cell_length_a 13.400149
_cell_length_b 5.274715
_cell_length_c 5.274718
_cell_angle_alpha 94.875553
_cell_angle_beta 63.863129
_cell_angle_gamma 114.434656
_cell_volume 302.561666
_symmetry_space_group_name_H-M "P 1"
_symmetry_group_IT_number 1
_symmetry_cell_setting 'triclinic'
loop_
_space_group_symop_operation_xyz
x,y,z
loop_
_atom_site_type_symbol
_atom_site_label
_atom_site_fract_x
_atom_site_fract_y
_atom_site_fract_z
Si Si1 0.348170 0.681790 0.756350
Si Si2 0.776178 0.707941 0.979197
Si Si3 0.120873 0.423921 0.270630
Si Si4 0.035153 0.105904 0.859207
Si Si5 0.463161 0.184765 0.029343
Si Si6 0.690458 0.125079 0.832620
Si Si7 0.225576 0.904807 0.527804
Si Si8 0.585756 0.658500 0.561139
O O1 0.261397 0.678215 0.617083
O O2 0.459575 0.602028 0.549792
O O3 0.405666 0.993196 0.832928
O O4 0.258706 0.458174 0.044539
O O5 0.775554 0.462526 0.768728
O O6 0.666754 0.549412 0.289478
O O7 0.753958 0.965331 0.909604
O O8 0.905666 0.837843 0.988282
O O9 0.142837 0.738190 0.362854
O O10 0.057374 0.219939 0.557378
O O11 0.035777 0.317621 0.103374
O O12 0.144578 0.014473 0.798887
O O13 0.549934 0.497579 0.859373
O O14 0.552625 0.075504 0.074032
O O15 0.351756 0.168514 0.331915
O O16 0.668495 0.988928 0.562279
#
# Coordination Sequence:
#
# PCOD8000163 Si02
#       8
#     1   1   1   1   1   1   1   1
#     4  10  23  42  77 116 153 200 255 322 395 471
#     4  12  30  47  78 107 152 209 264 316 386 462
#     4  11  26  50  72 112 148 203 254 325 384 461
#     4  12  30  47  78 107 152 209 264 316 386 462
#     4  10  23  42  77 116 153 200 255 322 395 471
#     4  11  26  50  72 112 148 203 254 325 384 461
#     4  11  25  47  75 112 160 197 259 321 395 462
#     4  11  25  47  75 112 160 197 259 321 395 462
#
# _framework density 26.440894
#
# number of rings (size 3 to 8) (size 9 to 14) (size 15 to 20)
#    0.000    1.000    2.500    1.500   14.000    0.000 
#    0.000    1.250    0.000    0.000    0.000    0.000 
#    0.000    0.000    0.000    0.000    0.000    0.000 
#
# Total GULP energy -99113.092095 kJ/mol
# GULP energy per Si atom -12389.136512 kJ/mol
# Density = 2.638071 g / cm^3
# Si number density = 26.440894 Si / 1000 Ang^3
#
#
#
# Elastic Constant Matrix: (Units=GPa)
#
#
# Indices 1 2 3 4 5 6 
#
# 1 68.6961 12.8560 16.0118 10.5912 8.6661 -14.9033
# 2 12.8560 123.8801 18.8323 21.4870 12.8700 7.4154
# 3 16.0118 18.8323 91.2858 -2.3053 10.4741 -2.3348
# 4 10.5912 21.4870 -2.3053 36.0079 4.0563 15.0105
# 5 8.6661 12.8700 10.4741 4.0563 33.5263 6.1960
# 6 -14.9033 7.4154 -2.3348 15.0105 6.1960 39.6485
#
#
#
# Elastic Compliance Matrix: (Units=1/GPa)
#
#
# Indices 1 2 3 4 5 6 
#
# 1 0.020208 0.000007 -0.002892 -0.010658 -0.005304 0.012288
# 2 0.000007 0.009583 -0.001816 -0.005848 -0.002537 0.000714
# 3 -0.002892 -0.001816 0.012198 0.003386 -0.002609 -0.000903
# 4 -0.010658 -0.005848 0.003386 0.042310 0.002353 -0.019099
# 5 -0.005304 -0.002537 -0.002609 0.002353 0.034163 -0.007902
# 6 0.012288 0.000714 -0.000903 -0.019099 -0.007902 0.038119
#
#
# Mechanical properties :
#
#
# Convention : Reuss Voigt Hill
#
# Bulk Modulus (GPa) = 30.68869 42.14026 36.41447
# Shear Modulus (GPa) = 28.27296 37.58066 32.92681
#
# Velocity S-wave (km/s) = 3.27355 3.77411 3.53271
# Velocity P-wave (km/s) = 5.09116 5.91304 5.51742
#
# Compressibility (1/GPa) = 0.03258530
#
# Stress axis : x y z
#
# Youngs Moduli (GPa) = 49.48564 104.35079 81.97817
#
# Poissons Ratio (x) = -0.00069 0.23709
# Poissons Ratio (y) = -0.00033 0.14891
# Poissons Ratio (z) = 0.14312 0.18955
#
# Static dielectric constant tensor:
#      x y z
#    x 4.643490 0.288570 -0.208090 
#    y 0.288570 4.788510 0.195380 
#    z -0.208090 0.195380 4.625110 
# 
# 
# High freq. dielectric constant tensor:
#      x y z
#    x 2.047770 0.025720 -0.004120 
#    y 0.025720 2.069930 0.013950 
#    z -0.004120 0.013950 2.040150 
# 
# From -- ./inp_files/329.got.cif
#   From: 2010.03.12/outbox.cif.g09.slc.cpg/sg1_1_cif.got.tgz:329.got - 2010.03.29 11:57:58.
