data_PCOD8000503
_publ_section_title
;
Structure prediction by ZEFSAII (Michael W. Deem and Ramdas Pophale) SiO2 
 PCOD8000503
Probable space group: P -1
;
_chemical_formula_sum "Si O2"
_cell_formula_units_Z 14
_cell_length_a 11.187367
_cell_length_b 11.461733
_cell_length_c 17.476778
_cell_angle_alpha 28.143453
_cell_angle_beta 33.917687
_cell_angle_gamma 39.753671
_cell_volume 583.944076
_symmetry_space_group_name_H-M "P -1"
_symmetry_group_IT_number 2
_symmetry_cell_setting 'triclinic'
loop_
_space_group_symop_operation_xyz
x,y,z
-x,-y,-z
loop_
_atom_site_type_symbol
_atom_site_label
_atom_site_fract_x
_atom_site_fract_y
_atom_site_fract_z
Si Si1 0.668634 0.579573 0.754988
Si Si2 0.062751 0.016544 0.635704
Si Si3 0.673102 0.407281 0.187495
Si Si4 0.899633 0.685688 0.784441
Si Si5 0.296449 0.147149 0.984501
Si Si6 0.300715 0.350854 0.702080
Si Si7 0.447035 0.856970 0.843957
O O1 0.572355 0.540398 0.744086
O O2 0.481735 0.767305 0.789999
O O3 0.892174 0.698524 0.564643
O O4 0.708582 0.316348 0.930601
O O5 0.283034 0.867717 0.640481
O O6 0.992381 0.902768 0.658426
O O7 0.893619 0.003702 0.801029
O O8 0.726240 0.571969 0.135771
O O9 0.840132 0.466067 0.998278
O O10 0.688599 0.820162 0.774698
O O11 0.079385 0.546593 0.710164
O O12 0.325693 0.161646 0.870267
O O13 0.500000 0.000000 0.000000
O O14 0.500000 0.500000 0.500000
O O15 0.325465 0.142834 0.741463
#
# Coordination Sequence:
#
# PCOD8000503 Si02
#       7
#     2   2   2   2   2   2   2
#     4  10  22  40  63  89 129 169 201 251 321 387
#     4  11  19  37  67  92 118 162 215 258 314 368
#     4  10  19  39  63  89 121 162 208 259 310 371
#     4  10  20  40  67  92 122 163 213 267 314 359
#     4  11  22  39  65  95 126 159 215 275 313 362
#     4  12  23  39  66  97 125 162 215 267 315 374
#     4  10  24  43  62  91 134 167 204 260 318 384
#
# _framework density 23.974899000000001
#
# number of rings (size 3 to 8) (size 9 to 14) (size 15 to 20)
#    0.000    1.429    2.857    4.714    0.000    3.429 
#    0.000    9.286    0.000    0.000    0.000    0.000 
#    0.000    0.000    0.000    0.000    0.000    0.000 
#
# Total GULP energy -173501.717241 kJ/mol
# GULP energy per Si atom -12392.979803 kJ/mol
# Density = 2.392033 g / cm^3
# Si number density = 23.974899 Si / 1000 Ang^3
#
#
#
# Elastic Constant Matrix: (Units=GPa)
#
#
# Indices 1 2 3 4 5 6 
#
# 1 43.9730 -18.4883 9.3921 2.7420 -13.3999 -0.2647
# 2 -18.4883 77.4746 28.4060 1.8369 -9.6148 0.6641
# 3 9.3921 28.4060 144.1448 -14.9353 -28.2982 2.9037
# 4 2.7420 1.8369 -14.9353 23.7403 8.7415 -2.8053
# 5 -13.3999 -9.6148 -28.2982 8.7415 28.0391 -3.1394
# 6 -0.2647 0.6641 2.9037 -2.8053 -3.1394 28.8515
#
#
#
# Elastic Compliance Matrix: (Units=1/GPa)
#
#
# Indices 1 2 3 4 5 6 
#
# 1 0.037437 0.013085 -0.001605 -0.015674 0.025812 0.001488
# 2 0.013085 0.018959 -0.003103 -0.009534 0.012645 0.000445
# 3 -0.001605 -0.003103 0.009307 0.003966 0.006347 0.000196
# 4 -0.015674 -0.009534 0.003966 0.056314 -0.024029 0.002537
# 5 0.025812 0.012645 0.006347 -0.024029 0.066707 0.004229
# 6 0.001488 0.000445 0.000196 0.002537 0.004229 0.035351
#
#
# Mechanical properties :
#
#
# Convention : Reuss Voigt Hill
#
# Bulk Modulus (GPa) = 12.12757 33.80133 22.96445
# Shear Modulus (GPa) = 21.29414 32.54502 26.91958
#
# Velocity S-wave (km/s) = 2.98348 3.68837 3.35449
# Velocity P-wave (km/s) = 4.11553 5.68050 4.96012
#
# Compressibility (1/GPa) = 0.08245678
#
# Stress axis : x y z
#
# Youngs Moduli (GPa) = 26.71125 52.74495 107.45050
#
# Poissons Ratio (x) = -0.69014 0.17241
# Poissons Ratio (y) = -0.34950 0.33344
# Poissons Ratio (z) = 0.04286 0.16368
#
# Static dielectric constant tensor:
#      x y z
#    x 4.184700 0.120370 -0.039080 
#    y 0.120370 3.832970 0.027440 
#    z -0.039080 0.027440 4.361950 
# 
# 
# High freq. dielectric constant tensor:
#      x y z
#    x 1.940880 0.006820 0.000210 
#    y 0.006820 1.930070 -0.007700 
#    z 0.000210 -0.007700 1.957750 
# 
# From -- ./inp_files/198970.got.cif
#   From: 2010.06.25/outbox.cif.g09.slc.cpg/sg2_100_cif.got.tgz:198970.got - 2010.06.27 13:26:56.
