data_PCOD8000920
_publ_section_title
;
Structure prediction by ZEFSAII (Michael W. Deem and Ramdas Pophale) SiO2 
 PCOD8000920
Probable space group: P -1
;
_chemical_formula_sum "Si O2"
_cell_formula_units_Z 16
_cell_length_a 19.992266
_cell_length_b 22.482817
_cell_length_c 13.321818
_cell_angle_alpha 35.872420
_cell_angle_beta 25.117506
_cell_angle_gamma 18.249095
_cell_volume 738.510614
_symmetry_space_group_name_H-M "P -1"
_symmetry_group_IT_number 2
_symmetry_cell_setting 'triclinic'
loop_
_space_group_symop_operation_xyz
x,y,z
-x,-y,-z
loop_
_atom_site_type_symbol
_atom_site_label
_atom_site_fract_x
_atom_site_fract_y
_atom_site_fract_z
Si Si1 0.563968 0.753982 0.667867
Si Si2 0.597055 0.024416 0.125379
Si Si3 0.613289 0.186852 0.558753
Si Si4 0.965049 0.160174 0.386358
Si Si5 0.688925 0.536511 0.236589
Si Si6 0.318157 0.240847 0.704940
Si Si7 0.002859 0.138997 0.009183
Si Si8 0.921613 0.691741 0.402145
O O1 0.570151 0.743175 0.554008
O O2 0.685024 0.797166 0.486008
O O3 0.769580 0.547126 0.712772
O O4 0.217800 0.935137 0.938513
O O5 0.255693 0.241994 0.343122
O O6 0.545464 0.942596 0.263004
O O7 0.867588 0.883622 0.034079
O O8 0.730599 0.017536 0.860507
O O9 0.341149 0.373161 0.750840
O O10 0.465468 0.187379 0.684483
O O11 0.921538 0.962133 0.500277
O O12 0.694420 0.246479 0.308834
O O13 0.852511 0.338214 0.318242
O O14 0.657541 0.277189 0.597805
O O15 0.933382 0.453467 0.941408
O O16 0.958440 0.258815 0.829584
#
# Coordination Sequence:
#
# PCOD8000920 Si02
#       8
#     2   2   2   2   2   2   2   2
#     4  10  21  38  63  98 119 169 217 264 313 376
#     4  10  19  40  66  89 127 167 212 267 311 378
#     4  12  26  41  64  98 135 172 204 264 330 384
#     4  10  23  42  67  97 125 170 221 262 315 376
#     4  10  23  42  65  94 128 168 218 268 304 380
#     4  11  23  42  64  96 137 165 209 267 327 381
#     4  11  21  40  63  91 129 161 221 261 308 381
#     4  10  20  37  67  95 121 167 220 266 309 372
#
# _framework density 21.665226000000001
#
# number of rings (size 3 to 8) (size 9 to 14) (size 15 to 20)
#    0.000    1.500    3.750    1.500    1.750    5.500 
#    2.250    0.625    0.000    0.000    0.000    0.000 
#    0.000    0.000    0.000    0.000    0.000    0.000 
#
# Total GULP energy -198271.148138 kJ/mol
# GULP energy per Si atom -12391.946759 kJ/mol
# Density = 2.161591 g / cm^3
# Si number density = 21.665226 Si / 1000 Ang^3
#
#
#
# Elastic Constant Matrix: (Units=GPa)
#
#
# Indices 1 2 3 4 5 6 
#
# 1 117.2118 31.7296 26.3071 3.5422 9.2547 15.3953
# 2 31.7296 56.8585 31.2733 4.6207 6.7002 10.9439
# 3 26.3071 31.2733 81.9853 -3.9008 10.6814 1.0504
# 4 3.5422 4.6207 -3.9008 20.2459 6.7695 8.9081
# 5 9.2547 6.7002 10.6814 6.7695 27.3649 0.2984
# 6 15.3953 10.9439 1.0504 8.9081 0.2984 28.6329
#
#
#
# Elastic Compliance Matrix: (Units=1/GPa)
#
#
# Indices 1 2 3 4 5 6 
#
# 1 0.010721 -0.004179 -0.001394 0.001641 -0.002414 -0.004602
# 2 -0.004179 0.026318 -0.008738 -0.004032 -0.000555 -0.006231
# 3 -0.001394 -0.008738 0.017032 0.006822 -0.005740 0.001402
# 4 0.001641 -0.004032 0.006822 0.066311 -0.018416 -0.020030
# 5 -0.002414 -0.000555 -0.005740 -0.018416 0.044216 0.006989
# 6 -0.004602 -0.006231 0.001402 -0.020030 0.006989 0.045888
#
#
# Mechanical properties :
#
#
# Convention : Reuss Voigt Hill
#
# Bulk Modulus (GPa) = 39.29465 48.29728 43.79597
# Shear Modulus (GPa) = 20.19451 26.36510 23.27981
#
# Velocity S-wave (km/s) = 3.05637 3.49224 3.28155
# Velocity P-wave (km/s) = 5.53460 6.21304 5.88361
#
# Compressibility (1/GPa) = 0.02544875
#
# Stress axis : x y z
#
# Youngs Moduli (GPa) = 93.27252 37.99676 58.71203
#
# Poissons Ratio (x) = 0.15879 0.08187
# Poissons Ratio (y) = 0.38980 0.51301
# Poissons Ratio (z) = 0.13007 0.33201
#
# Static dielectric constant tensor:
#      x y z
#    x 3.814740 0.237400 0.240730 
#    y 0.237400 3.687550 0.026840 
#    z 0.240730 0.026840 3.983230 
# 
# 
# High freq. dielectric constant tensor:
#      x y z
#    x 1.835480 0.029080 0.019380 
#    y 0.029080 1.837320 -0.000910 
#    z 0.019380 -0.000910 1.852730 
# 
# From -- ./inp_files/467087.got.cif
#   From: 2010.06.25/outbox.cif.g09.slc.cpg/sg2_234_cif.got.tgz:467087.got - 2010.06.27 13:26:56.
