data_PCOD8000410
_publ_section_title
;
Structure prediction by ZEFSAII (Michael W. Deem and Ramdas Pophale) SiO2 
 PCOD8000410
Probable space group: P -1
;
_chemical_formula_sum "Si O2"
_cell_formula_units_Z 16
_cell_length_a 9.605867
_cell_length_b 12.034022
_cell_length_c 9.147994
_cell_angle_alpha 77.974416
_cell_angle_beta 105.934133
_cell_angle_gamma 133.212637
_cell_volume 740.786383
_symmetry_space_group_name_H-M "P -1"
_symmetry_group_IT_number 2
_symmetry_cell_setting 'triclinic'
loop_
_space_group_symop_operation_xyz
x,y,z
-x,-y,-z
loop_
_atom_site_type_symbol
_atom_site_label
_atom_site_fract_x
_atom_site_fract_y
_atom_site_fract_z
Si Si1 0.123083 0.973101 0.630909
Si Si2 0.646849 0.473397 0.567695
Si Si3 0.588125 0.716974 0.199184
Si Si4 0.017776 0.163445 0.072340
Si Si5 0.833604 0.630685 0.197556
Si Si6 0.072789 0.739084 0.505993
Si Si7 0.360368 0.686052 0.654907
Si Si8 0.310895 0.121008 0.096642
O O1 0.007245 0.839527 0.759666
O O2 0.188243 0.910527 0.550477
O O3 0.298356 0.131363 0.711834
O O4 0.000000 0.000000 0.500000
O O5 0.500000 0.500000 0.500000
O O6 0.615734 0.413825 0.741863
O O7 0.582405 0.338853 0.476325
O O8 0.867496 0.623827 0.563266
O O9 0.711751 0.666723 0.230232
O O10 0.549298 0.748390 0.020359
O O11 0.145543 0.118280 0.105628
O O12 0.124259 0.323161 0.974934
O O13 0.807050 0.044440 0.964411
O O14 0.715294 0.452150 0.220438
O O15 0.032644 0.726601 0.323867
O O16 0.193988 0.690755 0.585715
O O17 0.550762 0.843582 0.739300
#
# Coordination Sequence:
#
# PCOD8000410 Si02
#       8
#     2   2   2   2   2   2   2   2
#     4  11  21  38  65  92 121 154 213 257 299 356
#     4  11  20  38  63  92 117 157 212 251 294 354
#     4  10  20  37  60  95 113 157 206 267 292 346
#     4   9  21  37  64  92 116 161 206 260 294 353
#     4  10  19  39  61  90 126 156 204 254 308 351
#     4  11  24  40  60  92 130 163 198 252 314 361
#     4  11  24  40  60  91 132 164 196 248 313 376
#     4   9  21  38  59  89 128 153 204 251 310 356
#
# _framework density 21.598669999999998
#
# number of rings (size 3 to 8) (size 9 to 14) (size 15 to 20)
#    0.000    1.750    3.750    2.250    3.500    3.000 
#    0.000   10.000    0.000    0.000    0.000    0.000 
#    0.000    0.000    0.000    0.000    0.000    0.000 
#
# Total GULP energy -198255.145908 kJ/mol
# GULP energy per Si atom -12390.946619 kJ/mol
# Density = 2.154951 g / cm^3
# Si number density = 21.598670 Si / 1000 Ang^3
#
#
#
# Elastic Constant Matrix: (Units=GPa)
#
#
# Indices 1 2 3 4 5 6 
#
# 1 93.6578 26.9221 26.1411 0.5638 6.7118 -0.1940
# 2 26.9221 32.1085 20.2153 -0.6513 0.0480 -16.2893
# 3 26.1411 20.2153 85.2501 -0.3675 0.1630 6.3011
# 4 0.5638 -0.6513 -0.3675 43.8496 6.9727 -4.3247
# 5 6.7118 0.0480 0.1630 6.9727 20.1623 5.3405
# 6 -0.1940 -16.2893 6.3011 -4.3247 5.3405 14.1671
#
#
#
# Elastic Compliance Matrix: (Units=1/GPa)
#
#
# Indices 1 2 3 4 5 6 
#
# 1 0.002836 0.054006 -0.019906 0.013567 -0.028332 0.085809
# 2 0.054006 -0.311020 0.091274 -0.071590 0.130923 -0.468674
# 3 -0.019906 0.091274 -0.013243 0.019806 -0.034684 0.129685
# 4 0.013567 -0.071590 0.019806 0.009690 0.017160 -0.094449
# 5 -0.028332 0.130923 -0.034684 0.017160 0.008687 0.167538
# 6 0.085809 -0.468674 0.129685 -0.094449 0.167538 -0.616788
#
#
# Mechanical properties :
#
#
# Convention : Reuss Voigt Hill
#
# Bulk Modulus (GPa) = -14.14826 39.73037 12.79106
# Shear Modulus (GPa) = -4.18709 24.81831 10.31561
#
# Velocity S-wave (km/s) = -1.39384 3.39347 2.18779
# Velocity P-wave (km/s) = 3.02575 5.81282 3.50954
#
# Compressibility (1/GPa) = -0.07068007
#
# Stress axis : x y z
#
# Youngs Moduli (GPa) = 352.67033 -3.21523 -75.50890
#
# Poissons Ratio (x) = 0.17364 -1.50305
# Poissons Ratio (y) = -19.04615 6.89200
# Poissons Ratio (z) = 7.02011 0.29347
#
# Static dielectric constant tensor:
#      x y z
#    x 3.567270 0.066800 -0.234560 
#    y 0.066800 4.045010 -0.064690 
#    z -0.234560 -0.064690 4.330680 
# 
# 
# High freq. dielectric constant tensor:
#      x y z
#    x 1.806810 0.004740 -0.008010 
#    y 0.004740 1.845900 -0.003280 
#    z -0.008010 -0.003280 1.861850 
# 
# From -- ./inp_files/179274.got.cif
#   From: 2010.06.25/outbox.cif.g09.slc.cpg/sg2_90_cif.got.tgz:179274.got - 2010.06.27 13:26:56.
