data_PCOD8000866
_publ_section_title
;
Structure prediction by ZEFSAII (Michael W. Deem and Ramdas Pophale) SiO2 
 PCOD8000866
Probable space group: P -1
;
_chemical_formula_sum "Si O2"
_cell_formula_units_Z 16
_cell_length_a 8.456837
_cell_length_b 20.171707
_cell_length_c 24.340803
_cell_angle_alpha 21.701154
_cell_angle_beta 44.234484
_cell_angle_gamma 33.348375
_cell_volume 806.877459
_symmetry_space_group_name_H-M "P -1"
_symmetry_group_IT_number 2
_symmetry_cell_setting 'triclinic'
loop_
_space_group_symop_operation_xyz
x,y,z
-x,-y,-z
loop_
_atom_site_type_symbol
_atom_site_label
_atom_site_fract_x
_atom_site_fract_y
_atom_site_fract_z
Si Si1 0.519545 0.047452 0.628220
Si Si2 0.220220 0.080225 0.972886
Si Si3 0.514205 0.430325 0.113049
Si Si4 0.706379 0.124454 0.106072
Si Si5 0.687815 0.541157 0.704138
Si Si6 0.104654 0.930446 0.621332
Si Si7 0.866612 0.694337 0.717042
Si Si8 0.513321 0.261452 0.929575
O O1 0.318854 0.044621 0.723627
O O2 0.646757 0.848882 0.703488
O O3 0.790970 0.016129 0.612257
O O4 0.279655 0.307102 0.460750
O O5 0.981056 0.368510 0.803156
O O6 0.055067 0.999141 0.106873
O O7 0.500000 0.000000 0.000000
O O8 0.329455 0.961346 0.977772
O O9 0.831827 0.175263 0.250906
O O10 0.272962 0.398755 0.210272
O O11 0.500000 0.500000 0.000000
O O12 0.461014 0.628564 0.011374
O O13 0.535900 0.176833 0.051088
O O14 0.375635 0.718685 0.678637
O O15 0.679333 0.366393 0.803848
O O16 0.091397 0.154511 0.449321
O O17 0.170926 0.461979 0.844575
#
# Coordination Sequence:
#
# PCOD8000866 Si02
#       8
#     2   2   2   2   2   2   2   2
#     4  11  21  39  64  95 131 156 204 259 318 372
#     4  11  24  45  66  88 120 166 218 256 304 366
#     4  12  23  35  55  94 137 160 198 250 317 367
#     4  11  23  41  61  96 125 163 209 261 308 360
#     4  10  19  40  64  91 120 165 212 252 299 375
#     4  11  21  39  61  92 131 167 201 250 314 380
#     4  11  21  37  62  93 125 169 202 251 315 375
#     4  11  21  40  68  87 117 168 222 246 298 368
#
# _framework density 19.829529000000001
#
# number of rings (size 3 to 8) (size 9 to 14) (size 15 to 20)
#    0.000    1.000    6.250    3.375    1.750    1.000 
#    0.000    3.125    0.000    0.000    0.000    0.000 
#    0.000    0.000    0.000    0.000    0.000    0.000 
#
# Total GULP energy -198330.420961 kJ/mol
# GULP energy per Si atom -12395.651310 kJ/mol
# Density = 1.978440 g / cm^3
# Si number density = 19.829529 Si / 1000 Ang^3
#
#
#
# Elastic Constant Matrix: (Units=GPa)
#
#
# Indices 1 2 3 4 5 6 
#
# 1 30.9963 70.6694 24.2251 1.8965 -8.1011 -41.0082
# 2 70.6694 55.3900 70.6787 10.3822 22.3691 12.6224
# 3 24.2251 70.6787 130.9660 24.9418 1.9355 -21.4514
# 4 1.8965 10.3822 24.9418 30.7915 -2.4772 5.8541
# 5 -8.1011 22.3691 1.9355 -2.4772 22.5981 -11.9926
# 6 -41.0082 12.6224 -21.4514 5.8541 -11.9926 24.0849
#
#
#
# Elastic Compliance Matrix: (Units=1/GPa)
#
#
# Indices 1 2 3 4 5 6 
#
# 1 0.004918 0.008385 -0.007359 0.003630 -0.009980 -0.008426
# 2 0.008385 0.005154 -0.001669 -0.003027 0.004702 0.013165
# 3 -0.007359 -0.001669 0.011260 -0.008119 -0.003609 -0.001450
# 4 0.003630 -0.003027 -0.008119 0.041584 0.006077 -0.006547
# 5 -0.009980 0.004702 -0.003609 0.006077 0.032864 -0.007785
# 6 -0.008426 0.013165 -0.001450 -0.006547 -0.007785 0.016698
#
#
# Mechanical properties :
#
#
# Convention : Reuss Voigt Hill
#
# Bulk Modulus (GPa) = 49.88415 60.94431 55.41423
# Shear Modulus (GPa) = 41.51217 18.94685 30.22951
#
# Velocity S-wave (km/s) = 4.58039 3.09445 3.90868
# Velocity P-wave (km/s) = 7.29276 6.60063 6.95531
#
# Compressibility (1/GPa) = 0.02004645
#
# Stress axis : x y z
#
# Youngs Moduli (GPa) = 203.31913 194.01113 88.81179
#
# Poissons Ratio (x) = -1.62677 0.65354
# Poissons Ratio (y) = -1.70481 0.14825
# Poissons Ratio (z) = 1.49616 0.32385
#
# Static dielectric constant tensor:
#      x y z
#    x 3.851660 0.011840 0.213350 
#    y 0.011840 3.667140 0.053500 
#    z 0.213350 0.053500 4.064760 
# 
# 
# High freq. dielectric constant tensor:
#      x y z
#    x 1.785330 0.000150 0.006590 
#    y 0.000150 1.742070 -0.000910 
#    z 0.006590 -0.000910 1.780830 
# 
# From -- ./inp_files/212784.got.cif
#   From: 2010.06.25/outbox.cif.g09.slc.cpg/sg2_107_cif.got.tgz:212784.got - 2010.06.27 13:26:56.
