data_PCOD8000891
_publ_section_title
;
Structure prediction by ZEFSAII (Michael W. Deem and Ramdas Pophale) SiO2 
 PCOD8000891
Probable space group: P -1
;
_chemical_formula_sum "Si O2"
_cell_formula_units_Z 14
_cell_length_a 11.663160
_cell_length_b 14.632246
_cell_length_c 8.920519
_cell_angle_alpha 72.465763
_cell_angle_beta 140.535700
_cell_angle_gamma 127.518216
_cell_volume 723.115477
_symmetry_space_group_name_H-M "P -1"
_symmetry_group_IT_number 2
_symmetry_cell_setting 'triclinic'
loop_
_space_group_symop_operation_xyz
x,y,z
-x,-y,-z
loop_
_atom_site_type_symbol
_atom_site_label
_atom_site_fract_x
_atom_site_fract_y
_atom_site_fract_z
Si Si1 0.435927 0.879289 0.423351
Si Si2 0.931251 0.706848 0.505248
Si Si3 0.781004 0.872664 0.278226
Si Si4 0.486365 0.548413 0.806525
Si Si5 0.306218 0.188201 0.107741
Si Si6 0.413053 0.874521 0.051248
Si Si7 0.028844 0.269718 0.815017
O O1 0.623813 0.861838 0.666621
O O2 0.438677 0.894150 0.243311
O O3 0.184655 0.764529 0.286683
O O4 0.500000 0.000000 0.500000
O O5 0.812561 0.770067 0.378070
O O6 0.747350 0.566493 0.449776
O O7 0.007120 0.716927 0.404037
O O8 0.149381 0.767562 0.800924
O O9 0.559484 0.831695 0.168458
O O10 0.734499 0.883537 0.051972
O O11 0.000000 0.000000 0.500000
O O12 0.487724 0.664351 0.775783
O O13 0.500000 0.500000 0.000000
O O14 0.731363 0.602721 0.944667
O O15 0.068382 0.166448 0.919814
O O16 0.500000 0.000000 0.000000
#
# Coordination Sequence:
#
# PCOD8000891 Si02
#       7
#     2   2   2   2   2   2   2
#     4  12  25  39  60  88 127 165 197 250 308 361
#     4  10  19  40  65  90 118 159 204 249 295 353
#     4  11  21  36  64  89 122 156 199 251 303 358
#     4   8  16  39  67  91 116 156 207 252 286 354
#     4   9  21  40  63  92 121 153 208 244 302 353
#     4  12  25  40  58  88 124 158 205 250 303 367
#     4   8  19  39  64  88 119 153 204 249 295 350
#
# _framework density 19.360669999999999
#
# number of rings (size 3 to 8) (size 9 to 14) (size 15 to 20)
#    0.857    1.143    2.857    2.571    2.000    1.714 
#    2.571    3.571    0.000    0.000    0.000    0.000 
#    0.000    0.000    0.000    0.000    0.000    0.000 
#
# Total GULP energy -173453.720740 kJ/mol
# GULP energy per Si atom -12389.551481 kJ/mol
# Density = 1.931660 g / cm^3
# Si number density = 19.360670 Si / 1000 Ang^3
#
#
#
# Elastic Constant Matrix: (Units=GPa)
#
#
# Indices 1 2 3 4 5 6 
#
# 1 79.0844 2.3054 31.2516 -7.6377 -9.4654 1.8697
# 2 2.3054 76.7126 35.8769 6.1627 -15.5548 -2.9649
# 3 31.2516 35.8769 127.9935 3.5238 -15.1344 1.6819
# 4 -7.6377 6.1627 3.5238 36.9656 -0.0335 0.8113
# 5 -9.4654 -15.5548 -15.1344 -0.0335 29.2326 -0.4943
# 6 1.8697 -2.9649 1.6819 0.8113 -0.4943 21.4436
#
#
#
# Elastic Compliance Matrix: (Units=1/GPa)
#
#
# Indices 1 2 3 4 5 6 
#
# 1 0.014856 0.001801 -0.003758 0.003148 0.003814 -0.000783
# 2 0.001801 0.016722 -0.004239 -0.002065 0.007330 0.002735
# 3 -0.003758 -0.004239 0.010169 -0.001016 0.001775 -0.000977
# 4 0.003148 -0.002065 -0.001016 0.028177 -0.000600 -0.001560
# 5 0.003814 0.007330 0.001775 -0.000600 0.040287 0.001493
# 6 -0.000783 0.002735 -0.000977 -0.001560 0.001493 0.047250
#
#
# Mechanical properties :
#
#
# Convention : Reuss Voigt Hill
#
# Bulk Modulus (GPa) = 34.06500 46.96203 40.51352
# Shear Modulus (GPa) = 27.83354 31.81881 29.82618
#
# Velocity S-wave (km/s) = 3.79573 4.05838 3.92925
# Velocity P-wave (km/s) = 6.06986 6.80218 6.44643
#
# Compressibility (1/GPa) = 0.02935564
#
# Stress axis : x y z
#
# Youngs Moduli (GPa) = 67.31246 59.80111 98.33483
#
# Poissons Ratio (x) = -0.10770 0.36951
# Poissons Ratio (y) = -0.12123 0.41688
# Poissons Ratio (z) = 0.25293 0.25352
#
# Static dielectric constant tensor:
#      x y z
#    x 3.502790 0.042570 0.170360 
#    y 0.042570 4.775330 0.818170 
#    z 0.170360 0.818170 4.028680 
# 
# 
# High freq. dielectric constant tensor:
#      x y z
#    x 1.731870 -0.000890 0.011950 
#    y -0.000890 1.744640 0.009090 
#    z 0.011950 0.009090 1.760890 
# 
# From -- ./inp_files/272735.got.cif
#   From: 2010.06.25/outbox.cif.g09.slc.cpg/sg2_137_cif.got.tgz:272735.got - 2010.06.27 13:26:56.
