data_PCOD8000802
_publ_section_title
;
Structure prediction by ZEFSAII (Michael W. Deem and Ramdas Pophale) SiO2 
 PCOD8000802
Probable space group: P -1
;
_chemical_formula_sum "Si O2"
_cell_formula_units_Z 16
_cell_length_a 9.557434
_cell_length_b 11.679996
_cell_length_c 14.540342
_cell_angle_alpha 38.161365
_cell_angle_beta 69.796192
_cell_angle_gamma 50.318793
_cell_volume 728.743458
_symmetry_space_group_name_H-M "P -1"
_symmetry_group_IT_number 2
_symmetry_cell_setting 'triclinic'
loop_
_space_group_symop_operation_xyz
x,y,z
-x,-y,-z
loop_
_atom_site_type_symbol
_atom_site_label
_atom_site_fract_x
_atom_site_fract_y
_atom_site_fract_z
Si Si1 0.469776 0.758236 0.059819
Si Si2 0.541337 0.158371 0.440790
Si Si3 0.871943 0.748442 0.151292
Si Si4 0.824027 0.399658 0.318686
Si Si5 0.352273 0.618362 0.876622
Si Si6 0.156381 0.022687 0.360819
Si Si7 0.075866 0.055810 0.162264
Si Si8 0.202514 0.663008 0.246786
O O1 0.603777 0.629680 0.200612
O O2 0.607866 0.614120 0.032286
O O3 0.295293 0.745004 0.107606
O O4 0.355192 0.042860 0.903410
O O5 0.612403 0.251686 0.290932
O O6 0.697826 0.001607 0.584149
O O7 0.351734 0.375695 0.401242
O O8 0.500000 0.000000 0.500000
O O9 0.915475 0.495053 0.297226
O O10 0.005072 0.741962 0.199864
O O11 0.913332 0.795387 0.010909
O O12 0.830772 0.210139 0.496922
O O13 0.943546 0.262713 0.284635
O O14 0.141779 0.808288 0.843984
O O15 0.500000 0.500000 0.000000
O O16 0.193921 0.041744 0.233023
O O17 0.159967 0.793258 0.272455
#
# Coordination Sequence:
#
# PCOD8000802 Si02
#       8
#     2   2   2   2   2   2   2   2
#     4  10  19  40  61  88 123 164 204 247 315 368
#     4  11  23  44  65  88 122 169 213 248 307 379
#     4  11  23  39  65  95 124 160 210 261 303 366
#     4  11  21  41  63  89 125 167 206 247 312 374
#     4  11  20  38  65  89 121 160 205 254 310 362
#     4  11  22  41  64  88 127 169 201 253 316 371
#     4  11  22  39  64  93 126 159 205 259 311 362
#     4  10  21  41  63  90 126 165 205 253 314 365
#
# _framework density 21.9556
#
# number of rings (size 3 to 8) (size 9 to 14) (size 15 to 20)
#    0.000    1.250    3.750    5.625    0.000    1.000 
#    2.250    3.750    0.000    0.000    0.000    0.000 
#    0.000    0.000    0.000    0.000    0.000    0.000 
#
# Total GULP energy -198295.880603 kJ/mol
# GULP energy per Si atom -12393.492538 kJ/mol
# Density = 2.190563 g / cm^3
# Si number density = 21.955600 Si / 1000 Ang^3
#
#
#
# Elastic Constant Matrix: (Units=GPa)
#
#
# Indices 1 2 3 4 5 6 
#
# 1 108.3999 32.8859 32.9816 -7.6220 11.2903 18.9001
# 2 32.8859 127.6397 25.3783 -16.8398 1.7670 2.1283
# 3 32.9816 25.3783 45.4649 -8.4697 14.3187 3.7835
# 4 -7.6220 -16.8398 -8.4697 38.6941 10.3170 8.4539
# 5 11.2903 1.7670 14.3187 10.3170 36.4854 -8.5889
# 6 18.9001 2.1283 3.7835 8.4539 -8.5889 35.1604
#
#
#
# Elastic Compliance Matrix: (Units=1/GPa)
#
#
# Indices 1 2 3 4 5 6 
#
# 1 0.013952 -0.001629 -0.006123 0.004006 -0.005074 -0.008945
# 2 -0.001629 0.009346 -0.003871 0.002583 0.000918 0.000330
# 3 -0.006123 -0.003871 0.036794 0.011401 -0.017325 -0.007407
# 4 0.004006 0.002583 0.011401 0.040000 -0.021482 -0.018402
# 5 -0.005074 0.000918 -0.017325 -0.021482 0.046781 0.021129
# 6 -0.008945 0.000330 -0.007407 -0.018402 0.021129 0.043612
#
#
# Mechanical properties :
#
#
# Convention : Reuss Voigt Hill
#
# Bulk Modulus (GPa) = 27.13965 51.55512 39.34739
# Shear Modulus (GPa) = 22.12246 34.75191 28.43718
#
# Velocity S-wave (km/s) = 3.17771 3.98279 3.60281
# Velocity P-wave (km/s) = 5.08447 6.68451 5.93862
#
# Compressibility (1/GPa) = 0.03684646
#
# Stress axis : x y z
#
# Youngs Moduli (GPa) = 71.67314 106.99251 27.17842
#
# Poissons Ratio (x) = 0.17433 0.16642
# Poissons Ratio (y) = 0.11678 0.10520
# Poissons Ratio (z) = 0.43886 0.41412
#
# Static dielectric constant tensor:
#      x y z
#    x 3.951990 0.110690 0.178100 
#    y 0.110690 4.400480 -0.376080 
#    z 0.178100 -0.376080 3.911230 
# 
# 
# High freq. dielectric constant tensor:
#      x y z
#    x 1.864560 0.010760 0.020350 
#    y 0.010760 1.876830 -0.028850 
#    z 0.020350 -0.028850 1.838700 
# 
# From -- ./inp_files/499869.got.cif
#   From: 2010.06.25/outbox.cif.g09.slc.cpg/sg2_250_cif.got.tgz:499869.got - 2010.06.27 13:26:56.
