data_PCOD8000093
_publ_section_title
;
Structure prediction by ZEFSAII (Michael W. Deem and Ramdas Pophale) SiO2 
 PCOD8000093
Probable space group: P 1
;
_chemical_formula_sum "Si O2"
_cell_formula_units_Z 8
_cell_length_a 14.065920
_cell_length_b 8.237037
_cell_length_c 13.430683
_cell_angle_alpha 150.026283
_cell_angle_beta 148.936203
_cell_angle_gamma 38.384410
_cell_volume 395.831106
_symmetry_space_group_name_H-M "P 1"
_symmetry_group_IT_number 1
_symmetry_cell_setting 'triclinic'
loop_
_space_group_symop_operation_xyz
x,y,z
loop_
_atom_site_type_symbol
_atom_site_label
_atom_site_fract_x
_atom_site_fract_y
_atom_site_fract_z
Si Si1 0.224360 0.598120 0.095150
Si Si2 0.879000 0.306471 0.682732
Si Si3 0.486539 0.247136 0.998505
Si Si4 0.992992 0.224289 0.956410
Si Si5 0.357020 0.968158 0.248262
Si Si6 0.791060 0.851164 0.191399
Si Si7 0.517973 0.811723 0.607565
Si Si8 0.650173 0.226044 0.765989
O O1 0.322894 0.273729 0.949391
O O2 0.222980 0.922136 0.197935
O O3 0.344795 0.648609 0.327727
O O4 0.015984 0.564557 0.917720
O O5 0.944420 0.128580 0.750161
O O6 0.887804 0.029802 0.459454
O O7 0.673780 0.509764 0.618504
O O8 0.682022 0.119666 0.160810
O O9 0.486219 0.616929 0.151340
O O10 0.447322 0.018155 0.751092
O O11 0.855427 0.058322 0.818905
O O12 0.214371 0.101170 0.103156
O O13 0.950195 0.620792 0.146971
O O14 0.495509 0.218461 0.536192
O O15 0.654794 0.615955 0.994677
O O16 0.599686 0.036773 0.718035
#
# Coordination Sequence:
#
# PCOD8000093 Si02
#       8
#     1   1   1   1   1   1   1   1
#     4   9  23  39  63  89 122 160 212 249 297 369
#     4  12  22  40  67  89 127 165 208 248 310 373
#     4  10  21  43  63  92 123 164 206 252 311 363
#     4  10  23  40  59  96 125 161 200 260 307 359
#     4   9  20  44  62  85 128 161 201 256 307 357
#     4  10  22  41  61  93 124 161 204 254 307 360
#     4  11  20  43  66  90 122 168 204 252 314 365
#     4   9  21  40  65  86 129 154 207 255 303 364
#
# _framework density 20.210639
#
# number of rings (size 3 to 8) (size 9 to 14) (size 15 to 20)
#    1.500    0.500    2.500    0.750    0.000    5.000 
#    6.750    0.000    0.000    0.000    0.000    0.000 
#    0.000    0.000    0.000    0.000    0.000    0.000 
#
# Total GULP energy -99116.367513 kJ/mol
# GULP energy per Si atom -12389.545939 kJ/mol
# Density = 2.016464 g / cm^3
# Si number density = 20.210639 Si / 1000 Ang^3
#
#
#
# Elastic Constant Matrix: (Units=GPa)
#
#
# Indices 1 2 3 4 5 6 
#
# 1 55.8413 4.3172 34.8773 -0.7789 -29.6656 0.6390
# 2 4.3172 111.0047 33.4406 -15.2280 -16.2311 5.2511
# 3 34.8773 33.4406 135.8090 -13.2820 -19.5291 0.9122
# 4 -0.7789 -15.2280 -13.2820 28.7255 6.2389 -6.2748
# 5 -29.6656 -16.2311 -19.5291 6.2389 39.5200 -1.3917
# 6 0.6390 5.2511 0.9122 -6.2748 -1.3917 20.4071
#
#
#
# Elastic Compliance Matrix: (Units=1/GPa)
#
#
# Indices 1 2 3 4 5 6 
#
# 1 0.035543 0.003695 -0.006946 -0.006292 0.025690 -0.001936
# 2 0.003695 0.010936 -0.002532 0.003225 0.005454 -0.001453
# 3 -0.006946 -0.002532 0.009851 0.003760 -0.001928 0.001454
# 4 -0.006292 0.003225 0.003760 0.042339 -0.007812 0.011685
# 5 0.025690 0.005454 -0.001928 -0.007812 0.047062 -0.001314
# 6 -0.001936 -0.001453 0.001454 0.011685 -0.001314 0.052876
#
#
# Mechanical properties :
#
#
# Convention : Reuss Voigt Hill
#
# Bulk Modulus (GPa) = 22.33929 49.76946 36.05438
# Shear Modulus (GPa) = 22.21285 33.06516 27.63900
#
# Velocity S-wave (km/s) = 3.31881 4.04917 3.70205
# Velocity P-wave (km/s) = 5.07575 6.82202 6.01262
#
# Compressibility (1/GPa) = 0.04476419
#
# Stress axis : x y z
#
# Youngs Moduli (GPa) = 28.13520 91.43772 101.50928
#
# Poissons Ratio (x) = -0.33786 0.70505
# Poissons Ratio (y) = -0.10396 0.25707
# Poissons Ratio (z) = 0.19542 0.23156
#
# Static dielectric constant tensor:
#      x y z
#    x 3.428620 0.037130 -0.145450 
#    y 0.037130 3.456110 -0.092140 
#    z -0.145450 -0.092140 3.578280 
# 
# 
# High freq. dielectric constant tensor:
#      x y z
#    x 1.771060 0.005390 -0.011070 
#    y 0.005390 1.779120 -0.013090 
#    z -0.011070 -0.013090 1.789240 
# 
# From -- ./inp_files/7304.got.cif
#   From: 2010.03.12/outbox.cif.g09.slc.cpg/sg1_4_cif.got.tgz:7304.got - 2010.03.29 11:57:58.
