data_PCOD8000060
_publ_section_title
;
Structure prediction by ZEFSAII (Michael W. Deem and Ramdas Pophale) SiO2 
 PCOD8000060
Probable space group: P 1
;
_chemical_formula_sum "Si O2"
_cell_formula_units_Z 8
_cell_length_a 14.002636
_cell_length_b 8.234333
_cell_length_c 6.941856
_cell_angle_alpha 89.878301
_cell_angle_beta 89.856585
_cell_angle_gamma 31.760211
_cell_volume 421.308140
_symmetry_space_group_name_H-M "P 1"
_symmetry_group_IT_number 1
_symmetry_cell_setting 'triclinic'
loop_
_space_group_symop_operation_xyz
x,y,z
loop_
_atom_site_type_symbol
_atom_site_label
_atom_site_fract_x
_atom_site_fract_y
_atom_site_fract_z
Si Si1 0.291790 0.902510 0.830210
Si Si2 0.145970 0.908027 0.501396
Si Si3 0.793472 0.613014 0.501394
Si Si4 0.286168 0.617594 0.095995
Si Si5 0.643246 0.903449 0.095993
Si Si6 0.992627 0.906672 0.821255
Si Si7 0.638781 0.614366 0.821255
Si Si8 0.933774 0.618540 0.830206
O O1 0.281981 0.819032 0.629940
O O2 0.439673 0.828331 0.811542
O O3 0.342090 0.709245 0.004229
O O4 0.097445 0.260525 0.878517
O O5 0.258623 0.678867 0.322707
O O6 0.076087 0.856336 0.624846
O O7 0.976989 0.260521 0.429435
O O8 0.676970 0.842174 0.322706
O O9 0.671904 0.664684 0.624832
O O10 0.840474 0.702019 0.629956
O O11 0.444306 0.260519 0.058144
O O12 0.102480 0.815139 0.003289
O O13 0.657125 0.705878 0.003274
O O14 0.790812 0.811824 0.004237
O O15 0.007482 0.692708 0.811503
O O16 0.784532 0.260519 0.846302
#
# Coordination Sequence:
#
# PCOD8000060 Si02
#       8
#     1   1   1   1   1   1   1   1
#     4  10  21  38  59  82 111 145 183 228 274 324
#     4   9  20  38  57  79 111 147 183 227 274 322
#     4   9  20  38  57  79 111 147 183 227 274 322
#     4  11  22  36  57  83 113 147 183 225 272 326
#     4  11  22  36  57  83 113 147 183 225 272 326
#     4  10  21  38  59  82 111 145 183 228 274 324
#     4  10  21  38  59  82 111 145 183 228 274 324
#     4  10  21  38  59  82 111 145 183 228 274 324
#
# _framework density 18.988479000000002
#
# number of rings (size 3 to 8) (size 9 to 14) (size 15 to 20)
#    0.000    2.000    0.000    5.250    0.000    8.000 
#    0.000    5.000    0.000    0.000    0.000    0.000 
#    0.000    0.000    0.000    0.000    0.000    0.000 
#
# Total GULP energy -99244.668211 kJ/mol
# GULP energy per Si atom -12405.583526 kJ/mol
# Density = 1.894526 g / cm^3
# Si number density = 18.988479 Si / 1000 Ang^3
#
#
#
# Elastic Constant Matrix: (Units=GPa)
#
#
# Indices 1 2 3 4 5 6 
#
# 1 104.8049 9.6456 33.1025 -0.0425 0.0030 -0.7385
# 2 9.6456 71.2502 39.0004 0.1339 -3.1284 -0.3446
# 3 33.1025 39.0004 109.7865 0.0369 -1.2947 0.1889
# 4 -0.0425 0.1339 0.0369 30.0790 0.5802 -0.5583
# 5 0.0030 -3.1284 -1.2947 0.5802 12.0421 -0.1191
# 6 -0.7385 -0.3446 0.1889 -0.5583 -0.1191 36.1590
#
#
#
# Elastic Compliance Matrix: (Units=1/GPa)
#
#
# Indices 1 2 3 4 5 6 
#
# 1 0.010557 0.000378 -0.003321 0.000027 -0.000260 0.000236
# 2 0.000378 0.017620 -0.006328 -0.000141 0.003906 0.000219
# 3 -0.003321 -0.006328 0.012354 0.000011 -0.000317 -0.000194
# 4 0.000027 -0.000141 0.000011 0.033287 -0.001634 0.000508
# 5 -0.000260 0.003906 -0.000317 -0.001634 0.084105 0.000285
# 6 0.000236 0.000219 -0.000194 0.000508 0.000285 0.027672
#
#
# Mechanical properties :
#
#
# Convention : Reuss Voigt Hill
#
# Bulk Modulus (GPa) = 45.47314 49.92652 47.69983
# Shear Modulus (GPa) = 23.64426 29.26221 26.45323
#
# Velocity S-wave (km/s) = 3.53255 3.92988 3.73650
# Velocity P-wave (km/s) = 6.37482 6.85143 6.61742
#
# Compressibility (1/GPa) = 0.02199101
#
# Stress axis : x y z
#
# Youngs Moduli (GPa) = 94.72054 56.75276 80.94273
#
# Poissons Ratio (x) = -0.02147 0.26882
# Poissons Ratio (y) = -0.03584 0.51219
# Poissons Ratio (z) = 0.31458 0.35912
#
# Static dielectric constant tensor:
#      x y z
#    x 3.456410 0.000100 -0.007060 
#    y 0.000100 3.459880 0.000220 
#    z -0.007060 0.000220 3.343250 
# 
# 
# High freq. dielectric constant tensor:
#      x y z
#    x 1.738900 0.000250 0.000220 
#    y 0.000250 1.746650 -0.000010 
#    z 0.000220 -0.000010 1.735390 
# 
# From -- ./inp_files/1469.got.cif
#   From: 2010.03.12/outbox.cif.g09.slc.cpg/sg1_1_cif.got.tgz:1469.got - 2010.03.29 11:57:58.
