data_PCOD8000258
_publ_section_title
;
Structure prediction by ZEFSAII (Michael W. Deem and Ramdas Pophale) SiO2 
 PCOD8000258
Probable space group: P 1
;
_chemical_formula_sum "Si O2"
_cell_formula_units_Z 6
_cell_length_a 4.796416
_cell_length_b 6.642772
_cell_length_c 7.947418
_cell_angle_alpha 90.902719
_cell_angle_beta 99.233034
_cell_angle_gamma 84.418062
_cell_volume 248.750776
_symmetry_space_group_name_H-M "P 1"
_symmetry_group_IT_number 1
_symmetry_cell_setting 'triclinic'
loop_
_space_group_symop_operation_xyz
x,y,z
loop_
_atom_site_type_symbol
_atom_site_label
_atom_site_fract_x
_atom_site_fract_y
_atom_site_fract_z
Si Si1 0.856140 0.885750 0.702560
Si Si2 0.362821 0.115589 0.830938
Si Si3 0.216953 0.134048 0.205534
Si Si4 0.135257 0.491301 0.635221
Si Si5 0.444518 0.758333 0.401250
Si Si6 0.723635 0.363880 0.333920
O O1 0.668495 0.893368 0.514437
O O2 0.961535 0.649759 0.748527
O O3 0.670814 0.991591 0.838087
O O4 0.133412 0.002755 0.702164
O O5 0.359774 0.342990 0.759864
O O6 0.289892 0.124829 0.018236
O O7 0.446352 0.246887 0.334314
O O8 0.908957 0.258032 0.198393
O O9 0.220013 0.906640 0.276597
O O10 0.289873 0.624820 0.518230
O O11 0.911274 0.356262 0.522045
O O12 0.618259 0.599874 0.287951
#
# Coordination Sequence:
#
# PCOD8000258 Si02
#       6
#     1   1   1   1   1   1
#     4  11  25  45  69  97 133 175 222 268 324 395
#     4  12  27  44  67  99 138 173 213 273 335 387
#     4  12  27  44  67  99 138 173 213 273 335 387
#     4  11  25  44  73  98 127 176 227 270 320 388
#     4  11  25  44  73  98 127 176 227 270 320 388
#     4  11  25  45  69  97 133 175 222 268 324 395
#
# _framework density 24.120529999999999
#
# number of rings (size 3 to 8) (size 9 to 14) (size 15 to 20)
#    0.000    0.667    3.333    3.000    9.333    2.667 
#    0.000    0.000    0.000    0.000    0.000    0.000 
#    0.000    0.000    0.000    0.000    0.000    0.000 
#
# Total GULP energy -74393.341700 kJ/mol
# GULP energy per Si atom -12398.890283 kJ/mol
# Density = 2.406563 g / cm^3
# Si number density = 24.120530 Si / 1000 Ang^3
#
#
#
# Elastic Constant Matrix: (Units=GPa)
#
#
# Indices 1 2 3 4 5 6 
#
# 1 97.7056 40.5684 2.0449 -2.9068 -8.6835 -17.8573
# 2 40.5684 143.4511 64.8231 -1.4666 -17.9283 -33.3851
# 3 2.0449 64.8231 68.2914 -16.0404 -14.3558 -10.1921
# 4 -2.9068 -1.4666 -16.0404 27.4090 -0.8012 -13.4272
# 5 -8.6835 -17.9283 -14.3558 -0.8012 31.8457 19.3609
# 6 -17.8573 -33.3851 -10.1921 -13.4272 19.3609 55.2510
#
#
#
# Elastic Compliance Matrix: (Units=1/GPa)
#
#
# Indices 1 2 3 4 5 6 
#
# 1 0.013903 -0.006861 0.008890 0.007907 0.002234 0.003126
# 2 -0.006861 0.017952 -0.018982 -0.009014 -0.002966 0.003977
# 3 0.008890 -0.018982 0.040418 0.024563 0.009708 0.001427
# 4 0.007907 -0.009014 0.024563 0.059066 -0.000106 0.016031
# 5 0.002234 -0.002966 0.009708 -0.000106 0.043575 -0.014574
# 6 0.003126 0.003977 0.001427 0.016031 -0.014574 0.030779
#
#
# Mechanical properties :
#
#
# Convention : Reuss Voigt Hill
#
# Bulk Modulus (GPa) = 26.06477 58.25789 42.16133
# Shear Modulus (GPa) = 19.81080 36.36860 28.08970
#
# Velocity S-wave (km/s) = 2.86899 3.88723 3.41626
# Velocity P-wave (km/s) = 4.66951 6.65978 5.75139
#
# Compressibility (1/GPa) = 0.03836596
#
# Stress axis : x y z
#
# Youngs Moduli (GPa) = 71.92796 55.70530 24.74146
#
# Poissons Ratio (x) = 0.38222 -0.21995
# Poissons Ratio (y) = 0.49353 0.46964
# Poissons Ratio (z) = -0.63943 1.05738
#
# Static dielectric constant tensor:
#      x y z
#    x 4.661730 -0.369440 0.115560 
#    y -0.369440 4.853650 0.396330 
#    z 0.115560 0.396330 3.759160 
# 
# 
# High freq. dielectric constant tensor:
#      x y z
#    x 1.971220 -0.017440 0.001370 
#    y -0.017440 1.981290 0.023220 
#    z 0.001370 0.023220 1.911300 
# 
# From -- ./inp_files/45.got.cif
#   From: 2010.03.12/outbox.cif.g09.slc.cpg/sg1_1_cif.got.tgz:45.got - 2010.03.29 11:57:58.
