data_PCOD8000155
_publ_section_title
;
Structure prediction by ZEFSAII (Michael W. Deem and Ramdas Pophale) SiO2 
 PCOD8000155
Probable space group: P 1
;
_chemical_formula_sum "Si O2"
_cell_formula_units_Z 8
_cell_length_a 9.161794
_cell_length_b 14.176237
_cell_length_c 11.154929
_cell_angle_alpha 149.351142
_cell_angle_beta 41.094712
_cell_angle_gamma 153.543137
_cell_volume 328.168722
_symmetry_space_group_name_H-M "P 1"
_symmetry_group_IT_number 1
_symmetry_cell_setting 'triclinic'
loop_
_space_group_symop_operation_xyz
x,y,z
loop_
_atom_site_type_symbol
_atom_site_label
_atom_site_fract_x
_atom_site_fract_y
_atom_site_fract_z
Si Si1 0.189010 0.330690 0.591890
Si Si2 0.906056 0.640659 0.492859
Si Si3 0.696020 0.951540 0.667220
Si Si4 0.195125 0.715409 0.900654
Si Si5 0.210152 0.509777 0.291294
Si Si6 0.839360 0.800100 0.087946
Si Si7 0.881288 0.651410 0.249414
Si Si8 0.189919 0.115668 0.981031
O O1 0.567021 0.537656 0.618117
O O2 0.139310 0.459801 0.664219
O O3 0.976459 0.247433 0.752254
O O4 0.067706 0.064428 0.320935
O O5 0.950669 0.615075 0.298158
O O6 0.924316 0.461591 0.360988
O O7 0.193709 0.958955 0.705185
O O8 0.551025 0.967304 0.891755
O O9 0.392555 0.736527 0.529849
O O10 0.850941 0.852189 0.500862
O O11 0.911456 0.633946 0.905145
O O12 0.184014 0.790290 0.124694
O O13 0.459991 0.611475 0.139988
O O14 0.060048 0.229303 0.131237
O O15 0.925875 0.885920 0.991009
O O16 0.551760 0.357685 0.077454
#
# Coordination Sequence:
#
# PCOD8000155 Si02
#       8
#     1   1   1   1   1   1   1   1
#     4  11  24  44  73 109 148 191 245 302 363 440
#     4  12  26  48  72 114 150 191 249 304 367 440
#     4  10  22  48  75 106 146 198 246 297 370 437
#     4  12  23  42  80 107 142 204 242 297 379 431
#     4  10  24  47  71 111 151 187 251 308 358 442
#     4  11  23  44  77 106 146 195 249 298 369 439
#     4  11  24  50  73 109 150 192 250 298 363 446
#     4  11  24  49  73 102 151 196 236 304 373 427
#
# _framework density 24.377704000000001
#
# number of rings (size 3 to 8) (size 9 to 14) (size 15 to 20)
#    0.000    1.000    6.250    1.500    5.250    2.000 
#    6.750    0.000    0.000    0.000    0.000    0.000 
#    0.000    0.000    0.000    0.000    0.000    0.000 
#
# Total GULP energy -99208.296709 kJ/mol
# GULP energy per Si atom -12401.037089 kJ/mol
# Density = 2.432222 g / cm^3
# Si number density = 24.377704 Si / 1000 Ang^3
#
#
#
# Elastic Constant Matrix: (Units=GPa)
#
#
# Indices 1 2 3 4 5 6 
#
# 1 168.6174 46.5850 62.3264 -0.2767 -23.9149 -26.2847
# 2 46.5850 113.2411 46.8365 -29.6441 0.7122 -32.6718
# 3 62.3264 46.8365 82.5954 -19.4495 -1.9067 -3.4966
# 4 -0.2767 -29.6441 -19.4495 45.0405 -7.4101 6.1663
# 5 -23.9149 0.7122 -1.9067 -7.4101 43.5844 -8.2458
# 6 -26.2847 -32.6718 -3.4966 6.1663 -8.2458 34.5993
#
#
#
# Elastic Compliance Matrix: (Units=1/GPa)
#
#
# Indices 1 2 3 4 5 6 
#
# 1 0.012488 0.001991 -0.010676 -0.003643 0.008171 0.012885
# 2 0.001991 0.019203 -0.009924 0.006635 0.005001 0.018652
# 3 -0.010676 -0.009924 0.026314 0.006041 -0.006834 -0.017528
# 4 -0.003643 0.006635 0.006041 0.029731 0.003127 -0.000445
# 5 0.008171 0.005001 -0.006834 0.003127 0.030799 0.017022
# 6 0.012885 0.018652 -0.017528 -0.000445 0.017022 0.058668
#
#
# Mechanical properties :
#
#
# Convention : Reuss Voigt Hill
#
# Bulk Modulus (GPa) = 48.10926 75.10551 61.60739
# Shear Modulus (GPa) = 22.58848 38.55856 30.57352
#
# Velocity S-wave (km/s) = 3.04732 3.98139 3.54525
# Velocity P-wave (km/s) = 5.67092 7.21189 6.48732
#
# Compressibility (1/GPa) = 0.02078602
#
# Stress axis : x y z
#
# Youngs Moduli (GPa) = 80.07467 52.07446 38.00291
#
# Poissons Ratio (x) = -0.10366 0.40573
# Poissons Ratio (y) = -0.15940 0.37714
# Poissons Ratio (z) = 0.85490 0.51679
#
# Static dielectric constant tensor:
#      x y z
#    x 4.386670 -0.431440 -0.128760 
#    y -0.431440 4.441560 -0.266000 
#    z -0.128760 -0.266000 4.301120 
# 
# 
# High freq. dielectric constant tensor:
#      x y z
#    x 1.971130 -0.025790 -0.017500 
#    y -0.025790 1.956760 -0.016400 
#    z -0.017500 -0.016400 1.962770 
# 
# From -- ./inp_files/6625.got.cif
#   From: 2010.03.12/outbox.cif.g09.slc.cpg/sg1_4_cif.got.tgz:6625.got - 2010.03.29 11:57:58.
