data_PCOD8000354
_publ_section_title
;
Structure prediction by ZEFSAII (Michael W. Deem and Ramdas Pophale) SiO2 
 PCOD8000354
Probable space group: P -1
;
_chemical_formula_sum "Si O2"
_cell_formula_units_Z 16
_cell_length_a 9.230265
_cell_length_b 17.684818
_cell_length_c 11.360284
_cell_angle_alpha 30.804579
_cell_angle_beta 65.954998
_cell_angle_gamma 59.200423
_cell_volume 813.516058
_symmetry_space_group_name_H-M "P -1"
_symmetry_group_IT_number 2
_symmetry_cell_setting 'triclinic'
loop_
_space_group_symop_operation_xyz
x,y,z
-x,-y,-z
loop_
_atom_site_type_symbol
_atom_site_label
_atom_site_fract_x
_atom_site_fract_y
_atom_site_fract_z
Si Si1 0.920788 0.379365 0.972288
Si Si2 0.107562 0.595983 0.650243
Si Si3 0.720070 0.281093 0.371183
Si Si4 0.342084 0.355856 0.445489
Si Si5 0.039695 0.050261 0.292988
Si Si6 0.147362 0.857854 0.992329
Si Si7 0.147472 0.137776 0.752655
Si Si8 0.332669 0.524246 0.452447
O O1 0.808720 0.497943 0.753353
O O2 0.028334 0.465874 0.895107
O O3 0.797155 0.328982 0.165496
O O4 0.053077 0.224172 0.071724
O O5 0.239830 0.623022 0.661174
O O6 0.188219 0.531513 0.583573
O O7 0.960407 0.761834 0.454735
O O8 0.519076 0.333471 0.352686
O O9 0.794914 0.090994 0.620422
O O10 0.300308 0.196327 0.658531
O O11 0.357200 0.381667 0.544994
O O12 0.885197 0.073356 0.221441
O O13 0.000000 0.000000 0.500000
O O14 0.223177 0.960948 0.913565
O O15 0.285622 0.684239 0.177902
O O16 0.967557 0.856926 0.102465
O O17 0.500000 0.500000 0.500000
#
# Coordination Sequence:
#
# PCOD8000354 Si02
#       8
#     2   2   2   2   2   2   2   2
#     4  10  22  38  61  84 112 163 198 234 287 346
#     4  10  20  36  60  86 113 153 200 237 283 352
#     4  11  21  39  59  85 123 148 197 245 287 340
#     4  11  22  38  59  89 121 150 193 245 295 346
#     4  10  21  37  61  85 113 155 200 236 280 347
#     4  10  19  39  60  81 119 158 193 235 294 346
#     4   9  21  35  61  85 110 157 194 235 292 354
#     4  11  22  37  58  88 122 151 190 247 298 345
#
# _framework density 19.667712999999999
#
# number of rings (size 3 to 8) (size 9 to 14) (size 15 to 20)
#    0.000    1.750    3.750    0.750    1.750    1.500 
#    2.250    1.250    0.000    1.500    0.000    0.000 
#    0.000    0.000    0.000    0.000    0.000    0.000 
#
# Total GULP energy -198340.478536 kJ/mol
# GULP energy per Si atom -12396.279908 kJ/mol
# Density = 1.962295 g / cm^3
# Si number density = 19.667713 Si / 1000 Ang^3
#
#
#
# Elastic Constant Matrix: (Units=GPa)
#
#
# Indices 1 2 3 4 5 6 
#
# 1 114.7046 32.7871 43.3456 -5.5900 -16.3388 11.7013
# 2 32.7871 74.5788 28.6474 -5.9675 -11.0850 12.1139
# 3 43.3456 28.6474 77.7450 -8.3375 -8.0440 4.8144
# 4 -5.5900 -5.9675 -8.3375 28.2223 6.3290 4.2654
# 5 -16.3388 -11.0850 -8.0440 6.3290 36.0035 0.0984
# 6 11.7013 12.1139 4.8144 4.2654 0.0984 28.8152
#
#
#
# Elastic Compliance Matrix: (Units=1/GPa)
#
#
# Indices 1 2 3 4 5 6 
#
# 1 0.012255 -0.002247 -0.005431 0.000000 0.003665 -0.003137
# 2 -0.002247 0.017696 -0.004326 0.002257 0.003082 -0.006149
# 3 -0.005431 -0.004326 0.017757 0.003259 -0.000404 0.000576
# 4 0.000000 0.002257 0.003259 0.039194 -0.005447 -0.007276
# 5 0.003665 0.003082 -0.000404 -0.005447 0.031260 -0.002017
# 6 -0.003137 -0.006149 0.000576 -0.007276 -0.002017 0.039550
#
#
# Mechanical properties :
#
#
# Convention : Reuss Voigt Hill
#
# Bulk Modulus (GPa) = 42.19642 52.95429 47.57535
# Shear Modulus (GPa) = 26.36870 29.42476 27.89673
#
# Velocity S-wave (km/s) = 3.66554 3.87213 3.77025
# Velocity P-wave (km/s) = 6.27823 6.85377 6.57230
#
# Compressibility (1/GPa) = 0.02369869
#
# Stress axis : x y z
#
# Youngs Moduli (GPa) = 81.60162 56.51108 56.31729
#
# Poissons Ratio (x) = 0.12699 0.30586
# Poissons Ratio (y) = 0.18337 0.24363
# Poissons Ratio (z) = 0.44317 0.24446
#
# Static dielectric constant tensor:
#      x y z
#    x 3.382500 0.135620 -0.038630 
#    y 0.135620 3.723550 -0.244840 
#    z -0.038630 -0.244840 3.783530 
# 
# 
# High freq. dielectric constant tensor:
#      x y z
#    x 1.748500 0.022000 0.001340 
#    y 0.022000 1.766160 -0.010720 
#    z 0.001340 -0.010720 1.769400 
# 
# From -- ./inp_files/176036.got.cif
#   From: 2010.06.25/outbox.cif.g09.slc.cpg/sg2_89_cif.got.tgz:176036.got - 2010.06.27 13:26:56.
