data_PCOD8000182
_publ_section_title
;
Structure prediction by ZEFSAII (Michael W. Deem and Ramdas Pophale) SiO2 
 PCOD8000182
Probable space group: P 1
;
_chemical_formula_sum "Si O2"
_cell_formula_units_Z 8
_cell_length_a 8.044625
_cell_length_b 13.795137
_cell_length_c 11.381497
_cell_angle_alpha 30.199762
_cell_angle_beta 145.039093
_cell_angle_gamma 139.004990
_cell_volume 359.307417
_symmetry_space_group_name_H-M "P 1"
_symmetry_group_IT_number 1
_symmetry_cell_setting 'triclinic'
loop_
_space_group_symop_operation_xyz
x,y,z
loop_
_atom_site_type_symbol
_atom_site_label
_atom_site_fract_x
_atom_site_fract_y
_atom_site_fract_z
Si Si1 0.747180 0.751240 0.522180
Si Si2 0.753634 0.148112 0.810627
Si Si3 0.668144 0.464114 0.249305
Si Si4 0.250189 0.458095 0.448124
Si Si5 0.866327 0.398441 0.082493
Si Si6 0.423116 0.855553 0.744323
Si Si7 0.634504 0.160219 0.003398
Si Si8 0.406289 0.172457 0.220646
O O1 0.522836 0.634068 0.421529
O O2 0.070844 0.806089 0.598542
O O3 0.753202 0.608517 0.787631
O O4 0.618078 0.946870 0.275711
O O5 0.709741 0.349294 0.513212
O O6 0.671729 0.151485 0.895718
O O7 0.553690 0.967463 0.819899
O O8 0.092737 0.122392 0.029339
O O9 0.421943 0.344105 0.147464
O O10 0.977859 0.506181 0.315414
O O11 0.568241 0.664219 0.017155
O O12 0.342617 0.255734 0.761755
O O13 0.173054 0.431423 0.293497
O O14 0.637292 0.237237 0.184695
O O15 0.903797 0.306379 0.070679
O O16 0.499323 0.985434 0.535947
#
# Coordination Sequence:
#
# PCOD8000182 Si02
#       8
#     1   1   1   1   1   1   1   1
#     4  11  25  41  66 107 132 173 226 275 335 398
#     4  11  24  41  70 100 137 178 219 280 338 387
#     4  10  25  46  70  98 136 178 229 274 333 406
#     4  10  25  45  69 100 135 181 217 280 343 392
#     4  10  25  43  69  96 141 177 222 273 339 400
#     4  11  26  42  72 104 133 172 234 275 332 400
#     4  11  25  41  68  99 138 174 224 274 333 401
#     4  10  23  47  66 100 134 181 223 273 339 398
#
# _framework density 22.265056999999999
#
# number of rings (size 3 to 8) (size 9 to 14) (size 15 to 20)
#    0.000    1.500    1.250    1.500    8.750    8.000 
#    0.000    0.000    0.000    0.000    0.000    0.000 
#    0.000    0.000    0.000    0.000    0.000    0.000 
#
# Total GULP energy -99167.478866 kJ/mol
# GULP energy per Si atom -12395.934858 kJ/mol
# Density = 2.221438 g / cm^3
# Si number density = 22.265057 Si / 1000 Ang^3
#
#
#
# Elastic Constant Matrix: (Units=GPa)
#
#
# Indices 1 2 3 4 5 6 
#
# 1 58.7902 43.7030 30.9210 -1.2342 -2.8690 -4.2568
# 2 43.7030 159.3211 93.3119 8.0146 3.2828 -5.6772
# 3 30.9210 93.3119 158.8155 -17.4818 1.4734 -17.1977
# 4 -1.2342 8.0146 -17.4818 51.5911 0.1872 5.3251
# 5 -2.8690 3.2828 1.4734 0.1872 40.1326 -0.2714
# 6 -4.2568 -5.6772 -17.1977 5.3251 -0.2714 32.7184
#
#
#
# Elastic Compliance Matrix: (Units=1/GPa)
#
#
# Indices 1 2 3 4 5 6 
#
# 1 0.021763 -0.005598 -0.000712 0.001003 0.002044 0.001340
# 2 -0.005598 0.011717 -0.006373 -0.003964 -0.001116 -0.001409
# 3 -0.000712 -0.006373 0.011079 0.004322 0.000070 0.003922
# 4 0.001003 -0.003964 0.004322 0.021674 0.000124 -0.001812
# 5 0.002044 -0.001116 0.000070 0.000124 0.025154 0.000298
# 6 0.001340 -0.001409 0.003922 -0.001812 0.000298 0.032853
#
#
# Mechanical properties :
#
#
# Convention : Reuss Voigt Hill
#
# Bulk Modulus (GPa) = 52.09818 79.19983 65.64900
# Shear Modulus (GPa) = 32.05066 38.82113 35.43589
#
# Velocity S-wave (km/s) = 3.79820 4.18016 3.99375
# Velocity P-wave (km/s) = 6.53337 7.67769 7.12853
#
# Compressibility (1/GPa) = 0.01919453
#
# Stress axis : x y z
#
# Youngs Moduli (GPa) = 45.94947 85.34696 90.25708
#
# Poissons Ratio (x) = 0.47776 0.06423
# Poissons Ratio (y) = 0.25722 0.57520
# Poissons Ratio (z) = 0.03270 0.54391
#
# Static dielectric constant tensor:
#      x y z
#    x 3.750270 -0.026560 -0.109330 
#    y -0.026560 4.280620 0.119960 
#    z -0.109330 0.119960 4.455510 
# 
# 
# High freq. dielectric constant tensor:
#      x y z
#    x 1.855260 -0.001910 -0.011160 
#    y -0.001910 1.887750 0.007620 
#    z -0.011160 0.007620 1.898740 
# 
# From -- ./inp_files/6623.got.cif
#   From: 2010.03.12/outbox.cif.g09.slc.cpg/sg1_4_cif.got.tgz:6623.got - 2010.03.29 11:57:58.
