data_PCOD8000309
_publ_section_title
;
Structure prediction by ZEFSAII (Michael W. Deem and Ramdas Pophale) SiO2 
 PCOD8000309
Probable space group: P -1
;
_chemical_formula_sum "Si O2"
_cell_formula_units_Z 12
_cell_length_a 20.854192
_cell_length_b 14.605123
_cell_length_c 11.742493
_cell_angle_alpha 29.507282
_cell_angle_beta 29.918744
_cell_angle_gamma 19.717256
_cell_volume 569.547418
_symmetry_space_group_name_H-M "P -1"
_symmetry_group_IT_number 2
_symmetry_cell_setting 'triclinic'
loop_
_space_group_symop_operation_xyz
x,y,z
-x,-y,-z
loop_
_atom_site_type_symbol
_atom_site_label
_atom_site_fract_x
_atom_site_fract_y
_atom_site_fract_z
Si Si1 0.489453 0.270896 0.876821
Si Si2 0.563185 0.651642 0.609346
Si Si3 0.193248 0.273790 0.870528
Si Si4 0.245234 0.924002 0.982957
Si Si5 0.091270 0.865824 0.882709
Si Si6 0.566392 0.262123 0.529178
O O1 0.258408 0.517375 0.006305
O O2 0.508636 0.190709 0.800450
O O3 0.565530 0.402369 0.625057
O O4 0.618591 0.999020 0.051470
O O5 0.745188 0.591889 0.418744
O O6 0.633659 0.360248 0.822213
O O7 0.476981 0.791448 0.465270
O O8 0.390430 0.872317 0.729003
O O9 0.000000 0.500000 0.000000
O O10 0.148681 0.182071 0.935516
O O11 0.075368 0.001345 0.094704
O O12 0.200246 0.939108 0.601386
O O13 0.000000 0.000000 0.000000
#
# Coordination Sequence:
#
# PCOD8000309 Si02
#       6
#     2   2   2   2   2   2
#     4   9  21  41  61  93 133 160 217 266 314 386
#     4  11  24  43  71  90 136 173 215 273 329 378
#     4  12  28  42  64 100 133 177 220 262 328 390
#     4  11  23  45  67  97 132 171 219 271 323 393
#     4  10  19  38  72  97 119 172 222 260 332 382
#     4   9  19  40  67  91 125 175 204 269 325 371
#
# _framework density 21.06936
#
# number of rings (size 3 to 8) (size 9 to 14) (size 15 to 20)
#    1.000    0.667    3.333    0.500    7.000    1.333 
#    0.000    0.833    0.000    0.000    0.000    0.000 
#    0.000    0.000    0.000    0.000    0.000    0.000 
#
# Total GULP energy -148733.282234 kJ/mol
# GULP energy per Si atom -12394.440186 kJ/mol
# Density = 2.102141 g / cm^3
# Si number density = 21.069360 Si / 1000 Ang^3
#
#
#
# Elastic Constant Matrix: (Units=GPa)
#
#
# Indices 1 2 3 4 5 6 
#
# 1 150.4365 43.7143 40.8273 22.4273 7.4594 16.8763
# 2 43.7143 109.3569 31.6451 36.7624 8.2403 12.7681
# 3 40.8273 31.6451 63.8914 19.8658 -1.9148 13.9219
# 4 22.4273 36.7624 19.8658 31.6260 1.3889 5.1317
# 5 7.4594 8.2403 -1.9148 1.3889 36.8975 5.3555
# 6 16.8763 12.7681 13.9219 5.1317 5.3555 38.7517
#
#
#
# Elastic Compliance Matrix: (Units=1/GPa)
#
#
# Indices 1 2 3 4 5 6 
#
# 1 0.008633 -0.001490 -0.004018 -0.001575 -0.001354 -0.001430
# 2 -0.001490 0.016033 -0.001711 -0.016145 -0.002538 -0.001530
# 3 -0.004018 -0.001711 0.023114 -0.008977 0.003499 -0.005285
# 4 -0.001575 -0.016145 -0.008977 0.056843 0.001093 0.001552
# 5 -0.001354 -0.002538 0.003499 0.001093 0.028654 -0.003936
# 6 -0.001430 -0.001530 -0.005285 0.001552 -0.003936 0.029169
#
#
# Mechanical properties :
#
#
# Convention : Reuss Voigt Hill
#
# Bulk Modulus (GPa) = 29.99295 61.78425 45.88860
# Shear Modulus (GPa) = 26.59589 35.28824 30.94207
#
# Velocity S-wave (km/s) = 3.55674 4.09695 3.83636
# Velocity P-wave (km/s) = 5.57974 7.19499 6.43822
#
# Compressibility (1/GPa) = 0.03334117
#
# Stress axis : x y z
#
# Youngs Moduli (GPa) = 115.83405 62.37282 43.26295
#
# Poissons Ratio (x) = 0.09293 0.17384
# Poissons Ratio (y) = 0.17258 0.07404
# Poissons Ratio (z) = 0.46544 0.10675
#
# Static dielectric constant tensor:
#      x y z
#    x 3.868160 0.047370 0.136140 
#    y 0.047370 3.770910 0.113110 
#    z 0.136140 0.113110 3.630230 
# 
# 
# High freq. dielectric constant tensor:
#      x y z
#    x 1.834610 0.009480 0.008010 
#    y 0.009480 1.812250 0.015430 
#    z 0.008010 0.015430 1.810750 
# 
# From -- ./inp_files/392291.got.cif
#   From: 2010.06.25/outbox.cif.g09.slc.cpg/sg2_197_cif.got.tgz:392291.got - 2010.06.27 13:26:56.
