data_PCOD8000823
_publ_section_title
;
Structure prediction by ZEFSAII (Michael W. Deem and Ramdas Pophale) SiO2 
 PCOD8000823
Probable space group: P -1
;
_chemical_formula_sum "Si O2"
_cell_formula_units_Z 16
_cell_length_a 13.906349
_cell_length_b 8.749099
_cell_length_c 21.096989
_cell_angle_alpha 108.400653
_cell_angle_beta 156.725800
_cell_angle_gamma 59.346823
_cell_volume 779.533420
_symmetry_space_group_name_H-M "P -1"
_symmetry_group_IT_number 2
_symmetry_cell_setting 'triclinic'
loop_
_space_group_symop_operation_xyz
x,y,z
-x,-y,-z
loop_
_atom_site_type_symbol
_atom_site_label
_atom_site_fract_x
_atom_site_fract_y
_atom_site_fract_z
Si Si1 0.678954 0.602613 0.004076
Si Si2 0.317980 0.594838 0.563203
Si Si3 0.562420 0.783229 0.819856
Si Si4 0.703856 0.787986 0.267080
Si Si5 0.114950 0.783783 0.116494
Si Si6 0.348060 0.919126 0.938843
Si Si7 0.834457 0.332680 0.658747
Si Si8 0.247899 0.764108 0.049845
O O1 0.566014 0.705581 0.881206
O O2 0.409298 0.734127 0.909798
O O3 0.765504 0.381062 0.025069
O O4 0.977715 0.578982 0.203340
O O5 0.475517 0.685205 0.703072
O O6 0.576600 0.361359 0.676862
O O7 0.168172 0.708912 0.422382
O O8 0.054655 0.614394 0.447690
O O9 0.312003 0.019586 0.696564
O O10 0.882740 0.736876 0.990736
O O11 0.574648 0.722379 0.235450
O O12 0.496589 0.840180 0.086644
O O13 0.192164 0.725333 0.081853
O O14 0.003364 0.007321 0.092066
O O15 0.998583 0.112133 0.761660
O O16 0.500000 0.000000 0.000000
O O17 0.500000 0.500000 0.500000
#
# Coordination Sequence:
#
# PCOD8000823 Si02
#       8
#     2   2   2   2   2   2   2   2
#     4  11  20  42  65  90 120 172 208 243 316 376
#     4  12  22  37  65 100 120 155 217 263 302 359
#     4  11  21  38  70  91 122 160 211 262 307 365
#     4  11  22  41  63  92 129 164 204 260 307 369
#     4  10  23  42  60  93 130 162 205 258 315 370
#     4  10  19  40  62  88 125 157 206 250 312 360
#     4  11  23  37  65  97 126 152 201 271 309 351
#     4  10  24  41  63  85 128 179 198 242 323 380
#
# _framework density 20.525098
#
# number of rings (size 3 to 8) (size 9 to 14) (size 15 to 20)
#    0.000    1.250    6.250    1.500    3.500    1.000 
#    0.000    1.875    0.000    0.000    0.000    0.000 
#    0.000    0.000    0.000    0.000    0.000    0.000 
#
# Total GULP energy -198339.795262 kJ/mol
# GULP energy per Si atom -12396.237204 kJ/mol
# Density = 2.047838 g / cm^3
# Si number density = 20.525098 Si / 1000 Ang^3
#
#
#
# Elastic Constant Matrix: (Units=GPa)
#
#
# Indices 1 2 3 4 5 6 
#
# 1 40.6331 18.3460 -1.5868 -1.6189 14.3901 -10.0090
# 2 18.3460 131.9558 43.7972 1.7592 9.2547 -24.1128
# 3 -1.5868 43.7972 84.3891 -10.8623 15.4908 -8.4868
# 4 -1.6189 1.7592 -10.8623 23.0931 -14.2535 2.7048
# 5 14.3901 9.2547 15.4908 -14.2535 36.3830 -6.6455
# 6 -10.0090 -24.1128 -8.4868 2.7048 -6.6455 28.0511
#
#
#
# Elastic Compliance Matrix: (Units=1/GPa)
#
#
# Indices 1 2 3 4 5 6 
#
# 1 0.033657 -0.004136 0.005662 -0.004943 -0.015326 0.007012
# 2 -0.004136 0.011455 -0.006020 -0.004263 0.000927 0.007180
# 3 0.005662 -0.006020 0.016822 0.005157 -0.005840 0.000054
# 4 -0.004943 -0.004263 0.005157 0.060994 0.023997 -0.004065
# 5 -0.015326 0.000927 -0.005840 0.023997 0.045572 0.002043
# 6 0.007012 0.007180 0.000054 -0.004065 0.002043 0.045216
#
#
# Mechanical properties :
#
#
# Convention : Reuss Voigt Hill
#
# Bulk Modulus (GPa) = 18.88712 42.01009 30.44860
# Shear Modulus (GPa) = 20.80260 30.60022 25.70141
#
# Velocity S-wave (km/s) = 3.18704 3.86537 3.54247
# Velocity P-wave (km/s) = 4.77126 6.35873 5.62132
#
# Compressibility (1/GPa) = 0.05294614
#
# Stress axis : x y z
#
# Youngs Moduli (GPa) = 29.71114 87.29554 59.44671
#
# Poissons Ratio (x) = 0.36110 -0.33659
# Poissons Ratio (y) = 0.12290 0.35785
# Poissons Ratio (z) = -0.16822 0.52549
#
# Static dielectric constant tensor:
#      x y z
#    x 3.947820 -0.300970 0.124960 
#    y -0.300970 4.097900 -0.186300 
#    z 0.124960 -0.186300 3.862200 
# 
# 
# High freq. dielectric constant tensor:
#      x y z
#    x 1.809670 -0.022250 0.001510 
#    y -0.022250 1.802810 -0.016740 
#    z 0.001510 -0.016740 1.786540 
# 
# From -- ./inp_files/209455.got.cif
#   From: 2010.06.25/outbox.cif.g09.slc.cpg/sg2_105_cif.got.tgz:209455.got - 2010.06.27 13:26:56.
