data_PCOD8000494
_publ_section_title
;
Structure prediction by ZEFSAII (Michael W. Deem and Ramdas Pophale) SiO2 
 PCOD8000494
Probable space group: P -1
;
_chemical_formula_sum "Si O2"
_cell_formula_units_Z 16
_cell_length_a 14.774603
_cell_length_b 9.097448
_cell_length_c 14.932129
_cell_angle_alpha 53.631372
_cell_angle_beta 128.170949
_cell_angle_gamma 150.462048
_cell_volume 769.938278
_symmetry_space_group_name_H-M "P -1"
_symmetry_group_IT_number 2
_symmetry_cell_setting 'triclinic'
loop_
_space_group_symop_operation_xyz
x,y,z
-x,-y,-z
loop_
_atom_site_type_symbol
_atom_site_label
_atom_site_fract_x
_atom_site_fract_y
_atom_site_fract_z
Si Si1 0.495470 0.877961 0.206589
Si Si2 0.700838 0.040370 0.448607
Si Si3 0.031646 0.106084 0.799999
Si Si4 0.918050 0.642231 0.441933
Si Si5 0.609123 0.598085 0.784250
Si Si6 0.095229 0.429594 0.069630
Si Si7 0.565057 0.290661 0.442591
Si Si8 0.723667 0.466201 0.038536
O O1 0.522637 0.712711 0.238315
O O2 0.271422 0.631402 0.173566
O O3 0.613073 0.035646 0.312924
O O4 0.560846 0.122203 0.093034
O O5 0.823277 0.324209 0.485902
O O6 0.856235 0.084866 0.494585
O O7 0.521613 0.736205 0.507502
O O8 0.116723 0.294864 0.693832
O O9 0.136390 0.319885 0.872122
O O10 0.809950 0.874827 0.756948
O O11 0.058999 0.922103 0.876978
O O12 0.796314 0.585369 0.468402
O O13 0.512230 0.675879 0.697288
O O14 0.637201 0.549872 0.918871
O O15 0.162778 0.489100 0.987598
O O16 0.000000 0.500000 0.000000
O O17 0.500000 0.000000 0.500000
#
# Coordination Sequence:
#
# PCOD8000494 Si02
#       8
#     2   2   2   2   2   2   2   2
#     4  10  21  39  64  86 120 169 198 247 325 372
#     4  10  20  40  60  86 125 156 205 253 309 362
#     4  10  19  39  63  87 120 169 208 248 314 378
#     4  10  20  37  62  88 117 161 207 254 307 358
#     4  10  20  38  60  87 125 159 199 261 312 367
#     4  10  22  40  57  92 130 157 199 263 311 365
#     4  10  22  38  59  89 121 159 205 260 302 363
#     4  10  20  39  65  89 117 170 210 241 319 380
#
# _framework density 20.780887
#
# number of rings (size 3 to 8) (size 9 to 14) (size 15 to 20)
#    0.000    2.250    2.500    3.000    0.000    2.500 
#   11.250    1.875    0.000    0.000    0.000    0.000 
#    0.000    0.000    0.000    0.000    0.000    0.000 
#
# Total GULP energy -198231.752255 kJ/mol
# GULP energy per Si atom -12389.484516 kJ/mol
# Density = 2.073359 g / cm^3
# Si number density = 20.780887 Si / 1000 Ang^3
#
#
#
# Elastic Constant Matrix: (Units=GPa)
#
#
# Indices 1 2 3 4 5 6 
#
# 1 99.4215 40.4369 58.7670 1.6518 17.8984 27.5198
# 2 40.4369 75.2365 31.3493 -1.1823 3.7311 11.3104
# 3 58.7670 31.3493 122.3931 -5.5368 8.9425 14.2431
# 4 1.6518 -1.1823 -5.5368 32.5304 0.2097 -0.7507
# 5 17.8984 3.7311 8.9425 0.2097 35.6068 -11.2319
# 6 27.5198 11.3104 14.2431 -0.7507 -11.2319 30.8111
#
#
#
# Elastic Compliance Matrix: (Units=1/GPa)
#
#
# Indices 1 2 3 4 5 6 
#
# 1 0.028451 -0.007253 -0.007377 -0.003452 -0.020107 -0.026753
# 2 -0.007253 0.017362 -0.001326 0.000796 0.002697 0.001720
# 3 -0.007377 -0.001326 0.011779 0.002373 0.001590 0.002268
# 4 -0.003452 0.000796 0.002373 0.031409 0.001860 0.003137
# 5 -0.020107 0.002697 0.001590 0.001860 0.048174 0.033841
# 6 -0.026753 0.001720 0.002268 0.003137 0.033841 0.067084
#
#
# Mechanical properties :
#
#
# Convention : Reuss Voigt Hill
#
# Bulk Modulus (GPa) = 38.93858 62.01750 50.47804
# Shear Modulus (GPa) = 20.43063 30.88951 25.66007
#
# Velocity S-wave (km/s) = 3.13892 3.85962 3.51777
# Velocity P-wave (km/s) = 5.64937 7.05482 6.39085
#
# Compressibility (1/GPa) = 0.02568147
#
# Stress axis : x y z
#
# Youngs Moduli (GPa) = 35.14839 57.59655 84.89540
#
# Poissons Ratio (x) = 0.41774 0.62624
# Poissons Ratio (y) = 0.25493 0.11256
# Poissons Ratio (z) = 0.25928 0.07637
#
# Static dielectric constant tensor:
#      x y z
#    x 3.859710 0.328090 0.077360 
#    y 0.328090 3.899280 -0.237860 
#    z 0.077360 -0.237860 3.806790 
# 
# 
# High freq. dielectric constant tensor:
#      x y z
#    x 1.785670 0.014760 0.007040 
#    y 0.014760 1.810590 -0.016470 
#    z 0.007040 -0.016470 1.821380 
# 
# From -- ./inp_files/452135.got.cif
#   From: 2010.06.25/outbox.cif.g09.slc.cpg/sg2_227_cif.got.tgz:452135.got - 2010.06.27 13:26:56.
