data_PCOD8000618
_publ_section_title
;
Structure prediction by ZEFSAII (Michael W. Deem and Ramdas Pophale) SiO2 
 PCOD8000618
Probable space group: P -1
;
_chemical_formula_sum "Si O2"
_cell_formula_units_Z 16
_cell_length_a 8.480008
_cell_length_b 12.940219
_cell_length_c 9.573752
_cell_angle_alpha 95.781701
_cell_angle_beta 97.594482
_cell_angle_gamma 132.372073
_cell_volume 743.036171
_symmetry_space_group_name_H-M "P -1"
_symmetry_group_IT_number 2
_symmetry_cell_setting 'triclinic'
loop_
_space_group_symop_operation_xyz
x,y,z
-x,-y,-z
loop_
_atom_site_type_symbol
_atom_site_label
_atom_site_fract_x
_atom_site_fract_y
_atom_site_fract_z
Si Si1 0.388909 0.450210 0.632628
Si Si2 0.618445 0.381778 0.144072
Si Si3 0.989293 0.309009 0.890838
Si Si4 0.287307 0.262516 0.840180
Si Si5 0.711145 0.289094 0.645890
Si Si6 0.090382 0.769440 0.554783
Si Si7 0.955576 0.373186 0.204838
Si Si8 0.216965 0.057822 0.610153
O O1 0.500000 0.500000 0.500000
O O2 0.452273 0.592782 0.717957
O O3 0.441835 0.389264 0.754145
O O4 0.127342 0.311819 0.573469
O O5 0.837273 0.532505 0.129448
O O6 0.704272 0.304881 0.176790
O O7 0.426841 0.304166 0.999700
O O8 0.071079 0.229861 0.856298
O O9 0.757550 0.230056 0.773052
O O10 0.978249 0.326078 0.054709
O O11 0.206684 0.111739 0.764760
O O12 0.772775 0.261537 0.503946
O O13 0.451202 0.198678 0.587875
O O14 0.848784 0.457060 0.711204
O O15 0.019680 0.707232 0.693019
O O16 0.225226 0.937637 0.604412
O O17 0.000000 0.000000 0.500000
#
# Coordination Sequence:
#
# PCOD8000618 Si02
#       8
#     2   2   2   2   2   2   2   2
#     4  11  23  37  66 103 135 161 214 283 332 364
#     4  10  21  39  63  99 132 167 220 263 322 388
#     4  10  19  39  65  97 125 169 218 268 313 386
#     4  11  22  42  65  93 131 177 224 254 319 394
#     4  11  22  43  69  92 128 176 218 264 319 392
#     4  12  25  42  62 101 135 166 214 272 327 381
#     4  11  23  39  67 102 131 162 216 273 328 372
#     4  12  25  44  65  94 130 178 221 260 323 398
#
# _framework density 21.533270999999999
#
# number of rings (size 3 to 8) (size 9 to 14) (size 15 to 20)
#    0.000    1.000    5.000    5.250    5.250    0.000 
#    0.000    3.125    0.000    0.000    0.000    0.000 
#    0.000    0.000    0.000    0.000    0.000    0.000 
#
# Total GULP energy -198255.459992 kJ/mol
# GULP energy per Si atom -12390.966250 kJ/mol
# Density = 2.148426 g / cm^3
# Si number density = 21.533271 Si / 1000 Ang^3
#
#
#
# Elastic Constant Matrix: (Units=GPa)
#
#
# Indices 1 2 3 4 5 6 
#
# 1 84.5049 24.4025 39.6635 3.1610 -15.7704 15.4254
# 2 24.4025 54.3027 38.1886 0.8102 -7.4445 2.8648
# 3 39.6635 38.1886 133.2746 -3.8837 -29.2379 7.1592
# 4 3.1610 0.8102 -3.8837 18.6448 -2.7625 3.8055
# 5 -15.7704 -7.4445 -29.2379 -2.7625 51.4579 10.6241
# 6 15.4254 2.8648 7.1592 3.8055 10.6241 24.9784
#
#
#
# Elastic Compliance Matrix: (Units=1/GPa)
#
#
# Indices 1 2 3 4 5 6 
#
# 1 0.017560 -0.005197 -0.001677 0.000380 0.006277 -0.012494
# 2 -0.005197 0.024728 -0.006371 -0.002648 -0.002537 0.003682
# 3 -0.001677 -0.006371 0.011681 0.005006 0.006527 -0.005120
# 4 0.000380 -0.002648 0.005006 0.058865 0.008629 -0.014004
# 5 0.006277 -0.002537 0.006527 0.008629 0.029116 -0.019155
# 6 -0.012494 0.003682 -0.005120 -0.014004 -0.019155 0.059076
#
#
# Mechanical properties :
#
#
# Convention : Reuss Voigt Hill
#
# Bulk Modulus (GPa) = 36.39240 52.95461 44.67350
# Shear Modulus (GPa) = 21.12593 30.33808 25.73201
#
# Velocity S-wave (km/s) = 3.13562 3.75759 3.46061
# Velocity P-wave (km/s) = 5.48149 6.59328 6.06293
#
# Compressibility (1/GPa) = 0.02747827
#
# Stress axis : x y z
#
# Youngs Moduli (GPa) = 56.94877 40.43946 85.61063
#
# Poissons Ratio (x) = 0.21017 0.14361
# Poissons Ratio (y) = 0.29598 0.54538
# Poissons Ratio (z) = 0.09553 0.25762
#
# Static dielectric constant tensor:
#      x y z
#    x 4.430150 -0.146470 0.014800 
#    y -0.146470 3.609150 0.379410 
#    z 0.014800 0.379410 4.479870 
# 
# 
# High freq. dielectric constant tensor:
#      x y z
#    x 1.867110 -0.008070 -0.003800 
#    y -0.008070 1.789500 0.010990 
#    z -0.003800 0.010990 1.864520 
# 
# From -- ./inp_files/207835.got.cif
#   From: 2010.06.25/outbox.cif.g09.slc.cpg/sg2_104_cif.got.tgz:207835.got - 2010.06.27 13:26:56.
