data_PCOD8000723
_publ_section_title
;
Structure prediction by ZEFSAII (Michael W. Deem and Ramdas Pophale) SiO2 
 PCOD8000723
Probable space group: P -1
;
_chemical_formula_sum "Si O2"
_cell_formula_units_Z 16
_cell_length_a 12.026838
_cell_length_b 9.747622
_cell_length_c 8.992077
_cell_angle_alpha 110.596564
_cell_angle_beta 50.689138
_cell_angle_gamma 97.513684
_cell_volume 757.298326
_symmetry_space_group_name_H-M "P -1"
_symmetry_group_IT_number 2
_symmetry_cell_setting 'triclinic'
loop_
_space_group_symop_operation_xyz
x,y,z
-x,-y,-z
loop_
_atom_site_type_symbol
_atom_site_label
_atom_site_fract_x
_atom_site_fract_y
_atom_site_fract_z
Si Si1 0.535068 0.583349 0.854953
Si Si2 0.498472 0.096728 0.894988
Si Si3 0.769207 0.072017 0.458232
Si Si4 0.952490 0.123702 0.864515
Si Si5 0.085828 0.353024 0.047726
Si Si6 0.219272 0.619206 0.593118
Si Si7 0.748038 0.381670 0.090396
Si Si8 0.254493 0.069856 0.874149
O O1 0.678856 0.507772 0.625195
O O2 0.403101 0.590144 0.854262
O O3 0.500000 0.500000 0.000000
O O4 0.569489 0.741854 0.936542
O O5 0.660107 0.093422 0.695672
O O6 0.398968 0.030953 0.831852
O O7 0.500000 0.000000 0.000000
O O8 0.783953 0.229691 0.436198
O O9 0.709438 0.968849 0.343287
O O10 0.922364 0.989520 0.363376
O O11 0.837233 0.225228 0.894912
O O12 0.027662 0.246963 0.934735
O O13 0.870486 0.026382 0.009290
O O14 0.944681 0.424426 0.287164
O O15 0.161807 0.482051 0.958847
O O16 0.200704 0.245526 0.007335
O O17 0.278579 0.636103 0.717159
#
# Coordination Sequence:
#
# PCOD8000723 Si02
#       8
#     2   2   2   2   2   2   2   2
#     4  12  26  46  62  89 139 180 207 256 320 380
#     4  12  28  43  60  94 134 172 217 260 311 378
#     4  11  21  42  70  96 123 170 210 268 321 377
#     4  10  19  39  68  98 127 155 209 277 324 364
#     4  10  20  37  66 104 123 155 210 275 322 365
#     4  11  21  42  70  95 127 165 217 261 321 379
#     4  11  23  40  68 100 125 164 217 268 313 375
#     4  11  20  42  69  94 125 166 214 260 321 384
#
# _framework density 21.127738000000001
#
# number of rings (size 3 to 8) (size 9 to 14) (size 15 to 20)
#    0.000    1.000    5.000    4.500    0.000    3.000 
#    0.000    7.500    0.000    0.000    0.000    0.000 
#    0.000    0.000    0.000    0.000    0.000    0.000 
#
# Total GULP energy -198330.695683 kJ/mol
# GULP energy per Si atom -12395.668480 kJ/mol
# Density = 2.107965 g / cm^3
# Si number density = 21.127738 Si / 1000 Ang^3
#
#
#
# Elastic Constant Matrix: (Units=GPa)
#
#
# Indices 1 2 3 4 5 6 
#
# 1 27.5060 17.6073 26.5640 4.3376 -6.4932 -7.4203
# 2 17.6073 135.6150 43.2168 6.9895 -7.5123 -13.3349
# 3 26.5640 43.2168 114.5584 20.5796 -21.3196 -7.5214
# 4 4.3376 6.9895 20.5796 38.8022 -6.3694 -4.2478
# 5 -6.4932 -7.5123 -21.3196 -6.3694 24.6503 1.8734
# 6 -7.4203 -13.3349 -7.5214 -4.2478 1.8734 33.9625
#
#
#
# Elastic Compliance Matrix: (Units=1/GPa)
#
#
# Indices 1 2 3 4 5 6 
#
# 1 0.050117 -0.002509 -0.009719 0.001484 0.003823 0.007787
# 2 -0.002509 0.008752 -0.002703 0.000325 -0.000426 0.002354
# 3 -0.009719 -0.002703 0.014245 -0.004823 0.007771 -0.001062
# 4 0.001484 0.000325 -0.004823 0.029004 0.003600 0.002813
# 5 0.003823 -0.000426 0.007771 0.003600 0.049086 0.000132
# 6 0.007787 0.002354 -0.001062 0.002813 0.000132 0.032179
#
#
# Mechanical properties :
#
#
# Convention : Reuss Voigt Hill
#
# Bulk Modulus (GPa) = 23.11979 50.27286 36.69633
# Shear Modulus (GPa) = 21.96241 32.16908 27.06575
#
# Velocity S-wave (km/s) = 3.22764 3.90628 3.58306
# Velocity P-wave (km/s) = 4.98566 6.64769 5.87574
#
# Compressibility (1/GPa) = 0.04325299
#
# Stress axis : x y z
#
# Youngs Moduli (GPa) = 19.95349 114.25922 70.19817
#
# Poissons Ratio (x) = 0.28665 0.68222
# Poissons Ratio (y) = 0.05006 0.18976
# Poissons Ratio (z) = 0.19392 0.30886
#
# Static dielectric constant tensor:
#      x y z
#    x 3.906580 -0.330470 -0.355220 
#    y -0.330470 4.161740 0.209270 
#    z -0.355220 0.209270 3.957990 
# 
# 
# High freq. dielectric constant tensor:
#      x y z
#    x 1.819540 -0.014580 -0.022310 
#    y -0.014580 1.847450 0.006760 
#    z -0.022310 0.006760 1.819400 
# 
# From -- ./inp_files/184353.got.cif
#   From: 2010.06.25/outbox.cif.g09.slc.cpg/sg2_93_cif.got.tgz:184353.got - 2010.06.27 13:26:56.
