data_PCOD8000755
_publ_section_title
;
Structure prediction by ZEFSAII (Michael W. Deem and Ramdas Pophale) SiO2 
 PCOD8000755
Probable space group: P -1
;
_chemical_formula_sum "Si O2"
_cell_formula_units_Z 16
_cell_length_a 14.212832
_cell_length_b 8.658468
_cell_length_c 9.340740
_cell_angle_alpha 98.237638
_cell_angle_beta 140.234266
_cell_angle_gamma 89.286809
_cell_volume 718.965446
_symmetry_space_group_name_H-M "P -1"
_symmetry_group_IT_number 2
_symmetry_cell_setting 'triclinic'
loop_
_space_group_symop_operation_xyz
x,y,z
-x,-y,-z
loop_
_atom_site_type_symbol
_atom_site_label
_atom_site_fract_x
_atom_site_fract_y
_atom_site_fract_z
Si Si1 0.443832 0.238407 0.852286
Si Si2 0.678108 0.880341 0.028441
Si Si3 0.870123 0.616836 0.269378
Si Si4 0.956239 0.106833 0.340199
Si Si5 0.706033 0.468095 0.313426
Si Si6 0.044857 0.597766 0.207480
Si Si7 0.445948 0.991312 0.597883
Si Si8 0.904053 0.044908 0.764247
O O1 0.343827 0.362888 0.692273
O O2 0.501879 0.154136 0.771124
O O3 0.354668 0.104585 0.836839
O O4 0.572121 0.327010 0.115557
O O5 0.526158 0.858576 0.753640
O O6 0.753437 0.722998 0.083088
O O7 0.780609 0.039046 0.104380
O O8 0.796448 0.480206 0.271253
O O9 0.007140 0.714911 0.534408
O O10 0.931077 0.532849 0.192587
O O11 0.000000 0.000000 0.500000
O O12 0.066112 0.085664 0.334182
O O13 0.792640 0.425909 0.550536
O O14 0.033320 0.780612 0.194602
O O15 0.000000 0.500000 0.000000
O O16 0.500000 0.000000 0.500000
O O17 0.267382 0.959195 0.393448
O O18 0.000000 0.000000 0.000000
#
# Coordination Sequence:
#
# PCOD8000755 Si02
#       8
#     2   2   2   2   2   2   2   2
#     4  10  23  41  70  94 135 175 226 284 336 402
#     4  10  20  40  67  98 127 169 227 282 341 386
#     4  10  22  40  68  96 133 176 229 281 333 400
#     4  10  19  39  71  95 124 171 225 287 332 379
#     4  10  23  44  65  96 131 182 229 274 335 408
#     4  12  27  41  65  99 137 181 222 279 344 407
#     4  12  26  39  65 101 134 177 222 280 342 408
#     4  12  26  45  67  97 139 178 224 284 343 399
#
# _framework density 22.254199
#
# number of rings (size 3 to 8) (size 9 to 14) (size 15 to 20)
#    0.000    1.250    2.500    4.500    5.250    1.000 
#    0.000    0.000    0.000    6.000    0.000    0.000 
#    0.000    0.000    0.000    0.000    0.000    0.000 
#
# Total GULP energy -198285.376075 kJ/mol
# GULP energy per Si atom -12392.836005 kJ/mol
# Density = 2.220355 g / cm^3
# Si number density = 22.254199 Si / 1000 Ang^3
#
#
#
# Elastic Constant Matrix: (Units=GPa)
#
#
# Indices 1 2 3 4 5 6 
#
# 1 145.6420 22.9506 50.6745 3.6767 -17.2740 -11.4965
# 2 22.9506 55.3433 36.8788 -17.2565 -2.6368 -6.6006
# 3 50.6745 36.8788 136.0659 -32.5447 -2.6350 -14.3878
# 4 3.6767 -17.2565 -32.5447 39.1700 -4.8828 -0.5730
# 5 -17.2740 -2.6368 -2.6350 -4.8828 45.0184 7.7968
# 6 -11.4965 -6.6006 -14.3878 -0.5730 7.7968 29.4728
#
#
#
# Elastic Compliance Matrix: (Units=1/GPa)
#
#
# Indices 1 2 3 4 5 6 
#
# 1 0.009007 -0.002584 -0.003700 -0.004740 0.002510 0.000373
# 2 -0.002584 0.024317 -0.003332 0.008309 0.000654 0.002800
# 3 -0.003700 -0.003332 0.012206 0.009002 -0.000636 0.004112
# 4 -0.004740 0.008309 0.009002 0.037490 0.002486 0.004478
# 5 0.002510 0.000654 -0.000636 0.002486 0.024416 -0.005596
# 6 0.000373 0.002800 0.004112 0.004478 -0.005596 0.038277
#
#
# Mechanical properties :
#
#
# Convention : Reuss Voigt Hill
#
# Bulk Modulus (GPa) = 38.02495 62.00657 50.01576
# Shear Modulus (GPa) = 28.78339 37.83538 33.30939
#
# Velocity S-wave (km/s) = 3.60028 4.12776 3.87301
# Velocity P-wave (km/s) = 5.86570 7.11626 6.52103
#
# Compressibility (1/GPa) = 0.02629852
#
# Stress axis : x y z
#
# Youngs Moduli (GPa) = 111.02027 41.12344 81.92627
#
# Poissons Ratio (x) = 0.10625 0.30312
# Poissons Ratio (y) = 0.28683 0.27301
# Poissons Ratio (z) = 0.41077 0.13704
#
# Static dielectric constant tensor:
#      x y z
#    x 3.410550 -0.670350 -0.754030 
#    y -0.670350 3.359550 -0.968380 
#    z -0.754030 -0.968380 2.931430 
# 
# 
# High freq. dielectric constant tensor:
#      x y z
#    x 1.884650 -0.002080 0.012290 
#    y -0.002080 1.869070 -0.018730 
#    z 0.012290 -0.018730 1.873820 
# 
# From -- ./inp_files/299014.got.cif
#   From: 2010.06.25/outbox.cif.g09.slc.cpg/sg2_150_cif.got.tgz:299014.got - 2010.06.27 13:26:56.
