data_PCOD8000927
_publ_section_title
;
Structure prediction by ZEFSAII (Michael W. Deem and Ramdas Pophale) SiO2 
 PCOD8000927
Probable space group: P -1
;
_chemical_formula_sum "Si O2"
_cell_formula_units_Z 16
_cell_length_a 8.744968
_cell_length_b 14.443256
_cell_length_c 12.221188
_cell_angle_alpha 75.704099
_cell_angle_beta 137.528738
_cell_angle_gamma 126.604592
_cell_volume 781.929247
_symmetry_space_group_name_H-M "P -1"
_symmetry_group_IT_number 2
_symmetry_cell_setting 'triclinic'
loop_
_space_group_symop_operation_xyz
x,y,z
-x,-y,-z
loop_
_atom_site_type_symbol
_atom_site_label
_atom_site_fract_x
_atom_site_fract_y
_atom_site_fract_z
Si Si1 0.836429 0.600545 0.492698
Si Si2 0.756418 0.651521 0.782409
Si Si3 0.750607 0.858455 0.644822
Si Si4 0.904142 0.269416 0.634657
Si Si5 0.964831 0.600491 0.107705
Si Si6 0.632401 0.755043 0.377424
Si Si7 0.800964 0.348438 0.130794
Si Si8 0.174883 0.141384 0.786278
O O1 0.576166 0.453760 0.401674
O O2 0.720651 0.668537 0.461881
O O3 0.948446 0.642017 0.417259
O O4 0.098752 0.630249 0.696485
O O5 0.828161 0.782114 0.771510
O O6 0.971993 0.647583 0.824082
O O7 0.792330 0.630303 0.933643
O O8 0.443593 0.818164 0.535167
O O9 0.746357 0.842065 0.517182
O O10 0.002875 0.999916 0.767720
O O11 0.022489 0.357503 0.775610
O O12 0.987550 0.181268 0.715848
O O13 0.284442 0.667824 0.206731
O O14 0.783799 0.453631 0.051942
O O15 0.778396 0.841957 0.324016
O O16 0.480780 0.217834 0.989443
#
# Coordination Sequence:
#
# PCOD8000927 Si02
#       8
#     2   2   2   2   2   2   2   2
#     4  11  22  40  67  96 126 162 206 265 321 364
#     4  12  23  40  67  97 130 159 212 267 312 369
#     4  11  24  42  64  92 129 171 211 254 309 376
#     4  10  25  44  66  94 127 166 210 258 316 382
#     4  11  22  40  67  96 126 162 206 265 321 364
#     4  10  19  40  66  92 121 164 214 260 308 366
#     4  12  23  40  67  97 130 159 212 267 312 369
#     4  11  24  42  64  92 129 171 211 254 309 376
#
# _framework density 20.462209999999999
#
# number of rings (size 3 to 8) (size 9 to 14) (size 15 to 20)
#    0.000    1.000    3.750    4.500    0.000    5.500 
#    0.000    3.750    0.000    0.000    0.000    0.000 
#    0.000    0.000    0.000    0.000    0.000    0.000 
#
# Total GULP energy -198530.296430 kJ/mol
# GULP energy per Si atom -12408.143527 kJ/mol
# Density = 2.041564 g / cm^3
# Si number density = 20.462210 Si / 1000 Ang^3
#
#
#
# Elastic Constant Matrix: (Units=GPa)
#
#
# Indices 1 2 3 4 5 6 
#
# 1 93.4932 43.2738 25.6904 6.6950 8.3419 -2.2172
# 2 43.2738 165.0058 65.7958 12.3593 8.2412 -8.5225
# 3 25.6904 65.7958 130.2739 1.1031 4.5355 -2.2748
# 4 6.6950 12.3593 1.1031 38.0521 1.2717 0.5350
# 5 8.3419 8.2412 4.5355 1.2717 11.3952 -0.5321
# 6 -2.2172 -8.5225 -2.2748 0.5350 -0.5321 11.2923
#
#
#
# Elastic Compliance Matrix: (Units=1/GPa)
#
#
# Indices 1 2 3 4 5 6 
#
# 1 0.012857 -0.002524 -0.001003 -0.001180 -0.007049 0.000141
# 2 -0.002524 0.008789 -0.003740 -0.002294 -0.002513 0.005374
# 3 -0.001003 -0.003740 0.009755 0.001145 -0.000625 -0.001138
# 4 -0.001180 -0.002294 0.001145 0.027280 -0.001122 -0.003077
# 5 -0.007049 -0.002513 -0.000625 -0.001122 0.095160 0.001131
# 6 0.000141 0.005374 -0.001138 -0.003077 0.001131 0.092609
#
#
# Mechanical properties :
#
#
# Convention : Reuss Voigt Hill
#
# Bulk Modulus (GPa) = 59.29055 73.14365 66.21710
# Shear Modulus (GPa) = 18.75433 29.08213 23.91823
#
# Velocity S-wave (km/s) = 3.03072 3.77405 3.42262
# Velocity P-wave (km/s) = 6.42538 7.40369 6.93182
#
# Compressibility (1/GPa) = 0.01686609
#
# Stress axis : x y z
#
# Youngs Moduli (GPa) = 77.78129 113.78295 102.51084
#
# Poissons Ratio (x) = 0.28722 0.10278
# Poissons Ratio (y) = 0.19634 0.38342
# Poissons Ratio (z) = 0.07798 0.42558
#
# Static dielectric constant tensor:
#      x y z
#    x 3.843400 -0.015970 0.080170 
#    y -0.015970 3.571930 -0.091390 
#    z 0.080170 -0.091390 3.819330 
# 
# 
# High freq. dielectric constant tensor:
#      x y z
#    x 1.807840 0.000230 0.000770 
#    y 0.000230 1.794860 -0.004380 
#    z 0.000770 -0.004380 1.806390 
# 
# From -- ./inp_files/175167.got.cif
#   From: 2010.06.25/outbox.cif.g09.slc.cpg/sg2_88_cif.got.tgz:175167.got - 2010.06.27 13:26:56.
