data_PCOD8000429
_publ_section_title
;
Structure prediction by ZEFSAII (Michael W. Deem and Ramdas Pophale) SiO2 
 PCOD8000429
Probable space group: P -1
;
_chemical_formula_sum "Si O2"
_cell_formula_units_Z 12
_cell_length_a 7.867498
_cell_length_b 10.427589
_cell_length_c 8.960957
_cell_angle_alpha 73.207575
_cell_angle_beta 122.142803
_cell_angle_gamma 117.387005
_cell_volume 551.747046
_symmetry_space_group_name_H-M "P -1"
_symmetry_group_IT_number 2
_symmetry_cell_setting 'triclinic'
loop_
_space_group_symop_operation_xyz
x,y,z
-x,-y,-z
loop_
_atom_site_type_symbol
_atom_site_label
_atom_site_fract_x
_atom_site_fract_y
_atom_site_fract_z
Si Si1 0.881982 0.176292 0.429951
Si Si2 0.140291 0.154313 0.082050
Si Si3 0.609490 0.340913 0.172490
Si Si4 0.268974 0.676910 0.451033
Si Si5 0.269067 0.149074 0.482699
Si Si6 0.056300 0.428982 0.907990
O O1 0.761373 0.249712 0.238012
O O2 0.844883 0.216875 0.570243
O O3 0.136504 0.228127 0.487834
O O4 0.771839 0.005020 0.411319
O O5 0.362217 0.234426 0.065810
O O6 0.191676 0.127944 0.283235
O O7 0.011184 0.262037 0.977688
O O8 0.000000 0.000000 0.000000
O O9 0.651305 0.395226 0.348091
O O10 0.691648 0.480078 0.053272
O O11 0.475373 0.760767 0.415655
O O12 0.093953 0.558994 0.304581
O O13 0.000000 0.500000 0.000000
#
# Coordination Sequence:
#
# PCOD8000429 Si02
#       6
#     2   2   2   2   2   2
#     4   9  19  36  68  88 130 154 236 252 318 364
#     4  11  24  41  67  94 134 169 214 264 337 375
#     4   9  22  43  64  90 126 176 210 263 312 393
#     4   9  21  39  67  86 125 172 217 255 319 378
#     4  10  19  39  62 100 118 174 214 273 300 399
#     4  12  24  43  62  98 135 165 213 270 329 381
#
# _framework density 21.749098
#
# number of rings (size 3 to 8) (size 9 to 14) (size 15 to 20)
#    1.000    1.000    0.000    3.500    2.333    0.000 
#   12.000    4.167    0.000    0.000    0.000    0.000 
#    0.000    0.000    0.000    0.000    0.000    0.000 
#
# Total GULP energy -148721.485409 kJ/mol
# GULP energy per Si atom -12393.457117 kJ/mol
# Density = 2.169960 g / cm^3
# Si number density = 21.749098 Si / 1000 Ang^3
#
#
#
# Elastic Constant Matrix: (Units=GPa)
#
#
# Indices 1 2 3 4 5 6 
#
# 1 156.7747 44.0235 11.9408 25.6345 -13.5370 12.3509
# 2 44.0235 108.9513 29.9782 5.2830 -1.2317 8.4501
# 3 11.9408 29.9782 48.1066 18.0366 3.5041 6.0840
# 4 25.6345 5.2830 18.0366 29.2349 4.8478 3.2654
# 5 -13.5370 -1.2317 3.5041 4.8478 20.7912 -0.7118
# 6 12.3509 8.4501 6.0840 3.2654 -0.7118 39.5177
#
#
#
# Elastic Compliance Matrix: (Units=1/GPa)
#
#
# Indices 1 2 3 4 5 6 
#
# 1 0.010109 -0.004480 0.004373 -0.011935 0.008303 -0.001739
# 2 -0.004480 0.013376 -0.010032 0.008162 -0.002359 -0.000632
# 3 0.004373 -0.010032 0.035014 -0.023623 0.001770 -0.002628
# 4 -0.011935 0.008162 -0.023623 0.060627 -0.017432 0.000298
# 5 0.008303 -0.002359 0.001770 -0.017432 0.057133 0.000106
# 6 -0.001739 -0.000632 -0.002628 0.000298 0.000106 0.026366
#
#
# Mechanical properties :
#
#
# Convention : Reuss Voigt Hill
#
# Bulk Modulus (GPa) = 26.16468 53.96863 40.06666
# Shear Modulus (GPa) = 21.21854 33.10145 27.15999
#
# Velocity S-wave (km/s) = 3.12686 3.90547 3.53765
# Velocity P-wave (km/s) = 5.00926 6.72347 5.92865
#
# Compressibility (1/GPa) = 0.03821946
#
# Stress axis : x y z
#
# Youngs Moduli (GPa) = 98.92117 74.76301 28.56036
#
# Poissons Ratio (x) = 0.33497 -0.12488
# Poissons Ratio (y) = 0.44321 0.28651
# Poissons Ratio (z) = -0.43255 0.74999
#
# Static dielectric constant tensor:
#      x y z
#    x 4.144360 0.125330 0.008830 
#    y 0.125330 3.696660 -0.178830 
#    z 0.008830 -0.178830 3.625030 
# 
# 
# High freq. dielectric constant tensor:
#      x y z
#    x 1.865840 0.008770 -0.000470 
#    y 0.008770 1.845610 -0.016020 
#    z -0.000470 -0.016020 1.827570 
# 
# From -- ./inp_files/146615.got.cif
#   From: 2010.06.25/outbox.cif.g09.slc.cpg/sg2_74_cif.got.tgz:146615.got - 2010.06.27 13:26:56.
