data_PCOD8000692
_publ_section_title
;
Structure prediction by ZEFSAII (Michael W. Deem and Ramdas Pophale) SiO2 
 PCOD8000692
Probable space group: P -1
;
_chemical_formula_sum "Si O2"
_cell_formula_units_Z 16
_cell_length_a 9.832418
_cell_length_b 12.322181
_cell_length_c 8.726287
_cell_angle_alpha 90.375990
_cell_angle_beta 47.071048
_cell_angle_gamma 105.660718
_cell_volume 721.426247
_symmetry_space_group_name_H-M "P -1"
_symmetry_group_IT_number 2
_symmetry_cell_setting 'triclinic'
loop_
_space_group_symop_operation_xyz
x,y,z
-x,-y,-z
loop_
_atom_site_type_symbol
_atom_site_label
_atom_site_fract_x
_atom_site_fract_y
_atom_site_fract_z
Si Si1 0.346701 0.329981 0.475530
Si Si2 0.975083 0.238391 0.164986
Si Si3 0.532494 0.844188 0.815313
Si Si4 0.988911 0.473615 0.184585
Si Si5 0.551405 0.412725 0.630900
Si Si6 0.584203 0.062552 0.593380
Si Si7 0.093503 0.726207 0.134200
Si Si8 0.649738 0.807822 0.052017
O O1 0.457105 0.249980 0.319144
O O2 0.383277 0.351688 0.629959
O O3 0.438482 0.458208 0.328164
O O4 0.106927 0.266804 0.635156
O O5 0.077962 0.372608 0.151379
O O6 0.786725 0.170535 0.413776
O O7 0.903752 0.245648 0.047512
O O8 0.128208 0.172264 0.061162
O O9 0.627128 0.972597 0.674663
O O10 0.300816 0.817772 0.040909
O O11 0.658111 0.839905 0.867729
O O12 0.759649 0.418579 0.405433
O O13 0.099636 0.599323 0.177162
O O14 0.000000 0.500000 0.000000
O O15 0.493065 0.327651 0.820833
O O16 0.420262 0.106828 0.791328
O O17 0.500000 0.000000 0.500000
#
# Coordination Sequence:
#
# PCOD8000692 Si02
#       8
#     2   2   2   2   2   2   2   2
#     4  10  21  39  67  98 130 173 223 268 319 391
#     4  11  22  41  71  99 126 173 227 272 322 391
#     4  12  27  44  64  98 141 176 212 277 341 387
#     4   9  18  35  65 101 131 166 216 271 322 374
#     4  10  19  39  67  98 134 169 223 274 315 391
#     4  12  26  47  72  93 128 177 231 276 321 397
#     4  10  21  39  67  99 132 172 220 268 319 400
#     4  12  27  43  66 102 135 173 219 276 339 391
#
# _framework density 22.178287999999998
#
# number of rings (size 3 to 8) (size 9 to 14) (size 15 to 20)
#    0.000    1.250    3.750    2.625    3.500    3.500 
#    0.000    1.250    0.000    0.000    0.000    0.000 
#    0.000    0.000    0.000    0.000    0.000    0.000 
#
# Total GULP energy -198353.501250 kJ/mol
# GULP energy per Si atom -12397.093828 kJ/mol
# Density = 2.212781 g / cm^3
# Si number density = 22.178288 Si / 1000 Ang^3
#
#
#
# Elastic Constant Matrix: (Units=GPa)
#
#
# Indices 1 2 3 4 5 6 
#
# 1 61.4370 37.4317 21.8613 -1.4103 3.8280 -16.4113
# 2 37.4317 131.6841 45.1244 -6.9870 5.7741 -29.6196
# 3 21.8613 45.1244 75.6460 -6.8276 -2.4210 -10.7726
# 4 -1.4103 -6.9870 -6.8276 39.7433 -12.8803 -1.7272
# 5 3.8280 5.7741 -2.4210 -12.8803 24.8576 -5.8849
# 6 -16.4113 -29.6196 -10.7726 -1.7272 -5.8849 28.9992
#
#
#
# Elastic Compliance Matrix: (Units=1/GPa)
#
#
# Indices 1 2 3 4 5 6 
#
# 1 0.021475 -0.003318 -0.003293 -0.000535 -0.001425 0.007220
# 2 -0.003318 0.012349 -0.004972 0.001636 0.000140 0.009015
# 3 -0.003293 -0.004972 0.017831 0.003970 0.005711 0.001078
# 4 -0.000535 0.001636 0.003970 0.032668 0.019066 0.008658
# 5 -0.001425 0.000140 0.005711 0.019066 0.054063 0.013565
# 6 0.007220 0.009015 0.001078 0.008658 0.013565 0.051446
#
#
# Mechanical properties :
#
#
# Convention : Reuss Voigt Hill
#
# Bulk Modulus (GPa) = 35.09881 53.06690 44.08285
# Shear Modulus (GPa) = 22.47257 29.67668 26.07463
#
# Velocity S-wave (km/s) = 3.18664 3.66197 3.43254
# Velocity P-wave (km/s) = 5.42215 6.46988 5.96905
#
# Compressibility (1/GPa) = 0.02849099
#
# Stress axis : x y z
#
# Youngs Moduli (GPa) = 46.56535 80.97806 56.08102
#
# Poissons Ratio (x) = 0.26868 0.18466
# Poissons Ratio (y) = 0.15450 0.27881
# Poissons Ratio (z) = 0.15332 0.40259
#
# Static dielectric constant tensor:
#      x y z
#    x 3.581270 -0.271640 -0.145730 
#    y -0.271640 4.416730 -0.203820 
#    z -0.145730 -0.203820 4.043870 
# 
# 
# High freq. dielectric constant tensor:
#      x y z
#    x 1.836110 -0.022210 -0.017610 
#    y -0.022210 1.881780 -0.011740 
#    z -0.017610 -0.011740 1.880700 
# 
# From -- ./inp_files/186448.got.cif
#   From: 2010.06.25/outbox.cif.g09.slc.cpg/sg2_94_cif.got.tgz:186448.got - 2010.06.27 13:26:56.
