data_PCOD8000205
_publ_section_title
;
Structure prediction by ZEFSAII (Michael W. Deem and Ramdas Pophale) SiO2 
 PCOD8000205
Probable space group: P 1
;
_chemical_formula_sum "Si O2"
_cell_formula_units_Z 6
_cell_length_a 7.347251
_cell_length_b 4.864064
_cell_length_c 8.282484
_cell_angle_alpha 62.187190
_cell_angle_beta 124.093140
_cell_angle_gamma 92.278216
_cell_volume 206.626579
_symmetry_space_group_name_H-M "P 1"
_symmetry_group_IT_number 1
_symmetry_cell_setting 'triclinic'
loop_
_space_group_symop_operation_xyz
x,y,z
loop_
_atom_site_type_symbol
_atom_site_label
_atom_site_fract_x
_atom_site_fract_y
_atom_site_fract_z
Si Si1 0.908460 0.010550 0.255860
Si Si2 0.066247 0.239037 0.847916
Si Si3 0.590105 0.273323 0.571324
Si Si4 0.256173 0.070374 0.659373
Si Si5 0.477514 0.434413 0.108472
Si Si6 0.927588 0.686422 0.024933
O O1 0.654554 0.153092 0.168158
O O2 0.978621 0.304521 0.118184
O O3 0.104258 0.895906 0.523298
O O4 0.901793 0.737301 0.195528
O O5 0.097094 0.288537 0.658904
O O6 0.792196 0.414629 0.705174
O O7 0.129060 0.845280 0.024881
O O8 0.222908 0.393131 0.990473
O O9 0.351523 0.336078 0.535758
O O10 0.555640 0.403221 0.339043
O O11 0.698157 0.879569 0.755475
O O12 0.461952 0.784968 0.925737
#
# Coordination Sequence:
#
# PCOD8000205 Si02
#       6
#     1   1   1   1   1   1
#     4  12  25  50  80 112 156 199 258 314 377 460
#     4  10  25  46  72 115 144 202 252 308 378 454
#     4  10  24  49  70 115 148 204 250 320 372 461
#     4  12  26  47  78 108 153 203 251 315 384 446
#     4  12  25  49  76 112 153 202 254 315 382 453
#     4  10  25  49  76 112 152 198 253 312 377 448
#
# _framework density 29.037890000000001
#
# number of rings (size 3 to 8) (size 9 to 14) (size 15 to 20)
#    1.000    0.000    3.333    2.000    7.000    0.000 
#    3.000    0.000    0.000    0.000    0.000    0.000 
#    0.000    0.000    0.000    0.000    0.000    0.000 
#
# Total GULP energy -74336.172869 kJ/mol
# GULP energy per Si atom -12389.362145 kJ/mol
# Density = 2.897180 g / cm^3
# Si number density = 29.037890 Si / 1000 Ang^3
#
#
#
# Elastic Constant Matrix: (Units=GPa)
#
#
# Indices 1 2 3 4 5 6 
#
# 1 136.2564 8.2901 13.4894 15.6523 0.3322 24.4572
# 2 8.2901 59.7713 8.6035 15.8062 3.1829 -0.8112
# 3 13.4894 8.6035 151.7266 15.2545 -6.7592 4.1492
# 4 15.6523 15.8062 15.2545 30.5974 17.4447 1.0509
# 5 0.3322 3.1829 -6.7592 17.4447 52.0717 5.7805
# 6 24.4572 -0.8112 4.1492 1.0509 5.7805 37.0313
#
#
#
# Elastic Compliance Matrix: (Units=1/GPa)
#
#
# Indices 1 2 3 4 5 6 
#
# 1 0.009147 0.000101 0.000085 -0.006088 0.002685 -0.006295
# 2 0.000101 0.019696 0.000190 -0.011917 0.002785 0.000247
# 3 0.000085 0.000190 0.007269 -0.005353 0.002853 -0.001160
# 4 -0.006088 -0.011917 -0.005353 0.055312 -0.019099 0.005771
# 5 0.002685 0.002785 0.002853 -0.019099 0.026409 -0.005612
# 6 -0.006295 0.000247 -0.001160 0.005771 -0.005612 0.032009
#
#
# Mechanical properties :
#
#
# Convention : Reuss Voigt Hill
#
# Bulk Modulus (GPa) = 27.12762 45.39115 36.25939
# Shear Modulus (GPa) = 30.98283 45.09816 38.04049
#
# Velocity S-wave (km/s) = 3.27001 3.94519 3.62336
# Velocity P-wave (km/s) = 4.86001 6.03476 5.47896
#
# Compressibility (1/GPa) = 0.03686280
#
# Stress axis : x y z
#
# Youngs Moduli (GPa) = 109.32163 50.77291 137.56109
#
# Poissons Ratio (x) = -0.00511 -0.01168
# Poissons Ratio (y) = -0.01101 -0.02609
# Poissons Ratio (z) = -0.00928 -0.00963
#
# Static dielectric constant tensor:
#      x y z
#    x 5.552930 0.217280 -0.040370 
#    y 0.217280 4.549010 -0.061280 
#    z -0.040370 -0.061280 5.486480 
# 
# 
# High freq. dielectric constant tensor:
#      x y z
#    x 2.199520 0.015480 -0.013060 
#    y 0.015480 2.144210 0.004740 
#    z -0.013060 0.004740 2.198360 
# 
# From -- ./inp_files/884.got.cif
#   From: 2010.03.12/outbox.cif.g09.slc.cpg/sg1_1_cif.got.tgz:884.got - 2010.03.29 11:57:58.
