data_PCOD8000810
_publ_section_title
;
Structure prediction by ZEFSAII (Michael W. Deem and Ramdas Pophale) SiO2 
 PCOD8000810
Probable space group: P -1
;
_chemical_formula_sum "Si O2"
_cell_formula_units_Z 16
_cell_length_a 8.909458
_cell_length_b 8.526838
_cell_length_c 14.966089
_cell_angle_alpha 94.170715
_cell_angle_beta 139.323007
_cell_angle_gamma 75.714446
_cell_volume 706.273498
_symmetry_space_group_name_H-M "P -1"
_symmetry_group_IT_number 2
_symmetry_cell_setting 'triclinic'
loop_
_space_group_symop_operation_xyz
x,y,z
-x,-y,-z
loop_
_atom_site_type_symbol
_atom_site_label
_atom_site_fract_x
_atom_site_fract_y
_atom_site_fract_z
Si Si1 0.737263 0.946082 0.996777
Si Si2 0.582474 0.973632 0.737940
Si Si3 0.755797 0.215562 0.490027
Si Si4 0.212302 0.874520 0.307784
Si Si5 0.827358 0.483283 0.215787
Si Si6 0.454850 0.753119 0.960076
Si Si7 0.681948 0.570550 0.502409
Si Si8 0.804473 0.691181 0.384317
O O1 0.984137 0.844502 0.153152
O O2 0.657346 0.137447 0.998985
O O3 0.769332 0.924215 0.903142
O O4 0.523002 0.870576 0.923267
O O5 0.423755 0.848849 0.654184
O O6 0.724676 0.974197 0.708220
O O7 0.427019 0.157708 0.694724
O O8 0.845527 0.092737 0.611256
O O9 0.613347 0.399537 0.468937
O O10 0.980418 0.227785 0.533268
O O11 0.441552 0.715889 0.402095
O O12 0.750951 0.316243 0.178085
O O13 0.742690 0.593132 0.269735
O O14 0.118433 0.432564 0.330717
O O15 0.690902 0.599730 0.078810
O O16 0.841076 0.574058 0.483971
#
# Coordination Sequence:
#
# PCOD8000810 Si02
#       8
#     2   2   2   2   2   2   2   2
#     4  11  23  42  62  91 130 165 209 253 312 367
#     4  11  24  40  63  91 131 165 210 254 313 368
#     4  11  22  39  66  95 123 164 212 257 311 371
#     4  11  25  44  61  88 132 172 207 255 308 374
#     4  10  19  40  61  96 124 156 203 258 318 364
#     4  10  23  36  67  94 123 161 206 261 309 374
#     4  10  23  40  67  91 128 159 207 262 313 369
#     4  10  21  39  64  95 125 157 206 264 312 365
#
# _framework density 22.654114
#
# number of rings (size 3 to 8) (size 9 to 14) (size 15 to 20)
#    0.000    1.500    1.250    4.500    5.250    3.000 
#    0.000    1.875    0.000    0.000    0.000    0.000 
#    0.000    0.000    0.000    0.000    0.000    0.000 
#
# Total GULP energy -198347.546474 kJ/mol
# GULP energy per Si atom -12396.721655 kJ/mol
# Density = 2.260255 g / cm^3
# Si number density = 22.654114 Si / 1000 Ang^3
#
#
#
# Elastic Constant Matrix: (Units=GPa)
#
#
# Indices 1 2 3 4 5 6 
#
# 1 83.5633 20.9854 31.7331 5.6731 -0.1636 24.4234
# 2 20.9854 98.7019 44.6730 26.4101 13.6599 17.8568
# 3 31.7331 44.6730 133.4598 9.2448 11.5383 3.9416
# 4 5.6731 26.4101 9.2448 41.6152 0.1638 8.3642
# 5 -0.1636 13.6599 11.5383 0.1638 27.1782 -3.4899
# 6 24.4234 17.8568 3.9416 8.3642 -3.4899 23.1924
#
#
#
# Elastic Compliance Matrix: (Units=1/GPa)
#
#
# Indices 1 2 3 4 5 6 
#
# 1 0.019578 0.001620 -0.004530 0.001729 -0.001603 -0.021959
# 2 0.001620 0.017374 -0.004569 -0.007622 -0.008383 -0.012818
# 3 -0.004530 -0.004569 0.010010 0.000010 -0.001157 0.006410
# 4 0.001729 -0.007622 0.000010 0.029885 0.002848 -0.006303
# 5 -0.001603 -0.008383 -0.001157 0.002848 0.043246 0.013820
# 6 -0.021959 -0.012818 0.006410 -0.006303 0.013820 0.079375
#
#
# Mechanical properties :
#
#
# Convention : Reuss Voigt Hill
#
# Bulk Modulus (GPa) = 31.24786 56.72312 43.98549
# Shear Modulus (GPa) = 22.21288 32.95272 27.58280
#
# Velocity S-wave (km/s) = 3.13473 3.81806 3.49314
# Velocity P-wave (km/s) = 5.18897 6.67307 5.97726
#
# Compressibility (1/GPa) = 0.03200219
#
# Stress axis : x y z
#
# Youngs Moduli (GPa) = 51.07761 57.55717 99.90470
#
# Poissons Ratio (x) = -0.09322 0.45256
# Poissons Ratio (y) = -0.08272 0.45650
# Poissons Ratio (z) = 0.23138 0.26300
#
# Static dielectric constant tensor:
#      x y z
#    x 4.407750 0.234350 -0.119270 
#    y 0.234350 4.027840 -0.106710 
#    z -0.119270 -0.106710 4.111250 
# 
# 
# High freq. dielectric constant tensor:
#      x y z
#    x 1.892510 0.015150 0.002650 
#    y 0.015150 1.889290 -0.007370 
#    z 0.002650 -0.007370 1.897310 
# 
# From -- ./inp_files/328843.got.cif
#   From: 2010.06.25/outbox.cif.g09.slc.cpg/sg2_165_cif.got.tgz:328843.got - 2010.06.27 13:26:56.
