data_PCOD8000753
_publ_section_title
;
Structure prediction by ZEFSAII (Michael W. Deem and Ramdas Pophale) SiO2 
 PCOD8000753
Probable space group: P -1
;
_chemical_formula_sum "Si O2"
_cell_formula_units_Z 16
_cell_length_a 15.012915
_cell_length_b 7.826262
_cell_length_c 11.284160
_cell_angle_alpha 89.131331
_cell_angle_beta 30.939572
_cell_angle_gamma 90.172978
_cell_volume 681.245758
_symmetry_space_group_name_H-M "P -1"
_symmetry_group_IT_number 2
_symmetry_cell_setting 'triclinic'
loop_
_space_group_symop_operation_xyz
x,y,z
-x,-y,-z
loop_
_atom_site_type_symbol
_atom_site_label
_atom_site_fract_x
_atom_site_fract_y
_atom_site_fract_z
Si Si1 0.917971 0.090720 0.376721
Si Si2 0.072941 0.790362 0.089965
Si Si3 0.751259 0.245795 0.348512
Si Si4 0.330083 0.665770 0.983235
Si Si5 0.317620 0.996989 0.146620
Si Si6 0.713916 0.636158 0.456299
Si Si7 0.413645 0.318398 0.636831
Si Si8 0.217029 0.307046 0.102378
O O1 0.070654 0.980746 0.145180
O O2 0.777925 0.132262 0.435811
O O3 0.828558 0.985625 0.586512
O O4 0.012755 0.261051 0.320744
O O5 0.879789 0.710704 0.338133
O O6 0.100122 0.786942 0.917449
O O7 0.229527 0.691398 0.973037
O O8 0.751908 0.441248 0.386292
O O9 0.565745 0.191005 0.502539
O O10 0.715702 0.182724 0.878687
O O11 0.537428 0.653991 0.732269
O O12 0.253494 0.486368 0.127799
O O13 0.312171 0.155998 0.062585
O O14 0.500000 0.000000 0.000000
O O15 0.692596 0.746072 0.357217
O O16 0.500000 0.500000 0.500000
O O17 0.288602 0.339779 0.889027
#
# Coordination Sequence:
#
# PCOD8000753 Si02
#       8
#     2   2   2   2   2   2   2   2
#     4  12  27  48  68 108 154 192 254 306 362 444
#     4  12  24  44  74 110 151 192 243 307 377 439
#     4  11  21  42  72 106 146 193 240 301 372 439
#     4  12  25  49  79 110 145 197 250 301 377 440
#     4  12  29  52  73 105 151 195 252 312 356 444
#     4  11  22  43  72 111 150 189 247 304 369 450
#     4  10  19  39  71 105 150 186 235 306 362 438
#     4  12  24  47  76 104 149 193 245 308 368 431
#
# _framework density 23.486387000000001
#
# number of rings (size 3 to 8) (size 9 to 14) (size 15 to 20)
#    0.000    0.500    5.000    4.875    0.000    1.000 
#    2.250    1.875    0.000    0.000    0.000    0.000 
#    0.000    0.000    0.000    0.000    0.000    0.000 
#
# Total GULP energy -198387.650550 kJ/mol
# GULP energy per Si atom -12399.228159 kJ/mol
# Density = 2.343293 g / cm^3
# Si number density = 23.486387 Si / 1000 Ang^3
#
#
#
# Elastic Constant Matrix: (Units=GPa)
#
#
# Indices 1 2 3 4 5 6 
#
# 1 90.3199 36.9044 27.4068 -0.1173 -5.2892 -3.7399
# 2 36.9044 112.1192 16.6340 3.0838 15.4575 4.7732
# 3 27.4068 16.6340 68.8784 0.7196 1.7547 -9.9684
# 4 -0.1173 3.0838 0.7196 34.0943 1.1842 2.0031
# 5 -5.2892 15.4575 1.7547 1.1842 42.7596 -0.0462
# 6 -3.7399 4.7732 -9.9684 2.0031 -0.0462 29.3530
#
#
#
# Elastic Compliance Matrix: (Units=1/GPa)
#
#
# Indices 1 2 3 4 5 6 
#
# 1 0.014662 -0.004701 -0.004647 0.000385 0.003694 0.001034
# 2 -0.004701 0.011419 -0.001169 -0.000698 -0.004645 -0.002812
# 3 -0.004647 -0.001169 0.017484 -0.000577 -0.000848 0.005574
# 4 0.000385 -0.000698 -0.000577 0.029545 -0.000497 -0.002051
# 5 0.003694 -0.004645 -0.000848 -0.000497 0.025572 0.001012
# 6 0.001034 -0.002812 0.005574 -0.002051 0.001012 0.036691
#
#
# Mechanical properties :
#
#
# Convention : Reuss Voigt Hill
#
# Bulk Modulus (GPa) = 44.38150 48.13422 46.25786
# Shear Modulus (GPa) = 30.50307 33.93287 32.21797
#
# Velocity S-wave (km/s) = 3.60773 3.80516 3.70776
# Velocity P-wave (km/s) = 6.02429 6.31226 6.16996
#
# Compressibility (1/GPa) = 0.02253191
#
# Stress axis : x y z
#
# Youngs Moduli (GPa) = 68.20240 87.57340 57.19491
#
# Poissons Ratio (x) = 0.41164 0.26581
# Poissons Ratio (y) = 0.32059 0.06684
# Poissons Ratio (z) = 0.31697 0.10235
#
# Static dielectric constant tensor:
#      x y z
#    x 4.894420 -0.271970 -0.061980 
#    y -0.271970 4.423690 -0.092190 
#    z -0.061980 -0.092190 4.279200 
# 
# 
# High freq. dielectric constant tensor:
#      x y z
#    x 1.937130 -0.004170 -0.011330 
#    y -0.004170 1.924560 0.006380 
#    z -0.011330 0.006380 1.927030 
# 
# From -- ./inp_files/447031.got.cif
#   From: 2010.06.25/outbox.cif.g09.slc.cpg/sg2_224_cif.got.tgz:447031.got - 2010.06.27 13:26:56.
