data_PCOD8000936
_publ_section_title
;
Structure prediction by ZEFSAII (Michael W. Deem and Ramdas Pophale) SiO2 
 PCOD8000936
Probable space group: P -1
;
_chemical_formula_sum "Si O2"
_cell_formula_units_Z 16
_cell_length_a 14.797196
_cell_length_b 9.952447
_cell_length_c 11.838036
_cell_angle_alpha 113.327798
_cell_angle_beta 29.558531
_cell_angle_gamma 102.508992
_cell_volume 757.609399
_symmetry_space_group_name_H-M "P -1"
_symmetry_group_IT_number 2
_symmetry_cell_setting 'triclinic'
loop_
_space_group_symop_operation_xyz
x,y,z
-x,-y,-z
loop_
_atom_site_type_symbol
_atom_site_label
_atom_site_fract_x
_atom_site_fract_y
_atom_site_fract_z
Si Si1 0.743658 0.804763 0.727784
Si Si2 0.355688 0.074758 0.525838
Si Si3 0.075772 0.531174 0.658055
Si Si4 0.995654 0.216519 0.352850
Si Si5 0.770347 0.020216 0.145320
Si Si6 0.687447 0.071127 0.712922
Si Si7 0.282118 0.413116 0.780390
Si Si8 0.712171 0.364438 0.340939
O O1 0.837708 0.648618 0.508469
O O2 0.831625 0.803083 0.755031
O O3 0.779909 0.944434 0.664105
O O4 0.518768 0.825852 0.989860
O O5 0.575235 0.003889 0.298090
O O6 0.300522 0.257137 0.641711
O O7 0.221773 0.023049 0.745343
O O8 0.322615 0.014925 0.420556
O O9 0.061476 0.613062 0.579241
O O10 0.211699 0.598850 0.610187
O O11 0.864521 0.565739 0.950652
O O12 0.815206 0.187276 0.603043
O O13 0.055597 0.095945 0.145890
O O14 0.794527 0.187740 0.161311
O O15 0.483381 0.415209 0.615962
O O16 0.211079 0.547581 0.811888
#
# Coordination Sequence:
#
# PCOD8000936 Si02
#       8
#     2   2   2   2   2   2   2   2
#     4  11  27  48  62  94 129 176 221 262 316 373
#     4  10  19  40  66  95 131 164 204 267 326 373
#     4  12  25  41  67  93 134 170 213 264 318 394
#     4  12  25  43  66  98 128 171 218 265 319 383
#     4  10  21  37  66  98 132 159 208 266 320 384
#     4  11  25  44  71  91 126 173 222 269 310 382
#     4  10  22  40  62  97 134 168 202 267 327 379
#     4  10  23  39  61 100 130 169 212 256 329 380
#
# _framework density 21.119062
#
# number of rings (size 3 to 8) (size 9 to 14) (size 15 to 20)
#    0.000    1.250    2.500    2.625    3.500    3.500 
#    0.000    0.000    0.000    0.000    0.000    0.000 
#    0.000    0.000    0.000    0.000    0.000    0.000 
#
# Total GULP energy -198522.231022 kJ/mol
# GULP energy per Si atom -12407.639439 kJ/mol
# Density = 2.107099 g / cm^3
# Si number density = 21.119062 Si / 1000 Ang^3
#
#
#
# Elastic Constant Matrix: (Units=GPa)
#
#
# Indices 1 2 3 4 5 6 
#
# 1 86.4866 17.0525 3.1326 2.9045 -2.0881 -15.8514
# 2 17.0525 94.2610 17.3233 -10.1143 -10.7193 -18.4651
# 3 3.1326 17.3233 77.6335 1.3773 1.1569 1.7427
# 4 2.9045 -10.1143 1.3773 30.5099 -0.8286 5.1154
# 5 -2.0881 -10.7193 1.1569 -0.8286 20.6961 1.9511
# 6 -15.8514 -18.4651 1.7427 5.1154 1.9511 32.2421
#
#
#
# Elastic Compliance Matrix: (Units=1/GPa)
#
#
# Indices 1 2 3 4 5 6 
#
# 1 0.013053 -0.001422 -0.000296 -0.002718 -0.000083 0.006055
# 2 -0.001422 0.013952 -0.003373 0.004021 0.006827 0.006422
# 3 -0.000296 -0.003373 0.013760 -0.001363 -0.002369 -0.002461
# 4 -0.002718 0.004021 -0.001363 0.035335 0.003751 -0.004793
# 5 -0.000083 0.006827 -0.002369 0.003751 0.052105 0.000249
# 6 0.006055 0.006422 -0.002461 -0.004793 0.000249 0.038549
#
#
# Mechanical properties :
#
#
# Convention : Reuss Voigt Hill
#
# Bulk Modulus (GPa) = 32.69760 37.04418 34.87089
# Shear Modulus (GPa) = 26.71936 31.41445 29.06690
#
# Velocity S-wave (km/s) = 3.56079 3.86099 3.71392
# Velocity P-wave (km/s) = 5.69401 6.12005 5.91087
#
# Compressibility (1/GPa) = 0.03058329
#
# Stress axis : x y z
#
# Youngs Moduli (GPa) = 76.61297 71.67448 72.67229
#
# Poissons Ratio (x) = 0.10191 0.02150
# Poissons Ratio (y) = 0.10893 0.24513
# Poissons Ratio (z) = 0.02267 0.24177
#
# Static dielectric constant tensor:
#      x y z
#    x 3.767410 -0.150780 -0.101270 
#    y -0.150780 3.973630 -0.064140 
#    z -0.101270 -0.064140 3.801520 
# 
# 
# High freq. dielectric constant tensor:
#      x y z
#    x 1.831710 -0.008240 -0.008510 
#    y -0.008240 1.839610 -0.003330 
#    z -0.008510 -0.003330 1.828500 
# 
# From -- ./inp_files/272462.got.cif
#   From: 2010.06.25/outbox.cif.g09.slc.cpg/sg2_137_cif.got.tgz:272462.got - 2010.06.27 13:26:56.
