data_PCOD8000150
_publ_section_title
;
Structure prediction by ZEFSAII (Michael W. Deem and Ramdas Pophale) SiO2 
 PCOD8000150
Probable space group: P 1
;
_chemical_formula_sum "Si O2"
_cell_formula_units_Z 8
_cell_length_a 12.955027
_cell_length_b 7.986426
_cell_length_c 11.016210
_cell_angle_alpha 141.106871
_cell_angle_beta 145.501219
_cell_angle_gamma 32.212003
_cell_volume 331.493454
_symmetry_space_group_name_H-M "P 1"
_symmetry_group_IT_number 1
_symmetry_cell_setting 'triclinic'
loop_
_space_group_symop_operation_xyz
x,y,z
loop_
_atom_site_type_symbol
_atom_site_label
_atom_site_fract_x
_atom_site_fract_y
_atom_site_fract_z
Si Si1 0.806600 0.767000 0.260820
Si Si2 0.313120 0.026327 0.880277
Si Si3 0.115537 0.792959 0.727773
Si Si4 0.790939 0.125101 0.225768
Si Si5 0.015635 0.763899 0.009873
Si Si6 0.175275 0.054595 0.166334
Si Si7 0.623644 0.785476 0.553598
Si Si8 0.396956 0.129615 0.756668
O O1 0.866192 0.926855 0.516435
O O2 0.968826 0.377882 0.210421
O O3 0.873189 0.832138 0.232589
O O4 0.550105 0.905183 0.099417
O O5 0.314789 0.024389 0.732929
O O6 0.127539 0.393678 0.952420
O O7 0.251755 0.785367 0.736851
O O8 0.205949 0.438234 0.669041
O O9 0.118230 0.034499 0.960953
O O10 0.776859 0.415825 0.446439
O O11 0.547417 0.250957 0.013665
O O12 0.962670 0.989999 0.203785
O O13 0.789497 0.899404 0.788052
O O14 0.193346 0.763439 0.096190
O O15 0.413022 0.007675 0.383637
O O16 0.528309 0.818770 0.617145
#
# Coordination Sequence:
#
# PCOD8000150 Si02
#       8
#     1   1   1   1   1   1   1   1
#     4  11  26  43  68 107 139 182 235 287 350 415
#     4  11  25  47  73 105 141 185 234 288 352 415
#     4  12  24  46  71 103 145 182 230 292 343 417
#     4  10  22  45  71  98 140 182 233 290 341 414
#     4  11  25  44  71 104 137 189 235 280 353 417
#     4  12  25  42  70 104 145 179 233 291 342 419
#     4  11  23  43  75  99 136 190 228 289 354 406
#     4  10  22  46  71 104 141 179 236 285 345 423
#
# _framework density 24.133206999999999
#
# number of rings (size 3 to 8) (size 9 to 14) (size 15 to 20)
#    0.000    1.000    3.750    2.250    3.500    6.000 
#    0.000    5.000    2.750    0.000    0.000    0.000 
#    0.000    0.000    0.000    0.000    0.000    0.000 
#
# Total GULP energy -99175.451038 kJ/mol
# GULP energy per Si atom -12396.931380 kJ/mol
# Density = 2.407828 g / cm^3
# Si number density = 24.133207 Si / 1000 Ang^3
#
#
#
# Elastic Constant Matrix: (Units=GPa)
#
#
# Indices 1 2 3 4 5 6 
#
# 1 99.8276 23.1202 29.9821 1.3727 -12.2616 -1.4120
# 2 23.1202 81.0004 37.9283 -7.7341 -3.6639 -12.1788
# 3 29.9821 37.9283 145.4702 -12.9494 -7.8296 -9.5678
# 4 1.3727 -7.7341 -12.9494 40.9167 -15.1043 -9.0113
# 5 -12.2616 -3.6639 -7.8296 -15.1043 26.3159 5.5211
# 6 -1.4120 -12.1788 -9.5678 -9.0113 5.5211 39.9159
#
#
#
# Elastic Compliance Matrix: (Units=1/GPa)
#
#
# Indices 1 2 3 4 5 6 
#
# 1 0.011670 -0.002576 -0.001540 0.000179 0.005016 -0.001396
# 2 -0.002576 0.015490 -0.002822 0.003580 0.001206 0.004600
# 3 -0.001540 -0.002822 0.008539 0.003765 0.003270 0.001529
# 4 0.000179 0.003580 0.003765 0.035468 0.020556 0.007165
# 5 0.005016 0.001206 0.003270 0.020556 0.053579 -0.001441
# 6 -0.001396 0.004600 0.001529 0.007165 -0.001441 0.028590
#
#
# Mechanical properties :
#
#
# Convention : Reuss Voigt Hill
#
# Bulk Modulus (GPa) = 45.81932 56.48438 51.15185
# Shear Modulus (GPa) = 28.65567 37.11421 32.88494
#
# Velocity S-wave (km/s) = 3.44960 3.92585 3.69540
# Velocity P-wave (km/s) = 5.90708 6.63368 6.28090
#
# Compressibility (1/GPa) = 0.02182485
#
# Stress axis : x y z
#
# Youngs Moduli (GPa) = 85.68828 64.55713 117.11036
#
# Poissons Ratio (x) = 0.16630 0.18029
# Poissons Ratio (y) = 0.22074 0.33044
# Poissons Ratio (z) = 0.13192 0.18216
#
# Static dielectric constant tensor:
#      x y z
#    x 4.214810 -0.040580 -0.221080 
#    y -0.040580 4.050960 -0.140150 
#    z -0.221080 -0.140150 4.590000 
# 
# 
# High freq. dielectric constant tensor:
#      x y z
#    x 1.945350 -0.007030 -0.010840 
#    y -0.007030 1.942870 -0.009070 
#    z -0.010840 -0.009070 1.976150 
# 
# From -- ./inp_files/6838.got.cif
#   From: 2010.03.12/outbox.cif.g09.slc.cpg/sg1_4_cif.got.tgz:6838.got - 2010.03.29 11:57:58.
