data_PCOD8000224
_publ_section_title
;
Structure prediction by ZEFSAII (Michael W. Deem and Ramdas Pophale) SiO2 
 PCOD8000224
Probable space group: P 1
;
_chemical_formula_sum "Si O2"
_cell_formula_units_Z 8
_cell_length_a 14.452172
_cell_length_b 8.504524
_cell_length_c 9.488683
_cell_angle_alpha 105.353007
_cell_angle_beta 41.806920
_cell_angle_gamma 138.753717
_cell_volume 379.222436
_symmetry_space_group_name_H-M "P 1"
_symmetry_group_IT_number 1
_symmetry_cell_setting 'triclinic'
loop_
_space_group_symop_operation_xyz
x,y,z
loop_
_atom_site_type_symbol
_atom_site_label
_atom_site_fract_x
_atom_site_fract_y
_atom_site_fract_z
Si Si1 0.586390 0.167240 0.979280
Si Si2 0.331104 0.008105 0.707035
Si Si3 0.150709 0.626619 0.559568
Si Si4 0.006588 0.155108 0.756368
Si Si5 0.520201 0.454756 0.195490
Si Si6 0.961954 0.201859 0.141336
Si Si7 0.801295 0.687545 0.228355
Si Si8 0.483463 0.919329 0.742616
O O1 0.878541 0.454634 0.794559
O O2 0.622266 0.129278 0.774908
O O3 0.486998 0.254198 0.098334
O O4 0.355182 0.830325 0.243684
O O5 0.600800 0.394204 0.494417
O O6 0.320943 0.876267 0.554368
O O7 0.328176 0.903544 0.829335
O O8 0.078023 0.869850 0.952639
O O9 0.063379 0.353284 0.626531
O O10 0.226698 0.234343 0.509674
O O11 0.008197 0.230899 0.928816
O O12 0.708772 0.774882 0.972732
O O13 0.662469 0.550484 0.201847
O O14 0.251682 0.552241 0.960532
O O15 0.871612 0.942514 0.257736
O O16 0.721623 0.088162 0.413710
#
# Coordination Sequence:
#
# PCOD8000224 Si02
#       8
#     1   1   1   1   1   1   1   1
#     4  12  26  44  65  95 137 174 208 262 331 391
#     4  12  22  40  66 100 123 165 224 265 309 373
#     4  12  23  42  67 100 127 166 226 266 310 381
#     4  11  23  38  68  98 125 162 218 276 311 365
#     4  11  21  40  63  96 132 164 209 266 330 369
#     4  11  23  42  66  97 132 168 214 266 329 375
#     4  11  22  38  66  99 124 161 216 276 310 367
#     4  12  26  44  65  95 136 176 207 261 332 391
#
# _framework density 21.095797999999998
#
# number of rings (size 3 to 8) (size 9 to 14) (size 15 to 20)
#    0.000    0.500    3.750    6.750    1.750    0.000 
#    0.000    7.500    0.000    0.000    0.000    0.000 
#    0.000    0.000    0.000    0.000    0.000    0.000 
#
# Total GULP energy -99242.002972 kJ/mol
# GULP energy per Si atom -12405.250371 kJ/mol
# Density = 2.104778 g / cm^3
# Si number density = 21.095798 Si / 1000 Ang^3
#
#
#
# Elastic Constant Matrix: (Units=GPa)
#
#
# Indices 1 2 3 4 5 6 
#
# 1 63.0677 22.1147 19.7731 10.0795 4.6430 -9.0931
# 2 22.1147 103.1136 22.0302 -4.9342 18.5227 -12.6877
# 3 19.7731 22.0302 104.2150 -7.9026 -8.0828 -1.9795
# 4 10.0795 -4.9342 -7.9026 38.0098 -7.4008 -0.2466
# 5 4.6430 18.5227 -8.0828 -7.4008 32.3393 -7.1303
# 6 -9.0931 -12.6877 -1.9795 -0.2466 -7.1303 28.0675
#
#
#
# Elastic Compliance Matrix: (Units=1/GPa)
#
#
# Indices 1 2 3 4 5 6 
#
# 1 0.019975 -0.002747 -0.003892 -0.007012 -0.002959 0.004142
# 2 -0.002747 0.012382 -0.002509 0.000554 -0.006566 0.002867
# 3 -0.003892 -0.002509 0.011643 0.004270 0.005873 -0.000044
# 4 -0.007012 0.000554 0.004270 0.030888 0.009011 0.000841
# 5 -0.002959 -0.006566 0.005873 0.009011 0.040128 0.006761
# 6 0.004142 0.002867 -0.000044 0.000841 0.006761 0.039988
#
#
# Mechanical properties :
#
#
# Convention : Reuss Voigt Hill
#
# Bulk Modulus (GPa) = 38.90389 44.24803 41.57596
# Shear Modulus (GPa) = 27.49253 33.44855 30.47054
#
# Velocity S-wave (km/s) = 3.61393 3.98622 3.80463
# Velocity P-wave (km/s) = 5.99129 6.49669 6.24910
#
# Compressibility (1/GPa) = 0.02570437
#
# Stress axis : x y z
#
# Youngs Moduli (GPa) = 50.06264 80.76282 85.88995
#
# Poissons Ratio (x) = 0.22185 0.33426
# Poissons Ratio (y) = 0.13752 0.21550
# Poissons Ratio (z) = 0.19483 0.20263
#
# Static dielectric constant tensor:
#      x y z
#    x 3.671480 -0.303360 -0.062830 
#    y -0.303360 4.055160 -0.249820 
#    z -0.062830 -0.249820 3.853160 
# 
# 
# High freq. dielectric constant tensor:
#      x y z
#    x 1.811280 -0.024300 -0.013310 
#    y -0.024300 1.828770 -0.018040 
#    z -0.013310 -0.018040 1.839130 
# 
# From -- ./inp_files/2233.got.cif
#   From: 2010.03.12/outbox.cif.g09.slc.cpg/sg1_2_cif.got.tgz:2233.got - 2010.03.29 11:57:58.
