data_PCOD8000142
_publ_section_title
;
Structure prediction by ZEFSAII (Michael W. Deem and Ramdas Pophale) SiO2 
 PCOD8000142
Probable space group: P 1
;
_chemical_formula_sum "Si O2"
_cell_formula_units_Z 8
_cell_length_a 14.447720
_cell_length_b 11.348690
_cell_length_c 7.946395
_cell_angle_alpha 144.022646
_cell_angle_beta 138.780247
_cell_angle_gamma 28.403327
_cell_volume 360.272897
_symmetry_space_group_name_H-M "P 1"
_symmetry_group_IT_number 1
_symmetry_cell_setting 'triclinic'
loop_
_space_group_symop_operation_xyz
x,y,z
loop_
_atom_site_type_symbol
_atom_site_label
_atom_site_fract_x
_atom_site_fract_y
_atom_site_fract_z
Si Si1 0.054830 0.133670 0.858810
Si Si2 0.613946 0.131344 0.153153
Si Si3 0.848081 0.033221 0.666980
Si Si4 0.976115 0.539572 0.470992
Si Si5 0.856056 0.168373 0.330243
Si Si6 0.282941 0.781058 0.465636
Si Si7 0.663668 0.562849 0.216857
Si Si8 0.362808 0.020417 0.565157
O O1 0.034761 0.979999 0.797629
O O2 0.864617 0.284562 0.652638
O O3 0.252110 0.920977 0.767771
O O4 0.045321 0.362566 0.189390
O O5 0.757889 0.980302 0.337581
O O6 0.730495 0.092094 0.101386
O O7 0.439328 0.454880 0.331571
O O8 0.529044 0.001376 0.841802
O O9 0.678230 0.354427 0.874656
O O10 0.928621 0.817742 0.682451
O O11 0.155300 0.339528 0.618372
O O12 0.776579 0.639029 0.380490
O O13 0.765264 0.410157 0.354680
O O14 0.076404 0.885012 0.248064
O O15 0.345072 0.870543 0.509119
O O16 0.439660 0.847651 0.291876
#
# Coordination Sequence:
#
# PCOD8000142 Si02
#       8
#     1   1   1   1   1   1   1   1
#     4   8  21  42  68  91 126 182 213 261 329 390
#     4  11  25  42  67 103 129 173 227 270 325 392
#     4  10  25  45  68  92 139 176 215 272 332 392
#     4  11  24  44  65 100 137 172 218 272 334 390
#     4   9  20  44  67  87 134 176 213 268 323 387
#     4  10  22  44  69  93 134 175 218 271 327 390
#     4  11  24  43  68  95 134 178 219 267 333 389
#     4  12  27  40  72 103 131 170 227 275 327 392
#
# _framework density 22.205389
#
# number of rings (size 3 to 8) (size 9 to 14) (size 15 to 20)
#    0.750    1.000    2.500    0.000    7.000    2.000 
#    2.250    0.000    0.000    0.000    0.000    0.000 
#    0.000    0.000    0.000    0.000    0.000    0.000 
#
# Total GULP energy -99155.716682 kJ/mol
# GULP energy per Si atom -12394.464585 kJ/mol
# Density = 2.215485 g / cm^3
# Si number density = 22.205389 Si / 1000 Ang^3
#
#
#
# Elastic Constant Matrix: (Units=GPa)
#
#
# Indices 1 2 3 4 5 6 
#
# 1 128.7069 12.1191 31.8120 21.1389 -9.9324 -15.0650
# 2 12.1191 50.5649 0.4512 18.5184 7.6197 -3.2423
# 3 31.8120 0.4512 71.5240 3.3515 0.4991 -7.9254
# 4 21.1389 18.5184 3.3515 25.5200 1.7905 -0.9554
# 5 -9.9324 7.6197 0.4991 1.7905 18.0354 -2.7414
# 6 -15.0650 -3.2423 -7.9254 -0.9554 -2.7414 40.7931
#
#
#
# Elastic Compliance Matrix: (Units=1/GPa)
#
#
# Indices 1 2 3 4 5 6 
#
# 1 0.011396 -0.000350 -0.004291 -0.009046 0.007999 0.003673
# 2 -0.000350 0.028787 0.001117 -0.019983 -0.010216 0.001221
# 3 -0.004291 0.001117 0.016020 0.000915 -0.003153 0.001426
# 4 -0.009046 -0.019983 0.000915 0.061149 -0.003172 -0.003532
# 5 0.007999 -0.010216 -0.003153 -0.003172 0.065460 0.005854
# 6 0.003673 0.001221 0.001426 -0.003532 0.005854 0.026555
#
#
# Mechanical properties :
#
#
# Convention : Reuss Voigt Hill
#
# Bulk Modulus (GPa) = 20.34426 37.72897 29.03661
# Shear Modulus (GPa) = 21.47765 30.63059 26.05412
#
# Velocity S-wave (km/s) = 3.11340 3.71809 3.42910
# Velocity P-wave (km/s) = 4.70171 5.95483 5.36498
#
# Compressibility (1/GPa) = 0.04915391
#
# Stress axis : x y z
#
# Youngs Moduli (GPa) = 87.74904 34.73831 62.42145
#
# Poissons Ratio (x) = 0.01216 0.26788
# Poissons Ratio (y) = 0.03072 -0.06973
# Poissons Ratio (z) = 0.37657 -0.03880
#
# Static dielectric constant tensor:
#      x y z
#    x 4.223800 -0.217140 -0.142520 
#    y -0.217140 3.889110 -0.056080 
#    z -0.142520 -0.056080 3.823130 
# 
# 
# High freq. dielectric constant tensor:
#      x y z
#    x 1.887230 -0.001210 -0.008380 
#    y -0.001210 1.861740 -0.001470 
#    z -0.008380 -0.001470 1.863040 
# 
# From -- ./inp_files/5776.got.cif
#   From: 2010.03.12/outbox.cif.g09.slc.cpg/sg1_3_cif.got.tgz:5776.got - 2010.03.29 11:57:58.
