data_PCOD8000897
_publ_section_title
;
Structure prediction by ZEFSAII (Michael W. Deem and Ramdas Pophale) SiO2 
 PCOD8000897
Probable space group: P -1
;
_chemical_formula_sum "Si O2"
_cell_formula_units_Z 16
_cell_length_a 14.127539
_cell_length_b 9.910139
_cell_length_c 9.592438
_cell_angle_alpha 35.331399
_cell_angle_beta 101.730762
_cell_angle_gamma 93.261337
_cell_volume 746.223703
_symmetry_space_group_name_H-M "P -1"
_symmetry_group_IT_number 2
_symmetry_cell_setting 'triclinic'
loop_
_space_group_symop_operation_xyz
x,y,z
-x,-y,-z
loop_
_atom_site_type_symbol
_atom_site_label
_atom_site_fract_x
_atom_site_fract_y
_atom_site_fract_z
Si Si1 0.099456 0.503318 0.739494
Si Si2 0.240496 0.620359 0.129548
Si Si3 0.817851 0.113742 0.380325
Si Si4 0.783794 0.394899 0.555751
Si Si5 0.623652 0.826378 0.055317
Si Si6 0.927168 0.639983 0.748026
Si Si7 0.751349 0.944777 0.768931
Si Si8 0.560572 0.315176 0.778267
O O1 0.152856 0.661087 0.726050
O O2 0.119834 0.555982 0.539436
O O3 0.981604 0.570735 0.673698
O O4 0.143589 0.229047 0.022485
O O5 0.191144 0.693937 0.203933
O O6 0.183345 0.416233 0.232045
O O7 0.359192 0.550087 0.239529
O O8 0.227422 0.827892 0.835579
O O9 0.915797 0.916642 0.547333
O O10 0.742637 0.002769 0.552166
O O11 0.742457 0.191011 0.637886
O O12 0.699231 0.633321 0.330159
O O13 0.663049 0.828439 0.905189
O O14 0.618033 0.080416 0.914556
O O15 0.515737 0.758928 0.070706
O O16 0.000000 0.500000 0.000000
O O17 0.500000 0.500000 0.500000
#
# Coordination Sequence:
#
# PCOD8000897 Si02
#       8
#     2   2   2   2   2   2   2   2
#     4  10  22  41  65  89 124 177 212 256 316 374
#     4  12  25  38  63 101 127 164 214 265 315 374
#     4  11  23  39  66  90 131 165 220 257 313 372
#     4  10  22  39  64  96 129 161 210 266 317 375
#     4  10  20  38  68  91 127 166 209 251 330 376
#     4  12  24  42  63  93 129 176 216 256 313 376
#     4  10  19  40  65  91 124 170 208 259 318 376
#     4  11  22  40  65  98 128 165 206 264 322 379
#
# _framework density 21.441293000000002
#
# number of rings (size 3 to 8) (size 9 to 14) (size 15 to 20)
#    0.000    1.250    5.000    0.375    1.750    0.500 
#    0.000    1.875    0.000   14.250    0.000    0.000 
#    0.000    0.000    0.000    0.000    0.000    0.000 
#
# Total GULP energy -198224.930802 kJ/mol
# GULP energy per Si atom -12389.058175 kJ/mol
# Density = 2.139249 g / cm^3
# Si number density = 21.441293 Si / 1000 Ang^3
#
#
#
# Elastic Constant Matrix: (Units=GPa)
#
#
# Indices 1 2 3 4 5 6 
#
# 1 118.3958 31.4797 32.9841 5.7725 -22.0835 -2.0602
# 2 31.4797 77.4493 55.1441 7.9767 0.9361 -15.1392
# 3 32.9841 55.1441 128.9324 16.4397 -10.0999 -16.9072
# 4 5.7725 7.9767 16.4397 48.1517 -17.9689 -2.7452
# 5 -22.0835 0.9361 -10.0999 -17.9689 34.5211 7.7230
# 6 -2.0602 -15.1392 -16.9072 -2.7452 7.7230 40.3712
#
#
#
# Elastic Compliance Matrix: (Units=1/GPa)
#
#
# Indices 1 2 3 4 5 6 
#
# 1 0.011695 -0.005284 -0.000818 0.003225 0.009821 -0.003387
# 2 -0.005284 0.022214 -0.007584 -0.003652 -0.009548 0.006463
# 3 -0.000818 -0.007584 0.011801 -0.001920 0.001781 0.001585
# 4 0.003225 -0.003652 -0.001920 0.027709 0.016769 -0.003332
# 5 0.009821 -0.009548 0.001781 0.016769 0.047039 -0.010192
# 6 -0.003387 0.006463 0.001585 -0.003332 -0.010192 0.029408
#
#
# Mechanical properties :
#
#
# Convention : Reuss Voigt Hill
#
# Bulk Modulus (GPa) = 54.53051 62.66595 58.59823
# Shear Modulus (GPa) = 27.27025 38.28678 32.77851
#
# Velocity S-wave (km/s) = 3.57018 4.23029 3.91417
# Velocity P-wave (km/s) = 6.51787 7.29045 6.91496
#
# Compressibility (1/GPa) = 0.01833836
#
# Stress axis : x y z
#
# Youngs Moduli (GPa) = 85.50834 45.01674 84.73854
#
# Poissons Ratio (x) = 0.23787 0.06930
# Poissons Ratio (y) = 0.45182 0.64265
# Poissons Ratio (z) = 0.06993 0.34140
#
# Static dielectric constant tensor:
#      x y z
#    x 4.489790 -0.471250 -0.501190 
#    y -0.471250 3.793370 0.037320 
#    z -0.501190 0.037320 4.099290 
# 
# 
# High freq. dielectric constant tensor:
#      x y z
#    x 1.837320 -0.028850 -0.030000 
#    y -0.028850 1.820960 -0.008350 
#    z -0.030000 -0.008350 1.851290 
# 
# From -- ./inp_files/110807.got.cif
#   From: 2010.06.25/outbox.cif.g09.slc.cpg/sg2_56_cif.got.tgz:110807.got - 2010.06.27 13:26:56.
