data_PCOD8000918
_publ_section_title
;
Structure prediction by ZEFSAII (Michael W. Deem and Ramdas Pophale) SiO2 
 PCOD8000918
Probable space group: P -1
;
_chemical_formula_sum "Si O2"
_cell_formula_units_Z 16
_cell_length_a 19.023062
_cell_length_b 17.052192
_cell_length_c 6.342695
_cell_angle_alpha 63.914891
_cell_angle_beta 43.830477
_cell_angle_gamma 29.816047
_cell_volume 595.956428
_symmetry_space_group_name_H-M "P -1"
_symmetry_group_IT_number 2
_symmetry_cell_setting 'triclinic'
loop_
_space_group_symop_operation_xyz
x,y,z
-x,-y,-z
loop_
_atom_site_type_symbol
_atom_site_label
_atom_site_fract_x
_atom_site_fract_y
_atom_site_fract_z
Si Si1 0.479192 0.941335 0.367736
Si Si2 0.113532 0.857378 0.228127
Si Si3 0.925306 0.171208 0.129932
Si Si4 0.428126 0.421950 0.438071
Si Si5 0.228586 0.285055 0.606056
Si Si6 0.161084 0.092164 0.186625
Si Si7 0.145921 0.526460 0.619726
Si Si8 0.608820 0.134070 0.640516
O O1 0.383622 0.111201 0.317090
O O2 0.685621 0.795139 0.244117
O O3 0.529839 0.844112 0.168375
O O4 0.284272 0.037441 0.788514
O O5 0.002769 0.860539 0.590252
O O6 0.142821 0.808512 0.978471
O O7 0.355859 0.694536 0.979027
O O8 0.947307 0.067384 0.355099
O O9 0.747760 0.372756 0.362835
O O10 0.157390 0.041813 0.773015
O O11 0.345449 0.421576 0.429969
O O12 0.483458 0.320212 0.644608
O O13 0.231799 0.387605 0.427580
O O14 0.985515 0.429968 0.969076
O O15 0.006674 0.286410 0.389524
O O16 0.344647 0.915435 0.155190
#
# Coordination Sequence:
#
# PCOD8000918 Si02
#       8
#     2   2   2   2   2   2   2   2
#     4  10  19  40  66  86 119 166 201 247 318 362
#     4   9  20  36  56  90 130 161 200 253 300 363
#     4   9  18  36  58  86 127 167 201 248 305 356
#     4  11  20  37  65  90 119 171 208 241 309 371
#     4   9  19  37  64  83 118 164 197 253 316 360
#     4  10  22  40  61  91 128 156 198 262 305 357
#     4  10  20  38  60  88 121 157 203 258 307 358
#     4  10  21  40  63  92 125 161 208 251 299 371
#
# _framework density 26.847598999999999
#
# number of rings (size 3 to 8) (size 9 to 14) (size 15 to 20)
#    0.000    2.250    1.250    2.625    0.000    0.500 
#    6.750   11.875    0.000    0.000    0.000    0.000 
#    0.000    0.000    0.000    0.000    0.000    0.000 
#
# Total GULP energy -198332.190554 kJ/mol
# GULP energy per Si atom -12395.761910 kJ/mol
# Density = 2.678649 g / cm^3
# Si number density = 26.847599 Si / 1000 Ang^3
#
#
#
# Elastic Constant Matrix: (Units=GPa)
#
#
# Indices 1 2 3 4 5 6 
#
# 1 101.0065 41.7528 16.2813 9.4191 -29.0710 32.2437
# 2 41.7528 168.1971 27.7031 4.9991 7.1811 25.5625
# 3 16.2813 27.7031 67.3492 -2.2334 -27.7063 7.9254
# 4 9.4191 4.9991 -2.2334 42.5467 3.1943 1.3251
# 5 -29.0710 7.1811 -27.7063 3.1943 36.1762 8.2184
# 6 32.2437 25.5625 7.9254 1.3251 8.2184 51.4482
#
#
#
# Elastic Compliance Matrix: (Units=1/GPa)
#
#
# Indices 1 2 3 4 5 6 
#
# 1 0.037836 -0.010501 0.021995 -0.009320 0.057149 -0.030773
# 2 -0.010501 0.010143 -0.010632 0.001894 -0.020206 0.006358
# 3 0.021995 -0.010632 0.039402 -0.005007 0.055707 -0.023342
# 4 -0.009320 0.001894 -0.005007 0.026027 -0.015704 0.007510
# 5 0.057149 -0.020206 0.055707 -0.015704 0.134213 -0.055393
# 6 -0.030773 0.006358 -0.023342 0.007510 -0.055393 0.047815
#
#
# Mechanical properties :
#
#
# Convention : Reuss Voigt Hill
#
# Bulk Modulus (GPa) = 11.22268 56.44746 33.83507
# Shear Modulus (GPa) = 15.46011 42.75527 29.10769
#
# Velocity S-wave (km/s) = 2.40228 3.99497 3.29626
# Velocity P-wave (km/s) = 3.44730 6.50772 5.20741
#
# Compressibility (1/GPa) = 0.08910527
#
# Stress axis : x y z
#
# Youngs Moduli (GPa) = 26.42956 98.58640 25.37970
#
# Poissons Ratio (x) = 1.03528 -0.55822
# Poissons Ratio (y) = 0.27754 0.26983
# Poissons Ratio (z) = -0.58132 1.04814
#
# Static dielectric constant tensor:
#      x y z
#    x 5.099790 0.427190 -0.418840 
#    y 0.427190 5.242690 -0.013220 
#    z -0.418840 -0.013220 4.679730 
# 
# 
# High freq. dielectric constant tensor:
#      x y z
#    x 2.085260 0.022280 -0.024430 
#    y 0.022280 2.089280 0.001780 
#    z -0.024430 0.001780 2.074930 
# 
# From -- ./inp_files/348393.got.cif
#   From: 2010.06.25/outbox.cif.g09.slc.cpg/sg2_175_cif.got.tgz:348393.got - 2010.06.27 13:26:56.
