data_PCOD8000076
_publ_section_title
;
Structure prediction by ZEFSAII (Michael W. Deem and Ramdas Pophale) SiO2 
 PCOD8000076
Probable space group: P 1
;
_chemical_formula_sum "Si O2"
_cell_formula_units_Z 8
_cell_length_a 8.258599
_cell_length_b 11.943431
_cell_length_c 7.453164
_cell_angle_alpha 56.257080
_cell_angle_beta 125.251138
_cell_angle_gamma 141.874212
_cell_volume 363.068111
_symmetry_space_group_name_H-M "P 1"
_symmetry_group_IT_number 1
_symmetry_cell_setting 'triclinic'
loop_
_space_group_symop_operation_xyz
x,y,z
loop_
_atom_site_type_symbol
_atom_site_label
_atom_site_fract_x
_atom_site_fract_y
_atom_site_fract_z
Si Si1 0.236600 0.628060 0.587830
Si Si2 0.150219 0.693748 0.095320
Si Si3 0.927802 0.102308 0.624691
Si Si4 0.693770 0.281766 0.684371
Si Si5 0.939757 0.327781 0.168491
Si Si6 0.452572 0.439824 0.526502
Si Si7 0.469944 0.916440 0.763263
Si Si8 0.758681 0.742599 0.735111
O O1 0.243825 0.752140 0.627953
O O2 0.482046 0.635588 0.770206
O O3 0.250370 0.285603 0.691172
O O4 0.953461 0.416575 0.599079
O O5 0.292269 0.717364 0.349495
O O6 0.929550 0.478999 0.084990
O O7 0.395218 0.823067 0.993308
O O8 0.974980 0.746902 0.967592
O O9 0.790999 0.159635 0.366519
O O10 0.771452 0.014925 0.793388
O O11 0.904879 0.955468 0.622475
O O12 0.583948 0.379336 0.555999
O O13 0.468519 0.079556 0.628059
O O14 0.790757 0.247867 0.954433
O O15 0.263176 0.436810 0.269547
O O16 0.683008 0.642101 0.582311
#
# Coordination Sequence:
#
# PCOD8000076 Si02
#       8
#     1   1   1   1   1   1   1   1
#     4  11  25  45  64 102 137 171 220 283 322 398
#     4  12  23  44  72  97 133 180 221 269 339 387
#     4   9  23  44  62  99 135 168 220 274 325 386
#     4  12  23  43  68  99 138 174 222 271 335 397
#     4  10  22  41  68  99 129 177 216 269 332 386
#     4  10  21  40  69  96 135 169 222 272 328 386
#     4  11  24  42  69  96 135 178 217 271 332 394
#     4  11  21  41  70  94 134 173 218 275 327 388
#
# _framework density 22.034433
#
# number of rings (size 3 to 8) (size 9 to 14) (size 15 to 20)
#    0.750    0.500    3.750    2.250    3.500    1.000 
#    0.000    2.500    0.000    0.000    0.000    0.000 
#    0.000    0.000    0.000    0.000    0.000    0.000 
#
# Total GULP energy -99117.353019 kJ/mol
# GULP energy per Si atom -12389.669127 kJ/mol
# Density = 2.198428 g / cm^3
# Si number density = 22.034433 Si / 1000 Ang^3
#
#
#
# Elastic Constant Matrix: (Units=GPa)
#
#
# Indices 1 2 3 4 5 6 
#
# 1 106.4950 21.3992 44.6866 -14.6628 -3.1746 -4.5149
# 2 21.3992 97.1361 18.6540 -24.6948 -4.5941 -23.9727
# 3 44.6866 18.6540 78.9593 -12.6705 -6.0086 0.4379
# 4 -14.6628 -24.6948 -12.6705 33.7629 -2.0419 2.6679
# 5 -3.1746 -4.5941 -6.0086 -2.0419 37.4897 -7.1756
# 6 -4.5149 -23.9727 0.4379 2.6679 -7.1756 44.8373
#
#
#
# Elastic Compliance Matrix: (Units=1/GPa)
#
#
# Indices 1 2 3 4 5 6 
#
# 1 0.012684 -0.000666 -0.006609 0.002486 0.000236 0.000876
# 2 -0.000666 0.015483 -0.001426 0.010077 0.003735 0.008223
# 3 -0.006609 -0.001426 0.017350 0.002830 0.001922 -0.001458
# 4 0.002486 0.010077 0.002830 0.039101 0.004804 0.004053
# 5 0.000236 0.003735 0.001922 0.004804 0.028936 0.006347
# 6 0.000876 0.008223 -0.001458 0.004053 0.006347 0.027577
#
#
# Mechanical properties :
#
#
# Convention : Reuss Voigt Hill
#
# Bulk Modulus (GPa) = 35.56573 50.23000 42.89787
# Shear Modulus (GPa) = 29.77916 36.40801 33.09358
#
# Velocity S-wave (km/s) = 3.68024 4.06929 3.87964
# Velocity P-wave (km/s) = 5.85106 6.70257 6.29124
#
# Compressibility (1/GPa) = 0.02811695
#
# Stress axis : x y z
#
# Youngs Moduli (GPa) = 78.84249 64.58622 57.63638
#
# Poissons Ratio (x) = 0.04299 0.38091
# Poissons Ratio (y) = 0.05248 0.08216
# Poissons Ratio (z) = 0.52105 0.09207
#
# Static dielectric constant tensor:
#      x y z
#    x 3.902220 -0.154370 0.076750 
#    y -0.154370 4.170320 -0.180190 
#    z 0.076750 -0.180190 3.627880 
# 
# 
# High freq. dielectric constant tensor:
#      x y z
#    x 1.862570 -0.012140 0.007140 
#    y -0.012140 1.886600 -0.016500 
#    z 0.007140 -0.016500 1.827830 
# 
# From -- ./inp_files/4817.got.cif
#   From: 2010.03.12/outbox.cif.g09.slc.cpg/sg1_3_cif.got.tgz:4817.got - 2010.03.29 11:57:58.
