data_PCOD8000327
_publ_section_title
;
Structure prediction by ZEFSAII (Michael W. Deem and Ramdas Pophale) SiO2 
 PCOD8000327
Probable space group: P -1
;
_chemical_formula_sum "Si O2"
_cell_formula_units_Z 14
_cell_length_a 12.016605
_cell_length_b 8.861492
_cell_length_c 10.388347
_cell_angle_alpha 65.195893
_cell_angle_beta 129.238786
_cell_angle_gamma 127.988565
_cell_volume 674.425864
_symmetry_space_group_name_H-M "P -1"
_symmetry_group_IT_number 2
_symmetry_cell_setting 'triclinic'
loop_
_space_group_symop_operation_xyz
x,y,z
-x,-y,-z
loop_
_atom_site_type_symbol
_atom_site_label
_atom_site_fract_x
_atom_site_fract_y
_atom_site_fract_z
Si Si1 0.602619 0.942926 0.499716
Si Si2 0.769155 0.806973 0.846476
Si Si3 0.064968 0.762728 0.092187
Si Si4 0.528433 0.265188 0.004791
Si Si5 0.370907 0.835956 0.136742
Si Si6 0.054640 0.685615 0.387566
Si Si7 0.279059 0.365120 0.857985
O O1 0.768616 0.136256 0.505655
O O2 0.500000 0.000000 0.500000
O O3 0.639294 0.783251 0.648400
O O4 0.488620 0.832519 0.334791
O O5 0.858323 0.032696 0.856298
O O6 0.682949 0.700816 0.952810
O O7 0.892071 0.728672 0.916213
O O8 0.180012 0.744499 0.075285
O O9 0.045231 0.627311 0.249338
O O10 0.628218 0.289923 0.937064
O O11 0.386208 0.321665 0.849877
O O12 0.654659 0.407446 0.155368
O O13 0.439207 0.052366 0.067938
O O14 0.000000 0.500000 0.500000
O O15 0.912879 0.746312 0.283070
#
# Coordination Sequence:
#
# PCOD8000327 Si02
#       7
#     2   2   2   2   2   2   2
#     4  11  19  33  59  88 115 152 191 237 286 349
#     4   9  17  31  58  81 105 148 195 230 277 347
#     4   9  17  33  56  81 110 150 193 233 277 343
#     4  10  22  35  60  82 118 156 193 240 283 349
#     4  11  20  37  57  88 117 151 196 236 289 339
#     4  10  20  33  59  88 116 148 196 241 284 342
#     4  10  19  39  58  83 112 158 196 235 288 345
#
# _framework density 20.758398
#
# number of rings (size 3 to 8) (size 9 to 14) (size 15 to 20)
#    0.000    2.000    4.286    1.714    0.000    1.143 
#    0.000    4.286    3.143    0.000    0.000    0.000 
#    0.000    0.000    0.000    0.000    0.000    0.000 
#
# Total GULP energy -173473.149452 kJ/mol
# GULP energy per Si atom -12390.939247 kJ/mol
# Density = 2.071115 g / cm^3
# Si number density = 20.758398 Si / 1000 Ang^3
#
#
#
# Elastic Constant Matrix: (Units=GPa)
#
#
# Indices 1 2 3 4 5 6 
#
# 1 158.4855 21.6084 47.7608 -9.2593 20.2424 -4.6739
# 2 21.6084 35.9533 11.5903 -9.3475 3.4446 0.8213
# 3 47.7608 11.5903 101.6339 -11.5093 12.8806 -4.0765
# 4 -9.2593 -9.3475 -11.5093 23.3829 12.8270 -3.2181
# 5 20.2424 3.4446 12.8806 12.8270 31.3951 2.3078
# 6 -4.6739 0.8213 -4.0765 -3.2181 2.3078 30.1545
#
#
#
# Elastic Compliance Matrix: (Units=1/GPa)
#
#
# Indices 1 2 3 4 5 6 
#
# 1 0.008525 -0.002469 -0.002208 0.005227 -0.006614 0.002154
# 2 -0.002469 0.035110 0.000792 0.019543 -0.010693 0.001672
# 3 -0.002208 0.000792 0.013371 0.011468 -0.009081 0.003363
# 4 0.005227 0.019543 0.011468 0.085686 -0.046294 0.014516
# 5 -0.006614 -0.010693 -0.009081 -0.046294 0.060779 -0.011554
# 6 0.002154 0.001672 0.003363 0.014516 -0.011554 0.036339
#
#
# Mechanical properties :
#
#
# Convention : Reuss Voigt Hill
#
# Bulk Modulus (GPa) = 20.31063 50.88796 35.59930
# Shear Modulus (GPa) = 18.93992 31.32740 25.13366
#
# Velocity S-wave (km/s) = 3.02387 3.88898 3.48339
# Velocity P-wave (km/s) = 4.69012 6.68829 5.77626
#
# Compressibility (1/GPa) = 0.04923529
#
# Stress axis : x y z
#
# Youngs Moduli (GPa) = 117.29615 28.48218 74.78767
#
# Poissons Ratio (x) = 0.07031 0.16516
# Poissons Ratio (y) = 0.28957 -0.05920
# Poissons Ratio (z) = 0.25903 -0.02254
#
# Static dielectric constant tensor:
#      x y z
#    x 3.978980 0.250370 0.216770 
#    y 0.250370 3.552650 -0.182010 
#    z 0.216770 -0.182010 4.076570 
# 
# 
# High freq. dielectric constant tensor:
#      x y z
#    x 1.818970 0.030650 0.017540 
#    y 0.030650 1.781310 -0.017310 
#    z 0.017540 -0.017310 1.806480 
# 
# From -- ./inp_files/182440.got.cif
#   From: 2010.06.25/outbox.cif.g09.slc.cpg/sg2_92_cif.got.tgz:182440.got - 2010.06.27 13:26:56.
