data_PCOD8000300
_publ_section_title
;
Structure prediction by ZEFSAII (Michael W. Deem and Ramdas Pophale) SiO2 
 PCOD8000300
Probable space group: P -1
;
_chemical_formula_sum "Si O2"
_cell_formula_units_Z 16
_cell_length_a 20.322600
_cell_length_b 12.275633
_cell_length_c 8.644249
_cell_angle_alpha 73.005138
_cell_angle_beta 135.562745
_cell_angle_gamma 141.872257
_cell_volume 729.042352
_symmetry_space_group_name_H-M "P -1"
_symmetry_group_IT_number 2
_symmetry_cell_setting 'triclinic'
loop_
_space_group_symop_operation_xyz
x,y,z
-x,-y,-z
loop_
_atom_site_type_symbol
_atom_site_label
_atom_site_fract_x
_atom_site_fract_y
_atom_site_fract_z
Si Si1 0.176044 0.718446 0.399769
Si Si2 0.638319 0.774764 0.763740
Si Si3 0.270223 0.569645 0.699771
Si Si4 0.036128 0.121297 0.368728
Si Si5 0.236265 0.698821 0.167403
Si Si6 0.622216 0.640471 0.299966
Si Si7 0.471343 0.136125 0.267125
Si Si8 0.426721 0.188220 0.690647
O O1 0.190025 0.613364 0.558126
O O2 0.229018 0.759671 0.292302
O O3 0.306306 0.947663 0.602232
O O4 0.966100 0.545752 0.132558
O O5 0.488332 0.524119 0.668835
O O6 0.645039 0.878688 0.863034
O O7 0.575376 0.761529 0.503120
O O8 0.845225 0.939442 0.029906
O O9 0.108288 0.317550 0.472785
O O10 0.450157 0.753710 0.814445
O O11 0.357228 0.617283 0.988296
O O12 0.183349 0.221140 0.455026
O O13 0.000000 0.000000 0.500000
O O14 0.354849 0.707925 0.389235
O O15 0.339013 0.886958 0.137819
O O16 0.656983 0.809044 0.327557
O O17 0.500000 0.500000 0.000000
#
# Coordination Sequence:
#
# PCOD8000300 Si02
#       8
#     2   2   2   2   2   2   2   2
#     4  10  21  39  66 101 137 172 233 275 339 403
#     4  12  24  42  73 104 135 175 232 286 340 393
#     4  11  23  42  69  96 141 186 222 274 341 409
#     4  12  25  44  77 101 126 182 236 278 337 414
#     4   9  19  37  65  99 130 179 224 279 330 406
#     4  12  24  49  71  98 137 181 230 280 344 413
#     4  10  19  38  70  94 134 183 226 267 340 409
#     4  12  25  42  68 103 142 179 221 291 343 393
#
# _framework density 21.946598000000002
#
# number of rings (size 3 to 8) (size 9 to 14) (size 15 to 20)
#    0.000    1.000    5.000    1.500    3.500    0.500 
#    0.000    3.125    0.000    0.000    0.000    0.000 
#    0.000    0.000    0.000    0.000    0.000    0.000 
#
# Total GULP energy -198442.625090 kJ/mol
# GULP energy per Si atom -12402.664068 kJ/mol
# Density = 2.189665 g / cm^3
# Si number density = 21.946598 Si / 1000 Ang^3
#
#
#
# Elastic Constant Matrix: (Units=GPa)
#
#
# Indices 1 2 3 4 5 6 
#
# 1 65.1366 29.1108 27.3710 9.4779 13.7045 -15.2366
# 2 29.1108 121.1093 34.5790 1.1883 1.0088 -9.7206
# 3 27.3710 34.5790 105.0504 0.5691 18.5891 6.8078
# 4 9.4779 1.1883 0.5691 35.1204 4.0477 0.1022
# 5 13.7045 1.0088 18.5891 4.0477 38.7097 2.3439
# 6 -15.2366 -9.7206 6.8078 0.1022 2.3439 42.0438
#
#
#
# Elastic Compliance Matrix: (Units=1/GPa)
#
#
# Indices 1 2 3 4 5 6 
#
# 1 0.022654 -0.003454 -0.004249 -0.005278 -0.005849 0.008438
# 2 -0.003454 0.009999 -0.002877 0.000381 0.002219 0.001401
# 3 -0.004249 -0.002877 0.012602 0.001558 -0.004393 -0.004004
# 4 -0.005278 0.000381 0.001558 0.030086 -0.001911 -0.002044
# 5 -0.005849 0.002219 -0.004393 -0.001911 0.030312 -0.002580
# 6 0.008438 0.001401 -0.004004 -0.002044 -0.002580 0.027964
#
#
# Mechanical properties :
#
#
# Convention : Reuss Voigt Hill
#
# Bulk Modulus (GPa) = 41.50305 52.60199 47.05252
# Shear Modulus (GPa) = 30.71112 36.52381 33.61747
#
# Velocity S-wave (km/s) = 3.74486 4.08390 3.91805
# Velocity P-wave (km/s) = 6.13601 6.80131 6.47721
#
# Compressibility (1/GPa) = 0.02409461
#
# Stress axis : x y z
#
# Youngs Moduli (GPa) = 44.14239 100.01039 79.35521
#
# Poissons Ratio (x) = 0.34548 0.33715
# Poissons Ratio (y) = 0.15249 0.22829
# Poissons Ratio (z) = 0.18755 0.28771
#
# Static dielectric constant tensor:
#      x y z
#    x 3.944980 -0.024300 0.262260 
#    y -0.024300 4.167370 -0.052290 
#    z 0.262260 -0.052290 4.022420 
# 
# 
# High freq. dielectric constant tensor:
#      x y z
#    x 1.843380 -0.006260 0.016720 
#    y -0.006260 1.874870 -0.009970 
#    z 0.016720 -0.009970 1.864390 
# 
# From -- ./inp_files/346113.got.cif
#   From: 2010.06.25/outbox.cif.g09.slc.cpg/sg2_174_cif.got.tgz:346113.got - 2010.06.27 13:26:56.
