data_PCOD8000982
_publ_section_title
;
Structure prediction by ZEFSAII (Michael W. Deem and Ramdas Pophale) SiO2 
 PCOD8000982
Probable space group: P -1
;
_chemical_formula_sum "Si O2"
_cell_formula_units_Z 16
_cell_length_a 14.880310
_cell_length_b 10.878592
_cell_length_c 9.482450
_cell_angle_alpha 113.906013
_cell_angle_beta 114.615487
_cell_angle_gamma 122.514504
_cell_volume 672.443984
_symmetry_space_group_name_H-M "P -1"
_symmetry_group_IT_number 2
_symmetry_cell_setting 'triclinic'
loop_
_space_group_symop_operation_xyz
x,y,z
-x,-y,-z
loop_
_atom_site_type_symbol
_atom_site_label
_atom_site_fract_x
_atom_site_fract_y
_atom_site_fract_z
Si Si1 0.656557 0.737279 0.819176
Si Si2 0.646002 0.312477 0.018656
Si Si3 0.319854 0.353669 0.899179
Si Si4 0.799929 0.896537 0.552803
Si Si5 0.360905 0.560669 0.640186
Si Si6 0.719068 0.090615 0.555667
Si Si7 0.899871 0.404381 0.085327
Si Si8 0.000682 0.217834 0.090833
O O1 0.500000 0.500000 0.500000
O O2 0.573290 0.790573 0.825426
O O3 0.691587 0.697126 0.968411
O O4 0.858002 0.972470 0.984677
O O5 0.700969 0.510241 0.062288
O O6 0.639058 0.327385 0.187675
O O7 0.796640 0.368888 0.122231
O O8 0.442209 0.027860 0.698717
O O9 0.150517 0.089141 0.570324
O O10 0.500000 0.500000 0.000000
O O11 0.686000 0.642691 0.429512
O O12 0.663238 0.871488 0.457581
O O13 0.979729 0.144184 0.880695
O O14 0.215036 0.434918 0.366782
O O15 0.912876 0.298465 0.693408
O O16 0.755899 0.228376 0.777873
O O17 0.958290 0.324596 0.136642
#
# Coordination Sequence:
#
# PCOD8000982 Si02
#       8
#     2   2   2   2   2   2   2   2
#     4  12  23  40  68  99 129 168 208 262 340 385
#     4  11  22  41  70  92 130 168 221 269 315 384
#     4  11  19  40  68 101 127 160 213 273 326 380
#     4  10  19  40  68  91 129 164 210 271 323 372
#     4  11  23  41  65  98 129 171 207 269 339 377
#     4  10  20  42  67  90 131 168 216 278 309 372
#     4  10  25  42  61  97 127 178 224 255 316 381
#     4  11  25  43  64  92 139 169 212 268 312 397
#
# _framework density 23.793804000000002
#
# number of rings (size 3 to 8) (size 9 to 14) (size 15 to 20)
#    0.000    1.250    5.000    0.750    1.750    4.500 
#    4.500    3.750    0.000    0.000    0.000    0.000 
#    0.000    0.000    0.000    0.000    0.000    0.000 
#
# Total GULP energy -198286.974437 kJ/mol
# GULP energy per Si atom -12392.935902 kJ/mol
# Density = 2.373965 g / cm^3
# Si number density = 23.793804 Si / 1000 Ang^3
#
#
#
# Elastic Constant Matrix: (Units=GPa)
#
#
# Indices 1 2 3 4 5 6 
#
# 1 86.6172 3.6413 30.6454 1.4686 -18.2623 -0.8643
# 2 3.6413 48.4172 31.4440 -15.7300 -9.7460 -3.1682
# 3 30.6454 31.4440 114.4527 -31.2656 -5.4598 -0.1349
# 4 1.4686 -15.7300 -31.2656 36.8027 0.2569 -5.8891
# 5 -18.2623 -9.7460 -5.4598 0.2569 33.8371 -4.8509
# 6 -0.8643 -3.1682 -0.1349 -5.8891 -4.8509 30.6248
#
#
#
# Elastic Compliance Matrix: (Units=1/GPa)
#
#
# Indices 1 2 3 4 5 6 
#
# 1 0.015238 0.002969 -0.005564 -0.003918 0.008396 0.001289
# 2 0.002969 0.029515 -0.006191 0.008169 0.009939 0.006255
# 3 -0.005564 -0.006191 0.014576 0.010109 -0.002392 0.000832
# 4 -0.003918 0.008169 0.010109 0.040842 0.002862 0.009086
# 5 0.008396 0.009939 -0.002392 0.002862 0.037654 0.007769
# 6 0.001289 0.006255 0.000832 0.009086 0.007769 0.036318
#
#
# Mechanical properties :
#
#
# Convention : Reuss Voigt Hill
#
# Bulk Modulus (GPa) = 23.94756 42.32761 33.13759
# Shear Modulus (GPa) = 24.31494 32.50335 28.40914
#
# Velocity S-wave (km/s) = 3.20019 3.70001 3.45914
# Velocity P-wave (km/s) = 4.87252 6.00678 5.46913
#
# Compressibility (1/GPa) = 0.04175790
#
# Stress axis : x y z
#
# Youngs Moduli (GPa) = 65.62353 33.88117 68.60450
#
# Poissons Ratio (x) = -0.10059 0.38173
# Poissons Ratio (y) = -0.19484 0.42471
# Poissons Ratio (z) = 0.36514 0.20975
#
# Static dielectric constant tensor:
#      x y z
#    x 4.268560 0.048300 -0.180570 
#    y 0.048300 4.099110 -0.216880 
#    z -0.180570 -0.216880 4.886930 
# 
# 
# High freq. dielectric constant tensor:
#      x y z
#    x 1.944160 -0.008930 -0.007400 
#    y -0.008930 1.910840 -0.013110 
#    z -0.007400 -0.013110 1.962180 
# 
# From -- ./inp_files/308346.got.cif
#   From: 2010.06.25/outbox.cif.g09.slc.cpg/sg2_155_cif.got.tgz:308346.got - 2010.06.27 13:26:56.
