data_PCOD8000189
_publ_section_title
;
Structure prediction by ZEFSAII (Michael W. Deem and Ramdas Pophale) SiO2 
 PCOD8000189
Probable space group: P 1
;
_chemical_formula_sum "Si O2"
_cell_formula_units_Z 8
_cell_length_a 14.953226
_cell_length_b 8.976307
_cell_length_c 5.211668
_cell_angle_alpha 79.826071
_cell_angle_beta 82.149115
_cell_angle_gamma 142.491561
_cell_volume 371.870012
_symmetry_space_group_name_H-M "P 1"
_symmetry_group_IT_number 1
_symmetry_cell_setting 'triclinic'
loop_
_space_group_symop_operation_xyz
x,y,z
loop_
_atom_site_type_symbol
_atom_site_label
_atom_site_fract_x
_atom_site_fract_y
_atom_site_fract_z
Si Si1 0.515460 0.207770 0.239330
Si Si2 0.730206 0.292865 0.401606
Si Si3 0.146243 0.207904 0.368938
Si Si4 0.840342 0.576089 0.781264
Si Si5 0.189660 0.576170 0.458694
Si Si6 0.016628 0.293127 0.121580
Si Si7 0.470369 0.486828 0.164776
Si Si8 0.645114 0.836311 0.490030
O O1 0.580607 0.206212 0.464564
O O2 0.458410 0.295043 0.311566
O O3 0.363777 0.904122 0.267391
O O4 0.667792 0.428086 0.909504
O O5 0.841895 0.481403 0.548990
O O6 0.649928 0.015456 0.528187
O O7 0.849166 0.472191 0.050085
O O8 0.214024 0.427885 0.478775
O O9 0.290752 0.295626 0.209189
O O10 0.079576 0.206476 0.145269
O O11 0.994320 0.904087 0.644292
O O12 0.076952 0.472358 0.293808
O O13 0.093559 0.481835 0.785586
O O14 0.819500 0.015739 0.272380
O O15 0.528750 0.660432 0.339857
O O16 0.585902 0.660870 0.816090
#
# Coordination Sequence:
#
# PCOD8000189 Si02
#       8
#     1   1   1   1   1   1   1   1
#     4  10  26  43  68 103 138 179 223 283 340 404
#     4  10  25  40  72  92 138 176 230 269 336 402
#     4  10  26  43  68 103 138 179 223 283 340 404
#     4  10  24  41  71  95 140 178 224 277 339 403
#     4  10  24  41  71  95 140 178 224 277 339 403
#     4  10  25  40  72  92 138 176 230 269 336 402
#     4  12  28  40  76  98 146 168 240 276 348 394
#     4  12  26  48  68 106 130 194 222 282 336 424
#
# _framework density 21.512892000000001
#
# number of rings (size 3 to 8) (size 9 to 14) (size 15 to 20)
#    1.500    0.000    0.000    3.000   14.000    2.000 
#    0.000    0.000    0.000    0.000    0.000    0.000 
#    0.000    0.000    0.000    0.000    0.000    0.000 
#
# Total GULP energy -99158.034526 kJ/mol
# GULP energy per Si atom -12394.754316 kJ/mol
# Density = 2.146393 g / cm^3
# Si number density = 21.512892 Si / 1000 Ang^3
#
#
#
# Elastic Constant Matrix: (Units=GPa)
#
#
# Indices 1 2 3 4 5 6 
#
# 1 111.8257 35.3139 25.3313 -10.3600 -5.1718 -3.7290
# 2 35.3139 117.7103 48.2001 -12.7454 -3.9019 -6.0943
# 3 25.3313 48.2001 110.3783 8.5048 -4.9938 3.7216
# 4 -10.3600 -12.7454 8.5048 46.8132 5.8994 -0.0293
# 5 -5.1718 -3.9019 -4.9938 5.8994 24.4664 -4.9919
# 6 -3.7290 -6.0943 3.7216 -0.0293 -4.9919 28.2443
#
#
#
# Elastic Compliance Matrix: (Units=1/GPa)
#
#
# Indices 1 2 3 4 5 6 
#
# 1 0.010238 -0.002132 -0.001541 0.001796 0.001349 0.001335
# 2 -0.002132 0.011733 -0.005006 0.003618 0.000125 0.002936
# 3 -0.001541 -0.005006 0.012086 -0.004130 0.001817 -0.002559
# 4 0.001796 0.003618 -0.004130 0.024200 -0.005600 0.000598
# 5 0.001349 0.000125 0.001817 -0.005600 0.044495 0.007824
# 6 0.001335 0.002936 -0.002559 0.000598 0.007824 0.037936
#
#
# Mechanical properties :
#
#
# Convention : Reuss Voigt Hill
#
# Bulk Modulus (GPa) = 59.88548 61.95609 60.92079
# Shear Modulus (GPa) = 30.55983 35.30940 32.93462
#
# Velocity S-wave (km/s) = 3.77309 4.05571 3.91695
# Velocity P-wave (km/s) = 6.84683 7.12697 6.98830
#
# Compressibility (1/GPa) = 0.01669854
#
# Stress axis : x y z
#
# Youngs Moduli (GPa) = 97.67361 85.22945 82.73850
#
# Poissons Ratio (x) = 0.18173 0.12749
# Poissons Ratio (y) = 0.20827 0.41422
# Poissons Ratio (z) = 0.15050 0.42669
#
# Static dielectric constant tensor:
#      x y z
#    x 3.676250 0.045320 0.069560 
#    y 0.045320 3.696850 -0.019070 
#    z 0.069560 -0.019070 3.688870 
# 
# 
# High freq. dielectric constant tensor:
#      x y z
#    x 1.831710 0.004080 0.004910 
#    y 0.004080 1.844170 -0.002760 
#    z 0.004910 -0.002760 1.842230 
# 
# From -- ./inp_files/2127.got.cif
#   From: 2010.03.12/outbox.cif.g09.slc.cpg/sg1_2_cif.got.tgz:2127.got - 2010.03.29 11:57:58.
