data_PCOD8000347
_publ_section_title
;
Structure prediction by ZEFSAII (Michael W. Deem and Ramdas Pophale) SiO2 
 PCOD8000347
Probable space group: P -1
;
_chemical_formula_sum "Si O2"
_cell_formula_units_Z 12
_cell_length_a 8.446986
_cell_length_b 8.013016
_cell_length_c 11.886683
_cell_angle_alpha 63.939423
_cell_angle_beta 52.743918
_cell_angle_gamma 57.644627
_cell_volume 532.938486
_symmetry_space_group_name_H-M "P -1"
_symmetry_group_IT_number 2
_symmetry_cell_setting 'triclinic'
loop_
_space_group_symop_operation_xyz
x,y,z
-x,-y,-z
loop_
_atom_site_type_symbol
_atom_site_label
_atom_site_fract_x
_atom_site_fract_y
_atom_site_fract_z
Si Si1 0.022133 0.801495 0.203812
Si Si2 0.789049 0.701041 0.026359
Si Si3 0.352627 0.717687 0.286118
Si Si4 0.739367 0.853059 0.751263
Si Si5 0.094419 0.534278 0.564736
Si Si6 0.285534 0.918549 0.893231
O O1 0.150216 0.789955 0.266389
O O2 0.905203 0.640210 0.298344
O O3 0.827756 0.016929 0.199883
O O4 0.190683 0.767063 0.038383
O O5 0.584875 0.633802 0.151642
O O6 0.779626 0.873881 0.067584
O O7 0.773214 0.803073 0.882416
O O8 0.000000 0.500000 0.000000
O O9 0.324400 0.550761 0.432730
O O10 0.328738 0.912001 0.311165
O O11 0.946771 0.743516 0.620850
O O12 0.539860 0.799167 0.806965
O O13 0.000000 0.500000 0.500000
#
# Coordination Sequence:
#
# PCOD8000347 Si02
#       6
#     2   2   2   2   2   2
#     4  10  19  39  59  89 127 150 191 244 297 350
#     4  11  21  38  63  93 115 154 205 249 289 347
#     4  10  20  42  62  88 122 157 195 245 295 354
#     4  11  20  40  63  86 116 163 202 240 293 348
#     4  10  23  39  58  89 125 157 195 242 300 355
#     4  10  20  37  63  91 121 152 200 247 292 348
#
# _framework density 22.516670999999999
#
# number of rings (size 3 to 8) (size 9 to 14) (size 15 to 20)
#    0.000    1.667    3.333    2.500    0.000    0.667 
#   12.000   12.500    0.000    0.000    0.000    0.000 
#    0.000    0.000    0.000    0.000    0.000    0.000 
#
# Total GULP energy -148666.113724 kJ/mol
# GULP energy per Si atom -12388.842810 kJ/mol
# Density = 2.246542 g / cm^3
# Si number density = 22.516671 Si / 1000 Ang^3
#
#
#
# Elastic Constant Matrix: (Units=GPa)
#
#
# Indices 1 2 3 4 5 6 
#
# 1 63.7761 -0.0774 35.2710 -6.9729 -12.2161 -13.8844
# 2 -0.0774 46.5246 42.6400 -6.4690 -7.1087 1.8221
# 3 35.2710 42.6400 142.7172 -20.9522 -36.0626 9.4515
# 4 -6.9729 -6.4690 -20.9522 43.4006 10.8455 -3.3043
# 5 -12.2161 -7.1087 -36.0626 10.8455 29.4441 -5.0540
# 6 -13.8844 1.8221 9.4515 -3.3043 -5.0540 24.6078
#
#
#
# Elastic Compliance Matrix: (Units=1/GPa)
#
#
# Indices 1 2 3 4 5 6 
#
# 1 0.025372 0.008011 -0.008479 0.001389 0.004676 0.018126
# 2 0.008011 0.032765 -0.013037 0.001403 -0.004145 0.006438
# 3 -0.008479 -0.013037 0.016726 0.001171 0.012084 -0.007604
# 4 0.001389 0.001403 0.001171 0.025914 -0.006799 0.002313
# 5 0.004676 -0.004145 0.012084 -0.006799 0.053651 0.008409
# 6 0.018126 0.006438 -0.007604 0.002313 0.008409 0.055346
#
#
# Mechanical properties :
#
#
# Convention : Reuss Voigt Hill
#
# Bulk Modulus (GPa) = 20.89685 45.40946 33.15315
# Shear Modulus (GPa) = 19.78345 31.16946 25.47645
#
# Velocity S-wave (km/s) = 2.96736 3.72463 3.36735
# Velocity P-wave (km/s) = 4.58705 6.22158 5.46576
#
# Compressibility (1/GPa) = 0.04785411
#
# Stress axis : x y z
#
# Youngs Moduli (GPa) = 39.41286 30.52006 59.78556
#
# Poissons Ratio (x) = -0.24449 0.50692
# Poissons Ratio (y) = -0.31573 0.77942
# Poissons Ratio (z) = 0.33418 0.39789
#
# Static dielectric constant tensor:
#      x y z
#    x 4.131200 -0.111690 -0.560500 
#    y -0.111690 3.719850 -0.637270 
#    z -0.560500 -0.637270 4.578450 
# 
# 
# High freq. dielectric constant tensor:
#      x y z
#    x 1.888380 0.000060 -0.020120 
#    y 0.000060 1.859870 -0.022000 
#    z -0.020120 -0.022000 1.894730 
# 
# From -- ./inp_files/145277.got.cif
#   From: 2010.06.25/outbox.cif.g09.slc.cpg/sg2_73_cif.got.tgz:145277.got - 2010.06.27 13:26:56.
