data_PCOD8000405
_publ_section_title
;
Structure prediction by ZEFSAII (Michael W. Deem and Ramdas Pophale) SiO2 
 PCOD8000405
Probable space group: P -1
;
_chemical_formula_sum "Si O2"
_cell_formula_units_Z 16
_cell_length_a 11.641929
_cell_length_b 8.096317
_cell_length_c 15.113328
_cell_angle_alpha 104.238153
_cell_angle_beta 31.362298
_cell_angle_gamma 103.953050
_cell_volume 717.253145
_symmetry_space_group_name_H-M "P -1"
_symmetry_group_IT_number 2
_symmetry_cell_setting 'triclinic'
loop_
_space_group_symop_operation_xyz
x,y,z
-x,-y,-z
loop_
_atom_site_type_symbol
_atom_site_label
_atom_site_fract_x
_atom_site_fract_y
_atom_site_fract_z
Si Si1 0.120337 0.799326 0.307713
Si Si2 0.297745 0.160380 0.285975
Si Si3 0.198401 0.313096 0.643217
Si Si4 0.577923 0.292393 0.267723
Si Si5 0.837854 0.313536 0.351886
Si Si6 0.621286 0.679954 0.288108
Si Si7 0.149020 0.449853 0.315316
Si Si8 0.989991 0.812231 0.949591
O O1 0.249069 0.628678 0.228210
O O2 0.918434 0.813362 0.509913
O O3 0.021847 0.775341 0.269585
O O4 0.281733 0.971319 0.227173
O O5 0.513528 0.176750 0.208829
O O6 0.323707 0.314322 0.216193
O O7 0.417196 0.234592 0.447529
O O8 0.208552 0.515982 0.648958
O O9 0.204145 0.286374 0.741489
O O10 0.534309 0.486794 0.300498
O O11 0.831785 0.285265 0.124612
O O12 0.604083 0.225350 0.530062
O O13 0.958360 0.190475 0.188955
O O14 0.997296 0.343365 0.332604
O O15 0.742189 0.737935 0.125474
O O16 0.000000 0.500000 0.500000
O O17 0.000000 0.000000 0.000000
#
# Coordination Sequence:
#
# PCOD8000405 Si02
#       8
#     2   2   2   2   2   2   2   2
#     4   8  16  29  51  90 118 152 201 254 305 360
#     4   9  17  32  55  86 120 157 200 253 305 367
#     4   9  16  33  65  89 117 155 210 255 306 367
#     4  10  19  39  61  88 122 155 210 259 299 374
#     4  10  20  39  63  94 125 155 207 263 300 375
#     4  11  20  38  67  87 115 168 205 248 322 360
#     4   9  17  33  60  92 119 156 210 253 309 373
#     4  12  26  40  55  94 133 161 202 254 313 372
#
# _framework density 22.307327999999998
#
# number of rings (size 3 to 8) (size 9 to 14) (size 15 to 20)
#    0.000    2.250    2.500    3.375    0.000    1.500 
#   11.250    0.000    0.000    6.000    0.000    0.000 
#    0.000    0.000    0.000    0.000    0.000    0.000 
#
# Total GULP energy -198272.122724 kJ/mol
# GULP energy per Si atom -12392.007670 kJ/mol
# Density = 2.225656 g / cm^3
# Si number density = 22.307328 Si / 1000 Ang^3
#
#
#
# Elastic Constant Matrix: (Units=GPa)
#
#
# Indices 1 2 3 4 5 6 
#
# 1 84.6306 32.7932 24.2665 6.6408 11.5306 24.0096
# 2 32.7932 106.0673 21.3482 5.6480 7.1741 20.8844
# 3 24.2665 21.3482 94.7276 1.7139 15.3785 12.1778
# 4 6.6408 5.6480 1.7139 19.8555 5.9059 2.5201
# 5 11.5306 7.1741 15.3785 5.9059 7.0334 4.4516
# 6 24.0096 20.8844 12.1778 2.5201 4.4516 35.8963
#
#
#
# Elastic Compliance Matrix: (Units=1/GPa)
#
#
# Indices 1 2 3 4 5 6 
#
# 1 0.018293 -0.002668 0.001623 0.004243 -0.029390 -0.007888
# 2 -0.002668 0.011468 -0.001210 -0.001515 -0.000693 -0.004285
# 3 0.001623 -0.001210 0.019237 0.014674 -0.055111 -0.001104
# 4 0.004243 -0.001515 0.014674 0.079027 -0.104126 0.000430
# 5 -0.029390 -0.000693 -0.055111 -0.104126 0.401350 -0.003704
# 6 -0.007888 -0.004285 -0.001104 0.000430 -0.003704 0.036430
#
#
# Mechanical properties :
#
#
# Convention : Reuss Voigt Hill
#
# Bulk Modulus (GPa) = 22.47753 49.13792 35.80772
# Shear Modulus (GPa) = 8.54493 26.35820 17.45156
#
# Velocity S-wave (km/s) = 1.95930 3.44116 2.80004
# Velocity P-wave (km/s) = 3.90085 6.15340 5.15175
#
# Compressibility (1/GPa) = 0.04448888
#
# Stress axis : x y z
#
# Youngs Moduli (GPa) = 54.66519 87.20285 51.98365
#
# Poissons Ratio (x) = 0.23262 -0.08439
# Poissons Ratio (y) = 0.14582 0.06291
# Poissons Ratio (z) = -0.08875 0.10553
#
# Static dielectric constant tensor:
#      x y z
#    x 3.997470 0.077970 0.239790 
#    y 0.077970 4.179680 0.036280 
#    z 0.239790 0.036280 3.245850 
# 
# 
# High freq. dielectric constant tensor:
#      x y z
#    x 1.876450 0.017300 0.011180 
#    y 0.017300 1.866810 0.009840 
#    z 0.011180 0.009840 1.841430 
# 
# From -- ./inp_files/462291.got.cif
#   From: 2010.06.25/outbox.cif.g09.slc.cpg/sg2_232_cif.got.tgz:462291.got - 2010.06.27 13:26:56.
