data_PCOD8000054
_publ_section_title
;
Structure prediction by ZEFSAII (Michael W. Deem and Ramdas Pophale) SiO2 
 PCOD8000054
Probable space group: P 1
;
_chemical_formula_sum "Si O2"
_cell_formula_units_Z 8
_cell_length_a 6.632249
_cell_length_b 14.293453
_cell_length_c 5.277642
_cell_angle_alpha 128.577454
_cell_angle_beta 84.657440
_cell_angle_gamma 103.044746
_cell_volume 380.284720
_symmetry_space_group_name_H-M "P 1"
_symmetry_group_IT_number 1
_symmetry_cell_setting 'triclinic'
loop_
_space_group_symop_operation_xyz
x,y,z
loop_
_atom_site_type_symbol
_atom_site_label
_atom_site_fract_x
_atom_site_fract_y
_atom_site_fract_z
Si Si1 0.703800 0.915530 0.142680
Si Si2 0.344409 0.706838 0.724801
Si Si3 0.450730 0.106555 0.425708
Si Si4 0.076557 0.982761 0.543966
Si Si5 0.998316 0.783516 0.585595
Si Si6 0.437800 0.481861 0.534736
Si Si7 0.623006 0.584007 0.195140
Si Si8 0.340240 0.207712 0.099158
O O1 0.634188 0.034761 0.243359
O O2 0.501045 0.809272 0.044012
O O3 0.850874 0.869239 0.848745
O O4 0.834432 0.952612 0.447247
O O5 0.291465 0.581764 0.690468
O O6 0.466258 0.677334 0.406971
O O7 0.139661 0.751190 0.741329
O O8 0.229357 0.008584 0.323979
O O9 0.448359 0.189919 0.321506
O O10 0.491142 0.190366 0.816962
O O11 0.125466 0.105561 0.922502
O O12 0.130366 0.864874 0.485408
O O13 0.861026 0.658228 0.276533
O O14 0.595091 0.496150 0.299605
O O15 0.297401 0.344562 0.327536
O O16 0.572749 0.505754 0.814597
#
# Coordination Sequence:
#
# PCOD8000054 Si02
#       8
#     1   1   1   1   1   1   1   1
#     4  11  21  39  64  95 133 159 212 258 326 373
#     4   9  22  37  65  97 125 168 202 262 318 374
#     4  10  24  41  65  94 126 170 209 258 321 364
#     4  10  23  36  66  93 132 165 205 262 314 376
#     4  11  22  40  64  99 133 159 212 263 325 380
#     4  10  20  45  66  89 129 168 215 253 315 371
#     4   9  22  39  65  91 126 168 206 259 313 374
#     4  10  22  43  67  90 128 173 211 259 308 378
#
# _framework density 21.036871000000001
#
# number of rings (size 3 to 8) (size 9 to 14) (size 15 to 20)
#    1.500    0.500    0.000    3.750    1.750    3.000 
#    0.000    2.500    0.000    0.000    0.000    0.000 
#    0.000    0.000    0.000    0.000    0.000    0.000 
#
# Total GULP energy -99108.928963 kJ/mol
# GULP energy per Si atom -12388.616120 kJ/mol
# Density = 2.098899 g / cm^3
# Si number density = 21.036871 Si / 1000 Ang^3
#
#
#
# Elastic Constant Matrix: (Units=GPa)
#
#
# Indices 1 2 3 4 5 6 
#
# 1 75.4994 37.0232 32.5179 3.1816 16.3438 -14.5499
# 2 37.0232 144.2736 60.7893 -2.0314 16.3920 -8.3891
# 3 32.5179 60.7893 97.5785 -12.6609 22.7449 -2.6199
# 4 3.1816 -2.0314 -12.6609 37.8996 5.0154 0.2419
# 5 16.3438 16.3920 22.7449 5.0154 30.3827 2.9669
# 6 -14.5499 -8.3891 -2.6199 0.2419 2.9669 27.3466
#
#
#
# Elastic Compliance Matrix: (Units=1/GPa)
#
#
# Indices 1 2 3 4 5 6 
#
# 1 0.019400 -0.002149 -0.003379 -0.001956 -0.007417 0.010161
# 2 -0.002149 0.009886 -0.005569 -0.001166 0.000051 0.001361
# 3 -0.003379 -0.005569 0.018066 0.007327 -0.009837 -0.000773
# 4 -0.001956 -0.001166 0.007327 0.030096 -0.008771 -0.000011
# 5 -0.007417 0.000051 -0.009837 -0.008771 0.046650 -0.009856
# 6 0.010161 0.001361 -0.000773 -0.000011 -0.009856 0.043387
#
#
# Mechanical properties :
#
#
# Convention : Reuss Voigt Hill
#
# Bulk Modulus (GPa) = 39.74683 64.22359 51.98521
# Shear Modulus (GPa) = 25.24417 31.59385 28.41901
#
# Velocity S-wave (km/s) = 3.46785 3.87955 3.67947
# Velocity P-wave (km/s) = 5.91351 7.11781 6.54343
#
# Compressibility (1/GPa) = 0.02515924
#
# Stress axis : x y z
#
# Youngs Moduli (GPa) = 51.54578 101.15001 55.35107
#
# Poissons Ratio (x) = 0.21737 0.18700
# Poissons Ratio (y) = 0.11077 0.30827
# Poissons Ratio (z) = 0.17415 0.56335
#
# Static dielectric constant tensor:
#      x y z
#    x 3.419780 0.043280 0.176300 
#    y 0.043280 3.654070 0.028430 
#    z 0.176300 0.028430 3.691440 
# 
# 
# High freq. dielectric constant tensor:
#      x y z
#    x 1.783890 0.000840 0.014730 
#    y 0.000840 1.822550 -0.004310 
#    z 0.014730 -0.004310 1.824780 
# 
# From -- ./inp_files/713.got.cif
#   From: 2010.03.12/outbox.cif.g09.slc.cpg/sg1_1_cif.got.tgz:713.got - 2010.03.29 11:57:58.
