data_PCOD8000676
_publ_section_title
;
Structure prediction by ZEFSAII (Michael W. Deem and Ramdas Pophale) SiO2 
 PCOD8000676
Probable space group: P -1
;
_chemical_formula_sum "Si O2"
_cell_formula_units_Z 14
_cell_length_a 14.275278
_cell_length_b 19.541358
_cell_length_c 8.211491
_cell_angle_alpha 33.462932
_cell_angle_beta 141.034258
_cell_angle_gamma 148.017827
_cell_volume 649.541957
_symmetry_space_group_name_H-M "P -1"
_symmetry_group_IT_number 2
_symmetry_cell_setting 'triclinic'
loop_
_space_group_symop_operation_xyz
x,y,z
-x,-y,-z
loop_
_atom_site_type_symbol
_atom_site_label
_atom_site_fract_x
_atom_site_fract_y
_atom_site_fract_z
Si Si1 0.011186 0.877187 0.357069
Si Si2 0.292013 0.705229 0.462416
Si Si3 0.921597 0.622067 0.195601
Si Si4 0.590464 0.013377 0.271395
Si Si5 0.099385 0.430666 0.351485
Si Si6 0.840050 0.839187 0.536300
Si Si7 0.562503 0.266960 0.751699
O O1 0.953230 0.729145 0.469708
O O2 0.872396 0.818818 0.434191
O O3 0.216166 0.960802 0.533817
O O4 0.000000 0.000000 0.000000
O O5 0.212288 0.539346 0.759794
O O6 0.447144 0.850335 0.491459
O O7 0.391553 0.716307 0.409149
O O8 0.118113 0.714712 0.186462
O O9 0.948043 0.591528 0.477623
O O10 0.831892 0.713162 0.886698
O O11 0.500000 0.000000 0.000000
O O12 0.610478 0.153350 0.117909
O O13 0.314194 0.562907 0.345595
O O14 0.000000 0.500000 0.000000
O O15 0.648897 0.814881 0.340497
O O16 0.000000 0.000000 0.500000
#
# Coordination Sequence:
#
# PCOD8000676 Si02
#       7
#     2   2   2   2   2   2   2
#     4  12  27  45  68  99 141 177 218 287 349 392
#     4   9  19  36  65  97 122 164 234 270 316 388
#     4  10  22  39  67  97 127 176 223 275 333 398
#     4  10  19  39  67  92 126 175 226 267 323 399
#     4  11  24  44  66  95 143 176 222 275 337 401
#     4  12  24  42  69  98 136 172 226 280 337 401
#     4  10  21  39  67  97 129 178 219 274 332 399
#
# _framework density 21.553649
#
# number of rings (size 3 to 8) (size 9 to 14) (size 15 to 20)
#    0.000    1.429    1.429    5.143    4.000    4.000 
#    2.571    1.429    0.000    0.000    0.000    0.000 
#    0.000    0.000    0.000    0.000    0.000    0.000 
#
# Total GULP energy -173466.862218 kJ/mol
# GULP energy per Si atom -12390.490158 kJ/mol
# Density = 2.150459 g / cm^3
# Si number density = 21.553649 Si / 1000 Ang^3
#
#
#
# Elastic Constant Matrix: (Units=GPa)
#
#
# Indices 1 2 3 4 5 6 
#
# 1 92.8454 41.1343 40.4423 4.6088 17.3838 19.6461
# 2 41.1343 168.5923 46.3589 -19.5760 15.4003 15.3824
# 3 40.4423 46.3589 138.7877 -9.7779 12.3895 2.7182
# 4 4.6088 -19.5760 -9.7779 40.6598 1.2200 14.8617
# 5 17.3838 15.4003 12.3895 1.2200 32.9008 5.4812
# 6 19.6461 15.3824 2.7182 14.8617 5.4812 39.2464
#
#
#
# Elastic Compliance Matrix: (Units=1/GPa)
#
#
# Indices 1 2 3 4 5 6 
#
# 1 0.015243 -0.002026 -0.003319 -0.001381 -0.004905 -0.005398
# 2 -0.002026 0.007906 -0.001474 0.005074 -0.001651 -0.003673
# 3 -0.003319 -0.001474 0.008838 0.001362 -0.001147 0.001271
# 4 -0.001381 0.005074 0.001362 0.032506 -0.001107 -0.013546
# 5 -0.004905 -0.001651 -0.001147 -0.001107 0.034433 -0.001208
# 6 -0.005398 -0.003673 0.001271 -0.013546 -0.001208 0.034832
#
#
# Mechanical properties :
#
#
# Convention : Reuss Voigt Hill
#
# Bulk Modulus (GPa) = 54.49526 72.89959 63.69742
# Shear Modulus (GPa) = 32.57055 40.71406 36.64230
#
# Velocity S-wave (km/s) = 3.89155 4.35094 4.12764
# Velocity P-wave (km/s) = 6.74764 7.69004 7.23420
#
# Compressibility (1/GPa) = 0.01835022
#
# Stress axis : x y z
#
# Youngs Moduli (GPa) = 65.60306 126.48265 113.14814
#
# Poissons Ratio (x) = 0.25630 0.37550
# Poissons Ratio (y) = 0.13293 0.16673
# Poissons Ratio (z) = 0.21771 0.18638
#
# Static dielectric constant tensor:
#      x y z
#    x 3.772420 0.127360 0.149840 
#    y 0.127360 5.263510 -0.624390 
#    z 0.149840 -0.624390 3.974310 
# 
# 
# High freq. dielectric constant tensor:
#      x y z
#    x 1.830340 0.011630 0.019300 
#    y 0.011630 1.873820 -0.025590 
#    z 0.019300 -0.025590 1.834560 
# 
# From -- ./inp_files/319198.got.cif
#   From: 2010.06.25/outbox.cif.g09.slc.cpg/sg2_160_cif.got.tgz:319198.got - 2010.06.27 13:26:56.
