data_PCOD8000591
_publ_section_title
;
Structure prediction by ZEFSAII (Michael W. Deem and Ramdas Pophale) SiO2 
 PCOD8000591
Probable space group: P -1
;
_chemical_formula_sum "Si O2"
_cell_formula_units_Z 16
_cell_length_a 8.359809
_cell_length_b 8.772406
_cell_length_c 22.209415
_cell_angle_alpha 47.592824
_cell_angle_beta 57.901878
_cell_angle_gamma 92.936406
_cell_volume 769.995615
_symmetry_space_group_name_H-M "P -1"
_symmetry_group_IT_number 2
_symmetry_cell_setting 'triclinic'
loop_
_space_group_symop_operation_xyz
x,y,z
-x,-y,-z
loop_
_atom_site_type_symbol
_atom_site_label
_atom_site_fract_x
_atom_site_fract_y
_atom_site_fract_z
Si Si1 0.633491 0.419583 0.266555
Si Si2 0.806223 0.618774 0.052528
Si Si3 0.361704 0.614167 0.288081
Si Si4 0.441195 0.219880 0.582527
Si Si5 0.437165 0.723353 0.103638
Si Si6 0.183538 0.837122 0.507597
Si Si7 0.669742 0.071966 0.191347
Si Si8 0.896086 0.233126 0.320398
O O1 0.825318 0.604631 0.124798
O O2 0.553400 0.567207 0.278904
O O3 0.752887 0.347409 0.308838
O O4 0.379703 0.144287 0.359754
O O5 0.652596 0.717335 0.042477
O O6 0.677216 0.324623 0.127758
O O7 0.082185 0.841963 0.912096
O O8 0.390736 0.696095 0.191250
O O9 0.075316 0.340191 0.430183
O O10 0.432941 0.853054 0.254192
O O11 0.500000 0.500000 0.500000
O O12 0.697598 0.304080 0.484707
O O13 0.360600 0.061016 0.703608
O O14 0.213572 0.017990 0.635496
O O15 0.188537 0.473906 0.184722
O O16 0.500000 0.000000 0.000000
O O17 0.146070 0.869807 0.575924
#
# Coordination Sequence:
#
# PCOD8000591 Si02
#       8
#     2   2   2   2   2   2   2   2
#     4  10  19  39  65  88 119 164 210 255 308 372
#     4  10  23  43  63  89 130 168 209 256 315 379
#     4  10  24  36  63  94 121 161 209 260 315 365
#     4  11  24  40  63  95 128 170 210 253 318 381
#     4  10  24  41  65  95 122 164 218 268 312 369
#     4  10  21  41  58  92 126 158 210 258 312 367
#     4  11  24  41  63  93 130 171 210 251 319 383
#     4  10  22  40  65  90 126 162 211 264 318 366
#
# _framework density 20.779339
#
# number of rings (size 3 to 8) (size 9 to 14) (size 15 to 20)
#    0.000    1.750    2.500    1.875    7.000    3.500 
#    0.000    1.250    0.000    0.000    0.000    0.000 
#    0.000    0.000    0.000    0.000    0.000    0.000 
#
# Total GULP energy -198398.533745 kJ/mol
# GULP energy per Si atom -12399.908359 kJ/mol
# Density = 2.073204 g / cm^3
# Si number density = 20.779339 Si / 1000 Ang^3
#
#
#
# Elastic Constant Matrix: (Units=GPa)
#
#
# Indices 1 2 3 4 5 6 
#
# 1 68.9439 36.1811 31.0740 -11.8484 -4.2203 -1.3565
# 2 36.1811 105.5584 36.1563 -13.2946 -3.6633 5.5174
# 3 31.0740 36.1563 97.7853 -0.9467 -4.3653 2.9564
# 4 -11.8484 -13.2946 -0.9467 27.8007 -8.6271 -0.2155
# 5 -4.2203 -3.6633 -4.3653 -8.6271 27.8723 -9.4598
# 6 -1.3565 5.5174 2.9564 -0.2155 -9.4598 39.5722
#
#
#
# Elastic Compliance Matrix: (Units=1/GPa)
#
#
# Indices 1 2 3 4 5 6 
#
# 1 0.020775 -0.004427 -0.004735 0.008278 0.005410 0.003021
# 2 -0.004427 0.012769 -0.003165 0.004560 0.001476 -0.001318
# 3 -0.004735 -0.003165 0.012877 -0.003217 -0.000381 -0.000792
# 4 0.008278 0.004560 -0.003217 0.046987 0.017349 0.004291
# 5 0.005410 0.001476 -0.000381 0.017349 0.045966 0.011091
# 6 0.003021 -0.001318 -0.000792 0.004291 0.011091 0.028291
#
#
# Mechanical properties :
#
#
# Convention : Reuss Voigt Hill
#
# Bulk Modulus (GPa) = 45.93735 53.23448 49.58592
# Shear Modulus (GPa) = 25.05346 30.30745 27.68046
#
# Velocity S-wave (km/s) = 3.47607 3.82322 3.65377
# Velocity P-wave (km/s) = 6.18595 6.72041 6.45871
#
# Compressibility (1/GPa) = 0.02176878
#
# Stress axis : x y z
#
# Youngs Moduli (GPa) = 48.13506 78.31383 77.65727
#
# Poissons Ratio (x) = 0.34666 0.36769
# Poissons Ratio (y) = 0.21307 0.24577
# Poissons Ratio (z) = 0.22791 0.24785
#
# Static dielectric constant tensor:
#      x y z
#    x 3.757220 -0.115610 -0.183000 
#    y -0.115610 3.828000 -0.047860 
#    z -0.183000 -0.047860 3.931320 
# 
# 
# High freq. dielectric constant tensor:
#      x y z
#    x 1.803630 -0.006130 -0.004990 
#    y -0.006130 1.813380 -0.005780 
#    z -0.004990 -0.005780 1.822690 
# 
# From -- ./inp_files/175119.got.cif
#   From: 2010.06.25/outbox.cif.g09.slc.cpg/sg2_88_cif.got.tgz:175119.got - 2010.06.27 13:26:56.
