data_PCOD8000653
_publ_section_title
;
Structure prediction by ZEFSAII (Michael W. Deem and Ramdas Pophale) SiO2 
 PCOD8000653
Probable space group: P -1
;
_chemical_formula_sum "Si O2"
_cell_formula_units_Z 16
_cell_length_a 10.928416
_cell_length_b 8.641199
_cell_length_c 15.138565
_cell_angle_alpha 39.980829
_cell_angle_beta 122.342661
_cell_angle_gamma 102.883689
_cell_volume 728.583471
_symmetry_space_group_name_H-M "P -1"
_symmetry_group_IT_number 2
_symmetry_cell_setting 'triclinic'
loop_
_space_group_symop_operation_xyz
x,y,z
-x,-y,-z
loop_
_atom_site_type_symbol
_atom_site_label
_atom_site_fract_x
_atom_site_fract_y
_atom_site_fract_z
Si Si1 0.479858 0.747329 0.265722
Si Si2 0.551466 0.901196 0.659866
Si Si3 0.947872 0.050101 0.059678
Si Si4 0.837180 0.994648 0.685462
Si Si5 0.748663 0.743141 0.072851
Si Si6 0.961540 0.551112 0.799201
Si Si7 0.382545 0.545958 0.715963
Si Si8 0.674056 0.610543 0.556124
O O1 0.517829 0.692330 0.201242
O O2 0.642758 0.602445 0.442674
O O3 0.348975 0.629549 0.297252
O O4 0.408082 0.057097 0.118242
O O5 0.503175 0.652135 0.767331
O O6 0.500000 0.000000 0.500000
O O7 0.734745 0.845881 0.759598
O O8 0.464899 0.128631 0.591914
O O9 0.813411 0.931982 0.073155
O O10 0.908353 0.354936 0.925788
O O11 0.075776 0.911011 0.244027
O O12 0.000000 0.000000 0.000000
O O13 0.734949 0.238216 0.484502
O O14 0.952649 0.796403 0.747441
O O15 0.714323 0.540365 0.211150
O O16 0.866266 0.580290 0.114787
O O17 0.840265 0.628668 0.635806
#
# Coordination Sequence:
#
# PCOD8000653 Si02
#       8
#     2   2   2   2   2   2   2   2
#     4  11  23  39  66  95 126 164 218 268 317 373
#     4  10  19  39  66  93 120 155 219 264 304 364
#     4  10  24  39  63  95 131 161 207 266 322 373
#     4  11  22  41  69  97 118 171 218 267 313 373
#     4  11  26  41  61  95 140 171 198 266 325 384
#     4  11  22  42  63  94 129 163 216 266 316 375
#     4  11  23  43  66  91 130 172 216 258 319 383
#     4  11  21  38  69  96 117 167 223 269 307 367
#
# _framework density 21.960421
#
# number of rings (size 3 to 8) (size 9 to 14) (size 15 to 20)
#    0.000    1.250    6.250    0.750    7.000    1.000 
#    0.000    0.625    0.000    0.000    0.000    0.000 
#    0.000    0.000    0.000    0.000    0.000    0.000 
#
# Total GULP energy -198292.122568 kJ/mol
# GULP energy per Si atom -12393.257660 kJ/mol
# Density = 2.191044 g / cm^3
# Si number density = 21.960421 Si / 1000 Ang^3
#
#
#
# Elastic Constant Matrix: (Units=GPa)
#
#
# Indices 1 2 3 4 5 6 
#
# 1 89.9405 24.7659 40.5781 -15.4304 -11.2124 1.6225
# 2 24.7659 62.1457 25.3286 -7.1884 -6.8667 -1.0825
# 3 40.5781 25.3286 86.2800 -3.7314 0.0983 0.6073
# 4 -15.4304 -7.1884 -3.7314 31.4057 -2.3026 11.4478
# 5 -11.2124 -6.8667 0.0983 -2.3026 31.0449 -12.8803
# 6 1.6225 -1.0825 0.6073 11.4478 -12.8803 33.3563
#
#
#
# Elastic Compliance Matrix: (Units=1/GPa)
#
#
# Indices 1 2 3 4 5 6 
#
# 1 0.016996 -0.002433 -0.006937 0.007853 0.005672 -0.001285
# 2 -0.002433 0.019717 -0.004553 0.002486 0.004377 0.001678
# 3 -0.006937 -0.004553 0.016090 -0.002544 -0.004088 -0.000809
# 4 0.007853 0.002486 -0.002544 0.041172 0.000571 -0.014165
# 5 0.005672 0.004377 -0.004088 0.000571 0.041888 0.015919
# 6 -0.001285 0.001678 -0.000809 -0.014165 0.015919 0.041119
#
#
# Mechanical properties :
#
#
# Convention : Reuss Voigt Hill
#
# Bulk Modulus (GPa) = 40.07015 46.63461 43.35238
# Shear Modulus (GPa) = 23.45811 29.00762 26.23287
#
# Velocity S-wave (km/s) = 3.27188 3.63837 3.45998
# Velocity P-wave (km/s) = 5.70611 6.23956 5.97879
#
# Compressibility (1/GPa) = 0.02495624
#
# Stress axis : x y z
#
# Youngs Moduli (GPa) = 58.83885 50.71758 62.15228
#
# Poissons Ratio (x) = 0.12340 0.43113
# Poissons Ratio (y) = 0.14316 0.28299
# Poissons Ratio (z) = 0.40814 0.23093
#
# Static dielectric constant tensor:
#      x y z
#    x 3.837730 0.328340 0.213530 
#    y 0.328340 4.228200 -0.035340 
#    z 0.213530 -0.035340 3.901310 
# 
# 
# High freq. dielectric constant tensor:
#      x y z
#    x 1.829870 -0.006920 0.021580 
#    y -0.006920 1.871680 0.000240 
#    z 0.021580 0.000240 1.858010 
# 
# From -- ./inp_files/514933.got.cif
#   From: 2010.06.25/outbox.cif.g09.slc.cpg/sg2_258_cif.got.tgz:514933.got - 2010.06.27 13:26:56.
