data_PCOD8000537
_publ_section_title
;
Structure prediction by ZEFSAII (Michael W. Deem and Ramdas Pophale) SiO2 
 PCOD8000537
Probable space group: P -1
;
_chemical_formula_sum "Si O2"
_cell_formula_units_Z 16
_cell_length_a 10.115926
_cell_length_b 15.647313
_cell_length_c 15.919938
_cell_angle_alpha 18.031805
_cell_angle_beta 102.295393
_cell_angle_gamma 100.833831
_cell_volume 761.256460
_symmetry_space_group_name_H-M "P -1"
_symmetry_group_IT_number 2
_symmetry_cell_setting 'triclinic'
loop_
_space_group_symop_operation_xyz
x,y,z
-x,-y,-z
loop_
_atom_site_type_symbol
_atom_site_label
_atom_site_fract_x
_atom_site_fract_y
_atom_site_fract_z
Si Si1 0.601008 0.589502 0.000716
Si Si2 0.482454 0.837231 0.917644
Si Si3 0.684546 0.607188 0.611033
Si Si4 0.283298 0.163577 0.916501
Si Si5 0.904306 0.892551 0.913081
Si Si6 0.657367 0.421667 0.597357
Si Si7 0.022068 0.289687 0.448381
Si Si8 0.233718 0.937093 0.419965
O O1 0.520893 0.778326 0.881666
O O2 0.712384 0.784487 0.789784
O O3 0.500000 0.500000 0.000000
O O4 0.666240 0.321915 0.305060
O O5 0.433458 0.156081 0.621358
O O6 0.358013 0.648828 0.099896
O O7 0.602562 0.771476 0.060925
O O8 0.717412 0.507655 0.613956
O O9 0.827078 0.713489 0.565774
O O10 0.264203 0.429929 0.605432
O O11 0.140443 0.115674 0.988284
O O12 0.323392 0.906006 0.103660
O O13 0.017414 0.117004 0.697965
O O14 0.768964 0.990174 0.749123
O O15 0.961304 0.596154 0.167706
O O16 0.500000 0.500000 0.500000
O O17 0.922615 0.136093 0.511609
#
# Coordination Sequence:
#
# PCOD8000537 Si02
#       8
#     2   2   2   2   2   2   2   2
#     4  12  24  39  66 101 121 140 189 255 312 351
#     4  12  22  38  62  87 122 156 194 244 303 367
#     4  12  25  38  61  87 122 164 207 238 290 356
#     4  12  21  37  61  85 120 156 208 243 308 348
#     4  10  20  37  64  83 112 159 212 239 283 349
#     4  12  23  37  53  90 125 160 193 258 294 346
#     4  10  20  40  60  84 116 163 216 230 285 357
#     4  10  19  39  64  85 118 159 190 235 301 354
#
# _framework density 21.017883999999999
#
# number of rings (size 3 to 8) (size 9 to 14) (size 15 to 20)
#    0.750    0.000    5.000    3.750    1.750    0.000 
#    0.000    3.750    0.000    4.500    0.000    0.000 
#    0.000    0.000    0.000    0.000    0.000    0.000 
#
# Total GULP energy -198309.770264 kJ/mol
# GULP energy per Si atom -12394.360642 kJ/mol
# Density = 2.097005 g / cm^3
# Si number density = 21.017884 Si / 1000 Ang^3
#
#
#
# Elastic Constant Matrix: (Units=GPa)
#
#
# Indices 1 2 3 4 5 6 
#
# 1 51.0535 17.1476 13.5996 -2.3611 -12.0829 12.3143
# 2 17.1476 83.9870 12.6926 -11.1229 -1.6642 9.5343
# 3 13.5996 12.6926 110.4580 -11.7635 -9.2198 1.9579
# 4 -2.3611 -11.1229 -11.7635 23.4368 4.4711 -4.2364
# 5 -12.0829 -1.6642 -9.2198 4.4711 25.0888 -4.7343
# 6 12.3143 9.5343 1.9579 -4.2364 -4.7343 22.4131
#
#
#
# Elastic Compliance Matrix: (Units=1/GPa)
#
#
# Indices 1 2 3 4 5 6 
#
# 1 0.026542 -0.004191 -0.002193 -0.004428 0.010364 -0.011256
# 2 -0.004191 0.013929 -0.000652 0.005869 -0.002962 -0.003082
# 3 -0.002193 -0.000652 0.010016 0.004430 0.002150 0.001899
# 4 -0.004428 0.005869 0.004430 0.050023 -0.007635 0.007391
# 5 0.010364 -0.002962 0.002150 -0.007635 0.047555 0.003980
# 6 -0.011256 -0.003082 0.001899 0.007391 0.003980 0.054184
#
#
# Mechanical properties :
#
#
# Convention : Reuss Voigt Hill
#
# Bulk Modulus (GPa) = 27.46136 36.93088 32.19612
# Shear Modulus (GPa) = 21.88560 27.65831 24.77196
#
# Velocity S-wave (km/s) = 3.23039 3.63153 3.43682
# Velocity P-wave (km/s) = 5.19692 5.93239 5.57680
#
# Compressibility (1/GPa) = 0.03641480
#
# Stress axis : x y z
#
# Youngs Moduli (GPa) = 37.67573 71.79118 99.84271
#
# Poissons Ratio (x) = 0.30087 0.21898
# Poissons Ratio (y) = 0.15789 0.06511
# Poissons Ratio (z) = 0.08263 0.04682
#
# Static dielectric constant tensor:
#      x y z
#    x 3.767370 0.232500 -0.271270 
#    y 0.232500 3.569280 -0.089020 
#    z -0.271270 -0.089020 4.106490 
# 
# 
# High freq. dielectric constant tensor:
#      x y z
#    x 1.813030 0.018110 -0.013280 
#    y 0.018110 1.781660 -0.013110 
#    z -0.013280 -0.013110 1.849650 
# 
# From -- ./inp_files/522082.got.cif
#   From: 2010.06.25/outbox.cif.g09.slc.cpg/sg2_262_cif.got.tgz:522082.got - 2010.06.27 13:26:56.
