data_PCOD8000113
_publ_section_title
;
Structure prediction by ZEFSAII (Michael W. Deem and Ramdas Pophale) SiO2 
 PCOD8000113
Probable space group: P 1
;
_chemical_formula_sum "Si O2"
_cell_formula_units_Z 8
_cell_length_a 7.555569
_cell_length_b 7.555568
_cell_length_c 8.840449
_cell_angle_alpha 76.251010
_cell_angle_beta 76.251017
_cell_angle_gamma 103.370735
_cell_volume 453.481662
_symmetry_space_group_name_H-M "P 1"
_symmetry_group_IT_number 1
_symmetry_cell_setting 'triclinic'
loop_
_space_group_symop_operation_xyz
x,y,z
loop_
_atom_site_type_symbol
_atom_site_label
_atom_site_fract_x
_atom_site_fract_y
_atom_site_fract_z
Si Si1 0.681640 0.000000 0.936020
Si Si2 0.148031 0.466391 0.854403
Si Si3 0.738674 0.409357 0.395212
Si Si4 0.894111 0.818789 0.136623
Si Si5 0.329242 0.253920 0.653800
Si Si6 0.833936 0.185555 0.156286
Si Si7 0.284686 0.863345 0.895212
Si Si8 0.962476 0.314095 0.634137
O O1 0.791031 0.121822 0.746538
O O2 0.466561 0.888937 0.959557
O O3 0.690551 0.142164 0.049036
O O4 0.789165 0.845882 0.995418
O O5 0.302149 0.358867 0.795005
O O6 0.259093 0.681471 0.830866
O O7 0.005866 0.457479 0.741387
O O8 0.026208 0.357000 0.043885
O O9 0.783884 0.615828 0.270069
O O10 0.532203 0.364147 0.520355
O O11 0.731400 0.244859 0.307796
O O12 0.903172 0.416630 0.482627
O O13 0.890038 0.990510 0.218415
O O14 0.110252 0.833913 0.051251
O O15 0.157521 0.257993 0.572009
O O16 0.314119 0.037779 0.739173
#
# Coordination Sequence:
#
# PCOD8000113 Si02
#       8
#     1   1   1   1   1   1   1   1
#     4   9  20  41  63  87 117 158 213 233 279 386
#     4   9  20  41  63  87 117 158 213 233 279 386
#     4  12  22  40  64  88 128 158 182 266 316 314
#     4  10  22  40  60  92 123 150 206 250 287 362
#     4  10  22  40  60  92 123 150 206 250 287 362
#     4   9  20  43  59  88 124 151 205 248 283 369
#     4  12  18  40  68  84 118 168 194 246 300 344
#     4   9  20  43  59  88 124 151 205 248 283 369
#
# _framework density 17.641285
#
# number of rings (size 3 to 8) (size 9 to 14) (size 15 to 20)
#    1.500    0.500    5.000    0.000    0.000    2.000 
#    9.000    0.000    0.000    0.000    0.000    0.000 
#    0.000    0.000    0.000    0.000    0.000    0.000 
#
# Total GULP energy -99131.534354 kJ/mol
# GULP energy per Si atom -12391.441794 kJ/mol
# Density = 1.760113 g / cm^3
# Si number density = 17.641285 Si / 1000 Ang^3
#
#
#
# Elastic Constant Matrix: (Units=GPa)
#
#
# Indices 1 2 3 4 5 6 
#
# 1 108.6263 42.8381 28.8477 -0.7608 -8.5076 13.8626
# 2 42.8381 123.2865 33.0875 -8.9666 -0.1612 2.5330
# 3 28.8477 33.0875 60.1010 -7.5012 -6.1026 6.2718
# 4 -0.7608 -8.9666 -7.5012 28.3172 2.5367 -1.8504
# 5 -8.5076 -0.1612 -6.1026 2.5367 26.3747 -4.2344
# 6 13.8626 2.5330 6.2718 -1.8504 -4.2344 23.3560
#
#
#
# Elastic Compliance Matrix: (Units=1/GPa)
#
#
# Indices 1 2 3 4 5 6 
#
# 1 0.012395 -0.003410 -0.003503 -0.002273 0.002457 -0.005781
# 2 -0.003410 0.010580 -0.004279 0.002422 -0.001959 0.001862
# 3 -0.003503 -0.004279 0.021727 0.003870 0.003110 -0.002421
# 4 -0.002273 0.002422 0.003870 0.037478 -0.003032 0.002467
# 5 0.002457 -0.001959 0.003110 -0.003032 0.040514 0.005024
# 6 -0.005781 0.001862 -0.002421 0.002467 0.005024 0.047801
#
#
# Mechanical properties :
#
#
# Convention : Reuss Voigt Hill
#
# Bulk Modulus (GPa) = 44.80601 55.72894 50.26748
# Shear Modulus (GPa) = 24.96033 28.09227 26.52630
#
# Velocity S-wave (km/s) = 3.76557 3.99484 3.88190
# Velocity P-wave (km/s) = 6.66030 7.27578 6.97483
#
# Compressibility (1/GPa) = 0.02231843
#
# Stress axis : x y z
#
# Youngs Moduli (GPa) = 80.67564 94.52027 46.02565
#
# Poissons Ratio (x) = 0.32233 0.16123
# Poissons Ratio (y) = 0.27511 0.19693
# Poissons Ratio (z) = 0.28261 0.40442
#
# Static dielectric constant tensor:
#      x y z
#    x 3.197390 0.010130 -0.083470 
#    y 0.010130 3.219870 -0.111850 
#    z -0.083470 -0.111850 3.114010 
# 
# 
# High freq. dielectric constant tensor:
#      x y z
#    x 1.676710 -0.000680 -0.008720 
#    y -0.000680 1.677810 -0.011740 
#    z -0.008720 -0.011740 1.669750 
# 
# From -- ./inp_files/3608.got.cif
#   From: 2010.03.12/outbox.cif.g09.slc.cpg/sg1_2_cif.got.tgz:3608.got - 2010.03.29 11:57:58.
