data_PCOD8000821
_publ_section_title
;
Structure prediction by ZEFSAII (Michael W. Deem and Ramdas Pophale) SiO2 
 PCOD8000821
Probable space group: P -1
;
_chemical_formula_sum "Si O2"
_cell_formula_units_Z 16
_cell_length_a 12.736254
_cell_length_b 7.887938
_cell_length_c 13.602574
_cell_angle_alpha 147.828908
_cell_angle_beta 81.945528
_cell_angle_gamma 99.850109
_cell_volume 716.865092
_symmetry_space_group_name_H-M "P -1"
_symmetry_group_IT_number 2
_symmetry_cell_setting 'triclinic'
loop_
_space_group_symop_operation_xyz
x,y,z
-x,-y,-z
loop_
_atom_site_type_symbol
_atom_site_label
_atom_site_fract_x
_atom_site_fract_y
_atom_site_fract_z
Si Si1 0.487127 0.082528 0.686132
Si Si2 0.290853 0.107390 0.378951
Si Si3 0.858719 0.167728 0.898100
Si Si4 0.471338 0.466078 0.263791
Si Si5 0.248703 0.180242 0.085717
Si Si6 0.130867 0.789120 0.378011
Si Si7 0.958181 0.831722 0.267324
Si Si8 0.366684 0.809174 0.746697
O O1 0.611482 0.074911 0.687064
O O2 0.441997 0.777547 0.478638
O O3 0.421962 0.067254 0.789182
O O4 0.475539 0.410094 0.787277
O O5 0.327536 0.479381 0.534132
O O6 0.246007 0.926580 0.198781
O O7 0.200359 0.092619 0.468340
O O8 0.962433 0.044269 0.770526
O O9 0.841808 0.001261 0.923462
O O10 0.874613 0.550564 0.098298
O O11 0.362466 0.242233 0.154429
O O12 0.551016 0.262384 0.212854
O O13 0.203875 0.504102 0.218456
O O14 0.265810 0.962829 0.881284
O O15 0.023669 0.698175 0.284553
O O16 0.104257 0.879524 0.538815
#
# Coordination Sequence:
#
# PCOD8000821 Si02
#       8
#     2   2   2   2   2   2   2   2
#     4  10  20  39  63  88 127 173 211 252 306 361
#     4  10  19  40  62  87 125 166 204 254 308 365
#     4  10  21  39  65  89 120 154 206 258 314 384
#     4  10  21  39  60  92 128 169 208 259 304 356
#     4  12  23  38  59  95 122 161 212 253 298 375
#     4  10  21  40  65  85 125 156 205 258 314 375
#     4   9  21  43  63  90 113 162 197 258 335 367
#     4  11  23  38  61  93 132 172 205 253 305 359
#
# _framework density 22.319403000000001
#
# number of rings (size 3 to 8) (size 9 to 14) (size 15 to 20)
#    0.000    1.750    1.250    4.125    0.000    1.500 
#    4.500    5.000    0.000    0.000    0.000    0.000 
#    0.000    0.000    0.000    0.000    0.000    0.000 
#
# Total GULP energy -198393.569206 kJ/mol
# GULP energy per Si atom -12399.598075 kJ/mol
# Density = 2.226860 g / cm^3
# Si number density = 22.319403 Si / 1000 Ang^3
#
#
#
# Elastic Constant Matrix: (Units=GPa)
#
#
# Indices 1 2 3 4 5 6 
#
# 1 64.9788 29.8998 45.1421 0.8687 12.0639 6.2174
# 2 29.8998 155.2688 29.8134 -18.4042 -12.1977 16.7150
# 3 45.1421 29.8134 92.6035 -16.2765 -5.8761 2.4509
# 4 0.8687 -18.4042 -16.2765 30.4094 5.3915 -3.3417
# 5 12.0639 -12.1977 -5.8761 5.3915 38.8381 1.6600
# 6 6.2174 16.7150 2.4509 -3.3417 1.6600 24.3957
#
#
#
# Elastic Compliance Matrix: (Units=1/GPa)
#
#
# Indices 1 2 3 4 5 6 
#
# 1 0.031947 -0.004809 -0.016630 -0.010973 -0.012262 -0.003845
# 2 -0.004809 0.008528 0.000756 0.004546 0.003841 -0.004332
# 3 -0.016630 0.000756 0.021006 0.011246 0.006905 0.002681
# 4 -0.010973 0.004546 0.011246 0.042360 0.000473 0.004322
# 5 -0.012262 0.003841 0.006905 0.000473 0.031841 -0.002302
# 6 -0.003845 -0.004332 0.002681 0.004322 -0.002302 0.045418
#
#
# Mechanical properties :
#
#
# Convention : Reuss Voigt Hill
#
# Bulk Modulus (GPa) = 49.71317 58.06243 53.88780
# Shear Modulus (GPa) = 21.81773 32.59501 27.20637
#
# Velocity S-wave (km/s) = 3.12993 3.82565 3.49514
# Velocity P-wave (km/s) = 5.94843 6.75166 6.36273
#
# Compressibility (1/GPa) = 0.02011539
#
# Stress axis : x y z
#
# Youngs Moduli (GPa) = 31.30200 117.25710 47.60512
#
# Poissons Ratio (x) = 0.56386 0.79168
# Poissons Ratio (y) = 0.15052 -0.03599
# Poissons Ratio (z) = 0.52056 -0.08864
#
# Static dielectric constant tensor:
#      x y z
#    x 3.859070 0.213890 0.142040 
#    y 0.213890 4.152710 -0.172760 
#    z 0.142040 -0.172760 3.985310 
# 
# 
# High freq. dielectric constant tensor:
#      x y z
#    x 1.863680 0.018380 0.013410 
#    y 0.018380 1.881060 -0.011660 
#    z 0.013410 -0.011660 1.876020 
# 
# From -- ./inp_files/328396.got.cif
#   From: 2010.06.25/outbox.cif.g09.slc.cpg/sg2_165_cif.got.tgz:328396.got - 2010.06.27 13:26:56.
