data_PCOD8000975
_publ_section_title
;
Structure prediction by ZEFSAII (Michael W. Deem and Ramdas Pophale) SiO2 
 PCOD8000975
Probable space group: P -1
;
_chemical_formula_sum "Si O2"
_cell_formula_units_Z 16
_cell_length_a 14.405479
_cell_length_b 23.905234
_cell_length_c 9.457016
_cell_angle_alpha 48.565896
_cell_angle_beta 135.573794
_cell_angle_gamma 160.508568
_cell_volume 759.721539
_symmetry_space_group_name_H-M "P -1"
_symmetry_group_IT_number 2
_symmetry_cell_setting 'triclinic'
loop_
_space_group_symop_operation_xyz
x,y,z
-x,-y,-z
loop_
_atom_site_type_symbol
_atom_site_label
_atom_site_fract_x
_atom_site_fract_y
_atom_site_fract_z
Si Si1 0.731266 0.266551 0.136158
Si Si2 0.197004 0.171736 0.452969
Si Si3 0.599170 0.021780 0.862553
Si Si4 0.453183 0.565286 0.833962
Si Si5 0.029379 0.723865 0.398569
Si Si6 0.055733 0.810899 0.761309
Si Si7 0.478139 0.423401 0.802815
Si Si8 0.608024 0.365963 0.830156
O O1 0.764184 0.222906 0.368828
O O2 0.047978 0.437251 0.119970
O O3 0.501892 0.116196 0.022381
O O4 0.591676 0.273714 0.029581
O O5 0.285882 0.257268 0.258852
O O6 0.490768 0.302971 0.646433
O O7 0.996282 0.127064 0.399901
O O8 0.000000 0.000000 0.500000
O O9 0.754908 0.116778 0.725454
O O10 0.294101 0.915639 0.722588
O O11 0.817896 0.151055 0.012605
O O12 0.150314 0.424055 0.652254
O O13 0.500000 0.500000 0.000000
O O14 0.444161 0.584265 0.956547
O O15 0.808504 0.667100 0.341836
O O16 0.749375 0.612595 0.731693
O O17 0.418700 0.329727 0.777345
#
# Coordination Sequence:
#
# PCOD8000975 Si02
#       8
#     2   2   2   2   2   2   2   2
#     4  11  23  42  61  92 140 172 210 265 347 390
#     4  12  24  44  68  96 133 178 223 271 332 399
#     4  11  23  38  64  98 132 167 215 282 324 389
#     4  10  19  40  67  97 124 168 221 272 320 383
#     4  11  21  40  69  92 129 174 222 267 331 392
#     4  11  21  39  67  97 127 168 227 271 323 387
#     4  11  21  42  73  97 124 171 233 275 311 396
#     4  11  25  41  66  96 132 175 216 274 331 390
#
# _framework density 21.060347
#
# number of rings (size 3 to 8) (size 9 to 14) (size 15 to 20)
#    0.000    1.000    6.250    1.875    1.750    1.000 
#    2.250    1.875    0.000    0.000    0.000    0.000 
#    0.000    0.000    0.000    0.000    0.000    0.000 
#
# Total GULP energy -198345.974515 kJ/mol
# GULP energy per Si atom -12396.623407 kJ/mol
# Density = 2.101241 g / cm^3
# Si number density = 21.060347 Si / 1000 Ang^3
#
#
#
# Elastic Constant Matrix: (Units=GPa)
#
#
# Indices 1 2 3 4 5 6 
#
# 1 103.7321 46.7484 32.0512 -12.8545 13.0274 -5.7617
# 2 46.7484 107.9438 25.8604 -19.6233 4.7378 -4.8234
# 3 32.0512 25.8604 70.2437 -7.2886 9.9383 -6.1175
# 4 -12.8545 -19.6233 -7.2886 26.9139 -4.9301 1.8084
# 5 13.0274 4.7378 9.9383 -4.9301 29.1177 1.6157
# 6 -5.7617 -4.8234 -6.1175 1.8084 1.6157 36.0032
#
#
#
# Elastic Compliance Matrix: (Units=1/GPa)
#
#
# Indices 1 2 3 4 5 6 
#
# 1 0.013539 -0.004498 -0.003739 0.001396 -0.003870 0.001032
# 2 -0.004498 0.012949 -0.002231 0.007013 0.001843 0.000201
# 3 -0.003739 -0.002231 0.017574 0.000462 -0.004009 0.002246
# 4 0.001396 0.007013 0.000462 0.044174 0.005624 -0.001230
# 5 -0.003870 0.001843 -0.004009 0.005624 0.038265 -0.003053
# 6 0.001032 0.000201 0.002246 -0.001230 -0.003053 0.028548
#
#
# Mechanical properties :
#
#
# Convention : Reuss Voigt Hill
#
# Bulk Modulus (GPa) = 43.23954 54.58218 48.91086
# Shear Modulus (GPa) = 27.21917 30.22426 28.72171
#
# Velocity S-wave (km/s) = 3.59895 3.79242 3.69695
# Velocity P-wave (km/s) = 6.15189 6.71936 6.44188
#
# Compressibility (1/GPa) = 0.02312698
#
# Stress axis : x y z
#
# Youngs Moduli (GPa) = 73.86052 77.22317 56.90138
#
# Poissons Ratio (x) = 0.34734 0.21278
# Poissons Ratio (y) = 0.33221 0.12692
# Poissons Ratio (z) = 0.27620 0.17225
#
# Static dielectric constant tensor:
#      x y z
#    x 3.888520 -0.091590 -0.098150 
#    y -0.091590 3.976280 0.240780 
#    z -0.098150 0.240780 3.984140 
# 
# 
# High freq. dielectric constant tensor:
#      x y z
#    x 1.807880 -0.003960 -0.003850 
#    y -0.003960 1.833610 0.012150 
#    z -0.003850 0.012150 1.821070 
# 
# From -- ./inp_files/320275.got.cif
#   From: 2010.06.25/outbox.cif.g09.slc.cpg/sg2_161_cif.got.tgz:320275.got - 2010.06.27 13:26:56.
