data_PCOD8000921
_publ_section_title
;
Structure prediction by ZEFSAII (Michael W. Deem and Ramdas Pophale) SiO2 
 PCOD8000921
Probable space group: P -1
;
_chemical_formula_sum "Si O2"
_cell_formula_units_Z 12
_cell_length_a 7.517118
_cell_length_b 9.508923
_cell_length_c 8.735980
_cell_angle_alpha 59.656634
_cell_angle_beta 77.665529
_cell_angle_gamma 111.217203
_cell_volume 437.144717
_symmetry_space_group_name_H-M "P -1"
_symmetry_group_IT_number 2
_symmetry_cell_setting 'triclinic'
loop_
_space_group_symop_operation_xyz
x,y,z
-x,-y,-z
loop_
_atom_site_type_symbol
_atom_site_label
_atom_site_fract_x
_atom_site_fract_y
_atom_site_fract_z
Si Si1 0.052814 0.267283 0.043572
Si Si2 0.665066 0.698987 0.774999
Si Si3 0.334623 0.834592 0.317185
Si Si4 0.231814 0.020908 0.992072
Si Si5 0.425082 0.555441 0.335801
Si Si6 0.697488 0.285671 0.272562
O O1 0.117346 0.187099 0.223174
O O2 0.985170 0.100243 0.014572
O O3 0.845739 0.273780 0.126245
O O4 0.230943 0.489855 0.830080
O O5 0.716622 0.633872 0.640930
O O6 0.549858 0.817821 0.698395
O O7 0.500000 0.500000 0.000000
O O8 0.263948 0.623271 0.375860
O O9 0.309286 0.821851 0.512038
O O10 0.189921 0.902720 0.223724
O O11 0.590937 0.987925 0.140979
O O12 0.345411 0.254699 0.886186
O O13 0.500000 0.500000 0.500000
#
# Coordination Sequence:
#
# PCOD8000921 Si02
#       6
#     2   2   2   2   2   2
#     4  10  23  39  63 101 132 159 223 273 310 385
#     4  10  21  39  64  91 127 171 209 259 326 382
#     4   9  20  37  64  92 130 170 213 258 328 382
#     4   9  21  39  64  96 130 165 217 276 309 382
#     4  10  19  40  66  89 128 173 213 260 320 391
#     4  10  21  39  64  96 127 181 206 259 334 388
#
# _framework density 27.450863999999999
#
# number of rings (size 3 to 8) (size 9 to 14) (size 15 to 20)
#    1.000    1.333    1.667    0.000    7.000    1.333 
#    0.000    8.333    0.000    2.000    0.000    1.167 
#    0.000    0.000    0.000    0.000    0.000    0.000 
#
# Total GULP energy -148723.751027 kJ/mol
# GULP energy per Si atom -12393.645919 kJ/mol
# Density = 2.738838 g / cm^3
# Si number density = 27.450864 Si / 1000 Ang^3
#
#
#
# Elastic Constant Matrix: (Units=GPa)
#
#
# Indices 1 2 3 4 5 6 
#
# 1 135.5979 65.2456 36.9709 3.3327 51.1576 17.2143
# 2 65.2456 123.7179 30.7613 -6.9896 30.3854 -2.9500
# 3 36.9709 30.7613 131.0507 -0.2611 53.4321 4.2343
# 4 3.3327 -6.9896 -0.2611 25.3168 2.8390 11.8392
# 5 51.1576 30.3854 53.4321 2.8390 55.4499 9.6364
# 6 17.2143 -2.9500 4.2343 11.8392 9.6364 30.4758
#
#
#
# Elastic Compliance Matrix: (Units=1/GPa)
#
#
# Indices 1 2 3 4 5 6 
#
# 1 0.014389 -0.005416 0.001996 0.000493 -0.011291 -0.005550
# 2 -0.005416 0.011714 -0.000724 0.002294 -0.001516 0.003882
# 3 0.001996 -0.000724 0.012995 0.000694 -0.014215 0.001222
# 4 0.000493 0.002294 0.000694 0.048987 -0.001645 -0.018663
# 5 -0.011291 -0.001516 -0.014215 -0.001645 0.043942 -0.005049
# 6 -0.005550 0.003882 0.001222 -0.018663 -0.005049 0.045001
#
#
# Mechanical properties :
#
#
# Convention : Reuss Voigt Hill
#
# Bulk Modulus (GPa) = 32.45752 72.92468 52.69110
# Shear Modulus (GPa) = 25.56424 39.40776 32.48600
#
# Velocity S-wave (km/s) = 3.05499 3.79301 3.44382
# Velocity P-wave (km/s) = 4.92884 6.76799 5.92027
#
# Compressibility (1/GPa) = 0.03080950
#
# Stress axis : x y z
#
# Youngs Moduli (GPa) = 69.49761 85.36914 76.95225
#
# Poissons Ratio (x) = 0.46236 -0.15360
# Poissons Ratio (y) = 0.37640 0.05573
# Poissons Ratio (z) = -0.13872 0.06183
#
# Static dielectric constant tensor:
#      x y z
#    x 5.408870 0.130860 0.288780 
#    y 0.130860 4.176350 -0.002940 
#    z 0.288780 -0.002940 4.753340 
# 
# 
# High freq. dielectric constant tensor:
#      x y z
#    x 2.114780 -0.022650 0.014520 
#    y -0.022650 2.125650 0.014270 
#    z 0.014520 0.014270 2.087050 
# 
# From -- ./inp_files/167069.got.cif
#   From: 2010.06.25/outbox.cif.g09.slc.cpg/sg2_84_cif.got.tgz:167069.got - 2010.06.27 13:26:56.
