data_PCOD8000440
_publ_section_title
;
Structure prediction by ZEFSAII (Michael W. Deem and Ramdas Pophale) SiO2 
 PCOD8000440
Probable space group: P -1
;
_chemical_formula_sum "Si O2"
_cell_formula_units_Z 16
_cell_length_a 9.612343
_cell_length_b 19.423552
_cell_length_c 11.990026
_cell_angle_alpha 38.957663
_cell_angle_beta 101.900028
_cell_angle_gamma 132.182107
_cell_volume 766.525928
_symmetry_space_group_name_H-M "P -1"
_symmetry_group_IT_number 2
_symmetry_cell_setting 'triclinic'
loop_
_space_group_symop_operation_xyz
x,y,z
-x,-y,-z
loop_
_atom_site_type_symbol
_atom_site_label
_atom_site_fract_x
_atom_site_fract_y
_atom_site_fract_z
Si Si1 0.514355 0.088660 0.159887
Si Si2 0.026228 0.412050 0.942065
Si Si3 0.646388 0.475328 0.339161
Si Si4 0.164460 0.892323 0.552635
Si Si5 0.129875 0.178831 0.930721
Si Si6 0.621494 0.841001 0.145605
Si Si7 0.827147 0.854821 0.458589
Si Si8 0.488330 0.150876 0.483843
O O1 0.263723 0.940394 0.382606
O O2 0.559716 0.987680 0.273863
O O3 0.480930 0.127568 0.988323
O O4 0.764697 0.298809 0.996816
O O5 0.143631 0.413258 0.860603
O O6 0.214340 0.628334 0.739693
O O7 0.974317 0.304405 0.177141
O O8 0.737549 0.628232 0.243935
O O9 0.592090 0.327747 0.584947
O O10 0.377558 0.339276 0.409040
O O11 0.950234 0.850255 0.573230
O O12 0.410620 0.075646 0.438748
O O13 0.327452 0.239752 0.809373
O O14 0.877309 0.050468 0.981984
O O15 0.061105 0.052591 0.177900
O O16 0.686045 0.862381 0.487679
#
# Coordination Sequence:
#
# PCOD8000440 Si02
#       8
#     2   2   2   2   2   2   2   2
#     4  11  23  41  59  88 122 159 196 242 294 357
#     4  10  23  41  59  87 124 154 198 245 291 358
#     4  10  22  39  61  89 120 153 196 250 297 346
#     4  11  22  39  63  87 121 156 203 244 290 348
#     4  10  19  39  62  87 121 154 191 253 297 341
#     4  10  22  38  60  89 120 154 200 241 295 356
#     4  10  21  39  62  92 118 153 202 245 292 353
#     4  10  22  39  61  86 124 160 193 241 300 347
#
# _framework density 20.873394999999999
#
# number of rings (size 3 to 8) (size 9 to 14) (size 15 to 20)
#    0.000    1.750    1.250    3.750    0.000    6.500 
#    2.250    8.750    0.000    0.000    0.000    0.000 
#    0.000    0.000    0.000    0.000    0.000    0.000 
#
# Total GULP energy -198419.630007 kJ/mol
# GULP energy per Si atom -12401.226875 kJ/mol
# Density = 2.082589 g / cm^3
# Si number density = 20.873395 Si / 1000 Ang^3
#
#
#
# Elastic Constant Matrix: (Units=GPa)
#
#
# Indices 1 2 3 4 5 6 
#
# 1 57.5193 18.9642 19.6727 -6.9131 11.9295 19.0571
# 2 18.9642 86.2647 47.6167 -11.3416 27.8156 18.8651
# 3 19.6727 47.6167 92.1765 -9.3546 -0.2395 16.5619
# 4 -6.9131 -11.3416 -9.3546 38.8648 -3.6009 10.4074
# 5 11.9295 27.8156 -0.2395 -3.6009 30.8095 8.4365
# 6 19.0571 18.8651 16.5619 10.4074 8.4365 40.7156
#
#
#
# Elastic Compliance Matrix: (Units=1/GPa)
#
#
# Indices 1 2 3 4 5 6 
#
# 1 0.023798 0.002672 -0.003929 0.006192 -0.008003 -0.010703
# 2 0.002672 0.028391 -0.014037 0.004300 -0.025011 -0.004613
# 3 -0.003929 -0.014037 0.019866 0.002393 0.015609 -0.003584
# 4 0.006192 0.004300 0.002393 0.032699 0.001543 -0.014542
# 5 -0.008003 -0.025011 0.015609 0.001543 0.059460 -0.003730
# 6 -0.010703 -0.004613 -0.003584 -0.014542 -0.003730 0.037655
#
#
# Mechanical properties :
#
#
# Convention : Reuss Voigt Hill
#
# Bulk Modulus (GPa) = 24.11433 45.38530 34.74981
# Shear Modulus (GPa) = 20.30217 32.05844 26.18030
#
# Velocity S-wave (km/s) = 3.12209 3.92325 3.54537
# Velocity P-wave (km/s) = 4.95725 6.50483 5.78304
#
# Compressibility (1/GPa) = 0.04146912
#
# Stress axis : x y z
#
# Youngs Moduli (GPa) = 42.01953 35.22202 50.33808
#
# Poissons Ratio (x) = -0.09413 0.19778
# Poissons Ratio (y) = -0.11229 0.70658
# Poissons Ratio (z) = 0.16509 0.49440
#
# Static dielectric constant tensor:
#      x y z
#    x 3.587610 0.029310 -0.086030 
#    y 0.029310 3.869520 -0.032310 
#    z -0.086030 -0.032310 3.827840 
# 
# 
# High freq. dielectric constant tensor:
#      x y z
#    x 1.805270 0.000750 -0.007990 
#    y 0.000750 1.819600 -0.001220 
#    z -0.007990 -0.001220 1.824320 
# 
# From -- ./inp_files/402866.got.cif
#   From: 2010.06.25/outbox.cif.g09.slc.cpg/sg2_202_cif.got.tgz:402866.got - 2010.06.27 13:26:56.
