data_PCOD8000202
_publ_section_title
;
Structure prediction by ZEFSAII (Michael W. Deem and Ramdas Pophale) SiO2 
 PCOD8000202
Probable space group: P 1
;
_chemical_formula_sum "Si O2"
_cell_formula_units_Z 8
_cell_length_a 4.896732
_cell_length_b 5.213443
_cell_length_c 13.074490
_cell_angle_alpha 77.901397
_cell_angle_beta 112.929724
_cell_angle_gamma 85.768333
_cell_volume 296.062660
_symmetry_space_group_name_H-M "P 1"
_symmetry_group_IT_number 1
_symmetry_cell_setting 'triclinic'
loop_
_space_group_symop_operation_xyz
x,y,z
loop_
_atom_site_type_symbol
_atom_site_label
_atom_site_fract_x
_atom_site_fract_y
_atom_site_fract_z
Si Si1 0.559000 0.976350 0.375000
Si Si2 0.313447 0.116668 0.112835
Si Si3 0.333701 0.707756 0.703016
Si Si4 0.318865 0.914396 0.922047
Si Si5 0.653694 0.164858 0.751017
Si Si6 0.179796 0.109221 0.486975
Si Si7 0.819941 0.472864 0.568490
Si Si8 0.651382 0.349052 0.989792
O O1 0.595144 0.674983 0.447806
O O2 0.365355 0.988647 0.242019
O O3 0.386647 0.184067 0.417487
O O4 0.874926 0.061904 0.390394
O O5 0.572391 0.279750 0.101397
O O6 0.006598 0.333121 0.039046
O O7 0.303714 0.882186 0.046628
O O8 0.587821 0.444215 0.781408
O O9 0.997251 0.630099 0.666375
O O10 0.408162 0.965971 0.758104
O O11 0.353087 0.824640 0.580980
O O12 0.458147 0.637794 0.909070
O O13 0.984940 0.005964 0.825758
O O14 0.541008 0.131640 0.914908
O O15 0.640737 0.263824 0.619562
O O16 0.090655 0.317963 0.549363
#
# Coordination Sequence:
#
# PCOD8000202 Si02
#       8
#     1   1   1   1   1   1   1   1
#     4  11  24  44  74 108 143 194 241 303 364 442
#     4  10  25  46  74 109 141 193 244 304 362 436
#     4  11  24  43  71 106 148 192 241 298 361 445
#     4  10  26  47  73 108 143 194 238 307 359 438
#     4  12  24  48  72 109 151 193 245 300 371 440
#     4  11  23  44  69 108 147 189 239 298 364 434
#     4  11  26  44  71 112 151 191 245 300 372 443
#     4  10  24  48  72 104 146 184 247 298 365 424
#
# _framework density 27.021308000000001
#
# number of rings (size 3 to 8) (size 9 to 14) (size 15 to 20)
#    0.750    0.500    2.500    2.250    3.500    3.000 
#    2.250    0.000    0.000    0.000    0.000    0.000 
#    0.000    0.000    0.000    0.000    0.000    0.000 
#
# Total GULP energy -99149.656229 kJ/mol
# GULP energy per Si atom -12393.707029 kJ/mol
# Density = 2.695981 g / cm^3
# Si number density = 27.021308 Si / 1000 Ang^3
#
#
#
# Elastic Constant Matrix: (Units=GPa)
#
#
# Indices 1 2 3 4 5 6 
#
# 1 96.3771 42.5435 18.4832 -6.6428 -4.4461 -7.2565
# 2 42.5435 172.9916 75.2555 -4.1651 -5.4104 -14.9376
# 3 18.4832 75.2555 139.6600 0.5326 0.8986 -11.0114
# 4 -6.6428 -4.1651 0.5326 34.0298 -6.7024 -3.5721
# 5 -4.4461 -5.4104 0.8986 -6.7024 44.1161 -0.8383
# 6 -7.2565 -14.9376 -11.0114 -3.5721 -0.8383 44.5491
#
#
#
# Elastic Compliance Matrix: (Units=1/GPa)
#
#
# Indices 1 2 3 4 5 6 
#
# 1 0.011891 -0.002706 -0.000035 0.002366 0.001250 0.001234
# 2 -0.002706 0.008391 -0.004058 0.000914 0.001006 0.001462
# 3 -0.000035 -0.004058 0.009430 -0.000712 -0.000785 0.000892
# 4 0.002366 0.000914 -0.000712 0.031320 0.005183 0.003125
# 5 0.001250 0.001006 -0.000785 0.005183 0.023743 0.001209
# 6 0.001234 0.001462 0.000892 0.003125 0.001209 0.023632
#
#
# Mechanical properties :
#
#
# Convention : Reuss Voigt Hill
#
# Bulk Modulus (GPa) = 62.06302 75.73257 68.89779
# Shear Modulus (GPa) = 39.25345 42.72210 40.98777
#
# Velocity S-wave (km/s) = 3.81555 3.98056 3.89892
# Velocity P-wave (km/s) = 6.51377 7.01529 6.76918
#
# Compressibility (1/GPa) = 0.01611266
#
# Stress axis : x y z
#
# Youngs Moduli (GPa) = 84.09716 119.17119 106.04742
#
# Poissons Ratio (x) = 0.32253 0.00373
# Poissons Ratio (y) = 0.22760 0.43036
# Poissons Ratio (z) = 0.00295 0.48361
#
# Static dielectric constant tensor:
#      x y z
#    x 4.946290 -0.002380 -0.220340 
#    y -0.002380 4.803450 0.039370 
#    z -0.220340 0.039370 4.735710 
# 
# 
# High freq. dielectric constant tensor:
#      x y z
#    x 2.106820 -0.007160 -0.015260 
#    y -0.007160 2.084060 0.003390 
#    z -0.015260 0.003390 2.095050 
# 
# From -- ./inp_files/6899.got.cif
#   From: 2010.03.12/outbox.cif.g09.slc.cpg/sg1_4_cif.got.tgz:6899.got - 2010.03.29 11:57:58.
