data_PCOD8000428
_publ_section_title
;
Structure prediction by ZEFSAII (Michael W. Deem and Ramdas Pophale) SiO2 
 PCOD8000428
Probable space group: P -1
;
_chemical_formula_sum "Si O2"
_cell_formula_units_Z 16
_cell_length_a 8.461971
_cell_length_b 15.906184
_cell_length_c 12.048094
_cell_angle_alpha 141.298167
_cell_angle_beta 49.148552
_cell_angle_gamma 113.313161
_cell_volume 744.069049
_symmetry_space_group_name_H-M "P -1"
_symmetry_group_IT_number 2
_symmetry_cell_setting 'triclinic'
loop_
_space_group_symop_operation_xyz
x,y,z
-x,-y,-z
loop_
_atom_site_type_symbol
_atom_site_label
_atom_site_fract_x
_atom_site_fract_y
_atom_site_fract_z
Si Si1 0.726204 0.948931 0.782446
Si Si2 0.151702 0.779747 0.052376
Si Si3 0.067741 0.679692 0.747871
Si Si4 0.124880 0.281720 0.694317
Si Si5 0.422625 0.427368 0.355763
Si Si6 0.713347 0.488201 0.034302
Si Si7 0.932401 0.744423 0.646636
Si Si8 0.731267 0.521941 0.816251
O O1 0.721847 0.835649 0.571855
O O2 0.896424 0.882775 0.732052
O O3 0.797076 0.071151 0.811167
O O4 0.500000 0.000000 0.000000
O O5 0.940961 0.778826 0.221040
O O6 0.116014 0.756681 0.914629
O O7 0.350511 0.661553 0.891784
O O8 0.273592 0.555927 0.486617
O O9 0.982265 0.782772 0.790541
O O10 0.870556 0.611608 0.786355
O O11 0.251149 0.401421 0.777009
O O12 0.907893 0.351273 0.798704
O O13 0.500000 0.500000 0.500000
O O14 0.275475 0.320836 0.343418
O O15 0.489625 0.447537 0.122296
O O16 0.682952 0.569154 0.014269
O O17 0.147857 0.638886 0.398008
#
# Coordination Sequence:
#
# PCOD8000428 Si02
#       8
#     2   2   2   2   2   2   2   2
#     4  12  26  45  65  90 132 180 224 260 309 388
#     4  11  23  42  65  91 131 180 215 262 315 383
#     4  10  22  38  64  99 131 162 214 271 323 387
#     4  11  24  43  66  98 128 167 223 263 326 385
#     4   9  19  35  64  97 124 164 209 268 323 374
#     4  10  22  37  69  96 129 163 202 281 333 379
#     4  11  22  40  61  97 132 166 217 265 318 385
#     4  10  19  39  61  99 132 158 203 271 342 374
#
# _framework density 21.50338
#
# number of rings (size 3 to 8) (size 9 to 14) (size 15 to 20)
#    0.000    1.500    3.750    1.875    3.500    1.500 
#    0.000    0.000    0.000    2.250    0.000    0.000 
#    0.000    0.000    0.000    0.000    0.000    0.000 
#
# Total GULP energy -198315.622300 kJ/mol
# GULP energy per Si atom -12394.726394 kJ/mol
# Density = 2.145444 g / cm^3
# Si number density = 21.503380 Si / 1000 Ang^3
#
#
#
# Elastic Constant Matrix: (Units=GPa)
#
#
# Indices 1 2 3 4 5 6 
#
# 1 103.3104 8.7311 33.1319 1.2512 -5.3788 0.6149
# 2 8.7311 39.8210 14.0237 6.0534 1.7787 -8.5301
# 3 33.1319 14.0237 116.0450 -1.7145 3.5171 3.0104
# 4 1.2512 6.0534 -1.7145 32.2980 -1.7741 -2.9105
# 5 -5.3788 1.7787 3.5171 -1.7741 28.6154 -3.7905
# 6 0.6149 -8.5301 3.0104 -2.9105 -3.7905 32.1843
#
#
#
# Elastic Compliance Matrix: (Units=1/GPa)
#
#
# Indices 1 2 3 4 5 6 
#
# 1 0.010899 -0.001416 -0.003018 -0.000182 0.002493 -0.000024
# 2 -0.001416 0.028990 -0.003336 -0.004937 -0.000976 0.007461
# 3 -0.003018 -0.003336 0.010000 0.001006 -0.001776 -0.001880
# 4 -0.000182 -0.004937 0.001006 0.032240 0.002386 0.001797
# 5 0.002493 -0.000976 -0.001776 0.002386 0.036420 0.004365
# 6 -0.000024 0.007461 -0.001880 0.001797 0.004365 0.033902
#
#
# Mechanical properties :
#
#
# Convention : Reuss Voigt Hill
#
# Bulk Modulus (GPa) = 29.11305 41.21664 35.16484
# Shear Modulus (GPa) = 27.86435 32.17219 30.01827
#
# Velocity S-wave (km/s) = 3.60364 3.87220 3.74033
# Velocity P-wave (km/s) = 5.55727 6.26107 5.91964
#
# Compressibility (1/GPa) = 0.03434886
#
# Stress axis : x y z
#
# Youngs Moduli (GPa) = 91.74835 34.49471 100.00243
#
# Poissons Ratio (x) = 0.04883 0.30185
# Poissons Ratio (y) = 0.12987 0.33362
# Poissons Ratio (z) = 0.27694 0.11508
#
# Static dielectric constant tensor:
#      x y z
#    x 4.128470 -0.118010 -0.120890 
#    y -0.118010 3.750020 -0.126590 
#    z -0.120890 -0.126590 3.930490 
# 
# 
# High freq. dielectric constant tensor:
#      x y z
#    x 1.856020 -0.013610 0.000500 
#    y -0.013610 1.836730 -0.022620 
#    z 0.000500 -0.022620 1.832470 
# 
# From -- ./inp_files/399733.got.cif
#   From: 2010.06.25/outbox.cif.g09.slc.cpg/sg2_200_cif.got.tgz:399733.got - 2010.06.27 13:26:56.
