data_PCOD8000490
_publ_section_title
;
Structure prediction by ZEFSAII (Michael W. Deem and Ramdas Pophale) SiO2 
 PCOD8000490
Probable space group: P -1
;
_chemical_formula_sum "Si O2"
_cell_formula_units_Z 16
_cell_length_a 14.518205
_cell_length_b 18.734355
_cell_length_c 8.399456
_cell_angle_alpha 94.279809
_cell_angle_beta 93.494891
_cell_angle_gamma 19.428712
_cell_volume 757.497662
_symmetry_space_group_name_H-M "P -1"
_symmetry_group_IT_number 2
_symmetry_cell_setting 'triclinic'
loop_
_space_group_symop_operation_xyz
x,y,z
-x,-y,-z
loop_
_atom_site_type_symbol
_atom_site_label
_atom_site_fract_x
_atom_site_fract_y
_atom_site_fract_z
Si Si1 0.359466 0.179393 0.527939
Si Si2 0.838975 0.021491 0.844603
Si Si3 0.182681 0.803309 0.119085
Si Si4 0.345471 0.578740 0.351150
Si Si5 0.431667 0.738836 0.732154
Si Si6 0.761616 0.016159 0.499817
Si Si7 0.041744 0.452243 0.233732
Si Si8 0.343490 0.327934 0.013124
O O1 0.164436 0.324230 0.377887
O O2 0.172274 0.328652 0.692450
O O3 0.500000 0.000000 0.500000
O O4 0.591818 0.070231 0.535451
O O5 0.690441 0.209061 0.868383
O O6 0.887599 0.963185 0.659116
O O7 0.644056 0.104648 0.923263
O O8 0.134688 0.809716 0.933781
O O9 0.376985 0.606858 0.204097
O O10 0.880178 0.030013 0.202017
O O11 0.500000 0.500000 0.500000
O O12 0.495208 0.395071 0.314778
O O13 0.020720 0.803179 0.384955
O O14 0.655285 0.602812 0.863182
O O15 0.443026 0.779573 0.580805
O O16 0.286778 0.303131 0.122413
O O17 0.884989 0.505599 0.123075
#
# Coordination Sequence:
#
# PCOD8000490 Si02
#       8
#     2   2   2   2   2   2   2   2
#     4  11  24  42  65  93 122 155 201 256 301 358
#     4  10  19  39  63  86 124 163 196 244 307 357
#     4   9  21  40  61  88 123 159 199 251 301 358
#     4  11  23  39  62  93 122 158 206 252 298 356
#     4  10  21  40  65  86 122 162 203 249 301 356
#     4  11  22  40  63  89 121 161 203 244 305 363
#     4  10  22  43  65  88 125 154 203 252 304 354
#     4  10  20  39  65  89 117 166 196 244 304 360
#
# _framework density 21.122178000000002
#
# number of rings (size 3 to 8) (size 9 to 14) (size 15 to 20)
#    0.000    1.750    2.500    1.500    1.750    2.000 
#    4.500   12.500    0.000    0.000    0.000    0.000 
#    0.000    0.000    0.000    0.000    0.000    0.000 
#
# Total GULP energy -198298.807740 kJ/mol
# GULP energy per Si atom -12393.675484 kJ/mol
# Density = 2.107410 g / cm^3
# Si number density = 21.122178 Si / 1000 Ang^3
#
#
#
# Elastic Constant Matrix: (Units=GPa)
#
#
# Indices 1 2 3 4 5 6 
#
# 1 101.3755 39.2282 40.3586 -6.9266 7.5185 10.2122
# 2 39.2282 79.5376 29.4545 -6.0679 5.1116 21.6107
# 3 40.3586 29.4545 130.1098 -20.6993 21.1989 11.7715
# 4 -6.9266 -6.0679 -20.6993 27.5863 -6.2288 -4.4305
# 5 7.5185 5.1116 21.1989 -6.2288 44.4976 2.9309
# 6 10.2122 21.6107 11.7715 -4.4305 2.9309 35.9072
#
#
#
# Elastic Compliance Matrix: (Units=1/GPa)
#
#
# Indices 1 2 3 4 5 6 
#
# 1 0.013096 -0.005553 -0.002814 -0.000016 -0.000274 0.000560
# 2 -0.005553 0.018337 -0.001653 0.000012 0.000209 -0.008931
# 3 -0.002814 -0.001653 0.010497 0.005922 -0.003465 -0.000632
# 4 -0.000016 0.000012 0.005922 0.041812 0.002836 0.002984
# 5 -0.000274 0.000209 -0.003465 0.002836 0.024580 -0.000569
# 6 0.000560 -0.008931 -0.000632 0.002984 -0.000569 0.033687
#
#
# Mechanical properties :
#
#
# Convention : Reuss Voigt Hill
#
# Bulk Modulus (GPa) = 45.68136 58.78950 52.23543
# Shear Modulus (GPa) = 29.52534 35.06365 32.29449
#
# Velocity S-wave (km/s) = 3.74282 4.07878 3.91441
# Velocity P-wave (km/s) = 6.35236 7.07640 6.72413
#
# Compressibility (1/GPa) = 0.02189077
#
# Stress axis : x y z
#
# Youngs Moduli (GPa) = 76.35915 54.53308 95.26724
#
# Poissons Ratio (x) = 0.30281 0.26807
# Poissons Ratio (y) = 0.42401 0.15748
# Poissons Ratio (z) = 0.21487 0.09015
#
# Static dielectric constant tensor:
#      x y z
#    x 4.017130 -0.140860 -0.060280 
#    y -0.140860 3.582940 -0.158770 
#    z -0.060280 -0.158770 4.034760 
# 
# 
# High freq. dielectric constant tensor:
#      x y z
#    x 1.833400 -0.018630 0.000020 
#    y -0.018630 1.793610 -0.005690 
#    z 0.000020 -0.005690 1.852460 
# 
# From -- ./inp_files/272033.got.cif
#   From: 2010.06.25/outbox.cif.g09.slc.cpg/sg2_137_cif.got.tgz:272033.got - 2010.06.27 13:26:56.
