data_PCOD8000997
_publ_section_title
;
Structure prediction by ZEFSAII (Michael W. Deem and Ramdas Pophale) SiO2 
 PCOD8000997
Probable space group: P -1
;
_chemical_formula_sum "Si O2"
_cell_formula_units_Z 10
_cell_length_a 9.926714
_cell_length_b 8.735693
_cell_length_c 9.118004
_cell_angle_alpha 48.862368
_cell_angle_beta 136.619352
_cell_angle_gamma 115.101287
_cell_volume 406.778160
_symmetry_space_group_name_H-M "P -1"
_symmetry_group_IT_number 2
_symmetry_cell_setting 'triclinic'
loop_
_space_group_symop_operation_xyz
x,y,z
-x,-y,-z
loop_
_atom_site_type_symbol
_atom_site_label
_atom_site_fract_x
_atom_site_fract_y
_atom_site_fract_z
Si Si1 0.907469 0.121256 0.074913
Si Si2 0.302040 0.448612 0.298987
Si Si3 0.697785 0.848642 0.266820
Si Si4 0.435053 0.526719 0.767479
Si Si5 0.717335 0.050059 0.673904
O O1 0.866694 0.361810 0.931255
O O2 0.761472 0.040152 0.888439
O O3 0.878052 0.975816 0.282609
O O4 0.129872 0.099323 0.205324
O O5 0.500000 0.500000 0.500000
O O6 0.248866 0.239835 0.470002
O O7 0.366221 0.424369 0.195078
O O8 0.670892 0.662506 0.254631
O O9 0.500000 0.000000 0.000000
O O10 0.266284 0.716511 0.507033
O O11 0.500000 0.500000 0.000000
O O12 0.500000 0.000000 0.500000
#
# Coordination Sequence:
#
# PCOD8000997 Si02
#       5
#     2   2   2   2   2
#     4  11  22  43  74  97 134 194 227 275 365 407
#     4  10  19  40  68  98 131 182 232 270 344 423
#     4  11  19  38  73  98 132 185 230 277 344 421
#     4  11  22  40  68 102 141 177 228 291 343 400
#     4  11  24  44  66 104 145 174 233 299 338 409
#
# _framework density 24.583425999999999
#
# number of rings (size 3 to 8) (size 9 to 14) (size 15 to 20)
#    0.000    1.200    8.000    1.200    0.000    0.800 
#    3.600    2.000    0.000    0.000    0.000    0.000 
#    0.000    0.000    0.000    0.000    0.000    0.000 
#
# Total GULP energy -123972.993059 kJ/mol
# GULP energy per Si atom -12397.299306 kJ/mol
# Density = 2.452747 g / cm^3
# Si number density = 24.583426 Si / 1000 Ang^3
#
#
#
# Elastic Constant Matrix: (Units=GPa)
#
#
# Indices 1 2 3 4 5 6 
#
# 1 150.4054 34.2368 75.0150 -13.4450 -19.4132 -4.8101
# 2 34.2368 70.9045 37.9469 -18.4265 -3.9681 9.7078
# 3 75.0150 37.9469 125.0817 -35.9221 -10.0232 -9.1701
# 4 -13.4450 -18.4265 -35.9221 53.1039 -4.9067 -0.7921
# 5 -19.4132 -3.9681 -10.0232 -4.9067 61.8225 -7.4984
# 6 -4.8101 9.7078 -9.1701 -0.7921 -7.4984 46.8779
#
#
#
# Elastic Compliance Matrix: (Units=1/GPa)
#
#
# Indices 1 2 3 4 5 6 
#
# 1 0.010139 -0.002315 -0.005709 -0.001899 0.002044 0.000698
# 2 -0.002315 0.018713 -0.003747 0.003257 -0.000465 -0.004865
# 3 -0.005709 -0.003747 0.015135 0.007679 0.001456 0.003514
# 4 -0.001899 0.003257 0.007679 0.024978 0.003027 0.001539
# 5 0.002044 -0.000465 0.001456 0.003027 0.017685 0.003471
# 6 0.000698 -0.004865 0.003514 0.001539 0.003471 0.023680
#
#
# Mechanical properties :
#
#
# Convention : Reuss Voigt Hill
#
# Bulk Modulus (GPa) = 48.91165 71.19878 60.05521
# Shear Modulus (GPa) = 35.53971 45.64039 40.59005
#
# Velocity S-wave (km/s) = 3.80633 4.31345 4.06780
# Velocity P-wave (km/s) = 6.26554 7.33708 6.82238
#
# Compressibility (1/GPa) = 0.02044503
#
# Stress axis : x y z
#
# Youngs Moduli (GPa) = 98.62531 53.43777 66.07140
#
# Poissons Ratio (x) = 0.12372 0.37719
# Poissons Ratio (y) = 0.22834 0.24759
# Poissons Ratio (z) = 0.56304 0.20025
#
# Static dielectric constant tensor:
#      x y z
#    x 5.249340 -0.107270 -0.357320 
#    y -0.107270 4.742690 -0.759490 
#    z -0.357320 -0.759490 5.317650 
# 
# 
# High freq. dielectric constant tensor:
#      x y z
#    x 1.977470 -0.010340 -0.009000 
#    y -0.010340 1.985010 -0.014850 
#    z -0.009000 -0.014850 1.983220 
# 
# From -- ./inp_files/144274.got.cif
#   From: 2010.06.25/outbox.cif.g09.slc.cpg/sg2_73_cif.got.tgz:144274.got - 2010.06.27 13:26:56.
