data_PCOD8000889
_publ_section_title
;
Structure prediction by ZEFSAII (Michael W. Deem and Ramdas Pophale) SiO2 
 PCOD8000889
Probable space group: P -1
;
_chemical_formula_sum "Si O2"
_cell_formula_units_Z 16
_cell_length_a 9.464854
_cell_length_b 17.076003
_cell_length_c 7.647232
_cell_angle_alpha 96.384925
_cell_angle_beta 46.011414
_cell_angle_gamma 120.843387
_cell_volume 700.935813
_symmetry_space_group_name_H-M "P -1"
_symmetry_group_IT_number 2
_symmetry_cell_setting 'triclinic'
loop_
_space_group_symop_operation_xyz
x,y,z
-x,-y,-z
loop_
_atom_site_type_symbol
_atom_site_label
_atom_site_fract_x
_atom_site_fract_y
_atom_site_fract_z
Si Si1 0.603320 0.111919 0.603834
Si Si2 0.538479 0.563964 0.736665
Si Si3 0.524390 0.396641 0.576170
Si Si4 0.055634 0.690978 0.454200
Si Si5 0.798121 0.277022 0.041394
Si Si6 0.000791 0.427190 0.200017
Si Si7 0.349210 0.190141 0.639097
Si Si8 0.810818 0.103673 0.072925
O O1 0.784278 0.192287 0.613157
O O2 0.432637 0.137666 0.671296
O O3 0.772272 0.109660 0.314202
O O4 0.420735 0.004374 0.825685
O O5 0.503601 0.460225 0.752905
O O6 0.603329 0.607062 0.495732
O O7 0.764796 0.644783 0.686059
O O8 0.272211 0.532204 0.018166
O O9 0.392050 0.283982 0.726652
O O10 0.817680 0.452608 0.307302
O O11 0.096985 0.635078 0.551740
O O12 0.141139 0.674735 0.191255
O O13 0.518503 0.233360 0.327895
O O14 0.825114 0.189479 0.981137
O O15 0.993498 0.357833 0.037589
O O16 0.058982 0.113367 0.826271
#
# Coordination Sequence:
#
# PCOD8000889 Si02
#       8
#     2   2   2   2   2   2   2   2
#     4  10  22  39  63  96 126 161 208 264 310 374
#     4  11  23  37  64  94 123 168 218 254 312 378
#     4  10  21  40  64  90 125 170 210 258 310 370
#     4  12  23  42  62  98 131 162 213 266 312 372
#     4  10  22  40  66  92 131 163 207 258 316 367
#     4  11  22  45  63  88 132 172 207 260 313 370
#     4  10  19  40  65  89 122 171 208 251 314 379
#     4  10  19  40  68  90 124 168 207 252 319 376
#
# _framework density 22.826623999999999
#
# number of rings (size 3 to 8) (size 9 to 14) (size 15 to 20)
#    0.000    1.500    3.750    4.125    0.000    2.000 
#    0.000    8.125    0.000    0.000    0.000    0.000 
#    0.000    0.000    0.000    0.000    0.000    0.000 
#
# Total GULP energy -198396.221146 kJ/mol
# GULP energy per Si atom -12399.763822 kJ/mol
# Density = 2.277467 g / cm^3
# Si number density = 22.826624 Si / 1000 Ang^3
#
#
#
# Elastic Constant Matrix: (Units=GPa)
#
#
# Indices 1 2 3 4 5 6 
#
# 1 78.9120 35.6757 27.1057 3.7477 -2.1483 15.3756
# 2 35.6757 75.2549 21.5244 -13.8667 -7.9689 10.9751
# 3 27.1057 21.5244 93.0552 -9.9477 -8.2475 18.4190
# 4 3.7477 -13.8667 -9.9477 23.8292 5.8306 -6.1723
# 5 -2.1483 -7.9689 -8.2475 5.8306 41.2426 -2.4820
# 6 15.3756 10.9751 18.4190 -6.1723 -2.4820 33.9205
#
#
#
# Elastic Compliance Matrix: (Units=1/GPa)
#
#
# Indices 1 2 3 4 5 6 
#
# 1 0.020135 -0.009827 -0.003677 -0.011947 -0.000266 -0.006144
# 2 -0.009827 0.020577 -0.000469 0.013086 0.001553 0.000546
# 3 -0.003677 -0.000469 0.013430 0.004358 0.001512 -0.004571
# 4 -0.011947 0.013086 0.004358 0.056708 -0.004710 0.008789
# 5 -0.000266 0.001553 0.001512 -0.004710 0.025490 -0.000195
# 6 -0.006144 0.000546 -0.004571 0.008789 -0.000195 0.036156
#
#
# Mechanical properties :
#
#
# Convention : Reuss Voigt Hill
#
# Bulk Modulus (GPa) = 38.17121 46.20375 42.18748
# Shear Modulus (GPa) = 23.90355 30.65953 27.28154
#
# Velocity S-wave (km/s) = 3.23952 3.66887 3.46086
# Velocity P-wave (km/s) = 5.54538 6.18325 5.87298
#
# Compressibility (1/GPa) = 0.02619776
#
# Stress axis : x y z
#
# Youngs Moduli (GPa) = 49.66357 48.59778 74.45844
#
# Poissons Ratio (x) = 0.47759 0.27375
# Poissons Ratio (y) = 0.48806 0.03489
# Poissons Ratio (z) = 0.18259 0.02277
#
# Static dielectric constant tensor:
#      x y z
#    x 3.908260 -0.075210 -0.190710 
#    y -0.075210 4.109110 -0.188220 
#    z -0.190710 -0.188220 4.100930 
# 
# 
# High freq. dielectric constant tensor:
#      x y z
#    x 1.883770 -0.012130 -0.015950 
#    y -0.012130 1.889480 -0.016490 
#    z -0.015950 -0.016490 1.903170 
# 
# From -- ./inp_files/215074.got.cif
#   From: 2010.06.25/outbox.cif.g09.slc.cpg/sg2_108_cif.got.tgz:215074.got - 2010.06.27 13:26:56.
