data_PCOD8000177
_publ_section_title
;
Structure prediction by ZEFSAII (Michael W. Deem and Ramdas Pophale) SiO2 
 PCOD8000177
Probable space group: P 1
;
_chemical_formula_sum "Si O2"
_cell_formula_units_Z 8
_cell_length_a 10.434929
_cell_length_b 9.119670
_cell_length_c 5.177137
_cell_angle_alpha 55.617271
_cell_angle_beta 96.861722
_cell_angle_gamma 122.853359
_cell_volume 328.921362
_symmetry_space_group_name_H-M "P 1"
_symmetry_group_IT_number 1
_symmetry_cell_setting 'triclinic'
loop_
_space_group_symop_operation_xyz
x,y,z
loop_
_atom_site_type_symbol
_atom_site_label
_atom_site_fract_x
_atom_site_fract_y
_atom_site_fract_z
Si Si1 0.604170 0.447790 0.220270
Si Si2 0.168049 0.238470 0.815617
Si Si3 0.293019 0.745610 0.837338
Si Si4 0.238102 0.103386 0.473232
Si Si5 0.771544 0.494960 0.727217
Si Si6 0.439574 0.723427 0.392681
Si Si7 0.985231 0.329714 0.020134
Si Si8 0.757247 0.851286 0.552024
O O1 0.417480 0.313386 0.344118
O O2 0.681576 0.410757 0.518320
O O3 0.645254 0.361636 0.061998
O O4 0.674531 0.705339 0.938246
O O5 0.131682 0.110640 0.664428
O O6 0.342062 0.463478 0.629974
O O7 0.033110 0.278057 0.808103
O O8 0.167140 0.095457 0.188346
O O9 0.146615 0.488571 0.065922
O O10 0.876415 0.108516 0.380459
O O11 0.220176 0.880302 0.724765
O O12 0.414289 0.805694 0.037182
O O13 0.844397 0.752883 0.527467
O O14 0.906716 0.454800 0.809859
O O15 0.386818 0.809913 0.527300
O O16 0.622940 0.819828 0.359634
#
# Coordination Sequence:
#
# PCOD8000177 Si02
#       8
#     1   1   1   1   1   1   1   1
#     4  10  23  45  74 107 138 191 241 304 360 421
#     4  11  24  45  74 102 145 193 238 303 356 432
#     4  11  28  44  72 109 148 190 240 302 359 437
#     4  12  23  45  77 104 145 186 253 294 364 419
#     4  10  25  46  69 109 148 187 236 298 372 430
#     4  11  23  47  72 106 138 190 251 295 360 422
#     4  11  27  51  69 115 149 197 239 299 370 444
#     4  10  25  47  79 104 149 188 246 303 365 429
#
# _framework density 24.321923000000002
#
# number of rings (size 3 to 8) (size 9 to 14) (size 15 to 20)
#    0.750    0.500    1.250    3.750    7.000    3.000 
#   11.250    0.000    0.000    0.000    0.000    0.000 
#    0.000    0.000    0.000    0.000    0.000    0.000 
#
# Total GULP energy -99192.068825 kJ/mol
# GULP energy per Si atom -12399.008603 kJ/mol
# Density = 2.426657 g / cm^3
# Si number density = 24.321923 Si / 1000 Ang^3
#
#
#
# Elastic Constant Matrix: (Units=GPa)
#
#
# Indices 1 2 3 4 5 6 
#
# 1 123.3317 32.0214 29.3743 -3.3438 15.7972 -23.5295
# 2 32.0214 79.4997 42.6875 -16.6686 -4.8060 -15.8372
# 3 29.3743 42.6875 110.4652 24.0197 5.1237 -9.0444
# 4 -3.3438 -16.6686 24.0197 45.4706 -1.1051 -3.4595
# 5 15.7972 -4.8060 5.1237 -1.1051 37.5932 -0.5027
# 6 -23.5295 -15.8372 -9.0444 -3.4595 -0.5027 40.4692
#
#
#
# Elastic Compliance Matrix: (Units=1/GPa)
#
#
# Indices 1 2 3 4 5 6 
#
# 1 0.010663 -0.002737 -0.001331 0.000741 -0.004563 0.004838
# 2 -0.002737 0.025720 -0.012537 0.016559 0.006730 0.007171
# 3 -0.001331 -0.012537 0.017251 -0.014135 -0.003851 -0.003081
# 4 0.000741 0.016559 -0.014135 0.036228 0.004889 0.006910
# 5 -0.004563 0.006730 -0.003851 0.004889 0.030046 -0.000089
# 6 0.004838 0.007171 -0.003081 0.006910 -0.000089 0.030231
#
#
# Mechanical properties :
#
#
# Convention : Reuss Voigt Hill
#
# Bulk Modulus (GPa) = 48.96107 57.94032 53.45069
# Shear Modulus (GPa) = 26.29400 38.65415 32.47408
#
# Velocity S-wave (km/s) = 3.29155 3.99089 3.65797
# Velocity P-wave (km/s) = 5.88386 6.71642 6.31388
#
# Compressibility (1/GPa) = 0.02042439
#
# Stress axis : x y z
#
# Youngs Moduli (GPa) = 93.77825 38.88016 57.96696
#
# Poissons Ratio (x) = 0.10641 0.07718
# Poissons Ratio (y) = 0.25665 0.72673
# Poissons Ratio (z) = 0.12486 0.48744
#
# Static dielectric constant tensor:
#      x y z
#    x 4.366670 -0.139940 -0.017020 
#    y -0.139940 4.222460 0.038050 
#    z -0.017020 0.038050 4.274640 
# 
# 
# High freq. dielectric constant tensor:
#      x y z
#    x 1.972490 -0.006990 0.006180 
#    y -0.006990 1.952490 0.002030 
#    z 0.006180 0.002030 1.965350 
# 
# From -- ./inp_files/1381.got.cif
#   From: 2010.03.12/outbox.cif.g09.slc.cpg/sg1_1_cif.got.tgz:1381.got - 2010.03.29 11:57:58.
