data_PCOD8000075
_publ_section_title
;
Structure prediction by ZEFSAII (Michael W. Deem and Ramdas Pophale) SiO2 
 PCOD8000075
Probable space group: P 1
;
_chemical_formula_sum "Si O2"
_cell_formula_units_Z 8
_cell_length_a 8.316148
_cell_length_b 8.712203
_cell_length_c 10.649266
_cell_angle_alpha 61.673329
_cell_angle_beta 121.083573
_cell_angle_gamma 68.325925
_cell_volume 337.149163
_symmetry_space_group_name_H-M "P 1"
_symmetry_group_IT_number 1
_symmetry_cell_setting 'triclinic'
loop_
_space_group_symop_operation_xyz
x,y,z
loop_
_atom_site_type_symbol
_atom_site_label
_atom_site_fract_x
_atom_site_fract_y
_atom_site_fract_z
Si Si1 0.029590 0.313610 0.778550
Si Si2 0.643972 0.206378 0.111302
Si Si3 0.987227 0.808685 0.715290
Si Si4 0.308564 0.228351 0.667606
Si Si5 0.219758 0.788579 0.050161
Si Si6 0.547261 0.963956 0.317810
Si Si7 0.976578 0.800411 0.179871
Si Si8 0.878503 0.260574 0.394378
O O1 0.246624 0.237331 0.786871
O O2 0.675299 0.668203 0.486584
O O3 0.999903 0.129048 0.819414
O O4 0.183507 0.233184 0.011801
O O5 0.784160 0.273534 0.210294
O O6 0.758760 0.937341 0.326334
O O7 0.784954 0.092879 0.071859
O O8 0.251967 0.506936 0.852691
O O9 0.629495 0.990753 0.477183
O O10 0.079811 0.735569 0.928082
O O11 0.009392 0.995275 0.622622
O O12 0.171671 0.517479 0.454085
O O13 0.157242 0.194817 0.529689
O O14 0.698091 0.924957 0.931304
O O15 0.579428 0.567241 0.234197
O O16 0.228139 0.709421 0.226080
#
# Coordination Sequence:
#
# PCOD8000075 Si02
#       8
#     1   1   1   1   1   1   1   1
#     4  12  21  39  68  97 127 175 231 269 314 408
#     4  10  21  40  66  98 133 172 228 269 335 392
#     4  10  21  40  69  97 135 177 227 269 332 408
#     4  12  23  43  69 100 133 178 234 271 327 406
#     4  11  26  43  66 104 142 174 218 287 350 386
#     4  11  20  37  65  98 122 169 228 274 308 390
#     4  12  27  43  69 102 141 172 218 292 346 385
#     4  10  23  41  70  96 131 183 230 267 320 417
#
# _framework density 23.728369000000001
#
# number of rings (size 3 to 8) (size 9 to 14) (size 15 to 20)
#    0.000    1.000    5.000    1.500    5.250    0.000 
#    0.000    2.500    0.000    0.000    0.000    0.000 
#    0.000    0.000    0.000    0.000    0.000    0.000 
#
# Total GULP energy -99110.423077 kJ/mol
# GULP energy per Si atom -12388.802885 kJ/mol
# Density = 2.367436 g / cm^3
# Si number density = 23.728369 Si / 1000 Ang^3
#
#
#
# Elastic Constant Matrix: (Units=GPa)
#
#
# Indices 1 2 3 4 5 6 
#
# 1 54.6137 28.8276 12.6216 1.7215 -12.6216 1.9537
# 2 28.8276 96.4911 19.0591 9.5994 -6.5862 8.1104
# 3 12.6216 19.0591 112.8396 3.4766 -12.0959 8.4104
# 4 1.7215 9.5994 3.4766 35.3750 16.3363 -3.5776
# 5 -12.6216 -6.5862 -12.0959 16.3363 32.6708 0.8972
# 6 1.9537 8.1104 8.4104 -3.5776 0.8972 25.6527
#
#
#
# Elastic Compliance Matrix: (Units=1/GPa)
#
#
# Indices 1 2 3 4 5 6 
#
# 1 0.024023 -0.005918 -0.000418 -0.004255 0.010081 -0.000767
# 2 -0.005918 0.013325 -0.000834 -0.004906 0.002661 -0.004266
# 3 -0.000418 -0.000834 0.009991 -0.003520 0.005230 -0.003654
# 4 -0.004255 -0.004906 -0.003520 0.043039 -0.025730 0.009932
# 5 0.010081 0.002661 0.005230 -0.025730 0.050079 -0.008664
# 6 -0.000767 -0.004266 -0.003654 0.009932 -0.008664 0.043276
#
#
# Mechanical properties :
#
#
# Convention : Reuss Voigt Hill
#
# Bulk Modulus (GPa) = 30.30617 42.77347 36.53982
# Shear Modulus (GPa) = 23.91498 32.30209 28.10853
#
# Velocity S-wave (km/s) = 3.17813 3.69362 3.44553
# Velocity P-wave (km/s) = 5.12516 6.02129 5.59120
#
# Compressibility (1/GPa) = 0.03299658
#
# Stress axis : x y z
#
# Youngs Moduli (GPa) = 41.62761 75.04730 100.08781
#
# Poissons Ratio (x) = 0.44416 0.04188
# Poissons Ratio (y) = 0.24637 0.08350
# Poissons Ratio (z) = 0.01742 0.06261
#
# Static dielectric constant tensor:
#      x y z
#    x 3.674550 0.240150 -0.152970 
#    y 0.240150 4.451900 0.159390 
#    z -0.152970 0.159390 4.393220 
# 
# 
# High freq. dielectric constant tensor:
#      x y z
#    x 1.879820 0.031940 -0.014090 
#    y 0.031940 1.945600 0.015570 
#    z -0.014090 0.015570 1.958350 
# 
# From -- ./inp_files/2729.got.cif
#   From: 2010.03.12/outbox.cif.g09.slc.cpg/sg1_2_cif.got.tgz:2729.got - 2010.03.29 11:57:58.
