data_PCOD8000360
_publ_section_title
;
Structure prediction by ZEFSAII (Michael W. Deem and Ramdas Pophale) SiO2 
 PCOD8000360
Probable space group: P -1
;
_chemical_formula_sum "Si O2"
_cell_formula_units_Z 16
_cell_length_a 9.221399
_cell_length_b 10.777913
_cell_length_c 11.470225
_cell_angle_alpha 74.471922
_cell_angle_beta 83.572711
_cell_angle_gamma 42.892046
_cell_volume 741.395552
_symmetry_space_group_name_H-M "P -1"
_symmetry_group_IT_number 2
_symmetry_cell_setting 'triclinic'
loop_
_space_group_symop_operation_xyz
x,y,z
-x,-y,-z
loop_
_atom_site_type_symbol
_atom_site_label
_atom_site_fract_x
_atom_site_fract_y
_atom_site_fract_z
Si Si1 0.310631 0.051409 0.639469
Si Si2 0.300239 0.385548 0.321867
Si Si3 0.939486 0.702764 0.626461
Si Si4 0.149737 0.951428 0.839388
Si Si5 0.518151 0.452781 0.143623
Si Si6 0.380221 0.444430 0.541307
Si Si7 0.315613 0.835555 0.102837
Si Si8 0.386424 0.940581 0.286160
O O1 0.188231 0.194800 0.508005
O O2 0.417148 0.091290 0.700324
O O3 0.491426 0.839978 0.626351
O O4 0.144079 0.081892 0.727479
O O5 0.095233 0.425938 0.303003
O O6 0.333980 0.469391 0.195636
O O7 0.264503 0.480693 0.422696
O O8 0.190930 0.572756 0.623230
O O9 0.839846 0.858258 0.696467
O O10 0.250674 0.765365 0.803751
O O11 0.302998 0.880236 0.956118
O O12 0.911218 0.076194 0.863666
O O13 0.489111 0.608837 0.172790
O O14 0.500000 0.500000 0.000000
O O15 0.500000 0.500000 0.500000
O O16 0.567491 0.225141 0.615140
O O17 0.368733 0.926939 0.151750
#
# Coordination Sequence:
#
# PCOD8000360 Si02
#       8
#     2   2   2   2   2   2   2   2
#     4  10  20  39  62  82 118 162 198 238 289 353
#     4  10  19  39  60  83 120 156 201 236 289 359
#     4  11  23  40  60  84 123 165 194 240 295 349
#     4   9  21  38  62  85 109 159 201 233 296 356
#     4   9  19  36  60  87 115 151 198 244 286 344
#     4  12  25  36  56  91 118 156 200 241 296 351
#     4  10  21  38  59  86 118 150 196 248 294 342
#     4  11  23  39  56  88 123 148 197 250 288 348
#
# _framework density 21.580922000000001
#
# number of rings (size 3 to 8) (size 9 to 14) (size 15 to 20)
#    0.000    1.750    2.500    1.875    3.500    4.000 
#    0.000    0.000    0.000    0.000    0.000   19.250 
#    0.000    0.000    0.000    0.000    0.000    0.000 
#
# Total GULP energy -198343.064774 kJ/mol
# GULP energy per Si atom -12396.441548 kJ/mol
# Density = 2.153180 g / cm^3
# Si number density = 21.580922 Si / 1000 Ang^3
#
#
#
# Elastic Constant Matrix: (Units=GPa)
#
#
# Indices 1 2 3 4 5 6 
#
# 1 55.2059 26.4282 11.4812 11.0574 -4.3359 8.5476
# 2 26.4282 89.3381 23.6012 20.9515 3.5279 19.0633
# 3 11.4812 23.6012 64.0578 4.9795 -7.0194 8.8208
# 4 11.0574 20.9515 4.9795 29.6603 6.6284 -1.6716
# 5 -4.3359 3.5279 -7.0194 6.6284 38.5136 5.6032
# 6 8.5476 19.0633 8.8208 -1.6716 5.6032 28.7373
#
#
#
# Elastic Compliance Matrix: (Units=1/GPa)
#
#
# Indices 1 2 3 4 5 6 
#
# 1 0.022741 -0.003969 -0.000849 -0.006876 0.004707 -0.005188
# 2 -0.003969 0.018280 -0.003565 -0.011611 0.000781 -0.010679
# 3 -0.000849 -0.003565 0.018202 -0.001415 0.004360 -0.003902
# 4 -0.006876 -0.011611 -0.001415 0.047885 -0.010391 0.014993
# 5 0.004707 0.000781 0.004360 -0.010391 0.030431 -0.009794
# 6 -0.005188 -0.010679 -0.003902 0.014993 -0.009794 0.047405
#
#
# Mechanical properties :
#
#
# Convention : Reuss Voigt Hill
#
# Bulk Modulus (GPa) = 23.55345 36.84701 30.20023
# Shear Modulus (GPa) = 23.16289 29.18829 26.17559
#
# Velocity S-wave (km/s) = 3.27969 3.68163 3.48646
# Velocity P-wave (km/s) = 5.02787 5.93157 5.49832
#
# Compressibility (1/GPa) = 0.04245663
#
# Stress axis : x y z
#
# Youngs Moduli (GPa) = 43.97355 54.70331 54.94045
#
# Poissons Ratio (x) = 0.21714 0.04663
# Poissons Ratio (y) = 0.17455 0.19586
# Poissons Ratio (z) = 0.03732 0.19502
#
# Static dielectric constant tensor:
#      x y z
#    x 3.710340 0.225620 -0.204190 
#    y 0.225620 4.491380 0.157160 
#    z -0.204190 0.157160 4.008270 
# 
# 
# High freq. dielectric constant tensor:
#      x y z
#    x 1.825590 0.007780 -0.017670 
#    y 0.007780 1.863580 0.012350 
#    z -0.017670 0.012350 1.839320 
# 
# From -- ./inp_files/218705.got.cif
#   From: 2010.06.25/outbox.cif.g09.slc.cpg/sg2_110_cif.got.tgz:218705.got - 2010.06.27 13:26:56.
