data_PCOD8001213
_publ_section_title
;
Structure prediction by ZEFSAII (Michael W. Deem and Ramdas Pophale) SiO2 
 PCOD8001213
Probable space group: P -1
;
_chemical_formula_sum "Si O2"
_cell_formula_units_Z 14
_cell_length_a 13.031241
_cell_length_b 11.106943
_cell_length_c 7.985425
_cell_angle_alpha 40.748772
_cell_angle_beta 94.468847
_cell_angle_gamma 108.377648
_cell_volume 691.373143
_symmetry_space_group_name_H-M "P -1"
_symmetry_group_IT_number 2
_symmetry_cell_setting 'triclinic'
loop_
_space_group_symop_operation_xyz
x,y,z
-x,-y,-z
loop_
_atom_site_type_symbol
_atom_site_label
_atom_site_fract_x
_atom_site_fract_y
_atom_site_fract_z
Si Si1 0.020497 0.824665 0.588305
Si Si2 0.130955 0.580339 0.404939
Si Si3 0.839416 0.384273 0.997028
Si Si4 0.619195 0.705107 0.968189
Si Si5 0.364667 0.527264 0.108046
Si Si6 0.804796 0.047608 0.780429
Si Si7 0.723975 0.662751 0.347741
O O1 0.907623 0.626223 0.770172
O O2 0.073120 0.917804 0.318099
O O3 0.116224 0.754098 0.744501
O O4 0.000000 0.000000 0.500000
O O5 0.156533 0.685458 0.117548
O O6 0.175425 0.405914 0.604384
O O7 0.000000 0.500000 0.500000
O O8 0.196497 0.741591 0.384960
O O9 0.712245 0.347722 0.067286
O O10 0.651412 0.625246 0.885398
O O11 0.704088 0.938924 0.748972
O O12 0.492120 0.687093 0.965224
O O13 0.635305 0.586069 0.261560
O O14 0.333081 0.407493 0.406245
O O15 0.784037 0.905160 0.092176
#
# Coordination Sequence:
#
# PCOD8001213 Si02
#       7
#     2   2   2   2   2   2   2
#     4  11  23  39  61  87 127 159 205 260 308 365
#     4  11  22  39  59  87 125 163 202 252 310 366
#     4  10  24  38  61  89 121 165 203 254 307 371
#     4   9  21  39  69  89 122 166 206 257 310 367
#     4  10  19  42  67  92 120 167 210 250 317 360
#     4  10  23  38  61  91 118 163 207 249 311 366
#     4   9  23  39  64  89 128 162 202 260 303 369
#
# _framework density 20.249556999999999
#
# number of rings (size 3 to 8) (size 9 to 14) (size 15 to 20)
#    0.857    1.143    1.429    1.286    4.000    4.000 
#    0.000    3.571    3.143    0.000    0.000    0.000 
#    0.000    0.000    0.000    0.000    0.000    0.000 
#
# Total GULP energy -173453.686199 kJ/mol
# GULP energy per Si atom -12389.549014 kJ/mol
# Density = 2.020347 g / cm^3
# Si number density = 20.249557 Si / 1000 Ang^3
#
#
#
# Elastic Constant Matrix: (Units=GPa)
#
#
# Indices 1 2 3 4 5 6 
#
# 1 144.2969 54.9651 29.2421 0.7439 -1.3978 -8.5837
# 2 54.9651 130.6560 33.0271 0.4209 -4.2115 -3.5357
# 3 29.2421 33.0271 61.5270 -1.1694 -4.1993 -8.3848
# 4 0.7439 0.4209 -1.1694 33.1590 1.1265 -3.4480
# 5 -1.3978 -4.2115 -4.1993 1.1265 22.7748 7.3299
# 6 -8.5837 -3.5357 -8.3848 -3.4480 7.3299 31.8263
#
#
#
# Elastic Compliance Matrix: (Units=1/GPa)
#
#
# Indices 1 2 3 4 5 6 
#
# 1 0.008644 -0.003036 -0.002328 -0.000038 -0.000973 0.001601
# 2 -0.003036 0.009946 -0.003964 -0.000356 0.001292 -0.001094
# 3 -0.002328 -0.003964 0.020160 0.001182 0.001486 0.004029
# 4 -0.000038 -0.000356 0.001182 0.030736 -0.002729 0.004220
# 5 -0.000973 0.001292 0.001486 -0.002729 0.048067 -0.011093
# 6 0.001601 -0.001094 0.004029 0.004220 -0.011093 0.035804
#
#
# Mechanical properties :
#
#
# Convention : Reuss Voigt Hill
#
# Bulk Modulus (GPa) = 49.76248 63.43871 56.60060
# Shear Modulus (GPa) = 27.97813 32.16839 30.07326
#
# Velocity S-wave (km/s) = 3.72111 3.99004 3.85792
# Velocity P-wave (km/s) = 6.56431 7.25422 6.91787
#
# Compressibility (1/GPa) = 0.02009546
#
# Stress axis : x y z
#
# Youngs Moduli (GPa) = 115.68223 100.54254 49.60334
#
# Poissons Ratio (x) = 0.30526 0.11546
# Poissons Ratio (y) = 0.35122 0.19661
# Poissons Ratio (z) = 0.26927 0.39852
#
# Static dielectric constant tensor:
#      x y z
#    x 3.669090 0.043720 -0.086080 
#    y 0.043720 3.754990 0.234350 
#    z -0.086080 0.234350 3.488150 
# 
# 
# High freq. dielectric constant tensor:
#      x y z
#    x 1.793380 -0.002220 -0.007240 
#    y -0.002220 1.795550 0.013920 
#    z -0.007240 0.013920 1.777730 
# 
# From -- ./inp_files/251411.got.cif
#   From: 2010.06.25/outbox.cif.g09.slc.cpg/sg2_126_cif.got.tgz:251411.got - 2010.06.27 13:26:56.
