data_PCOD8001348
_publ_section_title
;
Structure prediction by ZEFSAII (Michael W. Deem and Ramdas Pophale) SiO2 
 PCOD8001348
Probable space group: P -1
;
_chemical_formula_sum "Si O2"
_cell_formula_units_Z 12
_cell_length_a 5.160929
_cell_length_b 14.927491
_cell_length_c 15.301668
_cell_angle_alpha 33.403293
_cell_angle_beta 114.346226
_cell_angle_gamma 115.011642
_cell_volume 583.955318
_symmetry_space_group_name_H-M "P -1"
_symmetry_group_IT_number 2
_symmetry_cell_setting 'triclinic'
loop_
_space_group_symop_operation_xyz
x,y,z
-x,-y,-z
loop_
_atom_site_type_symbol
_atom_site_label
_atom_site_fract_x
_atom_site_fract_y
_atom_site_fract_z
Si Si1 0.204762 0.890109 0.571460
Si Si2 0.908261 0.215827 0.045614
Si Si3 0.023292 0.310903 0.650113
Si Si4 0.529976 0.216876 0.149975
Si Si5 0.617925 0.190104 0.848188
Si Si6 0.875722 0.101310 0.637876
O O1 0.272867 0.745780 0.765247
O O2 0.073685 0.820862 0.516337
O O3 0.500000 0.000000 0.500000
O O4 0.000000 0.000000 0.500000
O O5 0.711457 0.282192 0.037263
O O6 0.240235 0.301009 0.040724
O O7 0.805187 0.263927 0.897317
O O8 0.883284 0.016126 0.212280
O O9 0.829331 0.207108 0.780917
O O10 0.903047 0.250472 0.587863
O O11 0.000000 0.500000 0.500000
O O12 0.356540 0.292028 0.719484
O O13 0.434737 0.016463 0.298244
O O14 0.500000 0.000000 0.000000
#
# Coordination Sequence:
#
# PCOD8001348 Si02
#       6
#     2   2   2   2   2   2
#     4  10  16  27  46  77 113 137 169 229 297 325
#     4  10  18  29  53  78 105 135 181 231 276 318
#     4  12  26  40  56  85 122 156 191 235 285 345
#     4   9  16  29  46  83 110 129 177 237 286 316
#     4  12  22  40  61  84 109 156 201 238 283 335
#     4   9  20  30  53  76 114 143 182 226 287 324
#
# _framework density 20.549516000000001
#
# number of rings (size 3 to 8) (size 9 to 14) (size 15 to 20)
#    1.000    0.667    3.333    3.000    0.000    0.000 
#    0.000    0.000    0.000    0.000    0.000    7.000 
#    0.000    0.000    0.000    0.000    0.000    0.000 
#
# Total GULP energy -148687.178588 kJ/mol
# GULP energy per Si atom -12390.598216 kJ/mol
# Density = 2.050274 g / cm^3
# Si number density = 20.549516 Si / 1000 Ang^3
#
#
#
# Elastic Constant Matrix: (Units=GPa)
#
#
# Indices 1 2 3 4 5 6 
#
# 1 129.0862 37.0996 17.7397 24.9375 11.0550 -24.4473
# 2 37.0996 109.6904 48.1548 48.7902 -2.8491 -22.2866
# 3 17.7397 48.1548 53.3806 25.1351 9.6232 -1.3416
# 4 24.9375 48.7902 25.1351 45.7049 0.2476 -6.4594
# 5 11.0550 -2.8491 9.6232 0.2476 30.8711 9.8842
# 6 -24.4473 -22.2866 -1.3416 -6.4594 9.8842 26.8282
#
#
#
# Elastic Compliance Matrix: (Units=1/GPa)
#
#
# Indices 1 2 3 4 5 6 
#
# 1 0.011771 0.001253 -0.000670 -0.005450 -0.008145 0.013422
# 2 0.001253 0.028494 -0.016919 -0.019153 0.001601 0.018764
# 3 -0.000670 -0.016919 0.037361 -0.003488 -0.009720 -0.010056
# 4 -0.005450 -0.019153 -0.003488 0.045521 0.004691 -0.011820
# 5 -0.008145 0.001601 -0.009720 0.004691 0.045569 -0.022237
# 6 0.013422 0.018764 -0.010056 -0.011820 -0.022237 0.069937
#
#
# Mechanical properties :
#
#
# Convention : Reuss Voigt Hill
#
# Bulk Modulus (GPa) = 22.24548 55.34951 38.79750
# Shear Modulus (GPa) = 17.46354 33.29172 25.37763
#
# Velocity S-wave (km/s) = 2.91834 4.02938 3.51800
# Velocity P-wave (km/s) = 4.71216 6.97431 5.95170
#
# Compressibility (1/GPa) = 0.04495295
#
# Stress axis : x y z
#
# Youngs Moduli (GPa) = 84.95304 35.09541 26.76598
#
# Poissons Ratio (x) = -0.04396 0.01793
# Poissons Ratio (y) = -0.10642 0.45286
# Poissons Ratio (z) = 0.05691 0.59379
#
# Static dielectric constant tensor:
#      x y z
#    x 3.792960 -0.132110 0.134860 
#    y -0.132110 3.793630 0.739770 
#    z 0.134860 0.739770 3.616120 
# 
# 
# High freq. dielectric constant tensor:
#      x y z
#    x 1.813190 -0.015040 0.015740 
#    y -0.015040 1.785750 0.052330 
#    z 0.015740 0.052330 1.771120 
# 
# From -- ./inp_files/293622.got.cif
#   From: 2010.06.25/outbox.cif.g09.slc.cpg/sg2_147_cif.got.tgz:293622.got - 2010.06.27 13:26:56.
