data_PCOD8001589
_publ_section_title
;
Structure prediction by ZEFSAII (Michael W. Deem and Ramdas Pophale) SiO2 
 PCOD8001589
Probable space group: P -1
;
_chemical_formula_sum "Si O2"
_cell_formula_units_Z 12
_cell_length_a 11.500774
_cell_length_b 8.985305
_cell_length_c 12.489380
_cell_angle_alpha 68.161726
_cell_angle_beta 121.931666
_cell_angle_gamma 65.888843
_cell_volume 650.784767
_symmetry_space_group_name_H-M "P -1"
_symmetry_group_IT_number 2
_symmetry_cell_setting 'triclinic'
loop_
_space_group_symop_operation_xyz
x,y,z
-x,-y,-z
loop_
_atom_site_type_symbol
_atom_site_label
_atom_site_fract_x
_atom_site_fract_y
_atom_site_fract_z
Si Si1 0.140222 0.807276 0.963944
Si Si2 0.107836 0.485824 0.954806
Si Si3 0.723950 0.352183 0.694231
Si Si4 0.527158 0.985155 0.197221
Si Si5 0.308016 0.979204 0.923362
Si Si6 0.892391 0.526233 0.642378
O O1 0.123874 0.661670 0.926471
O O2 0.254058 0.839921 0.938442
O O3 0.283267 0.650119 0.180580
O O4 0.902585 0.072766 0.810143
O O5 0.967757 0.580563 0.755964
O O6 0.343764 0.198887 0.134275
O O7 0.000000 0.500000 0.000000
O O8 0.500000 0.500000 0.500000
O O9 0.764511 0.497870 0.642849
O O10 0.567501 0.096423 0.105556
O O11 0.742691 0.755919 0.426996
O O12 0.455036 0.892668 0.120317
O O13 0.094274 0.278751 0.741253
#
# Coordination Sequence:
#
# PCOD8001589 Si02
#       6
#     2   2   2   2   2   2
#     4  10  21  37  53  79 116 139 181 229 266 325
#     4  11  23  37  53  83 118 148 173 225 281 323
#     4  10  20  33  57  81 104 145 184 226 270 315
#     4  10  21  37  60  82 109 147 184 222 275 325
#     4   9  20  39  59  81 108 145 186 230 266 315
#     4  10  20  36  58  83 109 142 187 226 269 325
#
# _framework density 18.439277000000001
#
# number of rings (size 3 to 8) (size 9 to 14) (size 15 to 20)
#    0.000    2.000    1.667    1.500    4.667    2.667 
#    0.000    0.833    0.000    0.000    0.000    0.000 
#    0.000    0.000    0.000    0.000    0.000    0.000 
#
# Total GULP energy -148850.572086 kJ/mol
# GULP energy per Si atom -12404.214341 kJ/mol
# Density = 1.839731 g / cm^3
# Si number density = 18.439277 Si / 1000 Ang^3
#
#
#
# Elastic Constant Matrix: (Units=GPa)
#
#
# Indices 1 2 3 4 5 6 
#
# 1 115.1628 56.0686 30.7874 3.7828 4.7805 4.5996
# 2 56.0686 96.8776 37.0720 10.5266 -3.2549 17.0818
# 3 30.7874 37.0720 101.0991 19.7636 10.7194 9.4079
# 4 3.7828 10.5266 19.7636 10.8619 4.2025 5.4226
# 5 4.7805 -3.2549 10.7194 4.2025 26.3554 1.8012
# 6 4.5996 17.0818 9.4079 5.4226 1.8012 37.4049
#
#
#
# Elastic Compliance Matrix: (Units=1/GPa)
#
#
# Indices 1 2 3 4 5 6 
#
# 1 0.012996 -0.007898 -0.002408 0.008161 -0.003765 0.001612
# 2 -0.007898 0.018137 -0.002445 -0.010194 0.006671 -0.005540
# 3 -0.002408 -0.002445 0.017035 -0.027431 -0.002503 0.001225
# 4 0.008161 -0.010194 -0.027431 0.161414 -0.016497 -0.012055
# 5 -0.003765 0.006671 -0.002503 -0.016497 0.043211 -0.001643
# 6 0.001612 -0.005540 0.001225 -0.012055 -0.001643 0.030585
#
#
# Mechanical properties :
#
#
# Convention : Reuss Voigt Hill
#
# Bulk Modulus (GPa) = 44.11556 62.33284 53.22420
# Shear Modulus (GPa) = 15.80108 27.53852 21.66980
#
# Velocity S-wave (km/s) = 2.93050 3.86874 3.43184
# Velocity P-wave (km/s) = 5.95207 7.33716 6.68061
#
# Compressibility (1/GPa) = 0.02266774
#
# Stress axis : x y z
#
# Youngs Moduli (GPa) = 76.94709 55.13514 58.70351
#
# Poissons Ratio (x) = 0.43544 0.14135
# Poissons Ratio (y) = 0.60770 0.14351
# Poissons Ratio (z) = 0.18527 0.13479
#
# Static dielectric constant tensor:
#      x y z
#    x 3.564570 -0.002120 0.130780 
#    y -0.002120 3.345400 0.033390 
#    z 0.130780 0.033390 3.360290 
# 
# 
# High freq. dielectric constant tensor:
#      x y z
#    x 1.728450 0.001760 0.006290 
#    y 0.001760 1.702280 0.006530 
#    z 0.006290 0.006530 1.716840 
# 
# From -- ./inp_files/19008.got.cif
#   From: 2010.06.25/outbox.cif.g09.slc.cpg/sg2_10_cif.got.tgz:19008.got - 2010.06.27 13:26:56.
