data_PCOD8001622
_publ_section_title
;
Structure prediction by ZEFSAII (Michael W. Deem and Ramdas Pophale) SiO2 
 PCOD8001622
Probable space group: P -1
;
_chemical_formula_sum "Si O2"
_cell_formula_units_Z 16
_cell_length_a 14.789683
_cell_length_b 9.124107
_cell_length_c 15.152060
_cell_angle_alpha 92.916358
_cell_angle_beta 29.280005
_cell_angle_gamma 111.951475
_cell_volume 737.340758
_symmetry_space_group_name_H-M "P -1"
_symmetry_group_IT_number 2
_symmetry_cell_setting 'triclinic'
loop_
_space_group_symop_operation_xyz
x,y,z
-x,-y,-z
loop_
_atom_site_type_symbol
_atom_site_label
_atom_site_fract_x
_atom_site_fract_y
_atom_site_fract_z
Si Si1 0.635495 0.442821 0.019801
Si Si2 0.001112 0.254367 0.783211
Si Si3 0.493936 0.053042 0.104884
Si Si4 0.910634 0.360928 0.487694
Si Si5 0.152539 0.038048 0.958439
Si Si6 0.859038 0.459114 0.008195
Si Si7 0.700029 0.158922 0.264402
Si Si8 0.587614 0.438181 0.684593
O O1 0.468601 0.215430 0.126239
O O2 0.475609 0.507904 0.167959
O O3 0.718182 0.463237 0.050430
O O4 0.862063 0.579979 0.762443
O O5 0.027580 0.411801 0.828554
O O6 0.235555 0.368523 0.521526
O O7 0.743152 0.132569 0.944521
O O8 0.016624 0.108618 0.819570
O O9 0.245880 0.864239 0.358165
O O10 0.500000 0.000000 0.000000
O O11 0.735498 0.369585 0.578133
O O12 0.000000 0.500000 0.500000
O O13 0.333831 0.265207 0.842106
O O14 0.310163 0.977286 0.801098
O O15 0.000000 0.000000 0.000000
O O16 0.034145 0.677727 0.908226
O O17 0.660058 0.288122 0.245525
O O18 0.500000 0.000000 0.500000
#
# Coordination Sequence:
#
# PCOD8001622 Si02
#       8
#     2   2   2   2   2   2   2   2
#     4  11  25  40  68 100 128 177 224 265 344 397
#     4  10  21  40  65  89 133 182 217 273 343 386
#     4  11  21  44  69  95 131 171 218 274 340 402
#     4  12  24  46  73  97 135 175 217 282 341 402
#     4  11  24  39  59  96 136 177 225 274 333 392
#     4   9  19  37  55  88 125 164 223 264 316 394
#     4  10  20  33  59  85 121 172 217 265 323 381
#     4  12  24  43  69  98 138 173 225 283 325 402
#
# _framework density 21.699598999999999
#
# number of rings (size 3 to 8) (size 9 to 14) (size 15 to 20)
#    0.000    1.250    5.000    1.500    0.000    3.000 
#    0.000    1.250    0.000    0.000    0.000    0.000 
#    0.000    0.000    0.000    0.000    0.000    0.000 
#
# Total GULP energy -198304.097928 kJ/mol
# GULP energy per Si atom -12394.006120 kJ/mol
# Density = 2.165021 g / cm^3
# Si number density = 21.699599 Si / 1000 Ang^3
#
#
#
# Elastic Constant Matrix: (Units=GPa)
#
#
# Indices 1 2 3 4 5 6 
#
# 1 70.4241 10.5889 21.4594 -10.5015 14.6725 12.0659
# 2 10.5889 108.6576 65.3023 -15.7584 6.1648 20.5278
# 3 21.4594 65.3023 163.8164 -19.6166 36.8282 -3.7606
# 4 -10.5015 -15.7584 -19.6166 40.5542 -2.8496 4.0118
# 5 14.6725 6.1648 36.8282 -2.8496 32.3553 -2.8370
# 6 12.0659 20.5278 -3.7606 4.0118 -2.8370 33.5251
#
#
#
# Elastic Compliance Matrix: (Units=1/GPa)
#
#
# Indices 1 2 3 4 5 6 
#
# 1 0.018174 0.001620 -0.000815 0.005266 -0.007941 -0.008926
# 2 0.001620 0.015910 -0.007109 0.004548 0.003732 -0.011351
# 3 -0.000815 -0.007109 0.011857 0.001494 -0.011215 0.004849
# 4 0.005266 0.004548 0.001494 0.029110 -0.003115 -0.008260
# 5 -0.007941 0.003732 -0.011215 -0.003115 0.046606 0.003632
# 6 -0.008926 -0.011351 0.004849 -0.008260 0.003632 0.041831
#
#
# Mechanical properties :
#
#
# Convention : Reuss Voigt Hill
#
# Bulk Modulus (GPa) = 30.00291 59.73326 44.86808
# Shear Modulus (GPa) = 26.70827 37.65676 32.18251
#
# Velocity S-wave (km/s) = 3.51211 4.17029 3.85527
# Velocity P-wave (km/s) = 5.50482 7.12570 6.36705
#
# Compressibility (1/GPa) = 0.03333010
#
# Stress axis : x y z
#
# Youngs Moduli (GPa) = 55.02481 62.85191 84.34084
#
# Poissons Ratio (x) = -0.10180 0.06878
# Poissons Ratio (y) = -0.08912 0.59962
# Poissons Ratio (z) = 0.04487 0.44684
#
# Static dielectric constant tensor:
#      x y z
#    x 3.650020 -0.319740 -0.446710 
#    y -0.319740 3.646490 -0.956370 
#    z -0.446710 -0.956370 2.145360 
# 
# 
# High freq. dielectric constant tensor:
#      x y z
#    x 1.853360 0.011230 0.026510 
#    y 0.011230 1.860250 -0.016900 
#    z 0.026510 -0.016900 1.842170 
# 
# From -- ./inp_files/505058.got.cif
#   From: 2010.06.25/outbox.cif.g09.slc.cpg/sg2_253_cif.got.tgz:505058.got - 2010.06.27 13:26:56.
