data_PCOD8001992
_publ_section_title
;
Structure prediction by ZEFSAII (Michael W. Deem and Ramdas Pophale) SiO2 
 PCOD8001992
Probable space group: P -1
;
_chemical_formula_sum "Si O2"
_cell_formula_units_Z 16
_cell_length_a 11.544497
_cell_length_b 16.792213
_cell_length_c 10.607308
_cell_angle_alpha 31.300179
_cell_angle_beta 128.750155
_cell_angle_gamma 110.997760
_cell_volume 749.943723
_symmetry_space_group_name_H-M "P -1"
_symmetry_group_IT_number 2
_symmetry_cell_setting 'triclinic'
loop_
_space_group_symop_operation_xyz
x,y,z
-x,-y,-z
loop_
_atom_site_type_symbol
_atom_site_label
_atom_site_fract_x
_atom_site_fract_y
_atom_site_fract_z
Si Si1 0.061625 0.534857 0.625897
Si Si2 0.632790 0.075756 0.881176
Si Si3 0.511548 0.395831 0.773882
Si Si4 0.616150 0.049931 0.193662
Si Si5 0.164624 0.595884 0.018502
Si Si6 0.040933 0.226443 0.130765
Si Si7 0.127178 0.301612 0.500654
Si Si8 0.756248 0.342783 0.584292
O O1 0.207306 0.588178 0.617423
O O2 0.000000 0.500000 0.500000
O O3 0.910136 0.685893 0.391833
O O4 0.114656 0.365557 0.976517
O O5 0.671807 0.221926 0.648505
O O6 0.473537 0.075862 0.702031
O O7 0.607556 0.120853 0.950649
O O8 0.782925 0.891112 0.219886
O O9 0.500000 0.500000 0.500000
O O10 0.686134 0.373052 0.981256
O O11 0.361287 0.496016 0.629971
O O12 0.516261 0.211411 0.997512
O O13 0.801763 0.954854 0.501839
O O14 0.228848 0.408677 0.383228
O O15 0.066933 0.739196 0.862441
O O16 0.051370 0.606402 0.809592
O O17 0.925756 0.230944 0.927914
#
# Coordination Sequence:
#
# PCOD8001992 Si02
#       8
#     2   2   2   2   2   2   2   2
#     4   9  22  42  65  86 121 173 213 243 304 385
#     4  11  23  36  61  95 132 155 201 262 320 358
#     4  12  22  38  62  93 129 166 203 251 312 376
#     4  11  24  37  61  97 132 156 203 261 321 356
#     4  10  20  34  62  95 124 155 209 255 317 360
#     4  10  20  41  65  90 122 163 210 258 300 370
#     4  10  21  37  62  93 125 162 201 265 308 364
#     4  11  24  41  66  89 127 169 210 245 311 380
#
# _framework density 21.334934000000001
#
# number of rings (size 3 to 8) (size 9 to 14) (size 15 to 20)
#    0.000    1.500    3.750    0.750    7.000    1.500 
#    0.000    3.125    0.000    0.000    0.000    0.000 
#    0.000    0.000    0.000    0.000    0.000    0.000 
#
# Total GULP energy -198349.975648 kJ/mol
# GULP energy per Si atom -12396.873478 kJ/mol
# Density = 2.128638 g / cm^3
# Si number density = 21.334934 Si / 1000 Ang^3
#
#
#
# Elastic Constant Matrix: (Units=GPa)
#
#
# Indices 1 2 3 4 5 6 
#
# 1 104.1823 29.9598 16.5963 -6.8898 4.1368 11.4733
# 2 29.9598 77.9655 21.6864 -15.9098 6.6258 7.3108
# 3 16.5963 21.6864 74.0600 -11.8369 23.8506 0.2422
# 4 -6.8898 -15.9098 -11.8369 38.2433 1.5844 1.7407
# 5 4.1368 6.6258 23.8506 1.5844 23.2874 -6.0224
# 6 11.4733 7.3108 0.2422 1.7407 -6.0224 36.7079
#
#
#
# Elastic Compliance Matrix: (Units=1/GPa)
#
#
# Indices 1 2 3 4 5 6 
#
# 1 0.011180 -0.003583 -0.001263 0.000280 -0.000430 -0.002856
# 2 -0.003583 0.016514 -0.002105 0.005834 -0.003062 -0.002934
# 3 -0.001263 -0.002105 0.023586 0.007396 -0.024809 -0.003763
# 4 0.000280 0.005834 0.007396 0.031664 -0.012702 -0.004884
# 5 -0.000430 -0.003062 -0.024809 -0.012702 0.073680 0.013598
# 6 -0.002856 -0.002934 -0.003763 -0.004884 0.013598 0.031207
#
#
# Mechanical properties :
#
#
# Convention : Reuss Voigt Hill
#
# Bulk Modulus (GPa) = 26.75343 43.63252 35.19298
# Shear Modulus (GPa) = 23.34346 32.17876 27.76111
#
# Velocity S-wave (km/s) = 3.31137 3.88785 3.61113
# Velocity P-wave (km/s) = 5.21413 6.37569 5.82395
#
# Compressibility (1/GPa) = 0.03737838
#
# Stress axis : x y z
#
# Youngs Moduli (GPa) = 89.44168 60.55337 42.39783
#
# Poissons Ratio (x) = 0.21698 0.05357
# Poissons Ratio (y) = 0.32049 0.08923
# Poissons Ratio (z) = 0.11301 0.12744
#
# Static dielectric constant tensor:
#      x y z
#    x 4.574070 0.341340 0.032560 
#    y 0.341340 3.936100 -0.035170 
#    z 0.032560 -0.035170 3.683360 
# 
# 
# High freq. dielectric constant tensor:
#      x y z
#    x 1.826050 0.016120 0.017030 
#    y 0.016120 1.839960 -0.011870 
#    z 0.017030 -0.011870 1.815970 
# 
# From -- ./inp_files/185812.got.cif
#   From: 2010.06.25/outbox.cif.g09.slc.cpg/sg2_93_cif.got.tgz:185812.got - 2010.06.27 13:26:56.
