data_PCOD8001455
_publ_section_title
;
Structure prediction by ZEFSAII (Michael W. Deem and Ramdas Pophale) SiO2 
 PCOD8001455
Probable space group: P -1
;
_chemical_formula_sum "Si O2"
_cell_formula_units_Z 16
_cell_length_a 21.279528
_cell_length_b 9.155528
_cell_length_c 9.970978
_cell_angle_alpha 150.554307
_cell_angle_beta 128.603052
_cell_angle_gamma 52.199761
_cell_volume 733.959071
_symmetry_space_group_name_H-M "P -1"
_symmetry_group_IT_number 2
_symmetry_cell_setting 'triclinic'
loop_
_space_group_symop_operation_xyz
x,y,z
-x,-y,-z
loop_
_atom_site_type_symbol
_atom_site_label
_atom_site_fract_x
_atom_site_fract_y
_atom_site_fract_z
Si Si1 0.371975 0.549262 0.517929
Si Si2 0.255216 0.592768 0.982463
Si Si3 0.854923 0.538235 0.038119
Si Si4 0.643030 0.043007 0.439048
Si Si5 0.975397 0.752672 0.868674
Si Si6 0.808157 0.230840 0.478547
Si Si7 0.524710 0.047192 0.918695
Si Si8 0.125740 0.740332 0.705134
O O1 0.284883 0.588923 0.506310
O O2 0.401425 0.207301 0.237962
O O3 0.364615 0.752682 0.538915
O O4 0.438632 0.643897 0.786028
O O5 0.287676 0.244852 0.719763
O O6 0.203883 0.731673 0.897418
O O7 0.198831 0.631270 0.070571
O O8 0.330161 0.770768 0.250445
O O9 0.858592 0.388800 0.778094
O O10 0.946992 0.492950 0.178817
O O11 0.813034 0.886079 0.252133
O O12 0.555473 0.943902 0.273755
O O13 0.915713 0.554242 0.558010
O O14 0.933938 0.941718 0.091801
O O15 0.000000 0.000000 0.000000
O O16 0.848892 0.259794 0.414196
O O17 0.500000 0.000000 0.000000
#
# Coordination Sequence:
#
# PCOD8001455 Si02
#       8
#     2   2   2   2   2   2   2   2
#     4  11  19  36  59  89 131 168 199 262 323 370
#     4  12  22  39  65  92 126 166 215 262 314 374
#     4  12  24  42  69  93 125 174 213 266 320 380
#     4  11  20  35  61  95 125 161 215 267 306 370
#     4  12  26  45  71  95 129 167 215 272 323 377
#     4  12  26  43  65  97 134 168 216 262 321 388
#     4  10  20  32  57  94 130 160 206 263 321 362
#     4  12  28  45  66  97 129 173 213 263 328 387
#
# _framework density 21.799582999999998
#
# number of rings (size 3 to 8) (size 9 to 14) (size 15 to 20)
#    0.000    0.500    3.750    7.125    1.750    3.000 
#    0.000    0.000    0.000    4.500    0.000    0.000 
#    0.000    0.000    0.000    0.000    0.000    0.000 
#
# Total GULP energy -198438.204280 kJ/mol
# GULP energy per Si atom -12402.387767 kJ/mol
# Density = 2.174997 g / cm^3
# Si number density = 21.799583 Si / 1000 Ang^3
#
#
#
# Elastic Constant Matrix: (Units=GPa)
#
#
# Indices 1 2 3 4 5 6 
#
# 1 80.7627 25.5386 13.7999 7.5115 -5.3901 -32.5620
# 2 25.5386 68.1786 24.5424 -12.1327 -6.4307 -9.9172
# 3 13.7999 24.5424 123.3331 -0.1402 5.8696 -4.4478
# 4 7.5115 -12.1327 -0.1402 42.3991 -13.0572 -15.5909
# 5 -5.3901 -6.4307 5.8696 -13.0572 43.0057 -3.8088
# 6 -32.5620 -9.9172 -4.4478 -15.5909 -3.8088 34.0113
#
#
#
# Elastic Compliance Matrix: (Units=1/GPa)
#
#
# Indices 1 2 3 4 5 6 
#
# 1 0.023594 -0.002818 -0.001489 0.006451 0.006939 0.025306
# 2 -0.002818 0.021677 -0.004017 0.012867 0.008221 0.009916
# 3 -0.001489 -0.004017 0.009111 -0.003003 -0.003221 -0.003143
# 4 0.006451 0.012867 -0.003003 0.043696 0.019218 0.031718
# 5 0.006939 0.008221 -0.003221 0.019218 0.033502 0.021181
# 6 0.025306 0.009916 -0.003143 0.031718 0.021181 0.073021
#
#
# Mechanical properties :
#
#
# Convention : Reuss Voigt Hill
#
# Bulk Modulus (GPa) = 26.50315 44.44848 35.47582
# Shear Modulus (GPa) = 21.38330 37.77612 29.57971
#
# Velocity S-wave (km/s) = 3.13534 4.16731 3.68760
# Velocity P-wave (km/s) = 5.02903 6.60221 5.86857
#
# Compressibility (1/GPa) = 0.03773136
#
# Stress axis : x y z
#
# Youngs Moduli (GPa) = 42.38444 46.13256 109.76119
#
# Poissons Ratio (x) = 0.13001 0.16348
# Poissons Ratio (y) = 0.11945 0.44093
# Poissons Ratio (z) = 0.06313 0.18532
#
# Static dielectric constant tensor:
#      x y z
#    x 4.040590 -0.499830 0.198100 
#    y -0.499830 3.828200 -0.079830 
#    z 0.198100 -0.079830 4.420910 
# 
# 
# High freq. dielectric constant tensor:
#      x y z
#    x 1.844420 -0.034890 0.000850 
#    y -0.034890 1.833520 0.001270 
#    z 0.000850 0.001270 1.883680 
# 
# From -- ./inp_files/352494.got.cif
#   From: 2010.06.25/outbox.cif.g09.slc.cpg/sg2_177_cif.got.tgz:352494.got - 2010.06.27 13:26:56.
