data_PCOD8001223
_publ_section_title
;
Structure prediction by ZEFSAII (Michael W. Deem and Ramdas Pophale) SiO2 
 PCOD8001223
Probable space group: P -1
;
_chemical_formula_sum "Si O2"
_cell_formula_units_Z 16
_cell_length_a 11.932481
_cell_length_b 9.117599
_cell_length_c 14.509481
_cell_angle_alpha 56.941476
_cell_angle_beta 73.801143
_cell_angle_gamma 38.106099
_cell_volume 781.246267
_symmetry_space_group_name_H-M "P -1"
_symmetry_group_IT_number 2
_symmetry_cell_setting 'triclinic'
loop_
_space_group_symop_operation_xyz
x,y,z
-x,-y,-z
loop_
_atom_site_type_symbol
_atom_site_label
_atom_site_fract_x
_atom_site_fract_y
_atom_site_fract_z
Si Si1 0.605953 0.664469 0.205856
Si Si2 0.097988 0.219042 0.859664
Si Si3 0.141965 0.493371 0.471754
Si Si4 0.021727 0.644609 0.831466
Si Si5 0.950823 0.062914 0.384329
Si Si6 0.393602 0.076655 0.721772
Si Si7 0.251637 0.509852 0.253859
Si Si8 0.748473 0.087647 0.888567
O O1 0.723604 0.357790 0.322814
O O2 0.536987 0.863346 0.239692
O O3 0.436031 0.801714 0.135336
O O4 0.747873 0.611233 0.126212
O O5 0.237924 0.129927 0.781041
O O6 0.977169 0.514206 0.836879
O O7 0.947609 0.269793 0.828995
O O8 0.221478 0.959991 0.992449
O O9 0.298250 0.290667 0.584918
O O10 0.251400 0.387128 0.386318
O O11 0.000000 0.500000 0.500000
O O12 0.010956 0.816726 0.404454
O O13 0.941103 0.897292 0.698747
O O14 0.926328 0.776606 0.907690
O O15 0.000000 0.000000 0.500000
O O16 0.573806 0.752398 0.760112
O O17 0.273214 0.687209 0.215679
#
# Coordination Sequence:
#
# PCOD8001223 Si02
#       8
#     2   2   2   2   2   2   2   2
#     4   9  22  40  65  93 128 165 216 267 314 374
#     4  11  24  44  67  91 132 176 213 268 318 375
#     4  12  23  43  71  91 134 171 207 268 328 385
#     4   9  21  41  66  92 127 161 224 267 317 370
#     4  10  19  42  68  92 126 167 210 266 323 369
#     4  11  24  44  64  98 128 170 218 261 323 385
#     4  12  26  42  63  98 134 168 219 257 325 392
#     4  12  24  41  66  97 129 173 218 265 318 382
#
# _framework density 20.480098000000002
#
# number of rings (size 3 to 8) (size 9 to 14) (size 15 to 20)
#    0.750    0.500    3.750    1.875    1.750    4.500 
#    0.000    1.250    0.000    0.000    0.000    0.000 
#    0.000    0.000    0.000    0.000    0.000    0.000 
#
# Total GULP energy -198389.460695 kJ/mol
# GULP energy per Si atom -12399.341293 kJ/mol
# Density = 2.043348 g / cm^3
# Si number density = 20.480098 Si / 1000 Ang^3
#
#
#
# Elastic Constant Matrix: (Units=GPa)
#
#
# Indices 1 2 3 4 5 6 
#
# 1 66.9965 14.0155 0.9099 -2.9898 17.4982 -2.8343
# 2 14.0155 117.3853 7.9163 2.0968 7.2871 -4.4987
# 3 0.9099 7.9163 75.4453 7.7318 16.8704 -13.2570
# 4 -2.9898 2.0968 7.7318 27.8350 4.8518 -4.0793
# 5 17.4982 7.2871 16.8704 4.8518 33.2796 -5.9576
# 6 -2.8343 -4.4987 -13.2570 -4.0793 -5.9576 22.9167
#
#
#
# Elastic Compliance Matrix: (Units=1/GPa)
#
#
# Indices 1 2 3 4 5 6 
#
# 1 0.018225 -0.001684 0.002158 0.003489 -0.010632 0.001029
# 2 -0.001684 0.008836 -0.000572 -0.000454 -0.000517 0.000980
# 3 0.002158 -0.000572 0.016515 -0.001877 -0.007792 0.007348
# 4 0.003489 -0.000454 -0.001877 0.038510 -0.005563 0.004665
# 5 -0.010632 -0.000517 -0.007792 -0.005563 0.041192 0.003795
# 6 0.001029 0.000980 0.007348 0.004665 0.003795 0.050024
#
#
# Mechanical properties :
#
#
# Convention : Reuss Voigt Hill
#
# Bulk Modulus (GPa) = 23.05325 33.94560 28.49942
# Shear Modulus (GPa) = 26.60137 32.60527 29.60332
#
# Velocity S-wave (km/s) = 3.60792 3.99437 3.80606
# Velocity P-wave (km/s) = 5.35135 6.15502 5.76720
#
# Compressibility (1/GPa) = 0.04337783
#
# Stress axis : x y z
#
# Youngs Moduli (GPa) = 54.86846 113.16752 60.55248
#
# Poissons Ratio (x) = 0.19062 -0.13065
# Poissons Ratio (y) = 0.09242 0.03467
# Poissons Ratio (z) = -0.11838 0.06479
#
# Static dielectric constant tensor:
#      x y z
#    x 3.659310 0.215400 -0.090500 
#    y 0.215400 3.981910 0.067330 
#    z -0.090500 0.067330 3.692730 
# 
# 
# High freq. dielectric constant tensor:
#      x y z
#    x 1.794630 0.008590 -0.005390 
#    y 0.008590 1.804760 0.004220 
#    z -0.005390 0.004220 1.804340 
# 
# From -- ./inp_files/515204.got.cif
#   From: 2010.06.25/outbox.cif.g09.slc.cpg/sg2_258_cif.got.tgz:515204.got - 2010.06.27 13:26:56.
