data_PCOD8001881
_publ_section_title
;
Structure prediction by ZEFSAII (Michael W. Deem and Ramdas Pophale) SiO2 
 PCOD8001881
Probable space group: P -1
;
_chemical_formula_sum "Si O2"
_cell_formula_units_Z 14
_cell_length_a 9.449948
_cell_length_b 12.173797
_cell_length_c 22.066048
_cell_angle_alpha 152.011206
_cell_angle_beta 50.574107
_cell_angle_gamma 138.726338
_cell_volume 782.506638
_symmetry_space_group_name_H-M "P -1"
_symmetry_group_IT_number 2
_symmetry_cell_setting 'triclinic'
loop_
_space_group_symop_operation_xyz
x,y,z
-x,-y,-z
loop_
_atom_site_type_symbol
_atom_site_label
_atom_site_fract_x
_atom_site_fract_y
_atom_site_fract_z
Si Si1 0.432296 0.295079 0.269445
Si Si2 0.204035 0.257923 0.545139
Si Si3 0.884323 0.895740 0.838382
Si Si4 0.661604 0.983478 0.715768
Si Si5 0.802731 0.226017 0.240763
Si Si6 0.403171 0.093956 0.972672
Si Si7 0.156228 0.504944 0.011146
O O1 0.629785 0.606447 0.377523
O O2 0.342592 0.190064 0.309837
O O3 0.250025 0.282850 0.270375
O O4 0.508503 0.099922 0.124317
O O5 0.287366 0.137308 0.413702
O O6 0.139650 0.465147 0.636249
O O7 0.000000 0.000000 0.500000
O O8 0.012435 0.758504 0.760726
O O9 0.057299 0.206091 0.922078
O O10 0.708244 0.855355 0.916077
O O11 0.429186 0.943258 0.746107
O O12 0.828561 0.303221 0.842857
O O13 0.781962 0.067720 0.106425
O O14 0.607282 0.376328 0.026335
O O15 0.000000 0.500000 0.000000
#
# Coordination Sequence:
#
# PCOD8001881 Si02
#       7
#     2   2   2   2   2   2   2
#     4   9  19  35  56  84 106 151 187 222 276 326
#     4  10  21  39  61  78 104 150 196 226 270 333
#     4  12  20  35  60  84 122 143 174 241 284 320
#     4   9  19  38  58  76 112 145 194 226 253 357
#     4   9  21  38  53  85 111 148 183 228 288 315
#     4   9  20  35  53  84 120 147 187 218 267 354
#     4  10  20  34  58  89 110 148 188 215 286 331
#
# _framework density 17.891221000000002
#
# number of rings (size 3 to 8) (size 9 to 14) (size 15 to 20)
#    0.000    2.857    2.857    2.571    4.000    2.286 
#    2.571    3.571    0.000    0.000    0.000    0.000 
#    0.000    0.000    0.000    0.000    0.000    0.000 
#
# Total GULP energy -173468.645038 kJ/mol
# GULP energy per Si atom -12390.617503 kJ/mol
# Density = 1.785050 g / cm^3
# Si number density = 17.891221 Si / 1000 Ang^3
#
#
#
# Elastic Constant Matrix: (Units=GPa)
#
#
# Indices 1 2 3 4 5 6 
#
# 1 135.0569 29.0495 40.4489 4.4562 10.8641 16.3485
# 2 29.0495 96.1603 53.0813 5.2025 6.8712 12.4643
# 3 40.4489 53.0813 89.8127 6.6523 12.8469 12.5771
# 4 4.4562 5.2025 6.6523 38.5576 2.9399 3.3166
# 5 10.8641 6.8712 12.8469 2.9399 18.4035 5.8092
# 6 16.3485 12.4643 12.5771 3.3166 5.8092 12.5108
#
#
#
# Elastic Compliance Matrix: (Units=1/GPa)
#
#
# Indices 1 2 3 4 5 6 
#
# 1 0.009424 -0.000052 -0.002852 0.000250 -0.000710 -0.009133
# 2 -0.000052 0.016134 -0.008709 -0.000150 0.002797 -0.008510
# 3 -0.002852 -0.008709 0.019122 -0.000967 -0.007250 -0.003198
# 4 0.000250 -0.000150 -0.000967 0.026706 -0.001991 -0.005361
# 5 -0.000710 0.002797 -0.007250 -0.001991 0.067037 -0.025170
# 6 -0.009133 -0.008510 -0.003198 -0.005361 -0.025170 0.116666
#
#
# Mechanical properties :
#
#
# Convention : Reuss Voigt Hill
#
# Bulk Modulus (GPa) = 46.61006 62.90992 54.75999
# Shear Modulus (GPa) = 17.51517 27.12438 22.31978
#
# Velocity S-wave (km/s) = 3.13226 3.89790 3.53587
# Velocity P-wave (km/s) = 6.26018 7.44963 6.88066
#
# Compressibility (1/GPa) = 0.02145460
#
# Stress axis : x y z
#
# Youngs Moduli (GPa) = 106.11346 61.98123 52.29455
#
# Poissons Ratio (x) = 0.00321 0.14912
# Poissons Ratio (y) = 0.00549 0.45546
# Poissons Ratio (z) = 0.30259 0.53982
#
# Static dielectric constant tensor:
#      x y z
#    x 3.214180 0.184270 0.185490 
#    y 0.184270 3.275460 0.263770 
#    z 0.185490 0.263770 3.239790 
# 
# 
# High freq. dielectric constant tensor:
#      x y z
#    x 1.681180 0.009530 0.020180 
#    y 0.009530 1.690600 0.003300 
#    z 0.020180 0.003300 1.683700 
# 
# From -- ./inp_files/258262.got.cif
#   From: 2010.06.25/outbox.cif.g09.slc.cpg/sg2_130_cif.got.tgz:258262.got - 2010.06.27 13:26:56.
