data_PCOD8001823
_publ_section_title
;
Structure prediction by ZEFSAII (Michael W. Deem and Ramdas Pophale) SiO2 
 PCOD8001823
Probable space group: P -1
;
_chemical_formula_sum "Si O2"
_cell_formula_units_Z 16
_cell_length_a 14.521911
_cell_length_b 20.245478
_cell_length_c 11.914732
_cell_angle_alpha 151.003864
_cell_angle_beta 138.129007
_cell_angle_gamma 30.061076
_cell_volume 849.498165
_symmetry_space_group_name_H-M "P -1"
_symmetry_group_IT_number 2
_symmetry_cell_setting 'triclinic'
loop_
_space_group_symop_operation_xyz
x,y,z
-x,-y,-z
loop_
_atom_site_type_symbol
_atom_site_label
_atom_site_fract_x
_atom_site_fract_y
_atom_site_fract_z
Si Si1 0.476354 0.890513 0.401008
Si Si2 0.506217 0.001455 0.178103
Si Si3 0.836730 0.511896 0.098119
Si Si4 0.147425 0.021259 0.158593
Si Si5 0.943421 0.394442 0.621218
Si Si6 0.225860 0.269401 0.152493
Si Si7 0.388345 0.791519 0.830555
Si Si8 0.263962 0.595193 0.347250
O O1 0.443108 0.971211 0.614757
O O2 0.654897 0.675918 0.244244
O O3 0.297561 0.919712 0.245417
O O4 0.500000 0.000000 0.500000
O O5 0.334214 0.197609 0.261691
O O6 0.680973 0.898764 0.100443
O O7 0.459079 0.871480 0.941439
O O8 0.901280 0.591543 0.188771
O O9 0.010513 0.369316 0.127096
O O10 0.807117 0.394676 0.825592
O O11 0.246761 0.948963 0.022903
O O12 0.035787 0.234375 0.377028
O O13 0.000000 0.000000 0.000000
O O14 0.771517 0.580388 0.678491
O O15 0.882163 0.352464 0.612649
O O16 0.291659 0.739850 0.589100
O O17 0.548906 0.611466 0.776478
#
# Coordination Sequence:
#
# PCOD8001823 Si02
#       8
#     2   2   2   2   2   2   2   2
#     4  12  21  35  61  86 115 150 189 247 287 340
#     4  11  21  40  59  86 117 149 204 232 286 343
#     4  10  20  35  55  87 113 148 198 230 291 335
#     4  12  23  36  54  92 122 146 186 238 309 342
#     4  10  20  34  57  84 115 150 185 243 282 341
#     4   9  23  37  59  86 112 158 192 244 275 337
#     4  11  21  34  56  86 118 153 183 244 294 342
#     4  11  20  33  57  87 117 149 187 240 298 340
#
# _framework density 18.83465
#
# number of rings (size 3 to 8) (size 9 to 14) (size 15 to 20)
#    0.750    0.500    6.250    0.375    1.750    0.500 
#    0.000    0.625    0.000    0.750    0.000    0.000 
#    0.000    0.000    0.000    0.000    0.000    0.000 
#
# Total GULP energy -198278.970404 kJ/mol
# GULP energy per Si atom -12392.435650 kJ/mol
# Density = 1.879178 g / cm^3
# Si number density = 18.834650 Si / 1000 Ang^3
#
#
#
# Elastic Constant Matrix: (Units=GPa)
#
#
# Indices 1 2 3 4 5 6 
#
# 1 36.9487 17.4198 22.7701 -6.0466 -5.4737 -8.9350
# 2 17.4198 114.1983 40.9352 1.1894 -7.5912 -11.1554
# 3 22.7701 40.9352 106.5546 -4.1236 -5.5109 -10.8620
# 4 -6.0466 1.1894 -4.1236 32.2298 -10.2224 -1.3732
# 5 -5.4737 -7.5912 -5.5109 -10.2224 29.5263 -1.0065
# 6 -8.9350 -11.1554 -10.8620 -1.3732 -1.0065 27.9625
#
#
#
# Elastic Compliance Matrix: (Units=1/GPa)
#
#
# Indices 1 2 3 4 5 6 
#
# 1 0.036464 -0.002313 -0.005110 0.009475 0.008817 0.009527
# 2 -0.002313 0.010621 -0.003305 -0.000668 0.001530 0.002237
# 3 -0.005110 -0.003305 0.012016 0.001054 0.000872 0.001799
# 4 0.009475 -0.000668 0.001054 0.038000 0.015128 0.005581
# 5 0.008817 0.001530 0.000872 0.015128 0.041501 0.006003
# 6 0.009527 0.002237 0.001799 0.005581 0.006003 0.040888
#
#
# Mechanical properties :
#
#
# Convention : Reuss Voigt Hill
#
# Bulk Modulus (GPa) = 26.56283 46.66131 36.61207
# Shear Modulus (GPa) = 23.41983 29.71548 26.56765
#
# Velocity S-wave (km/s) = 3.53008 3.97634 3.75983
# Velocity P-wave (km/s) = 5.54518 6.77567 6.19107
#
# Compressibility (1/GPa) = 0.03764660
#
# Stress axis : x y z
#
# Youngs Moduli (GPa) = 27.42397 94.15040 83.22379
#
# Poissons Ratio (x) = 0.21773 0.42527
# Poissons Ratio (y) = 0.06342 0.27505
# Poissons Ratio (z) = 0.14014 0.31116
#
# Static dielectric constant tensor:
#      x y z
#    x 3.512420 -0.739170 -0.536910 
#    y -0.739170 4.103120 0.904580 
#    z -0.536910 0.904580 4.831240 
# 
# 
# High freq. dielectric constant tensor:
#      x y z
#    x 1.699840 -0.032290 -0.012900 
#    y -0.032290 1.727400 0.008710 
#    z -0.012900 0.008710 1.736510 
# 
# From -- ./inp_files/435934.got.cif
#   From: 2010.06.25/outbox.cif.g09.slc.cpg/sg2_218_cif.got.tgz:435934.got - 2010.06.27 13:26:56.
