data_PCOD8001577
_publ_section_title
;
Structure prediction by ZEFSAII (Michael W. Deem and Ramdas Pophale) SiO2 
 PCOD8001577
Probable space group: P -1
;
_chemical_formula_sum "Si O2"
_cell_formula_units_Z 16
_cell_length_a 16.706177
_cell_length_b 10.639907
_cell_length_c 15.841675
_cell_angle_alpha 42.017428
_cell_angle_beta 145.149683
_cell_angle_gamma 148.799125
_cell_volume 825.545296
_symmetry_space_group_name_H-M "P -1"
_symmetry_group_IT_number 2
_symmetry_cell_setting 'triclinic'
loop_
_space_group_symop_operation_xyz
x,y,z
-x,-y,-z
loop_
_atom_site_type_symbol
_atom_site_label
_atom_site_fract_x
_atom_site_fract_y
_atom_site_fract_z
Si Si1 0.813592 0.560754 0.948260
Si Si2 0.797082 0.972747 0.736834
Si Si3 0.546624 0.320141 0.530110
Si Si4 0.786730 0.178915 0.798061
Si Si5 0.324775 0.777899 0.848654
Si Si6 0.515620 0.294353 0.121052
Si Si7 0.488813 0.286242 0.688227
Si Si8 0.906456 0.550259 0.328210
O O1 0.813978 0.771688 0.881279
O O2 0.703629 0.471772 0.808767
O O3 0.698957 0.326371 0.027181
O O4 0.019755 0.662568 0.063944
O O5 0.609609 0.859413 0.583211
O O6 0.811155 0.116996 0.757598
O O7 0.966419 0.161396 0.726602
O O8 0.721110 0.338448 0.653845
O O9 0.472717 0.210719 0.614611
O O10 0.601926 0.587208 0.439403
O O11 0.639551 0.928435 0.844849
O O12 0.485349 0.802990 0.924480
O O13 0.134771 0.592832 0.724694
O O14 0.375938 0.041218 0.768908
O O15 0.716123 0.441699 0.262604
O O16 0.500000 0.500000 0.000000
O O17 0.000000 0.500000 0.500000
#
# Coordination Sequence:
#
# PCOD8001577 Si02
#       8
#     2   2   2   2   2   2   2   2
#     4  11  23  36  64  85 116 156 190 237 284 347
#     4  11  21  38  61  89 118 149 189 235 297 349
#     4  10  22  38  60  87 111 157 191 243 279 340
#     4  12  20  37  58  92 119 140 194 246 292 328
#     4  10  20  39  58  82 115 154 194 230 283 344
#     4  10  20  33  56  85 121 147 182 238 291 339
#     4  10  21  42  60  78 116 159 204 219 284 349
#     4  10  20  35  59  81 116 154 187 226 291 345
#
# _framework density 19.381129999999999
#
# number of rings (size 3 to 8) (size 9 to 14) (size 15 to 20)
#    0.750    0.750    2.500    4.125    0.000    0.500 
#    0.000    0.625    0.000    0.000    0.000    0.000 
#    0.000    0.000    0.000    0.000    0.000    0.000 
#
# Total GULP energy -198334.038193 kJ/mol
# GULP energy per Si atom -12395.877387 kJ/mol
# Density = 1.933702 g / cm^3
# Si number density = 19.381130 Si / 1000 Ang^3
#
#
#
# Elastic Constant Matrix: (Units=GPa)
#
#
# Indices 1 2 3 4 5 6 
#
# 1 51.8496 25.0550 31.3946 -8.0911 6.3173 12.5383
# 2 25.0550 98.5770 50.6204 -25.2870 12.7380 13.7485
# 3 31.3946 50.6204 135.8246 -4.0191 18.6262 4.6990
# 4 -8.0911 -25.2870 -4.0191 36.6737 0.0366 -4.6818
# 5 6.3173 12.7380 18.6262 0.0366 31.7764 -1.6501
# 6 12.5383 13.7485 4.6990 -4.6818 -1.6501 31.4406
#
#
#
# Elastic Compliance Matrix: (Units=1/GPa)
#
#
# Indices 1 2 3 4 5 6 
#
# 1 0.025728 -0.002104 -0.004511 0.002663 -0.002065 -0.008377
# 2 -0.002104 0.016849 -0.004825 0.010053 -0.003753 -0.004508
# 3 -0.004511 -0.004825 0.010499 -0.002947 -0.003230 0.001731
# 4 0.002663 0.010053 -0.002947 0.034462 -0.002873 -0.000037
# 5 -0.002065 -0.003753 -0.003230 -0.002873 0.035509 0.004383
# 6 -0.008377 -0.004508 0.001731 -0.000037 0.004383 0.037084
#
#
# Mechanical properties :
#
#
# Convention : Reuss Voigt Hill
#
# Bulk Modulus (GPa) = 33.11674 55.59903 44.35788
# Shear Modulus (GPa) = 25.89641 31.92355 28.90998
#
# Velocity S-wave (km/s) = 3.65933 4.06291 3.86639
# Velocity P-wave (km/s) = 5.91426 7.12454 6.54742
#
# Compressibility (1/GPa) = 0.03019621
#
# Stress axis : x y z
#
# Youngs Moduli (GPa) = 38.86864 59.34904 95.24612
#
# Poissons Ratio (x) = 0.12489 0.42961
# Poissons Ratio (y) = 0.08179 0.45957
# Poissons Ratio (z) = 0.17532 0.28636
#
# Static dielectric constant tensor:
#      x y z
#    x 3.244060 -0.104720 0.000630 
#    y -0.104720 3.634710 -0.018890 
#    z 0.000630 -0.018890 3.673100 
# 
# 
# High freq. dielectric constant tensor:
#      x y z
#    x 1.727900 -0.002440 -0.007190 
#    y -0.002440 1.761510 -0.007260 
#    z -0.007190 -0.007260 1.765020 
# 
# From -- ./inp_files/515633.got.cif
#   From: 2010.06.25/outbox.cif.g09.slc.cpg/sg2_258_cif.got.tgz:515633.got - 2010.06.27 13:26:56.
