data_PCOD8001298
_publ_section_title
;
Structure prediction by ZEFSAII (Michael W. Deem and Ramdas Pophale) SiO2 
 PCOD8001298
Probable space group: P -1
;
_chemical_formula_sum "Si O2"
_cell_formula_units_Z 16
_cell_length_a 5.563304
_cell_length_b 17.621973
_cell_length_c 8.895129
_cell_angle_alpha 120.380069
_cell_angle_beta 73.341790
_cell_angle_gamma 118.789961
_cell_volume 658.241517
_symmetry_space_group_name_H-M "P -1"
_symmetry_group_IT_number 2
_symmetry_cell_setting 'triclinic'
loop_
_space_group_symop_operation_xyz
x,y,z
-x,-y,-z
loop_
_atom_site_type_symbol
_atom_site_label
_atom_site_fract_x
_atom_site_fract_y
_atom_site_fract_z
Si Si1 0.064314 0.496923 0.813107
Si Si2 0.585558 0.075305 0.693887
Si Si3 0.938899 0.797796 0.434747
Si Si4 0.320178 0.674203 0.744698
Si Si5 0.729907 0.940530 0.722344
Si Si6 0.127045 0.792071 0.719507
Si Si7 0.485482 0.394858 0.640058
Si Si8 0.236045 0.120229 0.029588
O O1 0.780547 0.443939 0.718526
O O2 0.194519 0.606157 0.840054
O O3 0.294772 0.453843 0.720801
O O4 0.000000 0.500000 0.000000
O O5 0.795332 0.179663 0.697354
O O6 0.500000 0.000000 0.500000
O O7 0.740226 0.040924 0.759752
O O8 0.311936 0.080559 0.821235
O O9 0.907005 0.899323 0.546060
O O10 0.677680 0.703700 0.331576
O O11 0.958681 0.765850 0.569604
O O12 0.088568 0.691585 0.704207
O O13 0.469038 0.626083 0.561868
O O14 0.510250 0.781136 0.873327
O O15 0.432320 0.856239 0.679354
O O16 0.826582 0.957032 0.897052
O O17 0.023245 0.852416 0.914799
#
# Coordination Sequence:
#
# PCOD8001298 Si02
#       8
#     2   2   2   2   2   2   2   2
#     4  12  30  49  75 117 153 188 242 314 372 447
#     4  12  25  43  67 105 145 191 246 305 378 438
#     4  11  23  43  72 104 142 190 245 311 367 439
#     4  11  24  47  74 107 138 195 249 295 369 444
#     4  10  21  45  67  95 140 187 242 303 362 438
#     4  10  19  44  71 100 142 185 248 300 363 437
#     4  12  25  49  82 104 150 202 246 301 369 451
#     4  10  24  43  71  99 144 190 241 309 361 444
#
# _framework density 24.307189000000001
#
# number of rings (size 3 to 8) (size 9 to 14) (size 15 to 20)
#    0.000    1.000    5.000    2.625    3.500    0.500 
#    9.000    0.000    0.000    0.000    0.000    0.000 
#    0.000    0.000    0.000    0.000    0.000    0.000 
#
# Total GULP energy -198309.374946 kJ/mol
# GULP energy per Si atom -12394.335934 kJ/mol
# Density = 2.425186 g / cm^3
# Si number density = 24.307189 Si / 1000 Ang^3
#
#
#
# Elastic Constant Matrix: (Units=GPa)
#
#
# Indices 1 2 3 4 5 6 
#
# 1 113.6891 21.3228 33.7108 -4.0171 -16.5049 -23.7810
# 2 21.3228 115.9897 36.9880 -25.5544 -7.5623 -24.6713
# 3 33.7108 36.9880 119.2402 -18.4786 -25.1147 -16.4683
# 4 -4.0171 -25.5544 -18.4786 33.6916 7.1102 -6.7963
# 5 -16.5049 -7.5623 -25.1147 7.1102 40.1586 9.1606
# 6 -23.7810 -24.6713 -16.4683 -6.7963 9.1606 36.9856
#
#
#
# Elastic Compliance Matrix: (Units=1/GPa)
#
#
# Indices 1 2 3 4 5 6 
#
# 1 0.010863 0.000331 -0.001700 0.001511 0.001762 0.006289
# 2 0.000331 0.014401 -0.001462 0.013358 -0.003267 0.012432
# 3 -0.001700 -0.001462 0.011376 0.004459 0.004749 0.002640
# 4 0.001511 0.013358 0.004459 0.048696 -0.007891 0.022770
# 5 0.001762 -0.003267 0.004749 -0.007891 0.031229 -0.008117
# 6 0.006289 0.012432 0.002640 0.022770 -0.008117 0.046744
#
#
# Mechanical properties :
#
#
# Convention : Reuss Voigt Hill
#
# Bulk Modulus (GPa) = 32.28114 59.21802 45.74958
# Shear Modulus (GPa) = 27.88663 39.29364 33.59013
#
# Velocity S-wave (km/s) = 3.39080 4.02499 3.72143
# Velocity P-wave (km/s) = 5.35157 6.78351 6.10963
#
# Compressibility (1/GPa) = 0.03097784
#
# Stress axis : x y z
#
# Youngs Moduli (GPa) = 92.05870 69.43964 87.90211
#
# Poissons Ratio (x) = -0.02295 0.14942
# Poissons Ratio (y) = -0.03043 0.12849
# Poissons Ratio (z) = 0.15648 0.10150
#
# Static dielectric constant tensor:
#      x y z
#    x 4.948580 -0.160520 -0.087530 
#    y -0.160520 4.655200 -0.109840 
#    z -0.087530 -0.109840 4.458750 
# 
# 
# High freq. dielectric constant tensor:
#      x y z
#    x 1.980930 0.010230 -0.008270 
#    y 0.010230 1.969620 -0.001060 
#    z -0.008270 -0.001060 1.958100 
# 
# From -- ./inp_files/37863.got.cif
#   From: 2010.06.25/outbox.cif.g09.slc.cpg/sg2_19_cif.got.tgz:37863.got - 2010.06.27 13:26:56.
