data_PCOD8001243
_publ_section_title
;
Structure prediction by ZEFSAII (Michael W. Deem and Ramdas Pophale) SiO2 
 PCOD8001243
Probable space group: P -1
;
_chemical_formula_sum "Si O2"
_cell_formula_units_Z 16
_cell_length_a 11.618858
_cell_length_b 9.497237
_cell_length_c 16.964289
_cell_angle_alpha 42.556948
_cell_angle_beta 54.329484
_cell_angle_gamma 87.017011
_cell_volume 747.323883
_symmetry_space_group_name_H-M "P -1"
_symmetry_group_IT_number 2
_symmetry_cell_setting 'triclinic'
loop_
_space_group_symop_operation_xyz
x,y,z
-x,-y,-z
loop_
_atom_site_type_symbol
_atom_site_label
_atom_site_fract_x
_atom_site_fract_y
_atom_site_fract_z
Si Si1 0.028560 0.339925 0.993883
Si Si2 0.655053 0.488052 0.301038
Si Si3 0.972353 0.679363 0.487564
Si Si4 0.761044 0.723075 0.429779
Si Si5 0.598083 0.814174 0.849548
Si Si6 0.778961 0.032943 0.079733
Si Si7 0.653550 0.209138 0.919999
Si Si8 0.598905 0.226499 0.586896
O O1 0.258871 0.516566 0.814628
O O2 0.000000 0.500000 0.000000
O O3 0.959703 0.314283 0.940637
O O4 0.912848 0.028061 0.202062
O O5 0.440201 0.368627 0.427009
O O6 0.656280 0.304318 0.440669
O O7 0.805225 0.817645 0.135668
O O8 0.850998 0.734458 0.470065
O O9 0.854633 0.505130 0.685323
O O10 0.000000 0.500000 0.500000
O O11 0.178247 0.990992 0.296682
O O12 0.743233 0.501118 0.473073
O O13 0.590555 0.974570 0.715697
O O14 0.500000 0.500000 0.000000
O O15 0.465704 0.746036 0.002504
O O16 0.609373 0.874393 0.278387
O O17 0.717722 0.085105 0.002093
O O18 0.500000 0.000000 0.000000
#
# Coordination Sequence:
#
# PCOD8001243 Si02
#       8
#     2   2   2   2   2   2   2   2
#     4  12  27  42  64 104 145 179 228 287 361 426
#     4  11  22  41  73  97 130 186 228 288 356 410
#     4  12  24  42  74 105 138 187 242 292 346 428
#     4  11  23  44  67 103 137 177 239 291 338 431
#     4  11  26  45  68 103 148 186 232 306 361 413
#     4  10  21  41  70 100 136 175 234 293 341 425
#     4  11  23  43  71 107 141 181 242 293 358 426
#     4  10  19  42  71  96 135 178 238 288 347 419
#
# _framework density 21.409727
#
# number of rings (size 3 to 8) (size 9 to 14) (size 15 to 20)
#    0.000    1.000    5.000    2.625    3.500    4.000 
#    2.250    0.000    0.000    0.000    0.000    0.000 
#    0.000    0.000    0.000    0.000    0.000    0.000 
#
# Total GULP energy -198298.134723 kJ/mol
# GULP energy per Si atom -12393.633420 kJ/mol
# Density = 2.136100 g / cm^3
# Si number density = 21.409727 Si / 1000 Ang^3
#
#
#
# Elastic Constant Matrix: (Units=GPa)
#
#
# Indices 1 2 3 4 5 6 
#
# 1 97.3409 64.4075 52.2632 4.8401 7.1627 1.6252
# 2 64.4075 117.6026 75.2451 0.9675 14.1119 -11.8265
# 3 52.2632 75.2451 163.2550 10.4234 4.2657 -8.4247
# 4 4.8401 0.9675 10.4234 45.5518 -3.2128 -2.3303
# 5 7.1627 14.1119 4.2657 -3.2128 31.3630 0.6428
# 6 1.6252 -11.8265 -8.4247 -2.3303 0.6428 21.4770
#
#
#
# Elastic Compliance Matrix: (Units=1/GPa)
#
#
# Indices 1 2 3 4 5 6 
#
# 1 0.017457 -0.009318 -0.001574 -0.001640 0.000401 -0.007260
# 2 -0.009318 0.018358 -0.004976 0.001826 -0.005457 0.009223
# 3 -0.001574 -0.004976 0.009035 -0.001675 0.001184 0.000706
# 4 -0.001640 0.001826 -0.001675 0.022764 0.002054 0.002881
# 5 0.000401 -0.005457 0.001184 0.002054 0.034367 -0.003377
# 6 -0.007260 0.009223 0.000706 0.002881 -0.003377 0.052880
#
#
# Mechanical properties :
#
#
# Convention : Reuss Voigt Hill
#
# Bulk Modulus (GPa) = 76.25927 84.67002 80.46464
# Shear Modulus (GPa) = 26.18212 32.09721 29.13966
#
# Velocity S-wave (km/s) = 3.50080 3.87614 3.69324
# Velocity P-wave (km/s) = 7.21368 7.72437 7.47339
#
# Compressibility (1/GPa) = 0.01311316
#
# Stress axis : x y z
#
# Youngs Moduli (GPa) = 57.28285 54.47291 110.67699
#
# Poissons Ratio (x) = 0.50759 0.17423
# Poissons Ratio (y) = 0.53378 0.55074
# Poissons Ratio (z) = 0.09017 0.27106
#
# Static dielectric constant tensor:
#      x y z
#    x 3.938050 -0.016350 -0.080130 
#    y -0.016350 3.660620 0.186500 
#    z -0.080130 0.186500 4.162850 
# 
# 
# High freq. dielectric constant tensor:
#      x y z
#    x 1.847090 -0.007030 -0.001280 
#    y -0.007030 1.815430 0.018220 
#    z -0.001280 0.018220 1.856280 
# 
# From -- ./inp_files/188158.got.cif
#   From: 2010.06.25/outbox.cif.g09.slc.cpg/sg2_95_cif.got.tgz:188158.got - 2010.06.27 13:26:56.
