data_PCOD8001857
_publ_section_title
;
Structure prediction by ZEFSAII (Michael W. Deem and Ramdas Pophale) SiO2 
 PCOD8001857
Probable space group: P -1
;
_chemical_formula_sum "Si O2"
_cell_formula_units_Z 16
_cell_length_a 7.776019
_cell_length_b 11.025035
_cell_length_c 14.473614
_cell_angle_alpha 142.036287
_cell_angle_beta 124.527279
_cell_angle_gamma 72.597558
_cell_volume 601.532719
_symmetry_space_group_name_H-M "P -1"
_symmetry_group_IT_number 2
_symmetry_cell_setting 'triclinic'
loop_
_space_group_symop_operation_xyz
x,y,z
-x,-y,-z
loop_
_atom_site_type_symbol
_atom_site_label
_atom_site_fract_x
_atom_site_fract_y
_atom_site_fract_z
Si Si1 0.740445 0.954177 0.817653
Si Si2 0.716751 0.302254 0.482763
Si Si3 0.383716 0.397736 0.737221
Si Si4 0.975600 0.973024 0.583682
Si Si5 0.747826 0.393549 0.351905
Si Si6 0.848915 0.648820 0.014518
Si Si7 0.803746 0.986054 0.064361
Si Si8 0.913007 0.433846 0.126163
O O1 0.511698 0.838557 0.627827
O O2 0.935494 0.890665 0.788104
O O3 0.719786 0.894920 0.883746
O O4 0.797473 0.200164 0.977295
O O5 0.657464 0.413139 0.439355
O O6 0.850587 0.474627 0.698003
O O7 0.862728 0.153575 0.405487
O O8 0.356421 0.504590 0.697606
O O9 0.640391 0.468144 0.881022
O O10 0.252502 0.446316 0.816102
O O11 0.276563 0.151908 0.543256
O O12 0.029457 0.201577 0.777322
O O13 0.000000 0.000000 0.500000
O O14 0.683972 0.149425 0.161061
O O15 0.000000 0.500000 0.500000
O O16 0.025317 0.550464 0.956626
O O17 0.763176 0.788339 0.999194
#
# Coordination Sequence:
#
# PCOD8001857 Si02
#       8
#     2   2   2   2   2   2   2   2
#     4  10  20  36  58  89 138 169 200 257 315 377
#     4  11  22  39  64  91 129 172 210 261 321 381
#     4  11  23  42  68  94 134 170 212 264 320 389
#     4  11  25  45  68  94 123 166 223 274 320 379
#     4  12  19  35  60  92 132 169 206 251 319 376
#     4  11  23  41  66  93 127 174 210 263 325 380
#     4  10  20  34  57  96 131 168 209 250 310 395
#     4  10  22  38  59  95 129 160 217 259 308 382
#
# _framework density 26.598718999999999
#
# number of rings (size 3 to 8) (size 9 to 14) (size 15 to 20)
#    0.000    1.250    5.000    1.500    0.000    4.500 
#    0.000    9.375    0.000   12.750    0.000    0.000 
#    0.000    0.000    0.000    0.000    0.000    0.000 
#
# Total GULP energy -198371.389762 kJ/mol
# GULP energy per Si atom -12398.211860 kJ/mol
# Density = 2.653818 g / cm^3
# Si number density = 26.598719 Si / 1000 Ang^3
#
#
#
# Elastic Constant Matrix: (Units=GPa)
#
#
# Indices 1 2 3 4 5 6 
#
# 1 102.7982 30.4815 70.7787 -14.2010 22.2468 26.5064
# 2 30.4815 62.0639 34.1624 -0.4723 4.8540 11.8809
# 3 70.7787 34.1624 169.0041 2.0770 44.4758 21.9486
# 4 -14.2010 -0.4723 2.0770 27.8533 16.1052 -8.9524
# 5 22.2468 4.8540 44.4758 16.1052 60.3500 3.2818
# 6 26.5064 11.8809 21.9486 -8.9524 3.2818 28.7638
#
#
#
# Elastic Compliance Matrix: (Units=1/GPa)
#
#
# Indices 1 2 3 4 5 6 
#
# 1 0.019132 -0.004760 -0.004632 0.010667 -0.005659 -0.008164
# 2 -0.004760 0.020272 -0.002432 -0.005307 0.003561 -0.004189
# 3 -0.004632 -0.002432 0.009963 -0.000838 -0.005107 -0.002008
# 4 0.010667 -0.005307 -0.000838 0.056069 -0.018534 0.012568
# 5 -0.005659 0.003561 -0.005107 -0.018534 0.027146 -0.001225
# 6 -0.008164 -0.004189 -0.002008 0.012568 -0.001225 0.049603
#
#
# Mechanical properties :
#
#
# Convention : Reuss Voigt Hill
#
# Bulk Modulus (GPa) = 38.88108 67.19016 53.03562
# Shear Modulus (GPa) = 23.32029 36.62300 29.97164
#
# Velocity S-wave (km/s) = 2.96420 3.71465 3.36044
# Velocity P-wave (km/s) = 5.13466 6.61163 5.91939
#
# Compressibility (1/GPa) = 0.02571945
#
# Stress axis : x y z
#
# Youngs Moduli (GPa) = 52.26968 49.32916 100.36744
#
# Poissons Ratio (x) = 0.23481 0.46487
# Poissons Ratio (y) = 0.24881 0.24410
# Poissons Ratio (z) = 0.24210 0.11997
#
# Static dielectric constant tensor:
#      x y z
#    x 4.933240 -0.272630 0.389110 
#    y -0.272630 8.091430 -1.820520 
#    z 0.389110 -1.820520 6.884680 
# 
# 
# High freq. dielectric constant tensor:
#      x y z
#    x 2.060960 0.019910 0.013090 
#    y 0.019910 2.068130 0.003770 
#    z 0.013090 0.003770 2.086800 
# 
# From -- ./inp_files/501032.got.cif
#   From: 2010.06.25/outbox.cif.g09.slc.cpg/sg2_251_cif.got.tgz:501032.got - 2010.06.27 13:26:56.
