data_PCOD8001237
_publ_section_title
;
Structure prediction by ZEFSAII (Michael W. Deem and Ramdas Pophale) SiO2 
 PCOD8001237
Probable space group: P -1
;
_chemical_formula_sum "Si O2"
_cell_formula_units_Z 16
_cell_length_a 11.878672
_cell_length_b 9.134924
_cell_length_c 18.130233
_cell_angle_alpha 39.131288
_cell_angle_beta 39.065565
_cell_angle_gamma 39.531052
_cell_volume 708.297941
_symmetry_space_group_name_H-M "P -1"
_symmetry_group_IT_number 2
_symmetry_cell_setting 'triclinic'
loop_
_space_group_symop_operation_xyz
x,y,z
-x,-y,-z
loop_
_atom_site_type_symbol
_atom_site_label
_atom_site_fract_x
_atom_site_fract_y
_atom_site_fract_z
Si Si1 0.575351 0.340735 0.450621
Si Si2 0.000927 0.050040 0.314542
Si Si3 0.377908 0.160258 0.068575
Si Si4 0.011578 0.832228 0.234651
Si Si5 0.649226 0.224950 0.009123
Si Si6 0.580091 0.848905 0.595007
Si Si7 0.734928 0.245888 0.115681
Si Si8 0.813367 0.481564 0.511953
O O1 0.500000 0.500000 0.500000
O O2 0.403413 0.476374 0.424670
O O3 0.798322 0.308756 0.331004
O O4 0.620446 0.040411 0.554705
O O5 0.188726 0.110367 0.200730
O O6 0.977080 0.946444 0.288275
O O7 0.040962 0.818894 0.443099
O O8 0.531120 0.070090 0.095273
O O9 0.292449 0.464366 0.983321
O O10 0.500000 0.000000 0.000000
O O11 0.907907 0.636764 0.353930
O O12 0.236612 0.706127 0.142880
O O13 0.934884 0.067735 0.124122
O O14 0.755914 0.110024 0.077402
O O15 0.500000 0.500000 0.000000
O O16 0.436062 0.757481 0.744548
O O17 0.776685 0.595009 0.571045
O O18 0.500000 0.000000 0.500000
#
# Coordination Sequence:
#
# PCOD8001237 Si02
#       8
#     2   2   2   2   2   2   2   2
#     4  11  25  44  68 110 150 184 236 303 374 427
#     4  12  26  44  76 110 144 195 244 298 370 434
#     4  11  24  47  68 104 147 191 243 292 360 439
#     4  12  22  46  74 106 132 186 255 289 360 434
#     4  10  25  43  68 102 140 189 235 294 358 428
#     4  10  19  42  71 103 133 181 236 290 351 425
#     4  11  23  43  74 101 143 184 238 300 355 428
#     4  11  24  46  78 106 143 185 248 307 355 437
#
# _framework density 22.589365999999998
#
# number of rings (size 3 to 8) (size 9 to 14) (size 15 to 20)
#    0.000    1.000    5.000    2.250    1.750    4.000 
#    4.500    0.000    0.000    0.000    0.000    0.000 
#    0.000    0.000    0.000    0.000    0.000    0.000 
#
# Total GULP energy -198210.563367 kJ/mol
# GULP energy per Si atom -12388.160210 kJ/mol
# Density = 2.253795 g / cm^3
# Si number density = 22.589366 Si / 1000 Ang^3
#
#
#
# Elastic Constant Matrix: (Units=GPa)
#
#
# Indices 1 2 3 4 5 6 
#
# 1 124.7928 62.2989 48.3366 1.3742 -10.9885 8.0419
# 2 62.2989 113.2166 40.8057 18.3752 0.4602 8.0720
# 3 48.3366 40.8057 115.4752 11.3841 -13.9842 1.9269
# 4 1.3742 18.3752 11.3841 46.7188 -6.0014 -0.2272
# 5 -10.9885 0.4602 -13.9842 -6.0014 37.5599 2.4028
# 6 8.0419 8.0720 1.9269 -0.2272 2.4028 35.8184
#
#
#
# Elastic Compliance Matrix: (Units=1/GPa)
#
#
# Indices 1 2 3 4 5 6 
#
# 1 0.012678 -0.006348 -0.002961 0.003262 0.003299 -0.001457
# 2 -0.006348 0.014099 -0.002217 -0.005289 -0.003609 -0.001424
# 3 -0.002961 -0.002217 0.011186 -0.001369 0.003084 0.000347
# 4 0.003262 -0.005289 -0.001369 0.024285 0.004365 0.000394
# 5 0.003299 -0.003609 0.003084 0.004365 0.029610 -0.002052
# 6 -0.001457 -0.001424 0.000347 0.000394 -0.002052 0.028688
#
#
# Mechanical properties :
#
#
# Convention : Reuss Voigt Hill
#
# Bulk Modulus (GPa) = 67.06859 72.92968 69.99914
# Shear Modulus (GPa) = 33.65447 37.48898 35.57172
#
# Velocity S-wave (km/s) = 3.86403 4.07822 3.97257
# Velocity P-wave (km/s) = 7.04716 7.38450 7.21780
#
# Compressibility (1/GPa) = 0.01491011
#
# Stress axis : x y z
#
# Youngs Moduli (GPa) = 78.87905 70.92591 89.40036
#
# Poissons Ratio (x) = 0.45021 0.26476
# Poissons Ratio (y) = 0.50069 0.19821
# Poissons Ratio (z) = 0.23360 0.15725
#
# Static dielectric constant tensor:
#      x y z
#    x 5.002380 -0.438260 0.999930 
#    y -0.438260 4.167920 -0.267860 
#    z 0.999930 -0.267860 4.841910 
# 
# 
# High freq. dielectric constant tensor:
#      x y z
#    x 1.895920 -0.008670 -0.009050 
#    y -0.008670 1.899670 0.013990 
#    z -0.009050 0.013990 1.881430 
# 
# From -- ./inp_files/566417.got.cif
#   From: 2010.06.25/outbox.cif.g09.slc.cpg/sg2_284_cif.got.tgz:566417.got - 2010.06.27 13:26:56.
