data_PCOD8001659
_publ_section_title
;
Structure prediction by ZEFSAII (Michael W. Deem and Ramdas Pophale) SiO2 
 PCOD8001659
Probable space group: P -1
;
_chemical_formula_sum "Si O2"
_cell_formula_units_Z 16
_cell_length_a 13.888051
_cell_length_b 12.652851
_cell_length_c 14.325646
_cell_angle_alpha 111.406756
_cell_angle_beta 19.977553
_cell_angle_gamma 110.901425
_cell_volume 799.978092
_symmetry_space_group_name_H-M "P -1"
_symmetry_group_IT_number 2
_symmetry_cell_setting 'triclinic'
loop_
_space_group_symop_operation_xyz
x,y,z
-x,-y,-z
loop_
_atom_site_type_symbol
_atom_site_label
_atom_site_fract_x
_atom_site_fract_y
_atom_site_fract_z
Si Si1 0.510695 0.478701 0.635447
Si Si2 0.142142 0.610349 0.355498
Si Si3 0.903757 0.824198 0.194766
Si Si4 0.442139 0.681324 0.634621
Si Si5 0.893015 0.531593 0.829055
Si Si6 0.414252 0.111491 0.664621
Si Si7 0.008444 0.914416 0.798552
Si Si8 0.242705 0.288419 0.134539
O O1 0.390811 0.592505 0.736462
O O2 0.531253 0.382420 0.508421
O O3 0.815738 0.504606 0.406694
O O4 0.313487 0.441381 0.889435
O O5 0.201299 0.578828 0.183941
O O6 0.000000 0.500000 0.500000
O O7 0.906765 0.701398 0.623823
O O8 0.438254 0.660284 0.142580
O O9 0.737283 0.753825 0.405370
O O10 0.691106 0.805571 0.293415
O O11 0.947898 0.954473 0.231171
O O12 0.194737 0.769114 0.886673
O O13 0.921007 0.643924 0.775407
O O14 0.693533 0.150364 0.482747
O O15 0.500000 0.000000 0.500000
O O16 0.141255 0.083007 0.965258
O O17 0.799748 0.844966 0.894866
#
# Coordination Sequence:
#
# PCOD8001659 Si02
#       8
#     2   2   2   2   2   2   2   2
#     4  11  24  39  55  85 108 147 201 242 271 335
#     4  10  20  38  57  84 117 147 180 229 287 347
#     4  11  21  37  57  76 113 160 184 234 285 318
#     4  11  24  39  56  79 116 148 197 245 280 304
#     4  11  21  37  61  80 112 149 185 226 296 339
#     4  10  20  34  50  76 115 149 191 227 255 329
#     4  11  22  35  53  87 114 149 193 218 274 352
#     4  11  22  35  57  89 121 144 179 232 278 346
#
# _framework density 20.000548999999999
#
# number of rings (size 3 to 8) (size 9 to 14) (size 15 to 20)
#    0.000    1.250    0.000    9.750    5.250    2.000 
#    0.000    0.000    0.000    0.000    0.000   17.500 
#    0.000    0.000    0.000    0.000    0.000    0.000 
#
# Total GULP energy -198228.590856 kJ/mol
# GULP energy per Si atom -12389.286929 kJ/mol
# Density = 1.995503 g / cm^3
# Si number density = 20.000549 Si / 1000 Ang^3
#
#
#
# Elastic Constant Matrix: (Units=GPa)
#
#
# Indices 1 2 3 4 5 6 
#
# 1 56.5826 34.1604 26.8142 -1.2685 -7.9077 10.4724
# 2 34.1604 109.5329 33.0793 -3.9035 -8.8503 19.0412
# 3 26.8142 33.0793 118.5709 2.9608 -7.2658 9.5913
# 4 -1.2685 -3.9035 2.9608 27.8714 3.1267 -6.4415
# 5 -7.9077 -8.8503 -7.2658 3.1267 34.6957 -6.4356
# 6 10.4724 19.0412 9.5913 -6.4415 -6.4356 22.2247
#
#
#
# Elastic Compliance Matrix: (Units=1/GPa)
#
#
# Indices 1 2 3 4 5 6 
#
# 1 0.023694 -0.005418 -0.003306 -0.000667 0.002541 -0.004553
# 2 -0.005418 0.012649 -0.001680 -0.000059 0.000254 -0.007503
# 3 -0.003306 -0.001680 0.009872 -0.001887 0.000761 -0.001590
# 4 -0.000667 -0.000059 -0.001887 0.039011 -0.001862 0.011947
# 5 0.002541 0.000254 0.000761 -0.001862 0.031037 0.006705
# 6 -0.004553 -0.007503 -0.001590 0.011947 0.006705 0.059660
#
#
# Mechanical properties :
#
#
# Convention : Reuss Voigt Hill
#
# Bulk Modulus (GPa) = 39.35722 52.53271 45.94496
# Shear Modulus (GPa) = 24.36650 29.66720 27.01685
#
# Velocity S-wave (km/s) = 3.49419 3.85557 3.67932
# Velocity P-wave (km/s) = 5.99999 6.79288 6.40871
#
# Compressibility (1/GPa) = 0.02540830
#
# Stress axis : x y z
#
# Youngs Moduli (GPa) = 42.20492 79.05490 101.29227
#
# Poissons Ratio (x) = 0.42831 0.33488
# Poissons Ratio (y) = 0.22866 0.17015
# Poissons Ratio (z) = 0.13953 0.13279
#
# Static dielectric constant tensor:
#      x y z
#    x 3.690690 0.247140 -0.078350 
#    y 0.247140 3.644880 0.080410 
#    z -0.078350 0.080410 4.046060 
# 
# 
# High freq. dielectric constant tensor:
#      x y z
#    x 1.742300 0.023160 -0.003260 
#    y 0.023160 1.771480 -0.000340 
#    z -0.003260 -0.000340 1.808560 
# 
# From -- ./inp_files/531849.got.cif
#   From: 2010.06.25/outbox.cif.g09.slc.cpg/sg2_266_cif.got.tgz:531849.got - 2010.06.27 13:26:56.
