data_PCOD8001809
_publ_section_title
;
Structure prediction by ZEFSAII (Michael W. Deem and Ramdas Pophale) SiO2 
 PCOD8001809
Probable space group: P -1
;
_chemical_formula_sum "Si O2"
_cell_formula_units_Z 16
_cell_length_a 20.610754
_cell_length_b 6.384660
_cell_length_c 9.970505
_cell_angle_alpha 100.918500
_cell_angle_beta 134.243954
_cell_angle_gamma 65.589207
_cell_volume 845.993063
_symmetry_space_group_name_H-M "P -1"
_symmetry_group_IT_number 2
_symmetry_cell_setting 'triclinic'
loop_
_space_group_symop_operation_xyz
x,y,z
-x,-y,-z
loop_
_atom_site_type_symbol
_atom_site_label
_atom_site_fract_x
_atom_site_fract_y
_atom_site_fract_z
Si Si1 0.226478 0.411027 0.387900
Si Si2 0.365329 0.625139 0.699058
Si Si3 0.556634 0.885876 0.702182
Si Si4 0.688581 0.381570 0.845313
Si Si5 0.122803 0.782263 0.051487
Si Si6 0.639541 0.094998 0.517522
Si Si7 0.412305 0.713572 0.068399
Si Si8 0.941605 0.721550 0.853657
O O1 0.290676 0.495138 0.592426
O O2 0.176461 0.609178 0.229302
O O3 0.145774 0.341528 0.344862
O O4 0.300464 0.175605 0.394677
O O5 0.318432 0.826176 0.544215
O O6 0.471848 0.448827 0.778375
O O7 0.372171 0.740373 0.862998
O O8 0.644959 0.645039 0.762355
O O9 0.474911 0.848742 0.673529
O O10 0.500000 0.000000 0.500000
O O11 0.604521 0.034586 0.870086
O O12 0.807589 0.283083 0.987608
O O13 0.644259 0.236006 0.672898
O O14 0.655142 0.379904 0.950313
O O15 0.105417 0.045494 0.096200
O O16 0.018457 0.761007 0.865005
O O17 0.000000 0.500000 0.000000
#
# Coordination Sequence:
#
# PCOD8001809 Si02
#       8
#     2   2   2   2   2   2   2   2
#     4  11  19  35  60  82 114 153 185 231 285 332
#     4  11  23  39  52  78 115 156 201 233 268 334
#     4  12  22  34  55  81 113 153 190 233 282 329
#     4  12  22  35  56  84 117 147 185 236 287 332
#     4  10  20  34  56  91 117 139 184 238 286 340
#     4  12  21  34  58  82 112 153 192 230 275 337
#     4  11  25  37  52  79 116 156 197 236 274 327
#     4   9  19  34  57  88 117 142 179 235 292 337
#
# _framework density 18.912683000000001
#
# number of rings (size 3 to 8) (size 9 to 14) (size 15 to 20)
#    0.000    1.000    6.250    1.875    0.000    1.500 
#    0.000    0.000    0.000    0.750    0.000   13.125 
#    0.000    0.000    0.000    0.000    0.000    0.000 
#
# Total GULP energy -198305.634913 kJ/mol
# GULP energy per Si atom -12394.102182 kJ/mol
# Density = 1.886964 g / cm^3
# Si number density = 18.912683 Si / 1000 Ang^3
#
#
#
# Elastic Constant Matrix: (Units=GPa)
#
#
# Indices 1 2 3 4 5 6 
#
# 1 133.0429 26.1702 39.7571 7.9285 26.6165 0.4597
# 2 26.1702 132.2677 29.3124 3.6773 2.4280 -5.6009
# 3 39.7571 29.3124 59.7966 16.4800 3.5231 2.2418
# 4 7.9285 3.6773 16.4800 25.3267 4.3411 6.9358
# 5 26.6165 2.4280 3.5231 4.3411 34.8189 1.3078
# 6 0.4597 -5.6009 2.2418 6.9358 1.3078 28.4812
#
#
#
# Elastic Compliance Matrix: (Units=1/GPa)
#
#
# Indices 1 2 3 4 5 6 
#
# 1 0.011370 -0.000488 -0.007632 0.002892 -0.008246 -0.000004
# 2 -0.000488 0.008655 -0.004323 0.001232 -0.000013 0.001751
# 3 -0.007632 -0.004323 0.028092 -0.016394 0.005306 0.000811
# 4 0.002892 0.001232 -0.016394 0.053306 -0.006864 -0.011180
# 5 -0.008246 -0.000013 0.005306 -0.006864 0.035352 -0.000239
# 6 -0.000004 0.001751 0.000811 -0.011180 -0.000239 0.038125
#
#
# Mechanical properties :
#
#
# Convention : Reuss Voigt Hill
#
# Bulk Modulus (GPa) = 43.04292 57.28740 50.16516
# Shear Modulus (GPa) = 24.09313 33.04985 28.57149
#
# Velocity S-wave (km/s) = 3.57307 4.18484 3.89100
# Velocity P-wave (km/s) = 6.31115 7.32849 6.83876
#
# Compressibility (1/GPa) = 0.02323263
#
# Stress axis : x y z
#
# Youngs Moduli (GPa) = 87.94905 115.53979 35.59779
#
# Poissons Ratio (x) = 0.05634 0.27167
# Poissons Ratio (y) = 0.04288 0.15388
# Poissons Ratio (z) = 0.67120 0.49946
#
# Static dielectric constant tensor:
#      x y z
#    x 3.996470 0.131910 0.501050 
#    y 0.131910 3.657080 0.019290 
#    z 0.501050 0.019290 3.208720 
# 
# 
# High freq. dielectric constant tensor:
#      x y z
#    x 1.740860 0.012160 0.029790 
#    y 0.012160 1.755290 -0.000250 
#    z 0.029790 -0.000250 1.685740 
# 
# From -- ./inp_files/44637.got.cif
#   From: 2010.06.25/outbox.cif.g09.slc.cpg/sg2_23_cif.got.tgz:44637.got - 2010.06.27 13:26:56.
