data_PCOD8001126
_publ_section_title
;
Structure prediction by ZEFSAII (Michael W. Deem and Ramdas Pophale) SiO2 
 PCOD8001126
Probable space group: P -1
;
_chemical_formula_sum "Si O2"
_cell_formula_units_Z 16
_cell_length_a 9.900044
_cell_length_b 11.698546
_cell_length_c 15.536902
_cell_angle_alpha 107.686181
_cell_angle_beta 113.812430
_cell_angle_gamma 129.702350
_cell_volume 763.263910
_symmetry_space_group_name_H-M "P -1"
_symmetry_group_IT_number 2
_symmetry_cell_setting 'triclinic'
loop_
_space_group_symop_operation_xyz
x,y,z
-x,-y,-z
loop_
_atom_site_type_symbol
_atom_site_label
_atom_site_fract_x
_atom_site_fract_y
_atom_site_fract_z
Si Si1 0.828164 0.984217 0.107138
Si Si2 0.776104 0.515217 0.662912
Si Si3 0.625030 0.426585 0.253072
Si Si4 0.974186 0.768638 0.196332
Si Si5 0.593896 0.699286 0.145801
Si Si6 0.156243 0.713330 0.354682
Si Si7 0.421629 0.245874 0.342232
Si Si8 0.650829 0.725140 0.347931
O O1 0.930142 0.195269 0.173885
O O2 0.139051 0.130832 0.222846
O O3 0.654494 0.841185 0.120336
O O4 0.612884 0.796108 0.928827
O O5 0.889079 0.459601 0.686785
O O6 0.650995 0.461292 0.523047
O O7 0.506614 0.337768 0.621719
O O8 0.586252 0.336674 0.315573
O O9 0.567987 0.526744 0.271988
O O10 0.975484 0.647965 0.371234
O O11 0.868728 0.795793 0.244768
O O12 0.990787 0.647154 0.211648
O O13 0.717772 0.593395 0.017723
O O14 0.300453 0.034115 0.301381
O O15 0.543043 0.719030 0.232075
O O16 0.500000 0.000000 0.500000
O O17 0.000000 0.000000 0.500000
#
# Coordination Sequence:
#
# PCOD8001126 Si02
#       8
#     2   2   2   2   2   2   2   2
#     4  11  23  42  69 104 134 170 220 291 329 388
#     4  12  27  41  65 101 147 169 214 282 344 384
#     4  12  25  43  73  96 132 180 229 263 341 403
#     4  10  19  41  68  95 128 171 224 276 318 394
#     4  10  20  38  71  99 125 168 228 272 329 383
#     4  12  24  48  64  95 137 183 218 275 335 403
#     4  11  23  41  70 101 131 174 223 282 323 399
#     4  12  23  40  67 105 128 173 226 280 322 394
#
# _framework density 20.962605
#
# number of rings (size 3 to 8) (size 9 to 14) (size 15 to 20)
#    0.000    0.750    5.000    4.500    3.500    1.000 
#    0.000    0.625    0.000    0.000    0.000    0.000 
#    0.000    0.000    0.000    0.000    0.000    0.000 
#
# Total GULP energy -198287.694260 kJ/mol
# GULP energy per Si atom -12392.980891 kJ/mol
# Density = 2.091489 g / cm^3
# Si number density = 20.962605 Si / 1000 Ang^3
#
#
#
# Elastic Constant Matrix: (Units=GPa)
#
#
# Indices 1 2 3 4 5 6 
#
# 1 66.6105 37.4449 20.9684 -13.2205 6.5239 1.3798
# 2 37.4449 110.6372 41.2842 -17.7358 -8.0502 12.4596
# 3 20.9684 41.2842 95.7893 -7.0591 -9.9277 12.1784
# 4 -13.2205 -17.7358 -7.0591 38.5976 4.8635 -8.5226
# 5 6.5239 -8.0502 -9.9277 4.8635 23.8749 0.3045
# 6 1.3798 12.4596 12.1784 -8.5226 0.3045 40.3137
#
#
#
# Elastic Compliance Matrix: (Units=1/GPa)
#
#
# Indices 1 2 3 4 5 6 
#
# 1 0.021776 -0.006411 -0.003114 0.006072 -0.010689 0.003541
# 2 -0.006411 0.013460 -0.003461 0.002257 0.004422 -0.002451
# 3 -0.003114 -0.003461 0.013499 -0.001629 0.005671 -0.003289
# 4 0.006072 0.002257 -0.001629 0.031109 -0.007992 0.006224
# 5 -0.010689 0.004422 0.005671 -0.007992 0.050344 -0.004784
# 6 0.003541 -0.002451 -0.003289 0.006224 -0.004784 0.027787
#
#
# Mechanical properties :
#
#
# Convention : Reuss Voigt Hill
#
# Bulk Modulus (GPa) = 43.93468 52.49243 48.21356
# Shear Modulus (GPa) = 26.10507 32.11320 29.10913
#
# Velocity S-wave (km/s) = 3.53273 3.91823 3.73046
# Velocity P-wave (km/s) = 6.13550 6.75021 6.45018
#
# Compressibility (1/GPa) = 0.02276106
#
# Stress axis : x y z
#
# Youngs Moduli (GPa) = 45.92305 74.29651 74.08046
#
# Poissons Ratio (x) = 0.47632 0.23070
# Poissons Ratio (y) = 0.29441 0.25641
# Poissons Ratio (z) = 0.14301 0.25716
#
# Static dielectric constant tensor:
#      x y z
#    x 3.735520 0.162920 -0.151040 
#    y 0.162920 4.417460 -0.052930 
#    z -0.151040 -0.052930 3.999600 
# 
# 
# High freq. dielectric constant tensor:
#      x y z
#    x 1.780130 0.004890 -0.003620 
#    y 0.004890 1.846190 0.004620 
#    z -0.003620 0.004620 1.826830 
# 
# From -- ./inp_files/433711.got.cif
#   From: 2010.06.25/outbox.cif.g09.slc.cpg/sg2_217_cif.got.tgz:433711.got - 2010.06.27 13:26:56.
