data_PCOD8001780
_publ_section_title
;
Structure prediction by ZEFSAII (Michael W. Deem and Ramdas Pophale) SiO2 
 PCOD8001780
Probable space group: P -1
;
_chemical_formula_sum "Si O2"
_cell_formula_units_Z 16
_cell_length_a 19.606148
_cell_length_b 12.069650
_cell_length_c 5.235981
_cell_angle_alpha 85.797064
_cell_angle_beta 91.771607
_cell_angle_gamma 139.534432
_cell_volume 801.371727
_symmetry_space_group_name_H-M "P -1"
_symmetry_group_IT_number 2
_symmetry_cell_setting 'triclinic'
loop_
_space_group_symop_operation_xyz
x,y,z
-x,-y,-z
loop_
_atom_site_type_symbol
_atom_site_label
_atom_site_fract_x
_atom_site_fract_y
_atom_site_fract_z
Si Si1 0.516940 0.119503 0.280026
Si Si2 0.408062 0.387577 0.214453
Si Si3 0.702925 0.016901 0.296502
Si Si4 0.323882 0.813880 0.020601
Si Si5 0.508190 0.319672 0.554733
Si Si6 0.014092 0.663063 0.226437
Si Si7 0.895514 0.470081 0.742501
Si Si8 0.774533 0.989390 0.817919
O O1 0.608976 0.207133 0.072286
O O2 0.553721 0.283209 0.375062
O O3 0.500000 0.000000 0.500000
O O4 0.403314 0.992743 0.156411
O O5 0.439891 0.334789 0.428806
O O6 0.399597 0.503204 0.307009
O O7 0.290359 0.207201 0.142064
O O8 0.500000 0.500000 0.000000
O O9 0.578035 0.847679 0.250200
O O10 0.724919 0.175487 0.224246
O O11 0.732219 0.020246 0.587344
O O12 0.768983 0.033095 0.092679
O O13 0.228715 0.657993 0.218135
O O14 0.932253 0.570906 0.465089
O O15 0.080879 0.631617 0.246621
O O16 0.099994 0.869319 0.234683
O O17 0.954775 0.601993 0.962520
#
# Coordination Sequence:
#
# PCOD8001780 Si02
#       8
#     2   2   2   2   2   2   2   2
#     4  11  24  37  57  83 116 157 198 228 281 353
#     4  10  20  34  56  80 113 153 185 236 291 341
#     4  11  20  32  56  77 116 155 184 226 282 339
#     4  11  23  36  54  82 112 161 190 232 284 342
#     4  10  21  35  51  83 114 149 195 229 279 348
#     4  10  21  34  51  83 108 148 192 235 285 343
#     4  10  22  34  54  77 113 147 191 238 282 338
#     4  11  21  34  55  82 113 152 188 233 289 345
#
# _framework density 19.965764
#
# number of rings (size 3 to 8) (size 9 to 14) (size 15 to 20)
#    0.000    1.500    3.750    2.250    5.250    0.000 
#    0.000    0.000    0.000    0.000    0.000    1.750 
#    0.000    0.000    0.000    0.000    0.000    0.000 
#
# Total GULP energy -198234.307808 kJ/mol
# GULP energy per Si atom -12389.644238 kJ/mol
# Density = 1.992032 g / cm^3
# Si number density = 19.965764 Si / 1000 Ang^3
#
#
#
# Elastic Constant Matrix: (Units=GPa)
#
#
# Indices 1 2 3 4 5 6 
#
# 1 55.7567 42.2071 20.8091 5.2718 -27.6874 4.6809
# 2 42.2071 153.3859 43.3041 1.1348 -30.7359 13.3079
# 3 20.8091 43.3041 93.7435 -2.8811 -21.2481 6.7984
# 4 5.2718 1.1348 -2.8811 30.2060 3.1489 -11.9373
# 5 -27.6874 -30.7359 -21.2481 3.1489 28.6730 -3.3779
# 6 4.6809 13.3079 6.7984 -11.9373 -3.3779 31.9803
#
#
#
# Elastic Compliance Matrix: (Units=1/GPa)
#
#
# Indices 1 2 3 4 5 6 
#
# 1 0.039817 -0.003384 0.000957 -0.012698 0.036273 -0.005532
# 2 -0.003384 0.009352 -0.002294 -0.001683 0.004886 -0.003021
# 3 0.000957 -0.002294 0.013488 -0.000148 0.008332 -0.001228
# 4 -0.012698 -0.001683 -0.000148 0.043937 -0.016974 0.017198
# 5 0.036273 0.004886 0.008332 -0.016974 0.082382 -0.006748
# 6 -0.005532 -0.003021 -0.001228 0.017198 -0.006748 0.039304
#
#
# Mechanical properties :
#
#
# Convention : Reuss Voigt Hill
#
# Bulk Modulus (GPa) = 18.79197 57.28075 38.03636
# Shear Modulus (GPa) = 19.57254 31.27626 25.42440
#
# Velocity S-wave (km/s) = 3.13438 3.96219 3.57234
# Velocity P-wave (km/s) = 4.74675 7.04867 6.00897
#
# Compressibility (1/GPa) = 0.05321421
#
# Stress axis : x y z
#
# Youngs Moduli (GPa) = 25.11509 106.92941 74.14197
#
# Poissons Ratio (x) = 0.36189 -0.07098
# Poissons Ratio (y) = 0.08500 0.17009
# Poissons Ratio (z) = -0.02404 0.24530
#
# Static dielectric constant tensor:
#      x y z
#    x 3.050500 0.085560 -0.241110 
#    y 0.085560 4.054480 0.120330 
#    z -0.241110 0.120330 3.742550 
# 
# 
# High freq. dielectric constant tensor:
#      x y z
#    x 1.709340 0.009880 -0.014500 
#    y 0.009880 1.781910 -0.003990 
#    z -0.014500 -0.003990 1.797820 
# 
# From -- ./inp_files/93580.got.cif
#   From: 2010.06.25/outbox.cif.g09.slc.cpg/sg2_47_cif.got.tgz:93580.got - 2010.06.27 13:26:56.
