data_PCOD8001320
_publ_section_title
;
Structure prediction by ZEFSAII (Michael W. Deem and Ramdas Pophale) SiO2 
 PCOD8001320
Probable space group: P -1
;
_chemical_formula_sum "Si O2"
_cell_formula_units_Z 16
_cell_length_a 13.608010
_cell_length_b 12.144263
_cell_length_c 23.822372
_cell_angle_alpha 152.116760
_cell_angle_beta 29.559725
_cell_angle_gamma 132.913376
_cell_volume 839.693568
_symmetry_space_group_name_H-M "P -1"
_symmetry_group_IT_number 2
_symmetry_cell_setting 'triclinic'
loop_
_space_group_symop_operation_xyz
x,y,z
-x,-y,-z
loop_
_atom_site_type_symbol
_atom_site_label
_atom_site_fract_x
_atom_site_fract_y
_atom_site_fract_z
Si Si1 0.514561 0.021562 0.098194
Si Si2 0.263749 0.458507 0.162165
Si Si3 0.715988 0.465000 0.936781
Si Si4 0.755447 0.905591 0.321367
Si Si5 0.112244 0.121718 0.402944
Si Si6 0.585169 0.286586 0.083372
Si Si7 0.102984 0.479692 0.013231
Si Si8 0.874509 0.323385 0.502931
O O1 0.333415 0.168988 0.301393
O O2 0.610148 0.200945 0.098200
O O3 0.708436 0.790885 0.927273
O O4 0.379151 0.940682 0.080974
O O5 0.265234 0.393263 0.065814
O O6 0.033820 0.678399 0.389187
O O7 0.465313 0.541439 0.112915
O O8 0.823517 0.163761 0.734990
O O9 0.836923 0.550442 0.964589
O O10 0.833599 0.799223 0.171658
O O11 0.500000 0.000000 0.500000
O O12 0.840347 0.137129 0.389097
O O13 0.858085 0.676775 0.213191
O O14 0.984089 0.144032 0.419395
O O15 0.763932 0.396400 0.034188
O O16 0.352735 0.492370 0.277569
O O17 0.000000 0.500000 0.500000
#
# Coordination Sequence:
#
# PCOD8001320 Si02
#       8
#     2   2   2   2   2   2   2   2
#     4  10  20  30  49  82 117 143 186 229 286 340
#     4  10  20  32  51  79 117 150 194 236 287 332
#     4  10  20  35  52  77 111 155 196 236 279 342
#     4  11  24  37  54  84 118 152 195 231 288 359
#     4  11  18  32  49  80 113 146 185 233 286 336
#     4  11  19  34  53  81 120 154 179 234 288 346
#     4  11  21  38  57  78 119 155 189 233 291 344
#     4  12  21  34  58  86 119 154 186 235 295 348
#
# _framework density 19.054569999999998
#
# number of rings (size 3 to 8) (size 9 to 14) (size 15 to 20)
#    0.000    1.250    7.500    0.375    1.750    0.000 
#    0.000    0.000    0.000    0.000    0.000    8.750 
#    0.000    0.125    0.000    0.000    0.000    0.000 
#
# Total GULP energy -198304.596872 kJ/mol
# GULP energy per Si atom -12394.037304 kJ/mol
# Density = 1.901120 g / cm^3
# Si number density = 19.054570 Si / 1000 Ang^3
#
#
#
# Elastic Constant Matrix: (Units=GPa)
#
#
# Indices 1 2 3 4 5 6 
#
# 1 97.3734 24.3864 22.5130 1.0734 5.1273 -10.7288
# 2 24.3864 68.1457 17.7795 3.0448 2.1939 -6.7638
# 3 22.5130 17.7795 112.8723 -10.5944 -3.4427 1.1869
# 4 1.0734 3.0448 -10.5944 19.7183 -0.9322 1.8993
# 5 5.1273 2.1939 -3.4427 -0.9322 24.1350 6.4499
# 6 -10.7288 -6.7638 1.1869 1.8993 6.4499 31.3996
#
#
#
# Elastic Compliance Matrix: (Units=1/GPa)
#
#
# Indices 1 2 3 4 5 6 
#
# 1 0.012327 -0.003131 -0.002328 -0.002066 -0.003966 0.004565
# 2 -0.003131 0.017076 -0.002576 -0.004293 -0.002342 0.003447
# 3 -0.002328 -0.002576 0.010475 0.006575 0.003227 -0.002807
# 4 -0.002066 -0.004293 0.006575 0.055908 0.005642 -0.006420
# 5 -0.003966 -0.002342 0.003227 0.005642 0.046331 -0.011840
# 6 0.004565 0.003447 -0.002807 -0.006420 -0.011840 0.037076
#
#
# Mechanical properties :
#
#
# Convention : Reuss Voigt Hill
#
# Bulk Modulus (GPa) = 42.00316 45.30547 43.65432
# Shear Modulus (GPa) = 24.60641 29.29809 26.95225
#
# Velocity S-wave (km/s) = 3.59746 3.92546 3.76503
# Velocity P-wave (km/s) = 6.27272 6.66138 6.46997
#
# Compressibility (1/GPa) = 0.02380773
#
# Stress axis : x y z
#
# Youngs Moduli (GPa) = 81.12461 58.56120 95.46653
#
# Poissons Ratio (x) = 0.18333 0.22228
# Poissons Ratio (y) = 0.25397 0.24592
# Poissons Ratio (z) = 0.18889 0.15085
#
# Static dielectric constant tensor:
#      x y z
#    x 2.060620 0.829430 1.489650 
#    y 0.829430 2.651850 -1.179670 
#    z 1.489650 -1.179670 1.878790 
# 
# 
# High freq. dielectric constant tensor:
#      x y z
#    x 1.718550 -0.017020 -0.017570 
#    y -0.017020 1.706150 -0.007640 
#    z -0.017570 -0.007640 1.761940 
# 
# From -- ./inp_files/431409.got.cif
#   From: 2010.06.25/outbox.cif.g09.slc.cpg/sg2_216_cif.got.tgz:431409.got - 2010.06.27 13:26:56.
