data_PCOD8001399
_publ_section_title
;
Structure prediction by ZEFSAII (Michael W. Deem and Ramdas Pophale) SiO2 
 PCOD8001399
Probable space group: P -1
;
_chemical_formula_sum "Si O2"
_cell_formula_units_Z 16
_cell_length_a 15.109288
_cell_length_b 13.346528
_cell_length_c 14.622616
_cell_angle_alpha 121.814547
_cell_angle_beta 29.041357
_cell_angle_gamma 143.372605
_cell_volume 681.684192
_symmetry_space_group_name_H-M "P -1"
_symmetry_group_IT_number 2
_symmetry_cell_setting 'triclinic'
loop_
_space_group_symop_operation_xyz
x,y,z
-x,-y,-z
loop_
_atom_site_type_symbol
_atom_site_label
_atom_site_fract_x
_atom_site_fract_y
_atom_site_fract_z
Si Si1 0.235598 0.444616 0.759416
Si Si2 0.688012 0.818211 0.755246
Si Si3 0.878066 0.293527 0.369658
Si Si4 0.180481 0.810839 0.434097
Si Si5 0.477828 0.668440 0.255481
Si Si6 0.394987 0.784397 0.851900
Si Si7 0.534894 0.772823 0.061836
Si Si8 0.798875 0.644274 0.053645
O O1 0.500000 0.500000 0.500000
O O2 0.378981 0.649846 0.750521
O O3 0.104271 0.310586 0.905917
O O4 0.920970 0.300789 0.911313
O O5 0.436926 0.781165 0.921137
O O6 0.531922 0.605677 0.785099
O O7 0.785966 0.897119 0.810274
O O8 0.000000 0.000000 0.500000
O O9 0.839848 0.180063 0.433141
O O10 0.592191 0.237818 0.598546
O O11 0.208431 0.539986 0.206742
O O12 0.900251 0.240404 0.225811
O O13 0.471562 0.874422 0.188661
O O14 0.846041 0.582736 0.585423
O O15 0.282669 0.983469 0.371497
O O16 0.652516 0.771031 0.047195
O O17 0.721316 0.737066 0.139620
#
# Coordination Sequence:
#
# PCOD8001399 Si02
#       8
#     2   2   2   2   2   2   2   2
#     4  10  24  43  58  75 103 147 198 235 270 318
#     4  10  20  32  51  86 119 143 180 223 270 333
#     4   8  17  33  52  82 114 140 175 216 267 334
#     4   9  17  32  56  82 111 142 173 218 278 331
#     4   9  17  32  56  84 115 145 167 214 276 325
#     4  10  22  39  58  79 108 147 186 233 277 313
#     4   8  17  31  50  83 119 145 174 206 263 344
#     4  10  20  34  56  78 103 145 189 221 266 328
#
# _framework density 23.471278999999999
#
# number of rings (size 3 to 8) (size 9 to 14) (size 15 to 20)
#    0.000    2.750    0.000    2.250    0.000   13.000 
#    0.000    3.125    0.000    3.750    0.000    0.000 
#    0.000    0.000    0.000    0.000    0.000    0.000 
#
# Total GULP energy -198262.816592 kJ/mol
# GULP energy per Si atom -12391.426037 kJ/mol
# Density = 2.341786 g / cm^3
# Si number density = 23.471279 Si / 1000 Ang^3
#
#
#
# Elastic Constant Matrix: (Units=GPa)
#
#
# Indices 1 2 3 4 5 6 
#
# 1 105.3988 14.4890 33.8502 14.1479 7.0672 -29.7771
# 2 14.4890 48.2345 12.8451 1.6451 4.5092 -24.7132
# 3 33.8502 12.8451 108.8307 21.6501 18.3235 -8.9671
# 4 14.1479 1.6451 21.6501 29.3825 -10.0770 0.2833
# 5 7.0672 4.5092 18.3235 -10.0770 38.7416 0.0770
# 6 -29.7771 -24.7132 -8.9671 0.2833 0.0770 32.5865
#
#
#
# Elastic Compliance Matrix: (Units=1/GPa)
#
#
# Indices 1 2 3 4 5 6 
#
# 1 0.016044 0.006094 -0.001459 -0.009000 -0.005324 0.018971
# 2 0.006094 0.037285 -0.000977 -0.006984 -0.006873 0.033653
# 3 -0.001459 -0.000977 0.014137 -0.013002 -0.009692 0.001952
# 4 -0.009000 -0.006984 -0.013002 0.056513 0.023339 -0.017645
# 5 -0.005324 -0.006873 -0.009692 0.023339 0.038264 -0.013038
# 6 0.018971 0.033653 0.001952 -0.017645 -0.013038 0.074267
#
#
# Mechanical properties :
#
#
# Convention : Reuss Voigt Hill
#
# Bulk Modulus (GPa) = 13.37237 42.75917 28.06577
# Shear Modulus (GPa) = 19.67572 33.56077 26.61825
#
# Velocity S-wave (km/s) = 2.89846 3.78546 3.37126
# Velocity P-wave (km/s) = 4.11232 6.11257 5.20935
#
# Compressibility (1/GPa) = 0.07478105
#
# Stress axis : x y z
#
# Youngs Moduli (GPa) = 62.33030 26.82069 70.73620
#
# Poissons Ratio (x) = -0.16345 0.10323
# Poissons Ratio (y) = -0.37985 0.06910
# Poissons Ratio (z) = 0.09097 0.02620
#
# Static dielectric constant tensor:
#      x y z
#    x 4.670400 -0.286220 0.366160 
#    y -0.286220 4.047860 0.100750 
#    z 0.366160 0.100750 4.357640 
# 
# 
# High freq. dielectric constant tensor:
#      x y z
#    x 1.930580 -0.026760 0.009900 
#    y -0.026760 1.912450 -0.002930 
#    z 0.009900 -0.002930 1.916850 
# 
# From -- ./inp_files/531870.got.cif
#   From: 2010.06.25/outbox.cif.g09.slc.cpg/sg2_266_cif.got.tgz:531870.got - 2010.06.27 13:26:56.
