data_PCOD8001050
_publ_section_title
;
Structure prediction by ZEFSAII (Michael W. Deem and Ramdas Pophale) SiO2 
 PCOD8001050
Probable space group: P -1
;
_chemical_formula_sum "Si O2"
_cell_formula_units_Z 16
_cell_length_a 14.975302
_cell_length_b 11.285453
_cell_length_c 15.735284
_cell_angle_alpha 38.494603
_cell_angle_beta 28.658494
_cell_angle_gamma 47.560496
_cell_volume 793.205857
_symmetry_space_group_name_H-M "P -1"
_symmetry_group_IT_number 2
_symmetry_cell_setting 'triclinic'
loop_
_space_group_symop_operation_xyz
x,y,z
-x,-y,-z
loop_
_atom_site_type_symbol
_atom_site_label
_atom_site_fract_x
_atom_site_fract_y
_atom_site_fract_z
Si Si1 0.226049 0.918443 0.319954
Si Si2 0.341361 0.084042 0.839205
Si Si3 0.119181 0.074198 0.493220
Si Si4 0.420229 0.670486 0.628725
Si Si5 0.626795 0.828394 0.513510
Si Si6 0.922167 0.078296 0.200446
Si Si7 0.604939 0.766712 0.104902
Si Si8 0.464543 0.279734 0.163868
O O1 0.396345 0.786161 0.233218
O O2 0.053511 0.823264 0.464374
O O3 0.188166 0.923081 0.450206
O O4 0.259350 0.136621 0.133902
O O5 0.497543 0.214169 0.586151
O O6 0.369513 0.113846 0.898017
O O7 0.371985 0.859836 0.922295
O O8 0.129619 0.135207 0.960751
O O9 0.280365 0.229715 0.291552
O O10 0.056568 0.970357 0.690571
O O11 0.587347 0.676986 0.555757
O O12 0.227516 0.757125 0.773487
O O13 0.360579 0.452924 0.780758
O O14 0.557337 0.738225 0.708391
O O15 0.500000 0.000000 0.500000
O O16 0.841777 0.902784 0.306881
O O17 0.500000 0.500000 0.000000
#
# Coordination Sequence:
#
# PCOD8001050 Si02
#       8
#     2   2   2   2   2   2   2   2
#     4  10  21  38  62  85 127 170 202 257 315 372
#     4  12  22  42  64  91 128 166 207 262 322 367
#     4  10  19  41  61  86 127 165 202 261 314 367
#     4  11  23  42  64  92 128 164 210 261 312 376
#     4   9  19  43  62  82 126 166 202 264 313 358
#     4  10  21  41  65  88 123 166 208 259 317 369
#     4  11  23  38  63  93 125 165 210 256 314 382
#     4  11  23  40  67  90 127 170 209 260 322 376
#
# _framework density 20.171308
#
# number of rings (size 3 to 8) (size 9 to 14) (size 15 to 20)
#    0.000    1.500    6.250    0.375    1.750    1.000 
#    6.750    1.250    0.000    0.000    0.000    0.000 
#    0.000    0.000    0.000    0.000    0.000    0.000 
#
# Total GULP energy -198250.043706 kJ/mol
# GULP energy per Si atom -12390.627732 kJ/mol
# Density = 2.012540 g / cm^3
# Si number density = 20.171308 Si / 1000 Ang^3
#
#
#
# Elastic Constant Matrix: (Units=GPa)
#
#
# Indices 1 2 3 4 5 6 
#
# 1 101.5000 10.4510 16.8353 0.9423 -2.9973 -3.7416
# 2 10.4510 84.4388 38.2995 -8.8973 -10.5021 -12.1377
# 3 16.8353 38.2995 73.8468 4.1815 -15.8100 -17.2466
# 4 0.9423 -8.8973 4.1815 29.8538 -7.7483 -1.3155
# 5 -2.9973 -10.5021 -15.8100 -7.7483 21.9467 7.5341
# 6 -3.7416 -12.1377 -17.2466 -1.3155 7.5341 23.1658
#
#
#
# Elastic Compliance Matrix: (Units=1/GPa)
#
#
# Indices 1 2 3 4 5 6 
#
# 1 0.010248 -0.000331 -0.002264 -0.000223 -0.000444 -0.000072
# 2 -0.000331 0.017025 -0.007739 0.007409 0.004426 0.002086
# 3 -0.002264 -0.007739 0.022055 -0.002932 0.007630 0.009351
# 4 -0.000223 0.007409 -0.002932 0.040230 0.016042 -0.001269
# 5 -0.000444 0.004426 0.007630 0.016042 0.062755 -0.011570
# 6 -0.000072 0.002086 0.009351 -0.001269 -0.011570 0.054901
#
#
# Mechanical properties :
#
#
# Convention : Reuss Voigt Hill
#
# Bulk Modulus (GPa) = 34.89077 43.43970 39.16524
# Shear Modulus (GPa) = 21.05836 27.93991 24.49913
#
# Velocity S-wave (km/s) = 3.23457 3.72577 3.48883
# Velocity P-wave (km/s) = 5.59327 6.33172 5.97392
#
# Compressibility (1/GPa) = 0.02866087
#
# Stress axis : x y z
#
# Youngs Moduli (GPa) = 97.57916 58.73624 45.34136
#
# Poissons Ratio (x) = 0.01941 0.10265
# Poissons Ratio (y) = 0.03225 0.35090
# Poissons Ratio (z) = 0.22092 0.45457
#
# Static dielectric constant tensor:
#      x y z
#    x 4.158420 0.083980 -0.246220 
#    y 0.083980 3.433160 0.144770 
#    z -0.246220 0.144770 3.727150 
# 
# 
# High freq. dielectric constant tensor:
#      x y z
#    x 1.814080 -0.000800 -0.003710 
#    y -0.000800 1.754880 0.011620 
#    z -0.003710 0.011620 1.781110 
# 
# From -- ./inp_files/347120.got.cif
#   From: 2010.06.25/outbox.cif.g09.slc.cpg/sg2_174_cif.got.tgz:347120.got - 2010.06.27 13:26:56.
