data_PCOD8001045
_publ_section_title
;
Structure prediction by ZEFSAII (Michael W. Deem and Ramdas Pophale) SiO2 
 PCOD8001045
Probable space group: P -1
;
_chemical_formula_sum "Si O2"
_cell_formula_units_Z 16
_cell_length_a 6.495723
_cell_length_b 24.755743
_cell_length_c 7.803104
_cell_angle_alpha 50.143226
_cell_angle_beta 115.342686
_cell_angle_gamma 134.067194
_cell_volume 691.753765
_symmetry_space_group_name_H-M "P -1"
_symmetry_group_IT_number 2
_symmetry_cell_setting 'triclinic'
loop_
_space_group_symop_operation_xyz
x,y,z
-x,-y,-z
loop_
_atom_site_type_symbol
_atom_site_label
_atom_site_fract_x
_atom_site_fract_y
_atom_site_fract_z
Si Si1 0.687701 0.641907 0.749798
Si Si2 0.894750 0.542879 0.173656
Si Si3 0.210906 0.255739 0.101072
Si Si4 0.362912 0.900104 0.615990
Si Si5 0.176231 0.723815 0.294178
Si Si6 0.823088 0.537017 0.547152
Si Si7 0.357576 0.187944 0.996228
Si Si8 0.898377 0.182448 0.661438
O O1 0.408122 0.553981 0.752304
O O2 0.611230 0.676847 0.815682
O O3 0.842258 0.719514 0.509004
O O4 0.904789 0.619042 0.925451
O O5 0.957526 0.566884 0.345363
O O6 0.142265 0.534769 0.212008
O O7 0.406129 0.241200 0.081807
O O8 0.937991 0.161579 0.268363
O O9 0.098374 0.297748 0.860038
O O10 0.588370 0.883420 0.794149
O O11 0.308532 0.883870 0.425938
O O12 0.500000 0.000000 0.500000
O O13 0.036393 0.630566 0.534582
O O14 0.291813 0.804465 0.304941
O O15 0.425137 0.746971 0.206857
O O16 0.500000 0.500000 0.500000
O O17 0.037924 0.143263 0.897865
#
# Coordination Sequence:
#
# PCOD8001045 Si02
#       8
#     2   2   2   2   2   2   2   2
#     4  10  19  41  60  92 124 159 221 267 315 372
#     4  10  22  36  58  85 125 161 211 275 314 366
#     4   9  20  40  65  91 122 166 209 252 312 379
#     4  10  23  42  65  99 131 156 203 256 312 385
#     4  10  20  40  62  89 122 164 217 252 307 375
#     4  11  22  38  56  87 123 172 211 262 324 371
#     4  10  22  41  67  91 123 171 203 257 316 368
#     4  10  22  40  65  91 123 163 212 253 307 385
#
# _framework density 23.129614
#
# number of rings (size 3 to 8) (size 9 to 14) (size 15 to 20)
#    0.000    2.000    1.250    1.500    0.000    7.000 
#    0.000   13.750    0.000    0.000    0.000    0.000 
#    0.000    0.000    0.000    0.000    0.000    0.000 
#
# Total GULP energy -198296.993326 kJ/mol
# GULP energy per Si atom -12393.562083 kJ/mol
# Density = 2.307697 g / cm^3
# Si number density = 23.129614 Si / 1000 Ang^3
#
#
#
# Elastic Constant Matrix: (Units=GPa)
#
#
# Indices 1 2 3 4 5 6 
#
# 1 117.9347 30.5546 28.4763 -5.3451 19.7825 -28.0192
# 2 30.5546 120.4523 34.3583 -5.3656 3.0379 -20.1916
# 3 28.4763 34.3583 79.2780 -4.3358 26.6516 -7.7928
# 4 -5.3451 -5.3656 -4.3358 34.5417 -7.3161 1.4193
# 5 19.7825 3.0379 26.6516 -7.3161 36.7191 5.7285
# 6 -28.0192 -20.1916 -7.7928 1.4193 5.7285 28.9029
#
#
#
# Elastic Compliance Matrix: (Units=1/GPa)
#
#
# Indices 1 2 3 4 5 6 
#
# 1 0.013830 -0.000843 0.000172 -0.000691 -0.009964 0.014873
# 2 -0.000843 0.010623 -0.004555 0.001252 0.002376 0.004843
# 3 0.000172 -0.004555 0.020236 -0.001679 -0.015614 0.005617
# 4 -0.000691 0.001252 -0.001679 0.030687 0.008126 -0.003365
# 5 -0.009964 0.002376 -0.015614 0.008126 0.048834 -0.022287
# 6 0.014873 0.004843 0.005617 -0.003365 -0.022287 0.058497
#
#
# Mechanical properties :
#
#
# Convention : Reuss Voigt Hill
#
# Bulk Modulus (GPa) = 29.20994 56.04928 42.62961
# Shear Modulus (GPa) = 24.44126 34.98445 29.71285
#
# Velocity S-wave (km/s) = 3.25423 3.89336 3.58805
# Velocity P-wave (km/s) = 5.17458 6.67055 5.96961
#
# Compressibility (1/GPa) = 0.03423493
#
# Stress axis : x y z
#
# Youngs Moduli (GPa) = 72.30749 94.13526 49.41749
#
# Poissons Ratio (x) = 0.07940 -0.00848
# Poissons Ratio (y) = 0.06099 0.22510
# Poissons Ratio (z) = -0.01241 0.42879
#
# Static dielectric constant tensor:
#      x y z
#    x 4.449290 -0.557410 0.252120 
#    y -0.557410 4.104630 0.203370 
#    z 0.252120 0.203370 4.239450 
# 
# 
# High freq. dielectric constant tensor:
#      x y z
#    x 1.908780 -0.025370 0.018710 
#    y -0.025370 1.902460 0.012110 
#    z 0.018710 0.012110 1.909030 
# 
# From -- ./inp_files/53804.got.cif
#   From: 2010.06.25/outbox.cif.g09.slc.cpg/sg2_27_cif.got.tgz:53804.got - 2010.06.27 13:26:56.
