data_PCOD8001168
_publ_section_title
;
Structure prediction by ZEFSAII (Michael W. Deem and Ramdas Pophale) SiO2 
 PCOD8001168
Probable space group: P -1
;
_chemical_formula_sum "Si O2"
_cell_formula_units_Z 16
_cell_length_a 7.542186
_cell_length_b 24.651929
_cell_length_c 20.600219
_cell_angle_alpha 16.632827
_cell_angle_beta 41.213799
_cell_angle_gamma 42.897821
_cell_volume 720.935627
_symmetry_space_group_name_H-M "P -1"
_symmetry_group_IT_number 2
_symmetry_cell_setting 'triclinic'
loop_
_space_group_symop_operation_xyz
x,y,z
-x,-y,-z
loop_
_atom_site_type_symbol
_atom_site_label
_atom_site_fract_x
_atom_site_fract_y
_atom_site_fract_z
Si Si1 0.349759 0.206548 0.089041
Si Si2 0.953079 0.705111 0.806725
Si Si3 0.923674 0.417075 0.467340
Si Si4 0.498689 0.365912 0.740490
Si Si5 0.476728 0.712428 0.737359
Si Si6 0.046030 0.168308 0.034254
Si Si7 0.168321 0.950138 0.643113
Si Si8 0.203301 0.115328 0.650670
O O1 0.306482 0.283179 0.086738
O O2 0.055442 0.188524 0.161180
O O3 0.522367 0.007295 0.268593
O O4 0.499651 0.354781 0.831408
O O5 0.216577 0.763032 0.706166
O O6 0.901133 0.838935 0.605454
O O7 0.000000 0.500000 0.000000
O O8 0.803892 0.365236 0.630361
O O9 0.670813 0.442551 0.456836
O O10 0.123244 0.243463 0.588154
O O11 0.069487 0.617590 0.200145
O O12 0.349322 0.182040 0.963046
O O13 0.453364 0.859344 0.637549
O O14 0.742676 0.744617 0.585264
O O15 0.500000 0.500000 0.000000
O O16 0.839731 0.074696 0.248671
O O17 0.033364 0.026239 0.139135
#
# Coordination Sequence:
#
# PCOD8001168 Si02
#       8
#     2   2   2   2   2   2   2   2
#     4  10  20  39  58  81 115 158 185 237 290 343
#     4  11  23  38  58  83 120 158 198 230 285 353
#     4   9  20  40  63  84 112 153 194 241 293 346
#     4   8  19  43  63  76 118 153 192 239 292 351
#     4  11  23  36  55  84 117 156 190 241 289 335
#     4   9  21  36  62  86 113 149 198 237 286 346
#     4  10  19  42  55  76 119 159 192 224 285 352
#     4  12  22  35  61  88 121 145 195 248 289 334
#
# _framework density 22.193382
#
# number of rings (size 3 to 8) (size 9 to 14) (size 15 to 20)
#    0.750    1.250    2.500    1.500    3.500    3.500 
#    0.000    0.625    0.000    0.000    0.000    0.000 
#    0.000    0.000    0.000    0.000    0.000    0.000 
#
# Total GULP energy -198289.035778 kJ/mol
# GULP energy per Si atom -12393.064736 kJ/mol
# Density = 2.214287 g / cm^3
# Si number density = 22.193382 Si / 1000 Ang^3
#
#
#
# Elastic Constant Matrix: (Units=GPa)
#
#
# Indices 1 2 3 4 5 6 
#
# 1 29.1122 -1.3483 9.9972 6.4238 5.0877 -2.6378
# 2 -1.3483 138.1587 70.8539 7.1193 11.2533 2.8210
# 3 9.9972 70.8539 120.8082 8.7762 15.5890 10.1214
# 4 6.4238 7.1193 8.7762 46.7258 4.6980 4.4985
# 5 5.0877 11.2533 15.5890 4.6980 23.9281 -2.5337
# 6 -2.6378 2.8210 10.1214 4.4985 -2.5337 24.1612
#
#
#
# Elastic Compliance Matrix: (Units=1/GPa)
#
#
# Indices 1 2 3 4 5 6 
#
# 1 0.038654 0.003299 -0.004625 -0.005028 -0.005116 0.006172
# 2 0.003299 0.010702 -0.006496 -0.000933 -0.001120 0.001888
# 3 -0.004625 -0.006496 0.013684 0.000202 -0.005562 -0.006100
# 4 -0.005028 -0.000933 0.000202 0.023071 -0.003705 -0.005209
# 5 -0.005116 -0.001120 -0.005562 -0.003705 0.048571 0.007685
# 6 0.006172 0.001888 -0.006100 -0.005209 0.007685 0.046173
#
#
# Mechanical properties :
#
#
# Convention : Reuss Voigt Hill
#
# Bulk Modulus (GPa) = 21.09871 49.67608 35.38739
# Shear Modulus (GPa) = 23.55176 32.86811 28.20994
#
# Velocity S-wave (km/s) = 3.26115 3.85253 3.56911
# Velocity P-wave (km/s) = 4.86904 6.49779 5.74146
#
# Compressibility (1/GPa) = 0.04739626
#
# Stress axis : x y z
#
# Youngs Moduli (GPa) = 25.87075 93.43758 73.07647
#
# Poissons Ratio (x) = -0.30826 0.33800
# Poissons Ratio (y) = -0.08535 0.47469
# Poissons Ratio (z) = 0.11966 0.60696
#
# Static dielectric constant tensor:
#      x y z
#    x 3.980790 0.301910 -0.101560 
#    y 0.301910 4.156700 0.156980 
#    z -0.101560 0.156980 4.108280 
# 
# 
# High freq. dielectric constant tensor:
#      x y z
#    x 1.853070 0.005880 0.002790 
#    y 0.005880 1.859100 0.015630 
#    z 0.002790 0.015630 1.876620 
# 
# From -- ./inp_files/355280.got.cif
#   From: 2010.06.25/outbox.cif.g09.slc.cpg/sg2_178_cif.got.tgz:355280.got - 2010.06.27 13:26:56.
