data_PCOD8001357
_publ_section_title
;
Structure prediction by ZEFSAII (Michael W. Deem and Ramdas Pophale) SiO2 
 PCOD8001357
Probable space group: P -1
;
_chemical_formula_sum "Si O2"
_cell_formula_units_Z 16
_cell_length_a 9.245527
_cell_length_b 14.255579
_cell_length_c 11.264394
_cell_angle_alpha 118.227060
_cell_angle_beta 71.666162
_cell_angle_gamma 136.277376
_cell_volume 903.208130
_symmetry_space_group_name_H-M "P -1"
_symmetry_group_IT_number 2
_symmetry_cell_setting 'triclinic'
loop_
_space_group_symop_operation_xyz
x,y,z
-x,-y,-z
loop_
_atom_site_type_symbol
_atom_site_label
_atom_site_fract_x
_atom_site_fract_y
_atom_site_fract_z
Si Si1 0.831452 0.848249 0.692419
Si Si2 0.464398 0.621927 0.500036
Si Si3 0.028637 0.677146 0.168423
Si Si4 0.822767 0.641827 0.438467
Si Si5 0.313070 0.623554 0.053220
Si Si6 0.083525 0.176051 0.843968
Si Si7 0.551789 0.412741 0.770117
Si Si8 0.719209 0.729832 0.910857
O O1 0.607582 0.765360 0.634267
O O2 0.931546 0.788314 0.575344
O O3 0.805674 0.819718 0.821600
O O4 0.986145 0.019391 0.729108
O O5 0.597456 0.576765 0.409264
O O6 0.241150 0.489623 0.540952
O O7 0.421354 0.645442 0.392148
O O8 0.981768 0.685468 0.321357
O O9 0.060272 0.796601 0.150615
O O10 0.243735 0.713563 0.130186
O O11 0.838167 0.514711 0.075308
O O12 0.304713 0.570899 0.156196
O O13 0.545131 0.728618 0.003242
O O14 0.311822 0.300981 0.804576
O O15 0.093409 0.183918 0.989156
O O16 0.627080 0.568613 0.820903
#
# Coordination Sequence:
#
# PCOD8001357 Si02
#       8
#     2   2   2   2   2   2   2   2
#     4  10  20  31  54  83 105 132 171 220 258 297
#     4   9  16  30  55  77 100 133 172 209 256 302
#     4  11  19  34  49  79 109 133 173 213 258 303
#     4   9  17  31  53  77 102 136 168 214 250 308
#     4  10  21  31  54  77 103 139 172 215 254 303
#     4  11  20  31  54  83 105 132 173 221 255 298
#     4  11  17  34  56  78 100 133 178 216 251 299
#     4  11  18  36  55  78 104 135 172 217 259 302
#
# _framework density 17.714632000000002
#
# number of rings (size 3 to 8) (size 9 to 14) (size 15 to 20)
#    0.750    1.000    5.000    1.875    0.000    2.000 
#    0.000    1.250    0.000    6.750    0.000    0.000 
#    0.000    0.000    0.000    0.000    0.000    0.000 
#
# Total GULP energy -198297.597254 kJ/mol
# GULP energy per Si atom -12393.599828 kJ/mol
# Density = 1.767431 g / cm^3
# Si number density = 17.714632 Si / 1000 Ang^3
#
#
#
# Elastic Constant Matrix: (Units=GPa)
#
#
# Indices 1 2 3 4 5 6 
#
# 1 68.0606 8.9186 26.3779 -9.8081 -1.9155 -4.3935
# 2 8.9186 47.1534 13.1565 14.4074 -6.7589 -9.0829
# 3 26.3779 13.1565 109.4642 -8.4725 11.8216 -4.6004
# 4 -9.8081 14.4074 -8.4725 26.2690 -3.4562 1.4295
# 5 -1.9155 -6.7589 11.8216 -3.4562 12.8365 0.6356
# 6 -4.3935 -9.0829 -4.6004 1.4295 0.6356 9.8312
#
#
#
# Elastic Compliance Matrix: (Units=1/GPa)
#
#
# Indices 1 2 3 4 5 6 
#
# 1 0.018175 -0.003711 -0.003948 0.008349 0.006582 0.001207
# 2 -0.003711 0.041039 -0.006498 -0.025513 0.018400 0.035736
# 3 -0.003948 -0.006498 0.012703 0.004368 -0.014458 -0.001524
# 4 0.008349 -0.025513 0.004368 0.058115 0.000738 -0.026295
# 5 0.006582 0.018400 -0.014458 0.000738 0.101765 0.006489
# 6 0.001207 0.035736 -0.001524 -0.026295 0.006489 0.137964
#
#
# Mechanical properties :
#
#
# Convention : Reuss Voigt Hill
#
# Bulk Modulus (GPa) = 22.93390 35.73158 29.33274
# Shear Modulus (GPa) = 12.11799 21.53570 16.82685
#
# Velocity S-wave (km/s) = 2.61830 3.49047 3.08536
# Velocity P-wave (km/s) = 4.70267 6.03813 5.41175
#
# Compressibility (1/GPa) = 0.04360357
#
# Stress axis : x y z
#
# Youngs Moduli (GPa) = 55.01971 24.36700 78.72104
#
# Poissons Ratio (x) = 0.09043 0.31076
# Poissons Ratio (y) = 0.20419 0.51155
# Poissons Ratio (z) = 0.21719 0.15834
#
# Static dielectric constant tensor:
#      x y z
#    x 3.185970 -0.128030 0.237560 
#    y -0.128030 2.979540 -0.000990 
#    z 0.237560 -0.000990 3.452450 
# 
# 
# High freq. dielectric constant tensor:
#      x y z
#    x 1.647180 -0.011510 0.024200 
#    y -0.011510 1.662410 -0.001030 
#    z 0.024200 -0.001030 1.699100 
# 
# From -- ./inp_files/397550.got.cif
#   From: 2010.06.25/outbox.cif.g09.slc.cpg/sg2_199_cif.got.tgz:397550.got - 2010.06.27 13:26:56.
