data_PCOD8001214
_publ_section_title
;
Structure prediction by ZEFSAII (Michael W. Deem and Ramdas Pophale) SiO2 
 PCOD8001214
Probable space group: P -1
;
_chemical_formula_sum "Si O2"
_cell_formula_units_Z 16
_cell_length_a 15.117022
_cell_length_b 12.388521
_cell_length_c 9.346941
_cell_angle_alpha 131.228913
_cell_angle_beta 70.259273
_cell_angle_gamma 70.588286
_cell_volume 769.239118
_symmetry_space_group_name_H-M "P -1"
_symmetry_group_IT_number 2
_symmetry_cell_setting 'triclinic'
loop_
_space_group_symop_operation_xyz
x,y,z
-x,-y,-z
loop_
_atom_site_type_symbol
_atom_site_label
_atom_site_fract_x
_atom_site_fract_y
_atom_site_fract_z
Si Si1 0.408293 0.049041 0.723267
Si Si2 0.107016 0.667296 0.806744
Si Si3 0.796183 0.454811 0.674713
Si Si4 0.705805 0.076763 0.761275
Si Si5 0.625281 0.849715 0.680658
Si Si6 0.048443 0.012112 0.334077
Si Si7 0.223834 0.005933 0.683469
Si Si8 0.420165 0.524569 0.198213
O O1 0.339710 0.977821 0.663798
O O2 0.500000 0.000000 0.500000
O O3 0.538202 0.883681 0.625959
O O4 0.256694 0.317816 0.085272
O O5 0.142421 0.656412 0.612985
O O6 0.236090 0.418539 0.591559
O O7 0.951803 0.761222 0.980060
O O8 0.093422 0.833783 0.043181
O O9 0.639622 0.560341 0.884241
O O10 0.913520 0.270198 0.571438
O O11 0.692325 0.928494 0.688688
O O12 0.816795 0.035187 0.763742
O O13 0.762648 0.012904 0.511359
O O14 0.543304 0.352262 0.105575
O O15 0.500000 0.000000 0.000000
O O16 0.000000 0.000000 0.500000
O O17 0.274407 0.796792 0.551458
O O18 0.500000 0.500000 0.000000
#
# Coordination Sequence:
#
# PCOD8001214 Si02
#       8
#     2   2   2   2   2   2   2   2
#     4  12  25  44  74 100 134 190 232 278 348 415
#     4  12  27  47  69 101 148 180 227 296 352 413
#     4  12  25  48  69  99 145 180 228 290 348 413
#     4  11  23  44  68 103 138 181 234 292 340 411
#     4  12  26  49  68 101 145 181 233 295 351 411
#     4  12  26  44  73 106 135 184 231 282 350 412
#     4  11  24  41  70 104 136 183 234 282 349 416
#     4  10  19  42  67  92 136 176 227 281 334 406
#
# _framework density 20.799775
#
# number of rings (size 3 to 8) (size 9 to 14) (size 15 to 20)
#    0.000    0.500    6.250    1.875    5.250    2.000 
#    0.000    1.250    0.000    0.000    0.000    0.000 
#    0.000    0.000    0.000    0.000    0.000    0.000 
#
# Total GULP energy -198334.862955 kJ/mol
# GULP energy per Si atom -12395.928935 kJ/mol
# Density = 2.075243 g / cm^3
# Si number density = 20.799775 Si / 1000 Ang^3
#
#
#
# Elastic Constant Matrix: (Units=GPa)
#
#
# Indices 1 2 3 4 5 6 
#
# 1 139.7397 31.3326 19.0603 0.0682 -20.5338 -12.7777
# 2 31.3326 103.9095 31.1805 16.1777 -12.1890 -19.4054
# 3 19.0603 31.1805 90.7459 14.6047 -11.7267 -12.9547
# 4 0.0682 16.1777 14.6047 44.0087 -10.1292 -3.1779
# 5 -20.5338 -12.1890 -11.7267 -10.1292 37.0546 6.2116
# 6 -12.7777 -19.4054 -12.9547 -3.1779 6.2116 35.4936
#
#
#
# Elastic Compliance Matrix: (Units=1/GPa)
#
#
# Indices 1 2 3 4 5 6 
#
# 1 0.008398 -0.001920 -0.000720 0.001968 0.004137 0.001163
# 2 -0.001920 0.012442 -0.002600 -0.003243 0.000518 0.004781
# 3 -0.000720 -0.002600 0.013101 -0.002817 0.001694 0.002552
# 4 0.001968 -0.003243 -0.002817 0.026271 0.006460 -0.000871
# 5 0.004137 0.000518 0.001694 0.006460 0.032199 -0.002666
# 6 0.001163 0.004781 0.002552 -0.000871 -0.002666 0.032527
#
#
# Mechanical properties :
#
#
# Convention : Reuss Voigt Hill
#
# Bulk Modulus (GPa) = 42.62679 55.28243 48.95461
# Shear Modulus (GPa) = 34.90682 40.16613 37.53648
#
# Velocity S-wave (km/s) = 4.10107 4.39918 4.25274
# Velocity P-wave (km/s) = 6.55464 7.24153 6.90663
#
# Compressibility (1/GPa) = 0.02345943
#
# Stress axis : x y z
#
# Youngs Moduli (GPa) = 119.07192 80.37581 76.32968
#
# Poissons Ratio (x) = 0.15434 0.05498
# Poissons Ratio (y) = 0.22864 0.19848
# Poissons Ratio (z) = 0.08577 0.20900
#
# Static dielectric constant tensor:
#      x y z
#    x 2.533020 -1.242040 -1.925030 
#    y -1.242040 2.888600 -1.327570 
#    z -1.925030 -1.327570 1.766660 
# 
# 
# High freq. dielectric constant tensor:
#      x y z
#    x 1.827920 0.001480 -0.012180 
#    y 0.001480 1.824010 0.013630 
#    z -0.012180 0.013630 1.819430 
# 
# From -- ./inp_files/206960.got.cif
#   From: 2010.06.25/outbox.cif.g09.slc.cpg/sg2_104_cif.got.tgz:206960.got - 2010.06.27 13:26:56.
