data_PCOD8001088
_publ_section_title
;
Structure prediction by ZEFSAII (Michael W. Deem and Ramdas Pophale) SiO2 
 PCOD8001088
Probable space group: P -1
;
_chemical_formula_sum "Si O2"
_cell_formula_units_Z 16
_cell_length_a 14.062179
_cell_length_b 8.957952
_cell_length_c 10.530596
_cell_angle_alpha 97.415955
_cell_angle_beta 125.692854
_cell_angle_gamma 43.174060
_cell_volume 623.505713
_symmetry_space_group_name_H-M "P -1"
_symmetry_group_IT_number 2
_symmetry_cell_setting 'triclinic'
loop_
_space_group_symop_operation_xyz
x,y,z
-x,-y,-z
loop_
_atom_site_type_symbol
_atom_site_label
_atom_site_fract_x
_atom_site_fract_y
_atom_site_fract_z
Si Si1 0.909907 0.650812 0.691504
Si Si2 0.112110 0.882070 0.385226
Si Si3 0.929479 0.318928 0.472471
Si Si4 0.818727 0.185230 0.977735
Si Si5 0.684341 0.659860 0.951172
Si Si6 0.342669 0.279905 0.351873
Si Si7 0.255097 0.206323 0.694226
Si Si8 0.344468 0.819406 0.359583
O O1 0.861167 0.540041 0.707931
O O2 0.784522 0.807634 0.482510
O O3 0.828884 0.872039 0.741542
O O4 0.151361 0.423998 0.843564
O O5 0.172734 0.676502 0.497654
O O6 0.293160 0.744565 0.417693
O O7 0.055516 0.084082 0.449724
O O8 0.915014 0.032913 0.169548
O O9 0.760847 0.592614 0.295619
O O10 0.076376 0.301306 0.642982
O O11 0.710817 0.454876 0.949502
O O12 0.654860 0.246204 0.791997
O O13 0.000000 0.000000 0.000000
O O14 0.700262 0.706957 0.826778
O O15 0.471808 0.924804 0.877362
O O16 0.431173 0.354469 0.452618
O O17 0.500000 0.000000 0.500000
#
# Coordination Sequence:
#
# PCOD8001088 Si02
#       8
#     2   2   2   2   2   2   2   2
#     4  11  21  41  65  96 145 176 222 284 334 416
#     4  10  19  42  71 101 129 184 231 283 342 405
#     4  10  22  42  72  92 141 182 232 295 340 395
#     4  10  21  38  66 100 137 180 225 275 349 415
#     4  12  21  40  69  96 142 186 222 283 342 411
#     4  10  21  38  60  96 136 181 219 269 339 415
#     4  11  23  44  65 104 134 183 231 285 349 401
#     4  10  19  41  65  96 141 175 219 274 341 407
#
# _framework density 25.661353999999999
#
# number of rings (size 3 to 8) (size 9 to 14) (size 15 to 20)
#    0.000    1.500    6.250    0.375    0.000    2.500 
#    4.500    8.750    0.000    0.000    0.000    0.000 
#    0.000    0.000    0.000    0.000    0.000    0.000 
#
# Total GULP energy -198312.985569 kJ/mol
# GULP energy per Si atom -12394.561598 kJ/mol
# Density = 2.560295 g / cm^3
# Si number density = 25.661354 Si / 1000 Ang^3
#
#
#
# Elastic Constant Matrix: (Units=GPa)
#
#
# Indices 1 2 3 4 5 6 
#
# 1 163.0726 31.7444 37.7807 -1.2515 5.1394 10.1910
# 2 31.7444 113.6258 15.2252 -4.1891 13.6857 24.8524
# 3 37.7807 15.2252 99.9109 18.2479 6.5556 9.1416
# 4 -1.2515 -4.1891 18.2479 43.3210 -1.0041 9.5698
# 5 5.1394 13.6857 6.5556 -1.0041 38.7176 -6.0769
# 6 10.1910 24.8524 9.1416 9.5698 -6.0769 30.9284
#
#
#
# Elastic Compliance Matrix: (Units=1/GPa)
#
#
# Indices 1 2 3 4 5 6 
#
# 1 0.007078 -0.001360 -0.002630 0.001379 -0.000121 -0.000913
# 2 -0.001360 0.012773 -0.000667 0.003996 -0.006007 -0.012036
# 3 -0.002630 -0.000667 0.012247 -0.005124 -0.001776 -0.000981
# 4 0.001379 0.003996 -0.005124 0.028099 -0.001756 -0.011191
# 5 -0.000121 -0.006007 -0.001776 -0.001756 0.030082 0.011846
# 6 -0.000913 -0.012036 -0.000981 -0.011191 0.011846 0.048385
#
#
# Mechanical properties :
#
#
# Convention : Reuss Voigt Hill
#
# Bulk Modulus (GPa) = 43.88770 60.67889 52.28330
# Shear Modulus (GPa) = 32.13956 42.05069 37.09512
#
# Velocity S-wave (km/s) = 3.54284 4.05245 3.80618
# Velocity P-wave (km/s) = 5.82025 6.75232 6.30354
#
# Compressibility (1/GPa) = 0.02278543
#
# Stress axis : x y z
#
# Youngs Moduli (GPa) = 141.29019 78.28769 81.65285
#
# Poissons Ratio (x) = 0.10646 0.21472
# Poissons Ratio (y) = 0.19214 0.05444
# Poissons Ratio (z) = 0.37154 0.05220
#
# Static dielectric constant tensor:
#      x y z
#    x 5.265520 0.138420 0.150490 
#    y 0.138420 4.863610 0.367860 
#    z 0.150490 0.367860 5.325300 
# 
# 
# High freq. dielectric constant tensor:
#      x y z
#    x 2.011380 0.001950 -0.005060 
#    y 0.001950 2.053310 0.021740 
#    z -0.005060 0.021740 2.024570 
# 
# From -- ./inp_files/447674.got.cif
#   From: 2010.06.25/outbox.cif.g09.slc.cpg/sg2_224_cif.got.tgz:447674.got - 2010.06.27 13:26:56.
