data_PCOD8001723
_publ_section_title
;
Structure prediction by ZEFSAII (Michael W. Deem and Ramdas Pophale) SiO2 
 PCOD8001723
Probable space group: P -1
;
_chemical_formula_sum "Si O2"
_cell_formula_units_Z 16
_cell_length_a 11.987028
_cell_length_b 8.863262
_cell_length_c 17.485240
_cell_angle_alpha 66.290336
_cell_angle_beta 149.690116
_cell_angle_gamma 103.040154
_cell_volume 828.198661
_symmetry_space_group_name_H-M "P -1"
_symmetry_group_IT_number 2
_symmetry_cell_setting 'triclinic'
loop_
_space_group_symop_operation_xyz
x,y,z
-x,-y,-z
loop_
_atom_site_type_symbol
_atom_site_label
_atom_site_fract_x
_atom_site_fract_y
_atom_site_fract_z
Si Si1 0.771822 0.806891 0.496388
Si Si2 0.463557 0.532889 0.183611
Si Si3 0.986048 0.728985 0.795401
Si Si4 0.282165 0.924843 0.394307
Si Si5 0.797246 0.497459 0.823069
Si Si6 0.370216 0.687763 0.355780
Si Si7 0.231148 0.823693 0.551509
Si Si8 0.853724 0.681348 0.403675
O O1 0.532543 0.781564 0.388199
O O2 0.863041 0.701287 0.496386
O O3 0.963333 0.740069 0.688419
O O4 0.735164 0.009521 0.419387
O O5 0.422844 0.497812 0.256236
O O6 0.611744 0.347241 0.278678
O O7 0.595239 0.683345 0.224947
O O8 0.229646 0.599591 0.984668
O O9 0.776996 0.659772 0.721819
O O10 0.949006 0.917814 0.770616
O O11 0.248486 0.804526 0.329776
O O12 0.304223 0.820242 0.507238
O O13 0.500000 0.000000 0.500000
O O14 0.825825 0.333918 0.816587
O O15 0.000000 0.500000 0.000000
O O16 0.500000 0.500000 0.500000
O O17 0.962077 0.822118 0.399302
O O18 0.000000 0.500000 0.500000
#
# Coordination Sequence:
#
# PCOD8001723 Si02
#       8
#     2   2   2   2   2   2   2   2
#     4  11  21  37  61  88 115 152 206 238 290 354
#     4  10  20  38  58  84 121 157 194 240 302 338
#     4  10  21  37  59  89 123 154 187 250 301 347
#     4  11  20  36  60  92 121 150 198 242 297 352
#     4  10  20  34  54  82 120 154 186 238 297 344
#     4  12  20  33  62  89 115 156 201 241 288 358
#     4  10  21  37  61  87 118 159 197 243 288 355
#     4  10  22  38  61  84 112 160 209 239 282 355
#
# _framework density 19.319036000000001
#
# number of rings (size 3 to 8) (size 9 to 14) (size 15 to 20)
#    0.000    1.500    5.000    1.875    1.750    0.000 
#    0.000   10.000    0.000    0.000    0.000    0.000 
#    0.000    0.000    0.000    0.000    0.000    0.000 
#
# Total GULP energy -198223.539143 kJ/mol
# GULP energy per Si atom -12388.971196 kJ/mol
# Density = 1.927506 g / cm^3
# Si number density = 19.319036 Si / 1000 Ang^3
#
#
#
# Elastic Constant Matrix: (Units=GPa)
#
#
# Indices 1 2 3 4 5 6 
#
# 1 93.9828 42.5353 25.8939 9.4841 -0.4245 -9.6249
# 2 42.5353 135.3850 50.4649 10.7484 -4.7728 -11.1108
# 3 25.8939 50.4649 81.8658 2.0094 -2.8743 -2.3148
# 4 9.4841 10.7484 2.0094 31.1719 1.1246 -1.3082
# 5 -0.4245 -4.7728 -2.8743 1.1246 20.7301 10.7396
# 6 -9.6249 -11.1108 -2.3148 -1.3082 10.7396 48.9190
#
#
#
# Elastic Compliance Matrix: (Units=1/GPa)
#
#
# Indices 1 2 3 4 5 6 
#
# 1 0.013068 -0.002940 -0.002254 -0.002669 -0.001660 0.002090
# 2 -0.002940 0.010712 -0.005538 -0.002428 0.001104 0.001285
# 3 -0.002254 -0.005538 0.016325 0.001438 0.001496 -0.001219
# 4 -0.002669 -0.002428 0.001438 0.033744 -0.002471 0.000436
# 5 -0.001660 0.001104 0.001496 -0.002471 0.055105 -0.012169
# 6 0.002090 0.001285 -0.001219 0.000436 -0.012169 0.023770
#
#
# Mechanical properties :
#
#
# Convention : Reuss Voigt Hill
#
# Bulk Modulus (GPa) = 53.65317 61.00242 57.32780
# Shear Modulus (GPa) = 27.71566 32.98684 30.35125
#
# Velocity S-wave (km/s) = 3.79176 4.13665 3.96795
# Velocity P-wave (km/s) = 6.85583 7.37975 7.12261
#
# Compressibility (1/GPa) = 0.01863823
#
# Stress axis : x y z
#
# Youngs Moduli (GPa) = 76.52245 93.35567 61.25599
#
# Poissons Ratio (x) = 0.27451 0.13810
# Poissons Ratio (y) = 0.22501 0.33926
# Poissons Ratio (z) = 0.17251 0.51703
#
# Static dielectric constant tensor:
#      x y z
#    x 3.968060 0.237710 0.108770 
#    y 0.237710 3.996600 0.236850 
#    z 0.108770 0.236850 3.254940 
# 
# 
# High freq. dielectric constant tensor:
#      x y z
#    x 1.756810 0.006090 0.002500 
#    y 0.006090 1.768440 0.010320 
#    z 0.002500 0.010320 1.713090 
# 
# From -- ./inp_files/270232.got.cif
#   From: 2010.06.25/outbox.cif.g09.slc.cpg/sg2_136_cif.got.tgz:270232.got - 2010.06.27 13:26:56.
