data_PCOD8001749
_publ_section_title
;
Structure prediction by ZEFSAII (Michael W. Deem and Ramdas Pophale) SiO2 
 PCOD8001749
Probable space group: P -1
;
_chemical_formula_sum "Si O2"
_cell_formula_units_Z 14
_cell_length_a 20.700041
_cell_length_b 12.798457
_cell_length_c 6.340956
_cell_angle_alpha 116.274567
_cell_angle_beta 114.258106
_cell_angle_gamma 22.260828
_cell_volume 570.632991
_symmetry_space_group_name_H-M "P -1"
_symmetry_group_IT_number 2
_symmetry_cell_setting 'triclinic'
loop_
_space_group_symop_operation_xyz
x,y,z
-x,-y,-z
loop_
_atom_site_type_symbol
_atom_site_label
_atom_site_fract_x
_atom_site_fract_y
_atom_site_fract_z
Si Si1 0.310550 0.425145 0.622664
Si Si2 0.793937 0.054330 0.989843
Si Si3 0.313823 0.978229 0.869266
Si Si4 0.686586 0.408291 0.857104
Si Si5 0.957469 0.927315 0.466704
Si Si6 0.315893 0.140583 0.385947
Si Si7 0.039584 0.309641 0.485089
O O1 0.321020 0.271370 0.522384
O O2 0.144648 0.711898 0.514049
O O3 0.498413 0.185977 0.572952
O O4 0.276903 0.531732 0.901375
O O5 0.682538 0.296499 0.893988
O O6 0.912998 0.790388 0.779379
O O7 0.689231 0.129398 0.075152
O O8 0.900081 0.990396 0.208082
O O9 0.499917 0.697063 0.760312
O O10 0.177794 0.179600 0.679463
O O11 0.290369 0.133500 0.105818
O O12 0.821413 0.203446 0.666321
O O13 0.994330 0.752938 0.478918
O O14 0.146962 0.345960 0.470585
#
# Coordination Sequence:
#
# PCOD8001749 Si02
#       7
#     2   2   2   2   2   2   2
#     4   9  18  35  57  78 104 140 179 217 259 309
#     4  10  21  34  53  80 110 138 173 216 263 314
#     4  10  20  34  55  81 108 139 173 214 264 314
#     4  10  20  34  55  81 108 139 173 214 264 314
#     4   9  19  35  55  79 107 139 174 216 264 311
#     4   9  18  35  57  78 104 140 179 217 259 309
#     4   9  19  35  55  79 107 139 174 216 264 311
#
# _framework density 24.534158999999999
#
# number of rings (size 3 to 8) (size 9 to 14) (size 15 to 20)
#    0.000    2.571    0.000    1.286    0.000    7.429 
#    0.000    0.714    0.000   15.429    0.000    0.000 
#    0.000    0.000    0.000    0.000    0.000    0.000 
#
# Total GULP energy -173432.699121 kJ/mol
# GULP energy per Si atom -12388.049937 kJ/mol
# Density = 2.447832 g / cm^3
# Si number density = 24.534159 Si / 1000 Ang^3
#
#
#
# Elastic Constant Matrix: (Units=GPa)
#
#
# Indices 1 2 3 4 5 6 
#
# 1 46.6200 26.0355 38.1012 -11.8970 16.0476 26.9711
# 2 26.0355 184.4455 73.5916 37.8628 -2.6993 -74.7751
# 3 38.1012 73.5916 130.4651 35.0342 0.8178 -18.1885
# 4 -11.8970 37.8628 35.0342 4.4296 20.5717 28.1728
# 5 16.0476 -2.6993 0.8178 20.5717 21.4027 -8.9060
# 6 26.9711 -74.7751 -18.1885 28.1728 -8.9060 19.7652
#
#
#
# Elastic Compliance Matrix: (Units=1/GPa)
#
#
# Indices 1 2 3 4 5 6 
#
# 1 0.015215 0.003451 -0.002760 -0.010621 0.001693 0.005654
# 2 0.003451 0.007442 -0.006639 0.007396 -0.006985 0.003649
# 3 -0.002760 -0.006639 0.011907 -0.002410 0.000244 -0.006849
# 4 -0.010621 0.007396 -0.002410 0.015195 0.002611 0.019772
# 5 0.001693 -0.006985 0.000244 0.002611 0.035250 -0.016351
# 6 0.005654 0.003649 -0.006849 0.019772 -0.016351 0.014831
#
#
# Mechanical properties :
#
#
# Convention : Reuss Voigt Hill
#
# Bulk Modulus (GPa) = 44.11816 70.77636 57.44726
# Shear Modulus (GPa) = 41.91384 24.03966 32.97675
#
# Velocity S-wave (km/s) = 4.13775 3.13364 3.67020
# Velocity P-wave (km/s) = 6.39135 6.48102 6.43634
#
# Compressibility (1/GPa) = 0.02266640
#
# Stress axis : x y z
#
# Youngs Moduli (GPa) = 65.72488 134.36500 83.98518
#
# Poissons Ratio (x) = -0.46363 0.23182
# Poissons Ratio (y) = -0.22679 0.55760
# Poissons Ratio (z) = 0.18141 0.89208
#
# Static dielectric constant tensor:
#      x y z
#    x 4.254570 -0.385960 0.371710 
#    y -0.385960 5.218250 0.042730 
#    z 0.371710 0.042730 4.395000 
# 
# 
# High freq. dielectric constant tensor:
#      x y z
#    x 1.968490 -0.007140 0.027110 
#    y -0.007140 1.995500 0.009310 
#    z 0.027110 0.009310 1.973390 
# 
# From -- ./inp_files/65623.got.cif
#   From: 2010.06.25/outbox.cif.g09.slc.cpg/sg2_33_cif.got.tgz:65623.got - 2010.06.27 13:26:56.
