data_PCOD8001736
_publ_section_title
;
Structure prediction by ZEFSAII (Michael W. Deem and Ramdas Pophale) SiO2 
 PCOD8001736
Probable space group: P -1
;
_chemical_formula_sum "Si O2"
_cell_formula_units_Z 16
_cell_length_a 29.341260
_cell_length_b 17.670493
_cell_length_c 6.420739
_cell_angle_alpha 108.627813
_cell_angle_beta 118.386922
_cell_angle_gamma 18.315893
_cell_volume 808.831712
_symmetry_space_group_name_H-M "P -1"
_symmetry_group_IT_number 2
_symmetry_cell_setting 'triclinic'
loop_
_space_group_symop_operation_xyz
x,y,z
-x,-y,-z
loop_
_atom_site_type_symbol
_atom_site_label
_atom_site_fract_x
_atom_site_fract_y
_atom_site_fract_z
Si Si1 0.186343 0.286309 0.970890
Si Si2 0.514849 0.255407 0.671845
Si Si3 0.065494 0.035623 0.693952
Si Si4 0.106349 0.847051 0.302806
Si Si5 0.467521 0.472416 0.053827
Si Si6 0.009839 0.291650 0.837626
Si Si7 0.987271 0.608950 0.446276
Si Si8 0.297769 0.928192 0.434690
O O1 0.048220 0.414537 0.804640
O O2 0.175271 0.327625 0.735840
O O3 0.136381 0.436298 0.134921
O O4 0.378884 0.975486 0.197516
O O5 0.313914 0.523465 0.436660
O O6 0.531249 0.301740 0.914343
O O7 0.590539 0.170035 0.536035
O O8 0.074351 0.984330 0.437771
O O9 0.266691 0.760231 0.950196
O O10 0.950868 0.285965 0.688866
O O11 0.974786 0.102439 0.691026
O O12 0.000000 0.000000 0.000000
O O13 0.500000 0.500000 0.000000
O O14 0.580473 0.309784 0.369944
O O15 0.030336 0.285862 0.635294
O O16 0.195954 0.023327 0.128966
O O17 0.840184 0.823166 0.497731
#
# Coordination Sequence:
#
# PCOD8001736 Si02
#       8
#     2   2   2   2   2   2   2   2
#     4  10  21  34  57  88 120 161 190 229 289 354
#     4  11  22  37  59  86 115 151 202 244 283 343
#     4  10  23  41  60  84 113 153 195 243 294 345
#     4  10  23  44  65  80 108 153 205 249 291 337
#     4  11  22  36  55  88 125 149 188 240 294 353
#     4  11  22  36  58  89 124 153 189 234 294 358
#     4  10  20  34  54  88 129 158 188 222 290 356
#     4  11  20  33  57  88 121 157 186 231 292 354
#
# _framework density 19.781617000000001
#
# number of rings (size 3 to 8) (size 9 to 14) (size 15 to 20)
#    0.000    1.500    2.500    2.625    3.500    6.000 
#    0.000    0.625    0.000    1.500    0.000    0.000 
#    0.000    0.000    0.000    0.000    0.000    0.000 
#
# Total GULP energy -198266.684152 kJ/mol
# GULP energy per Si atom -12391.667760 kJ/mol
# Density = 1.973659 g / cm^3
# Si number density = 19.781617 Si / 1000 Ang^3
#
#
#
# Elastic Constant Matrix: (Units=GPa)
#
#
# Indices 1 2 3 4 5 6 
#
# 1 95.7934 51.0500 56.3524 -5.6743 -1.5196 16.6889
# 2 51.0500 110.9800 58.7313 -0.2826 5.2514 17.8414
# 3 56.3524 58.7313 129.8027 -24.1898 -20.1606 11.8938
# 4 -5.6743 -0.2826 -24.1898 33.6621 5.4331 2.2797
# 5 -1.5196 5.2514 -20.1606 5.4331 33.7707 1.7292
# 6 16.6889 17.8414 11.8938 2.2797 1.7292 35.2621
#
#
#
# Elastic Compliance Matrix: (Units=1/GPa)
#
#
# Indices 1 2 3 4 5 6 
#
# 1 0.016267 -0.004046 -0.005214 -0.000545 -0.001470 -0.003785
# 2 -0.004046 0.014957 -0.006340 -0.004024 -0.005493 -0.002984
# 3 -0.005214 -0.006340 0.015992 0.009180 0.008859 -0.000746
# 4 -0.000545 -0.004024 0.009180 0.036328 0.000399 -0.003171
# 5 -0.001470 -0.005493 0.008859 0.000399 0.035690 -0.001289
# 6 -0.003785 -0.002984 -0.000746 -0.003171 -0.001289 0.032180
#
#
# Mechanical properties :
#
#
# Convention : Reuss Voigt Hill
#
# Bulk Modulus (GPa) = 62.44850 74.31594 68.38222
# Shear Modulus (GPa) = 26.60230 31.90182 29.25206
#
# Velocity S-wave (km/s) = 3.67113 4.02020 3.84962
# Velocity P-wave (km/s) = 7.04323 7.69409 7.37584
#
# Compressibility (1/GPa) = 0.01601319
#
# Stress axis : x y z
#
# Youngs Moduli (GPa) = 61.47479 66.85970 62.53290
#
# Poissons Ratio (x) = 0.27055 0.32606
# Poissons Ratio (y) = 0.24876 0.39647
# Poissons Ratio (z) = 0.32055 0.42390
#
# Static dielectric constant tensor:
#      x y z
#    x 3.529530 0.178290 -0.184420 
#    y 0.178290 3.650550 -0.015410 
#    z -0.184420 -0.015410 3.754410 
# 
# 
# High freq. dielectric constant tensor:
#      x y z
#    x 1.751740 0.018490 -0.023230 
#    y 0.018490 1.772980 0.008080 
#    z -0.023230 0.008080 1.773360 
# 
# From -- ./inp_files/126885.got.cif
#   From: 2010.06.25/outbox.cif.g09.slc.cpg/sg2_64_cif.got.tgz:126885.got - 2010.06.27 13:26:56.
