data_PCOD8001840
_publ_section_title
;
Structure prediction by ZEFSAII (Michael W. Deem and Ramdas Pophale) SiO2 
 PCOD8001840
Probable space group: P -1
;
_chemical_formula_sum "Si O2"
_cell_formula_units_Z 16
_cell_length_a 10.356053
_cell_length_b 9.213758
_cell_length_c 9.413483
_cell_angle_alpha 80.333007
_cell_angle_beta 116.825897
_cell_angle_gamma 86.888191
_cell_volume 781.487091
_symmetry_space_group_name_H-M "P -1"
_symmetry_group_IT_number 2
_symmetry_cell_setting 'triclinic'
loop_
_space_group_symop_operation_xyz
x,y,z
-x,-y,-z
loop_
_atom_site_type_symbol
_atom_site_label
_atom_site_fract_x
_atom_site_fract_y
_atom_site_fract_z
Si Si1 0.224618 0.445774 0.157024
Si Si2 0.021650 0.984816 0.682368
Si Si3 0.973825 0.274899 0.079462
Si Si4 0.288384 0.034153 0.978100
Si Si5 0.815424 0.115542 0.797746
Si Si6 0.342204 0.594073 0.428795
Si Si7 0.506558 0.250934 0.981207
Si Si8 0.447698 0.563032 0.774564
O O1 0.222926 0.505836 0.309778
O O2 0.389828 0.407402 0.192249
O O3 0.140865 0.303708 0.137421
O O4 0.138321 0.572248 0.991371
O O5 0.044030 0.811416 0.767858
O O6 0.161859 0.058587 0.791436
O O7 0.000000 0.000000 0.500000
O O8 0.879397 0.063406 0.684460
O O9 0.940022 0.175160 0.945173
O O10 0.374198 0.174331 0.991655
O O11 0.233568 0.021200 0.115265
O O12 0.385510 0.873502 0.026352
O O13 0.676166 0.242904 0.679703
O O14 0.500000 0.500000 0.500000
O O15 0.324080 0.611920 0.586157
O O16 0.442453 0.388017 0.825606
O O17 0.596335 0.327596 0.133349
#
# Coordination Sequence:
#
# PCOD8001840 Si02
#       8
#     2   2   2   2   2   2   2   2
#     4   9  18  33  62  84 111 150 195 235 284 350
#     4  11  24  37  59  86 121 150 188 244 291 342
#     4   9  18  36  60  86 112 152 193 233 285 348
#     4  10  21  41  61  81 122 153 201 231 293 350
#     4  10  21  38  63  84 112 158 193 232 292 350
#     4   9  18  35  57  83 116 148 187 242 286 340
#     4  10  22  36  60  87 113 161 191 245 284 348
#     4  10  20  34  57  87 118 148 196 242 293 334
#
# _framework density 20.473787999999999
#
# number of rings (size 3 to 8) (size 9 to 14) (size 15 to 20)
#    0.000    2.250    0.000    4.500    5.250    1.000 
#    0.000    1.875    0.000    3.000    0.000    0.000 
#    0.000    0.000    0.000    0.000    0.000    0.000 
#
# Total GULP energy -198271.102225 kJ/mol
# GULP energy per Si atom -12391.943889 kJ/mol
# Density = 2.042719 g / cm^3
# Si number density = 20.473788 Si / 1000 Ang^3
#
#
#
# Elastic Constant Matrix: (Units=GPa)
#
#
# Indices 1 2 3 4 5 6 
#
# 1 73.8613 33.3550 34.3003 -4.0097 -7.2262 10.7031
# 2 33.3550 73.4261 42.0722 -4.2610 2.1350 12.0023
# 3 34.3003 42.0722 153.1277 -12.6361 -16.1547 7.1968
# 4 -4.0097 -4.2610 -12.6361 18.8793 -5.1422 -4.3884
# 5 -7.2262 2.1350 -16.1547 -5.1422 28.0250 0.4717
# 6 10.7031 12.0023 7.1968 -4.3884 0.4717 24.1372
#
#
#
# Elastic Compliance Matrix: (Units=1/GPa)
#
#
# Indices 1 2 3 4 5 6 
#
# 1 0.018502 -0.006995 -0.001360 0.001833 0.004925 -0.004084
# 2 -0.006995 0.020526 -0.004749 -0.003259 -0.006599 -0.006153
# 3 -0.001360 -0.004749 0.009362 0.007031 0.006676 0.001321
# 4 0.001833 -0.003259 0.007031 0.064122 0.016370 0.010050
# 5 0.004925 -0.006599 0.006676 0.016370 0.044286 0.001218
# 6 -0.004084 -0.006153 0.001321 0.010050 0.001218 0.047710
#
#
# Mechanical properties :
#
#
# Convention : Reuss Voigt Hill
#
# Bulk Modulus (GPa) = 45.07855 57.76332 51.42094
# Shear Modulus (GPa) = 20.99860 26.92081 23.95971
#
# Velocity S-wave (km/s) = 3.20603 3.63008 3.42462
# Velocity P-wave (km/s) = 5.98083 6.77086 6.38807
#
# Compressibility (1/GPa) = 0.02218350
#
# Stress axis : x y z
#
# Youngs Moduli (GPa) = 54.04694 48.71816 106.81251
#
# Poissons Ratio (x) = 0.34079 0.14524
# Poissons Ratio (y) = 0.37807 0.50722
# Poissons Ratio (z) = 0.07349 0.23135
#
# Static dielectric constant tensor:
#      x y z
#    x 3.585540 0.038680 -0.034910 
#    y 0.038680 3.764510 0.053910 
#    z -0.034910 0.053910 4.192000 
# 
# 
# High freq. dielectric constant tensor:
#      x y z
#    x 1.784370 -0.005490 0.000700 
#    y -0.005490 1.805630 -0.004730 
#    z 0.000700 -0.004730 1.795850 
# 
# From -- ./inp_files/238706.got.cif
#   From: 2010.06.25/outbox.cif.g09.slc.cpg/sg2_120_cif.got.tgz:238706.got - 2010.06.27 13:26:56.
