data_PCOD8001417
_publ_section_title
;
Structure prediction by ZEFSAII (Michael W. Deem and Ramdas Pophale) SiO2 
 PCOD8001417
Probable space group: P -1
;
_chemical_formula_sum "Si O2"
_cell_formula_units_Z 14
_cell_length_a 8.649475
_cell_length_b 9.033105
_cell_length_c 13.995605
_cell_angle_alpha 133.482481
_cell_angle_beta 94.085710
_cell_angle_gamma 109.984951
_cell_volume 666.114864
_symmetry_space_group_name_H-M "P -1"
_symmetry_group_IT_number 2
_symmetry_cell_setting 'triclinic'
loop_
_space_group_symop_operation_xyz
x,y,z
-x,-y,-z
loop_
_atom_site_type_symbol
_atom_site_label
_atom_site_fract_x
_atom_site_fract_y
_atom_site_fract_z
Si Si1 0.758681 0.139302 0.637304
Si Si2 0.816825 0.832685 0.791267
Si Si3 0.295322 0.540589 0.082088
Si Si4 0.031703 0.134154 0.764956
Si Si5 0.365935 0.717040 0.478736
Si Si6 0.781194 0.932993 0.030321
Si Si7 0.326595 0.016893 0.761481
O O1 0.771044 0.306350 0.798789
O O2 0.770595 0.261160 0.590345
O O3 0.936838 0.118924 0.652079
O O4 0.571697 0.874826 0.515970
O O5 0.682004 0.553333 0.632020
O O6 0.725380 0.911746 0.906155
O O7 0.862617 0.998491 0.773836
O O8 0.001466 0.869140 0.861607
O O9 0.272370 0.333902 0.059667
O O10 0.507347 0.714974 0.139277
O O11 0.169578 0.413902 0.926692
O O12 0.140562 0.996475 0.706354
O O13 0.346538 0.809687 0.622610
O O14 0.679515 0.014259 0.136543
#
# Coordination Sequence:
#
# PCOD8001417 Si02
#       7
#     2   2   2   2   2   2   2
#     4  10  20  33  52  78 106 134 178 208 256 302
#     4   9  18  32  53  76 103 136 173 206 255 306
#     4   9  16  33  54  78 100 138 169 213 254 307
#     4  10  20  32  53  83 103 131 172 224 249 297
#     4  10  20  35  53  74 104 146 167 206 256 321
#     4   9  16  30  53  79  97 132 178 208 241 311
#     4   9  19  32  55  80 104 134 171 212 261 299
#
# _framework density 21.017396999999999
#
# number of rings (size 3 to 8) (size 9 to 14) (size 15 to 20)
#    0.000    2.857    1.429    2.143    0.000    3.429 
#    0.000    0.000    0.000    3.429    0.000    1.000 
#    0.000    0.000    0.000    0.000    0.000    0.000 
#
# Total GULP energy -173481.764804 kJ/mol
# GULP energy per Si atom -12391.554629 kJ/mol
# Density = 2.096956 g / cm^3
# Si number density = 21.017397 Si / 1000 Ang^3
#
#
#
# Elastic Constant Matrix: (Units=GPa)
#
#
# Indices 1 2 3 4 5 6 
#
# 1 41.2246 16.9475 14.9407 -8.5803 1.6145 8.9601
# 2 16.9475 48.2409 22.3917 -6.2258 5.4377 12.2051
# 3 14.9407 22.3917 93.4217 4.9797 -4.9574 3.6877
# 4 -8.5803 -6.2258 4.9797 23.4224 3.1062 1.5450
# 5 1.6145 5.4377 -4.9574 3.1062 27.9278 -8.5647
# 6 8.9601 12.2051 3.6877 1.5450 -8.5647 23.4244
#
#
#
# Elastic Compliance Matrix: (Units=1/GPa)
#
#
# Indices 1 2 3 4 5 6 
#
# 1 0.034074 -0.002752 -0.005462 0.015041 -0.008644 -0.014892
# 2 -0.002752 0.035309 -0.008756 0.014002 -0.016902 -0.023070
# 3 -0.005462 -0.008756 0.014264 -0.008940 0.007973 0.007911
# 4 0.015041 0.014002 -0.008940 0.057730 -0.018405 -0.022179
# 5 -0.008644 -0.016902 0.007973 -0.018405 0.052667 0.031329
# 6 -0.014892 -0.023070 0.007911 -0.022179 0.031329 0.072080
#
#
# Mechanical properties :
#
#
# Convention : Reuss Voigt Hill
#
# Bulk Modulus (GPa) = 20.11773 32.38302 26.25037
# Shear Modulus (GPa) = 15.79114 23.52874 19.65994
#
# Velocity S-wave (km/s) = 2.74403 3.34951 3.06177
# Velocity P-wave (km/s) = 4.43083 5.51363 5.00162
#
# Compressibility (1/GPa) = 0.04970740
#
# Stress axis : x y z
#
# Youngs Moduli (GPa) = 29.34759 28.32124 70.10828
#
# Poissons Ratio (x) = 0.07794 0.38296
# Poissons Ratio (y) = 0.08076 0.61384
# Poissons Ratio (z) = 0.16031 0.24797
#
# Static dielectric constant tensor:
#      x y z
#    x 3.474570 0.370630 0.009410 
#    y 0.370630 3.648550 -0.114340 
#    z 0.009410 -0.114340 3.965210 
# 
# 
# High freq. dielectric constant tensor:
#      x y z
#    x 1.785870 0.025090 0.000280 
#    y 0.025090 1.804140 0.001970 
#    z 0.000280 0.001970 1.832300 
# 
# From -- ./inp_files/224037.got.cif
#   From: 2010.06.25/outbox.cif.g09.slc.cpg/sg2_113_cif.got.tgz:224037.got - 2010.06.27 13:26:56.
