data_PCOD8001671
_publ_section_title
;
Structure prediction by ZEFSAII (Michael W. Deem and Ramdas Pophale) SiO2 
 PCOD8001671
Probable space group: P -1
;
_chemical_formula_sum "Si O2"
_cell_formula_units_Z 16
_cell_length_a 21.141127
_cell_length_b 14.096162
_cell_length_c 9.472657
_cell_angle_alpha 100.602270
_cell_angle_beta 56.338302
_cell_angle_gamma 149.246429
_cell_volume 873.158402
_symmetry_space_group_name_H-M "P -1"
_symmetry_group_IT_number 2
_symmetry_cell_setting 'triclinic'
loop_
_space_group_symop_operation_xyz
x,y,z
-x,-y,-z
loop_
_atom_site_type_symbol
_atom_site_label
_atom_site_fract_x
_atom_site_fract_y
_atom_site_fract_z
Si Si1 0.646521 0.057598 0.451949
Si Si2 0.783127 0.361469 0.124952
Si Si3 0.969746 0.402848 0.370934
Si Si4 0.972996 0.858437 0.541925
Si Si5 0.435584 0.561544 0.004576
Si Si6 0.722828 0.832568 0.958051
Si Si7 0.804097 0.004533 0.487511
Si Si8 0.809400 0.050630 0.184855
O O1 0.746727 0.245799 0.265980
O O2 0.771056 0.208687 0.485054
O O3 0.658017 0.963373 0.348907
O O4 0.417458 0.813495 0.704230
O O5 0.844735 0.375026 0.909843
O O6 0.961334 0.643085 0.028018
O O7 0.947155 0.264855 0.407429
O O8 0.000000 0.500000 0.500000
O O9 0.105279 0.985499 0.550423
O O10 0.063447 0.900418 0.313936
O O11 0.000000 0.000000 0.500000
O O12 0.738418 0.563319 0.784472
O O13 0.544546 0.674173 0.049768
O O14 0.587762 0.778507 0.757912
O O15 0.330783 0.342782 0.011987
O O16 0.743462 0.901842 0.103852
O O17 0.782362 0.957513 0.336025
#
# Coordination Sequence:
#
# PCOD8001671 Si02
#       8
#     2   2   2   2   2   2   2   2
#     4   9  19  36  56  75 102 143 176 212 260 306
#     4   9  19  36  55  75 105 140 178 213 255 315
#     4  10  21  36  54  80 112 138 169 217 263 308
#     4   9  18  35  54  72 101 138 173 214 258 302
#     4   9  18  35  53  72 103 136 173 214 255 311
#     4   9  19  34  53  76 100 134 175 215 260 309
#     4   9  20  34  53  77 104 140 172 209 265 310
#     4  10  20  34  52  78 108 134 172 220 263 306
#
# _framework density 18.324280000000002
#
# number of rings (size 3 to 8) (size 9 to 14) (size 15 to 20)
#    0.000    3.000    0.000    2.250    0.000   10.000 
#    0.000    5.000    0.000    0.000    0.000    0.000 
#    0.000    0.000    0.000    0.000    0.000    0.000 
#
# Total GULP energy -198287.362446 kJ/mol
# GULP energy per Si atom -12392.960153 kJ/mol
# Density = 1.828257 g / cm^3
# Si number density = 18.324280 Si / 1000 Ang^3
#
#
#
# Elastic Constant Matrix: (Units=GPa)
#
#
# Indices 1 2 3 4 5 6 
#
# 1 106.9462 33.1202 46.0211 2.8334 -1.5091 15.8122
# 2 33.1202 104.4308 55.4906 29.3012 -0.3489 13.8160
# 3 46.0211 55.4906 116.0714 -0.8952 -9.3023 16.0095
# 4 2.8334 29.3012 -0.8952 33.3651 6.8779 2.3821
# 5 -1.5091 -0.3489 -9.3023 6.8779 35.6233 -6.0170
# 6 15.8122 13.8160 16.0095 2.3821 -6.0170 14.0518
#
#
#
# Elastic Compliance Matrix: (Units=1/GPa)
#
#
# Indices 1 2 3 4 5 6 
#
# 1 0.012576 -0.001307 -0.003082 0.001225 -0.002303 -0.010550
# 2 -0.001307 0.020103 -0.008429 -0.017447 0.000367 -0.005578
# 3 -0.003082 -0.008429 0.014860 0.008288 0.001030 -0.006139
# 4 0.001225 -0.017447 0.008288 0.047422 -0.007976 -0.005121
# 5 -0.002303 0.000367 0.001030 -0.007976 0.032547 0.016346
# 6 -0.010550 -0.005578 -0.006139 -0.005121 0.016346 0.103384
#
#
# Mechanical properties :
#
#
# Convention : Reuss Voigt Hill
#
# Bulk Modulus (GPa) = 45.65037 66.30134 55.97585
# Shear Modulus (GPa) = 18.95177 29.46247 24.20712
#
# Velocity S-wave (km/s) = 3.21945 4.01414 3.63856
# Velocity P-wave (km/s) = 6.22788 7.59902 6.94736
#
# Compressibility (1/GPa) = 0.02190563
#
# Stress axis : x y z
#
# Youngs Moduli (GPa) = 79.51574 49.74317 67.29507
#
# Poissons Ratio (x) = 0.06500 0.20738
# Poissons Ratio (y) = 0.10390 0.56720
# Poissons Ratio (z) = 0.24504 0.41926
#
# Static dielectric constant tensor:
#      x y z
#    x 3.417860 0.118880 -0.044130 
#    y 0.118880 3.019180 -0.154450 
#    z -0.044130 -0.154450 3.819960 
# 
# 
# High freq. dielectric constant tensor:
#      x y z
#    x 1.713750 0.011290 0.003970 
#    y 0.011290 1.676710 -0.007670 
#    z 0.003970 -0.007670 1.728720 
# 
# From -- ./inp_files/347279.got.cif
#   From: 2010.06.25/outbox.cif.g09.slc.cpg/sg2_174_cif.got.tgz:347279.got - 2010.06.27 13:26:56.
