data_PCOD8001704
_publ_section_title
;
Structure prediction by ZEFSAII (Michael W. Deem and Ramdas Pophale) SiO2 
 PCOD8001704
Probable space group: P -1
;
_chemical_formula_sum "Si O2"
_cell_formula_units_Z 16
_cell_length_a 11.419394
_cell_length_b 13.567345
_cell_length_c 11.659197
_cell_angle_alpha 67.857996
_cell_angle_beta 114.946210
_cell_angle_gamma 57.003589
_cell_volume 828.453945
_symmetry_space_group_name_H-M "P -1"
_symmetry_group_IT_number 2
_symmetry_cell_setting 'triclinic'
loop_
_space_group_symop_operation_xyz
x,y,z
-x,-y,-z
loop_
_atom_site_type_symbol
_atom_site_label
_atom_site_fract_x
_atom_site_fract_y
_atom_site_fract_z
Si Si1 0.120502 0.101848 0.637888
Si Si2 0.308117 0.764815 0.765608
Si Si3 0.427435 0.894451 0.449173
Si Si4 0.059718 0.818478 0.990272
Si Si5 0.200503 0.607344 0.794231
Si Si6 0.024140 0.881030 0.205673
Si Si7 0.303568 0.101923 0.524254
Si Si8 0.532458 0.366167 0.366309
O O1 0.122226 0.983649 0.629155
O O2 0.323072 0.035476 0.689982
O O3 0.864469 0.329077 0.396025
O O4 0.138394 0.077893 0.792627
O O5 0.235302 0.702355 0.820857
O O6 0.329046 0.745805 0.645629
O O7 0.562830 0.623555 0.987833
O O8 0.588774 0.854101 0.448129
O O9 0.536314 0.701360 0.580128
O O10 0.446073 0.930551 0.568521
O O11 0.158545 0.080830 0.212127
O O12 0.018086 0.828273 0.104154
O O13 0.297778 0.595992 0.146873
O O14 0.087917 0.924184 0.930769
O O15 0.973625 0.705208 0.714623
O O16 0.292578 0.697462 0.443557
#
# Coordination Sequence:
#
# PCOD8001704 Si02
#       8
#     2   2   2   2   2   2   2   2
#     4  10  20  34  54  76 112 139 168 221 271 315
#     4  11  19  29  53  87 104 137 170 216 282 320
#     4  10  20  37  54  76 110 146 179 215 263 312
#     4  10  23  37  55  80 106 144 182 216 257 322
#     4   9  20  30  47  79 111 132 168 212 269 321
#     4  10  22  37  55  80 109 140 177 218 270 316
#     4   9  19  37  52  78 113 142 171 222 267 312
#     4  11  19  34  57  79 109 140 174 222 266 316
#
# _framework density 19.313082999999999
#
# number of rings (size 3 to 8) (size 9 to 14) (size 15 to 20)
#    0.750    1.250    2.500    1.500    7.000    0.000 
#    2.250    2.500    0.000    0.750    0.000    0.000 
#    0.000    0.000    0.000    0.000    0.000    0.000 
#
# Total GULP energy -198263.222879 kJ/mol
# GULP energy per Si atom -12391.451430 kJ/mol
# Density = 1.926913 g / cm^3
# Si number density = 19.313083 Si / 1000 Ang^3
#
#
#
# Elastic Constant Matrix: (Units=GPa)
#
#
# Indices 1 2 3 4 5 6 
#
# 1 116.1996 17.2308 16.8636 -3.2118 -11.7102 -9.8449
# 2 17.2308 43.5167 17.9559 -0.0846 -4.7873 -9.4337
# 3 16.8636 17.9559 82.7283 -10.9666 -5.0299 -5.0091
# 4 -3.2118 -0.0846 -10.9666 25.8894 -11.7324 -6.2049
# 5 -11.7102 -4.7873 -5.0299 -11.7324 24.1325 5.8463
# 6 -9.8449 -9.4337 -5.0091 -6.2049 5.8463 21.9563
#
#
#
# Elastic Compliance Matrix: (Units=1/GPa)
#
#
# Indices 1 2 3 4 5 6 
#
# 1 0.009980 -0.002504 -0.000387 0.004353 0.005646 0.003038
# 2 -0.002504 0.028234 -0.004860 0.000661 0.001337 0.009730
# 3 -0.000387 -0.004860 0.014999 0.009589 0.006092 0.002248
# 4 0.004353 0.000661 0.009589 0.060138 0.030241 0.013366
# 5 0.005646 0.001337 0.006092 0.030241 0.061203 -0.003255
# 6 0.003038 0.009730 0.002248 0.013366 -0.003255 0.056245
#
#
# Mechanical properties :
#
#
# Convention : Reuss Voigt Hill
#
# Bulk Modulus (GPa) = 26.51649 38.50502 32.51075
# Shear Modulus (GPa) = 19.31475 27.08859 23.20167
#
# Velocity S-wave (km/s) = 3.16585 3.74920 3.46980
# Velocity P-wave (km/s) = 5.20798 6.22274 5.73784
#
# Compressibility (1/GPa) = 0.03771239
#
# Stress axis : x y z
#
# Youngs Moduli (GPa) = 100.20123 35.41818 66.67104
#
# Poissons Ratio (x) = 0.08869 0.02578
# Poissons Ratio (y) = 0.25091 0.32399
# Poissons Ratio (z) = 0.03875 0.17212
#
# Static dielectric constant tensor:
#      x y z
#    x 3.554690 -0.112280 -0.162370 
#    y -0.112280 3.106130 0.013820 
#    z -0.162370 0.013820 3.553980 
# 
# 
# High freq. dielectric constant tensor:
#      x y z
#    x 1.744330 -0.017320 -0.013410 
#    y -0.017320 1.709550 -0.005250 
#    z -0.013410 -0.005250 1.752510 
# 
# From -- ./inp_files/431229.got.cif
#   From: 2010.06.25/outbox.cif.g09.slc.cpg/sg2_216_cif.got.tgz:431229.got - 2010.06.27 13:26:56.
