data_PCOD8001171
_publ_section_title
;
Structure prediction by ZEFSAII (Michael W. Deem and Ramdas Pophale) SiO2 
 PCOD8001171
Probable space group: P -1
;
_chemical_formula_sum "Si O2"
_cell_formula_units_Z 16
_cell_length_a 12.237328
_cell_length_b 8.547158
_cell_length_c 13.462324
_cell_angle_alpha 34.745815
_cell_angle_beta 105.168595
_cell_angle_gamma 109.996849
_cell_volume 753.644357
_symmetry_space_group_name_H-M "P -1"
_symmetry_group_IT_number 2
_symmetry_cell_setting 'triclinic'
loop_
_space_group_symop_operation_xyz
x,y,z
-x,-y,-z
loop_
_atom_site_type_symbol
_atom_site_label
_atom_site_fract_x
_atom_site_fract_y
_atom_site_fract_z
Si Si1 0.733315 0.350287 0.280934
Si Si2 0.127678 0.323838 0.546491
Si Si3 0.862724 0.155862 0.066281
Si Si4 0.341726 0.111106 0.964270
Si Si5 0.131269 0.396593 0.007385
Si Si6 0.342774 0.227426 0.534323
Si Si7 0.866780 0.159201 0.594294
Si Si8 0.502143 0.225207 0.759434
O O1 0.655984 0.562627 0.186471
O O2 0.787279 0.225518 0.452947
O O3 0.657880 0.074972 0.353988
O O4 0.819997 0.541026 0.123903
O O5 0.213539 0.277670 0.502095
O O6 0.139800 0.646797 0.412533
O O7 0.993051 0.194769 0.553526
O O8 0.151841 0.165086 0.734663
O O9 0.994323 0.317337 0.991839
O O10 0.783958 0.108955 0.971972
O O11 0.821948 0.326578 0.058586
O O12 0.415107 0.095843 0.891947
O O13 0.410615 0.984852 0.133396
O O14 0.173740 0.152092 0.205538
O O15 0.419775 0.257184 0.634098
O O16 0.411238 0.473031 0.349339
#
# Coordination Sequence:
#
# PCOD8001171 Si02
#       8
#     2   2   2   2   2   2   2   2
#     4  12  24  41  64  98 126 159 210 256 302 382
#     4  10  19  42  62  87 134 165 194 255 310 366
#     4  10  19  42  62  87 134 165 194 255 310 366
#     4  11  23  42  65  89 122 163 209 262 310 363
#     4  10  23  38  63  96 129 166 201 243 309 379
#     4  11  23  42  65  89 122 163 209 262 310 363
#     4  10  23  38  63  96 129 166 201 243 309 379
#     4  10  24  43  64  86 116 165 214 262 316 358
#
# _framework density 21.230173000000001
#
# number of rings (size 3 to 8) (size 9 to 14) (size 15 to 20)
#    0.000    1.500    3.750    0.000    3.500    3.000 
#    0.000    0.000    0.000    0.000    0.000    0.000 
#    0.000    0.000    0.000    0.000    0.000    0.000 
#
# Total GULP energy -198238.290849 kJ/mol
# GULP energy per Si atom -12389.893178 kJ/mol
# Density = 2.118185 g / cm^3
# Si number density = 21.230173 Si / 1000 Ang^3
#
#
#
# Elastic Constant Matrix: (Units=GPa)
#
#
# Indices 1 2 3 4 5 6 
#
# 1 56.1408 23.4626 30.3654 -13.8502 16.9496 7.7227
# 2 23.4626 46.3242 9.2306 -33.6926 0.8285 -8.3356
# 3 30.3654 9.2306 86.8160 -15.6993 8.0646 -3.3766
# 4 -13.8502 -33.6926 -15.6993 27.3247 -8.6485 -9.3315
# 5 16.9496 0.8285 8.0646 -8.6485 31.3773 -10.2170
# 6 7.7227 -8.3356 -3.3766 -9.3315 -10.2170 11.2385
#
#
#
# Elastic Compliance Matrix: (Units=1/GPa)
#
#
# Indices 1 2 3 4 5 6 
#
# 1 0.020184 0.009162 -0.003406 0.023071 -0.000440 0.010659
# 2 0.009162 0.002106 -0.005533 -0.013761 -0.018720 -0.034840
# 3 -0.003406 -0.005533 0.012575 -0.005045 -0.004750 -0.006492
# 4 0.023071 -0.013761 -0.005045 0.006038 -0.023418 -0.043852
# 5 -0.000440 -0.018720 -0.004750 -0.023418 0.022941 -0.013598
# 6 0.010659 -0.034840 -0.006492 -0.043852 -0.013598 0.005092
#
#
# Mechanical properties :
#
#
# Convention : Reuss Voigt Hill
#
# Bulk Modulus (GPa) = 28.32019 35.04426 31.68222
# Shear Modulus (GPa) = 62.29672 22.40292 42.34982
#
# Velocity S-wave (km/s) = 5.42284 3.25197 4.47116
# Velocity P-wave (km/s) = 7.25108 5.53562 6.45063
#
# Compressibility (1/GPa) = 0.03531050
#
# Stress axis : x y z
#
# Youngs Moduli (GPa) = 49.54349 474.72675 79.52406
#
# Poissons Ratio (x) = -4.34936 0.27089
# Poissons Ratio (y) = -0.45391 0.44000
# Poissons Ratio (z) = 0.16876 2.62665
#
# Static dielectric constant tensor:
#      x y z
#    x 3.991950 0.142890 0.174650 
#    y 0.142890 3.705620 -0.143800 
#    z 0.174650 -0.143800 4.421790 
# 
# 
# High freq. dielectric constant tensor:
#      x y z
#    x 1.827140 0.007350 0.008090 
#    y 0.007350 1.812930 -0.011820 
#    z 0.008090 -0.011820 1.849010 
# 
# From -- ./inp_files/216816.got.cif
#   From: 2010.06.25/outbox.cif.g09.slc.cpg/sg2_109_cif.got.tgz:216816.got - 2010.06.27 13:26:56.
