data_PCOD8001204
_publ_section_title
;
Structure prediction by ZEFSAII (Michael W. Deem and Ramdas Pophale) SiO2 
 PCOD8001204
Probable space group: P -1
;
_chemical_formula_sum "Si O2"
_cell_formula_units_Z 14
_cell_length_a 9.069385
_cell_length_b 9.422666
_cell_length_c 17.694769
_cell_angle_alpha 69.165187
_cell_angle_beta 29.557333
_cell_angle_gamma 59.996399
_cell_volume 634.749031
_symmetry_space_group_name_H-M "P -1"
_symmetry_group_IT_number 2
_symmetry_cell_setting 'triclinic'
loop_
_space_group_symop_operation_xyz
x,y,z
-x,-y,-z
loop_
_atom_site_type_symbol
_atom_site_label
_atom_site_fract_x
_atom_site_fract_y
_atom_site_fract_z
Si Si1 0.963897 0.596463 0.216714
Si Si2 0.358375 0.885244 0.661584
Si Si3 0.317033 0.808160 0.076340
Si Si4 0.739944 0.546602 0.040331
Si Si5 0.189505 0.251317 0.257143
Si Si6 0.698161 0.604511 0.668753
Si Si7 0.347765 0.865040 0.501120
O O1 0.589243 0.727981 0.362455
O O2 0.198105 0.659793 0.147269
O O3 0.978683 0.424022 0.275705
O O4 0.072492 0.583225 0.084264
O O5 0.399708 0.735424 0.727350
O O6 0.457649 0.807365 0.549092
O O7 0.615505 0.961455 0.560017
O O8 0.981382 0.020078 0.800975
O O9 0.591906 0.736826 0.034913
O O10 0.468505 0.837659 0.924322
O O11 0.422609 0.523595 0.215078
O O12 0.000000 0.500000 0.000000
O O13 0.222887 0.287785 0.322812
O O14 0.014142 0.123377 0.356051
O O15 0.000000 0.500000 0.500000
#
# Coordination Sequence:
#
# PCOD8001204 Si02
#       7
#     2   2   2   2   2   2   2
#     4  10  19  42  66  91 128 170 206 253 319 385
#     4  10  25  44  63  92 131 170 210 258 325 368
#     4  10  21  45  67  88 131 174 201 256 321 386
#     4  11  24  41  65  99 126 161 214 263 315 370
#     4  11  21  39  66  96 124 168 216 255 314 374
#     4  12  26  42  65  98 128 163 213 273 310 369
#     4  10  23  40  64  91 125 175 210 255 312 386
#
# _framework density 22.055962000000001
#
# number of rings (size 3 to 8) (size 9 to 14) (size 15 to 20)
#    0.000    1.429    2.857    2.143   10.000    1.714 
#    0.000    0.000    0.000    0.000    0.000    0.000 
#    0.000    0.000    0.000    0.000    0.000    0.000 
#
# Total GULP energy -173558.682153 kJ/mol
# GULP energy per Si atom -12397.048725 kJ/mol
# Density = 2.200576 g / cm^3
# Si number density = 22.055962 Si / 1000 Ang^3
#
#
#
# Elastic Constant Matrix: (Units=GPa)
#
#
# Indices 1 2 3 4 5 6 
#
# 1 98.6942 27.2050 40.6546 15.8426 11.3707 -16.5876
# 2 27.2050 51.0050 36.0990 17.1497 5.4459 -11.1524
# 3 40.6546 36.0990 145.9323 10.6628 16.2200 1.1935
# 4 15.8426 17.1497 10.6628 23.2339 3.1646 -3.5647
# 5 11.3707 5.4459 16.2200 3.1646 39.6600 -5.7811
# 6 -16.5876 -11.1524 1.1935 -3.5647 -5.7811 29.9543
#
#
#
# Elastic Compliance Matrix: (Units=1/GPa)
#
#
# Indices 1 2 3 4 5 6 
#
# 1 0.013960 -0.002043 -0.002895 -0.005570 -0.001191 0.006193
# 2 -0.002043 0.033839 -0.006654 -0.019255 0.001619 0.009754
# 3 -0.002895 -0.006654 0.009520 0.002195 -0.003022 -0.004782
# 4 -0.005570 -0.019255 0.002195 0.059756 -0.001950 -0.003606
# 5 -0.001191 0.001619 -0.003022 -0.001950 0.027473 0.005134
# 6 0.006193 0.009754 -0.004782 -0.003606 0.005134 0.041197
#
#
# Mechanical properties :
#
#
# Convention : Reuss Voigt Hill
#
# Bulk Modulus (GPa) = 29.29621 55.94986 42.62303
# Shear Modulus (GPa) = 22.69544 31.34784 27.02164
#
# Velocity S-wave (km/s) = 3.21127 3.77408 3.50400
# Velocity P-wave (km/s) = 5.20204 6.66438 5.97809
#
# Compressibility (1/GPa) = 0.03413411
#
# Stress axis : x y z
#
# Youngs Moduli (GPa) = 71.63272 29.55149 105.04551
#
# Poissons Ratio (x) = 0.06038 0.30411
# Poissons Ratio (y) = 0.14635 0.69901
# Poissons Ratio (z) = 0.20738 0.19665
#
# Static dielectric constant tensor:
#      x y z
#    x 3.928150 0.115140 0.158920 
#    y 0.115140 3.732440 -0.071160 
#    z 0.158920 -0.071160 4.149720 
# 
# 
# High freq. dielectric constant tensor:
#      x y z
#    x 1.859150 0.005880 0.014220 
#    y 0.005880 1.847320 -0.002910 
#    z 0.014220 -0.002910 1.884300 
# 
# From -- ./inp_files/157387.got.cif
#   From: 2010.06.25/outbox.cif.g09.slc.cpg/sg2_79_cif.got.tgz:157387.got - 2010.06.27 13:26:56.
