data_PCOD8001596
_publ_section_title
;
Structure prediction by ZEFSAII (Michael W. Deem and Ramdas Pophale) SiO2 
 PCOD8001596
Probable space group: P -1
;
_chemical_formula_sum "Si O2"
_cell_formula_units_Z 16
_cell_length_a 12.007327
_cell_length_b 5.099813
_cell_length_c 13.678694
_cell_angle_alpha 118.903668
_cell_angle_beta 70.862121
_cell_angle_gamma 99.562068
_cell_volume 692.721416
_symmetry_space_group_name_H-M "P -1"
_symmetry_group_IT_number 2
_symmetry_cell_setting 'triclinic'
loop_
_space_group_symop_operation_xyz
x,y,z
-x,-y,-z
loop_
_atom_site_type_symbol
_atom_site_label
_atom_site_fract_x
_atom_site_fract_y
_atom_site_fract_z
Si Si1 0.757859 0.962931 0.632483
Si Si2 0.557916 0.325471 0.038785
Si Si3 0.946635 0.791322 0.821851
Si Si4 0.199135 0.680694 0.127118
Si Si5 0.646394 0.666427 0.240919
Si Si6 0.618707 0.658520 0.463499
Si Si7 0.220405 0.766572 0.759073
Si Si8 0.105288 0.554445 0.408697
O O1 0.643995 0.903958 0.585469
O O2 0.789372 0.655044 0.621920
O O3 0.740962 0.212426 0.767259
O O4 0.853538 0.098880 0.551376
O O5 0.541734 0.507842 0.178448
O O6 0.500000 0.500000 0.000000
O O7 0.698195 0.319657 0.981719
O O8 0.500000 0.000000 0.000000
O O9 0.862604 0.651017 0.906482
O O10 0.944512 0.528142 0.696996
O O11 0.082566 0.837863 0.819418
O O12 0.900545 0.096406 0.843283
O O13 0.598157 0.789289 0.382340
O O14 0.745172 0.412249 0.185363
O O15 0.706138 0.926339 0.207728
O O16 0.500000 0.500000 0.500000
O O17 0.732825 0.433164 0.383550
O O18 0.000000 0.500000 0.500000
#
# Coordination Sequence:
#
# PCOD8001596 Si02
#       8
#     2   2   2   2   2   2   2   2
#     4  10  22  36  57  92 123 168 202 264 312 365
#     4  12  26  47  74  94 128 170 214 279 323 374
#     4  10  20  39  64  93 135 168 210 266 316 381
#     4  10  23  41  64  99 127 165 225 261 314 385
#     4  10  25  43  65  98 126 169 223 259 332 386
#     4  10  25  41  65  92 136 171 218 264 320 392
#     4  10  22  42  65  95 136 170 209 266 325 386
#     4  10  20  33  57  88 125 166 216 248 307 376
#
# _framework density 23.097311000000001
#
# number of rings (size 3 to 8) (size 9 to 14) (size 15 to 20)
#    0.750    1.000    0.000    3.375    5.250    1.500 
#    0.000    3.750    0.000    0.000    0.000    0.000 
#    0.000    0.000    0.000    0.000    0.000    0.000 
#
# Total GULP energy -198224.366192 kJ/mol
# GULP energy per Si atom -12389.022887 kJ/mol
# Density = 2.304474 g / cm^3
# Si number density = 23.097311 Si / 1000 Ang^3
#
#
#
# Elastic Constant Matrix: (Units=GPa)
#
#
# Indices 1 2 3 4 5 6 
#
# 1 55.7445 3.6498 8.3886 -0.4189 13.2553 1.1740
# 2 3.6498 126.7278 3.3899 -6.4559 6.0627 4.5199
# 3 8.3886 3.3899 48.9068 -7.1534 10.9996 5.1908
# 4 -0.4189 -6.4559 -7.1534 29.5858 12.1412 -2.2726
# 5 13.2553 6.0627 10.9996 12.1412 35.7907 -5.8159
# 6 1.1740 4.5199 5.1908 -2.2726 -5.8159 40.0567
#
#
#
# Elastic Compliance Matrix: (Units=1/GPa)
#
#
# Indices 1 2 3 4 5 6 
#
# 1 0.020185 0.000093 -0.000828 0.003555 -0.008696 -0.001556
# 2 0.000093 0.008206 0.000629 0.003015 -0.002844 -0.001252
# 3 -0.000828 0.000629 0.025288 0.010806 -0.011960 -0.004447
# 4 0.003555 0.003015 0.010806 0.045552 -0.020976 -0.002306
# 5 -0.008696 -0.002844 -0.011960 -0.020976 0.043615 0.007268
# 6 -0.001556 -0.001252 -0.004447 -0.002306 0.007268 0.026652
#
#
# Mechanical properties :
#
#
# Convention : Reuss Voigt Hill
#
# Bulk Modulus (GPa) = 18.70306 29.13729 23.92017
# Shear Modulus (GPa) = 26.66228 35.48336 31.07282
#
# Velocity S-wave (km/s) = 3.40125 3.92376 3.67181
# Velocity P-wave (km/s) = 4.85178 5.75936 5.32494
#
# Compressibility (1/GPa) = 0.05346720
#
# Stress axis : x y z
#
# Youngs Moduli (GPa) = 49.54264 121.86630 39.54436
#
# Poissons Ratio (x) = -0.01138 0.03273
# Poissons Ratio (y) = -0.00463 -0.02486
# Poissons Ratio (z) = 0.04101 -0.07662
#
# Static dielectric constant tensor:
#      x y z
#    x 4.016440 0.031120 0.110370 
#    y 0.031120 4.106900 0.127280 
#    z 0.110370 0.127280 4.144920 
# 
# 
# High freq. dielectric constant tensor:
#      x y z
#    x 1.902070 -0.000200 0.013780 
#    y -0.000200 1.926480 -0.010010 
#    z 0.013780 -0.010010 1.897860 
# 
# From -- ./inp_files/511237.got.cif
#   From: 2010.06.25/outbox.cif.g09.slc.cpg/sg2_256_cif.got.tgz:511237.got - 2010.06.27 13:26:56.
