data_PCOD8001146
_publ_section_title
;
Structure prediction by ZEFSAII (Michael W. Deem and Ramdas Pophale) SiO2 
 PCOD8001146
Probable space group: P -1
;
_chemical_formula_sum "Si O2"
_cell_formula_units_Z 12
_cell_length_a 14.340804
_cell_length_b 15.103173
_cell_length_c 10.099920
_cell_angle_alpha 62.157885
_cell_angle_beta 138.903480
_cell_angle_gamma 151.541329
_cell_volume 535.368208
_symmetry_space_group_name_H-M "P -1"
_symmetry_group_IT_number 2
_symmetry_cell_setting 'triclinic'
loop_
_space_group_symop_operation_xyz
x,y,z
-x,-y,-z
loop_
_atom_site_type_symbol
_atom_site_label
_atom_site_fract_x
_atom_site_fract_y
_atom_site_fract_z
Si Si1 0.894257 0.752346 0.267073
Si Si2 0.310941 0.667779 0.945467
Si Si3 0.120819 0.790638 0.235967
Si Si4 0.105126 0.741350 0.731710
Si Si5 0.981057 0.183804 0.174943
Si Si6 0.788887 0.873951 0.495027
O O1 0.070495 0.845621 0.250269
O O2 0.001124 0.735287 0.495499
O O3 0.500000 0.500000 0.000000
O O4 0.012007 0.936290 0.313810
O O5 0.036720 0.579455 0.747956
O O6 0.117117 0.455801 0.808716
O O7 0.445487 0.710714 0.200962
O O8 0.612911 0.901753 0.012553
O O9 0.500000 0.000000 0.500000
O O10 0.022149 0.766220 0.003789
O O11 0.913229 0.665887 0.705940
O O12 0.500000 0.000000 0.000000
O O13 0.258296 0.271004 0.404823
O O14 0.000000 0.000000 0.500000
#
# Coordination Sequence:
#
# PCOD8001146 Si02
#       6
#     2   2   2   2   2   2
#     4  12  24  42  72 107 144 181 230 297 355 405
#     4  10  22  43  73  93 136 194 232 278 345 424
#     4  12  28  43  67 109 148 173 233 302 353 404
#     4  10  19  41  73  97 131 191 237 268 342 429
#     4  10  22  42  71  99 135 182 237 283 342 423
#     4  10  19  41  70  96 131 184 237 275 340 420
#
# _framework density 22.414480999999999
#
# number of rings (size 3 to 8) (size 9 to 14) (size 15 to 20)
#    0.000    1.333    5.000    4.000    0.000    6.000 
#    0.000    0.000    0.000    0.000    0.000    0.000 
#    0.000    0.000    0.000    0.000    0.000    0.000 
#
# Total GULP energy -148777.682243 kJ/mol
# GULP energy per Si atom -12398.140187 kJ/mol
# Density = 2.236346 g / cm^3
# Si number density = 22.414481 Si / 1000 Ang^3
#
#
#
# Elastic Constant Matrix: (Units=GPa)
#
#
# Indices 1 2 3 4 5 6 
#
# 1 164.7697 37.7408 17.0555 -15.3045 1.2617 -11.0903
# 2 37.7408 56.2432 9.9264 -22.0980 -0.3876 -3.5013
# 3 17.0555 9.9264 95.7393 -25.9330 12.0100 -1.1355
# 4 -15.3045 -22.0980 -25.9330 41.1031 -7.1087 0.2246
# 5 1.2617 -0.3876 12.0100 -7.1087 41.3330 -6.7652
# 6 -11.0903 -3.5013 -1.1355 0.2246 -6.7652 40.1230
#
#
#
# Elastic Compliance Matrix: (Units=1/GPa)
#
#
# Indices 1 2 3 4 5 6 
#
# 1 0.007338 -0.004824 -0.000926 -0.000421 0.000192 0.001616
# 2 -0.004824 0.026234 0.001555 0.013717 0.002521 0.001348
# 3 -0.000926 0.001555 0.012982 0.008279 -0.002337 -0.000193
# 4 -0.000421 0.013717 0.008279 0.037538 0.004497 0.001863
# 5 0.000192 0.002521 -0.002337 0.004497 0.026423 0.004637
# 6 0.001616 0.001348 -0.000193 0.001863 0.004637 0.026254
#
#
# Mechanical properties :
#
#
# Convention : Reuss Voigt Hill
#
# Bulk Modulus (GPa) = 26.20361 49.57751 37.89056
# Shear Modulus (GPa) = 31.66964 41.31380 36.49172
#
# Velocity S-wave (km/s) = 3.76295 4.29788 4.03928
# Velocity P-wave (km/s) = 5.53133 6.84073 6.22057
#
# Compressibility (1/GPa) = 0.03816267
#
# Stress axis : x y z
#
# Youngs Moduli (GPa) = 136.27526 38.11920 77.02878
#
# Poissons Ratio (x) = 0.18390 0.07133
# Poissons Ratio (y) = 0.65742 -0.11976
# Poissons Ratio (z) = 0.12620 -0.05927
#
# Static dielectric constant tensor:
#      x y z
#    x 4.698640 -0.435910 0.479660 
#    y -0.435910 3.975400 -0.327980 
#    z 0.479660 -0.327980 4.583340 
# 
# 
# High freq. dielectric constant tensor:
#      x y z
#    x 1.898700 -0.014710 0.009530 
#    y -0.014710 1.862830 -0.012220 
#    z 0.009530 -0.012220 1.891770 
# 
# From -- ./inp_files/157550.got.cif
#   From: 2010.06.25/outbox.cif.g09.slc.cpg/sg2_79_cif.got.tgz:157550.got - 2010.06.27 13:26:56.
