data_PCOD8001989
_publ_section_title
;
Structure prediction by ZEFSAII (Michael W. Deem and Ramdas Pophale) SiO2 
 PCOD8001989
Probable space group: P -1
;
_chemical_formula_sum "Si O2"
_cell_formula_units_Z 16
_cell_length_a 8.544302
_cell_length_b 9.237749
_cell_length_c 24.972627
_cell_angle_alpha 39.613678
_cell_angle_beta 56.496528
_cell_angle_gamma 85.522351
_cell_volume 793.726878
_symmetry_space_group_name_H-M "P -1"
_symmetry_group_IT_number 2
_symmetry_cell_setting 'triclinic'
loop_
_space_group_symop_operation_xyz
x,y,z
-x,-y,-z
loop_
_atom_site_type_symbol
_atom_site_label
_atom_site_fract_x
_atom_site_fract_y
_atom_site_fract_z
Si Si1 0.040533 0.988688 0.933401
Si Si2 0.839320 0.236905 0.830594
Si Si3 0.344696 0.588195 0.101514
Si Si4 0.500348 0.158272 0.745400
Si Si5 0.699479 0.478708 0.069625
Si Si6 0.022712 0.180233 0.186148
Si Si7 0.520331 0.286621 0.589439
Si Si8 0.982791 0.352410 0.654299
O O1 0.326659 0.152498 0.821851
O O2 0.971238 0.159871 0.865563
O O3 0.000000 0.000000 0.000000
O O4 0.865891 0.642302 0.045027
O O5 0.812700 0.452331 0.806188
O O6 0.999787 0.410428 0.698047
O O7 0.568984 0.938193 0.947919
O O8 0.442512 0.411885 0.144352
O O9 0.174560 0.460724 0.117390
O O10 0.554421 0.357705 0.626460
O O11 0.754143 0.303003 0.685717
O O12 0.358475 0.826592 0.843457
O O13 0.856473 0.716009 0.924597
O O14 0.038111 0.931588 0.273639
O O15 0.740021 0.049465 0.275301
O O16 0.500000 0.500000 0.500000
O O17 0.762392 0.344419 0.505423
#
# Coordination Sequence:
#
# PCOD8001989 Si02
#       8
#     2   2   2   2   2   2   2   2
#     4  11  24  35  54  93 131 158 183 237 309 365
#     4  10  22  39  58  88 129 160 196 234 307 367
#     4  10  20  34  62  91 121 157 192 242 303 364
#     4  12  23  38  63  92 119 157 201 250 302 353
#     4  11  21  36  60  93 127 143 201 247 305 355
#     4  11  19  38  61  91 118 160 195 250 300 352
#     4  10  23  40  60  85 121 157 209 253 288 347
#     4  11  21  39  64  86 117 163 206 249 288 351
#
# _framework density 20.158066999999999
#
# number of rings (size 3 to 8) (size 9 to 14) (size 15 to 20)
#    0.000    1.250    5.000    2.625    7.000    0.000 
#    0.000    0.625    0.000    3.750    0.000    0.000 
#    0.000    0.000    0.000    0.000    0.000    0.000 
#
# Total GULP energy -198393.840919 kJ/mol
# GULP energy per Si atom -12399.615057 kJ/mol
# Density = 2.011219 g / cm^3
# Si number density = 20.158067 Si / 1000 Ang^3
#
#
#
# Elastic Constant Matrix: (Units=GPa)
#
#
# Indices 1 2 3 4 5 6 
#
# 1 129.0538 53.2279 68.4257 18.6500 -22.8497 18.0925
# 2 53.2279 127.3569 55.2612 32.3186 -14.6003 12.7573
# 3 68.4257 55.2612 84.4255 32.6952 -18.5542 0.1742
# 4 18.6500 32.3186 32.6952 33.8932 -1.4111 0.9346
# 5 -22.8497 -14.6003 -18.5542 -1.4111 40.4765 3.2458
# 6 18.0925 12.7573 0.1742 0.9346 3.2458 36.7131
#
#
#
# Elastic Compliance Matrix: (Units=1/GPa)
#
#
# Indices 1 2 3 4 5 6 
#
# 1 0.016729 -0.001054 -0.014520 0.006170 0.003285 -0.008257
# 2 -0.001054 0.012517 -0.004061 -0.007245 0.002112 -0.003813
# 3 -0.014520 -0.004061 0.036540 -0.023387 0.005591 0.008494
# 4 0.006170 -0.007245 -0.023387 0.055283 -0.007833 -0.001127
# 5 0.003285 0.002112 0.005591 -0.007833 0.030000 -0.004832
# 6 -0.008257 -0.003813 0.008494 -0.001127 -0.004832 0.033048
#
#
# Mechanical properties :
#
#
# Convention : Reuss Voigt Hill
#
# Bulk Modulus (GPa) = 37.71267 77.18509 57.44888
# Shear Modulus (GPa) = 21.53085 33.14467 27.33776
#
# Velocity S-wave (km/s) = 3.27173 4.05932 3.68662
# Velocity P-wave (km/s) = 5.74642 7.76813 6.83247
#
# Compressibility (1/GPa) = 0.02651629
#
# Stress axis : x y z
#
# Youngs Moduli (GPa) = 59.77513 79.89003 27.36760
#
# Poissons Ratio (x) = 0.08419 0.39737
# Poissons Ratio (y) = 0.06299 0.11115
# Poissons Ratio (z) = 0.86791 0.32447
#
# Static dielectric constant tensor:
#      x y z
#    x 3.854530 0.018130 -0.323410 
#    y 0.018130 3.597690 0.238370 
#    z -0.323410 0.238370 3.913430 
# 
# 
# High freq. dielectric constant tensor:
#      x y z
#    x 1.804690 0.008580 -0.014810 
#    y 0.008580 1.770780 0.023750 
#    z -0.014810 0.023750 1.767900 
# 
# From -- ./inp_files/209035.got.cif
#   From: 2010.06.25/outbox.cif.g09.slc.cpg/sg2_105_cif.got.tgz:209035.got - 2010.06.27 13:26:56.
