data_PCOD8001482
_publ_section_title
;
Structure prediction by ZEFSAII (Michael W. Deem and Ramdas Pophale) SiO2 
 PCOD8001482
Probable space group: P -1
;
_chemical_formula_sum "Si O2"
_cell_formula_units_Z 16
_cell_length_a 13.861803
_cell_length_b 13.847473
_cell_length_c 15.195545
_cell_angle_alpha 111.173743
_cell_angle_beta 102.632198
_cell_angle_gamma 20.900640
_cell_volume 906.399621
_symmetry_space_group_name_H-M "P -1"
_symmetry_group_IT_number 2
_symmetry_cell_setting 'triclinic'
loop_
_space_group_symop_operation_xyz
x,y,z
-x,-y,-z
loop_
_atom_site_type_symbol
_atom_site_label
_atom_site_fract_x
_atom_site_fract_y
_atom_site_fract_z
Si Si1 0.975560 0.745405 0.698903
Si Si2 0.397652 0.427943 0.811729
Si Si3 0.282121 0.854334 0.541098
Si Si4 0.717382 0.822496 0.593208
Si Si5 0.350773 0.578009 0.370630
Si Si6 0.311236 0.748920 0.845522
Si Si7 0.343109 0.555218 0.026028
Si Si8 0.519855 0.816091 0.494233
O O1 0.805124 0.801285 0.691658
O O2 0.170929 0.574420 0.767239
O O3 0.173324 0.544243 0.583295
O O4 0.733866 0.071421 0.743090
O O5 0.346169 0.593424 0.820619
O O6 0.337848 0.475659 0.920592
O O7 0.339766 0.711710 0.430792
O O8 0.525849 0.605801 0.582251
O O9 0.294878 0.954394 0.531799
O O10 0.971271 0.146248 0.620661
O O11 0.527990 0.903997 0.595757
O O12 0.000000 0.500000 0.500000
O O13 0.566157 0.053555 0.574633
O O14 0.549191 0.359711 0.255018
O O15 0.467691 0.664928 0.924109
O O16 0.975629 0.105756 0.892308
O O17 0.500000 0.500000 0.000000
#
# Coordination Sequence:
#
# PCOD8001482 Si02
#       8
#     2   2   2   2   2   2   2   2
#     4  11  20  31  49  77 106 133 171 203 252 325
#     4  11  20  31  50  76 102 137 173 209 258 315
#     4  10  22  35  51  73 106 136 183 217 245 284
#     4   9  20  34  52  77 104 139 172 209 260 327
#     4  10  22  35  49  76 102 141 183 217 237 290
#     4  11  20  35  51  69 106 143 176 215 256 298
#     4  10  20  33  50  73 101 136 177 215 258 312
#     4  10  20  36  53  74 107 148 167 212 265 302
#
# _framework density 17.652259999999998
#
# number of rings (size 3 to 8) (size 9 to 14) (size 15 to 20)
#    0.000    1.750    1.250    5.250    3.500    2.000 
#    0.000    0.000    0.000    0.000    0.000    0.000 
#    0.000   20.000    0.000    0.000    0.000    0.000 
#
# Total GULP energy -198274.946611 kJ/mol
# GULP energy per Si atom -12392.184163 kJ/mol
# Density = 1.761208 g / cm^3
# Si number density = 17.652260 Si / 1000 Ang^3
#
#
#
# Elastic Constant Matrix: (Units=GPa)
#
#
# Indices 1 2 3 4 5 6 
#
# 1 90.9698 22.7329 32.7555 -12.7799 6.4008 -9.2277
# 2 22.7329 81.3359 15.6268 2.0360 4.0910 -17.7872
# 3 32.7555 15.6268 73.3184 -6.6368 1.8967 -14.0211
# 4 -12.7799 2.0360 -6.6368 32.4860 -9.0100 9.1484
# 5 6.4008 4.0910 1.8967 -9.0100 22.1226 -4.0147
# 6 -9.2277 -17.7872 -14.0211 9.1484 -4.0147 22.2235
#
#
#
# Elastic Compliance Matrix: (Units=1/GPa)
#
#
# Indices 1 2 3 4 5 6 
#
# 1 0.014510 -0.003644 -0.005758 0.005180 -0.001451 -0.002919
# 2 -0.003644 0.016754 0.000258 -0.007192 -0.002346 0.014596
# 3 -0.005758 0.000258 0.017900 -0.000971 0.001461 0.009773
# 4 0.005180 -0.007192 -0.000971 0.042249 0.013647 -0.019145
# 5 -0.001451 -0.002346 0.001461 0.013647 0.051888 0.002198
# 6 -0.002919 0.014596 0.009773 -0.019145 0.002198 0.069912
#
#
# Mechanical properties :
#
#
# Convention : Reuss Voigt Hill
#
# Bulk Modulus (GPa) = 32.38759 43.09493 37.74126
# Shear Modulus (GPa) = 20.67901 27.00035 23.83968
#
# Velocity S-wave (km/s) = 3.42638 3.91521 3.67893
# Velocity P-wave (km/s) = 5.83445 6.70110 6.28274
#
# Compressibility (1/GPa) = 0.03087602
#
# Stress axis : x y z
#
# Youngs Moduli (GPa) = 68.91713 59.68859 55.86746
#
# Poissons Ratio (x) = 0.21753 0.32166
# Poissons Ratio (y) = 0.25116 -0.01443
# Poissons Ratio (z) = 0.39679 -0.01541
#
# Static dielectric constant tensor:
#      x y z
#    x 3.384390 -0.317820 0.525510 
#    y -0.317820 3.360940 -0.287500 
#    z 0.525510 -0.287500 3.498670 
# 
# 
# High freq. dielectric constant tensor:
#      x y z
#    x 1.643930 -0.023350 0.024280 
#    y -0.023350 1.707320 0.005820 
#    z 0.024280 0.005820 1.664250 
# 
# From -- ./inp_files/369870.got.cif
#   From: 2010.06.25/outbox.cif.g09.slc.cpg/sg2_185_cif.got.tgz:369870.got - 2010.06.27 13:26:56.
