data_PCOD8001905
_publ_section_title
;
Structure prediction by ZEFSAII (Michael W. Deem and Ramdas Pophale) SiO2 
 PCOD8001905
Probable space group: P -1
;
_chemical_formula_sum "Si O2"
_cell_formula_units_Z 16
_cell_length_a 12.545938
_cell_length_b 8.655980
_cell_length_c 15.470740
_cell_angle_alpha 114.020558
_cell_angle_beta 47.793039
_cell_angle_gamma 145.911342
_cell_volume 650.826772
_symmetry_space_group_name_H-M "P -1"
_symmetry_group_IT_number 2
_symmetry_cell_setting 'triclinic'
loop_
_space_group_symop_operation_xyz
x,y,z
-x,-y,-z
loop_
_atom_site_type_symbol
_atom_site_label
_atom_site_fract_x
_atom_site_fract_y
_atom_site_fract_z
Si Si1 0.708199 0.934510 0.490798
Si Si2 0.613577 0.023442 0.075830
Si Si3 0.754469 0.084630 0.678851
Si Si4 0.390351 0.468107 0.815872
Si Si5 0.263194 0.176420 0.132638
Si Si6 0.036907 0.388573 0.063674
Si Si7 0.917489 0.109121 0.234850
Si Si8 0.154836 0.316716 0.630972
O O1 0.794870 0.144598 0.567530
O O2 0.836493 0.112834 0.371330
O O3 0.409054 0.663379 0.585523
O O4 0.792445 0.828651 0.450487
O O5 0.338545 0.828347 0.207966
O O6 0.788937 0.204590 0.105902
O O7 0.737384 0.258388 0.986542
O O8 0.578462 0.800146 0.007943
O O9 0.534266 0.733936 0.734204
O O10 0.016149 0.273942 0.617837
O O11 0.569796 0.592330 0.826819
O O12 0.316334 0.230196 0.748736
O O13 0.132215 0.301755 0.953627
O O14 0.171027 0.243157 0.139583
O O15 0.018099 0.839283 0.224507
O O16 0.971070 0.308425 0.182461
#
# Coordination Sequence:
#
# PCOD8001905 Si02
#       8
#     2   2   2   2   2   2   2   2
#     4  10  20  34  59  87 120 159 202 241 299 352
#     4  10  22  40  63  91 121 159 203 242 305 372
#     4  10  20  36  58  90 121 156 198 251 292 354
#     4  10  20  35  62  92 119 152 198 250 306 347
#     4  10  21  37  64  95 119 154 201 252 305 359
#     4  10  22  38  61  87 126 161 193 251 303 360
#     4  11  22  40  59  91 126 156 199 254 301 352
#     4   9  19  33  58  89 119 150 203 254 288 345
#
# _framework density 24.584114
#
# number of rings (size 3 to 8) (size 9 to 14) (size 15 to 20)
#    0.000    2.000    1.250    3.000    3.500    7.000 
#    0.000    0.625    0.000    0.750    0.000    0.000 
#    0.000    0.000    0.000    0.000    0.000    0.000 
#
# Total GULP energy -198467.704074 kJ/mol
# GULP energy per Si atom -12404.231505 kJ/mol
# Density = 2.452816 g / cm^3
# Si number density = 24.584114 Si / 1000 Ang^3
#
#
#
# Elastic Constant Matrix: (Units=GPa)
#
#
# Indices 1 2 3 4 5 6 
#
# 1 129.8918 32.7618 68.3875 -9.8526 14.4061 19.6636
# 2 32.7618 28.3780 31.0107 2.7109 1.1562 18.1476
# 3 68.3875 31.0107 138.9003 6.4338 12.2375 11.6355
# 4 -9.8526 2.7109 6.4338 24.6198 5.0437 4.5272
# 5 14.4061 1.1562 12.2375 5.0437 41.9889 -7.1078
# 6 19.6636 18.1476 11.6355 4.5272 -7.1078 22.0078
#
#
#
# Elastic Compliance Matrix: (Units=1/GPa)
#
#
# Indices 1 2 3 4 5 6 
#
# 1 0.015065 -0.006056 -0.005155 0.011262 -0.006576 -0.010182
# 2 -0.006056 0.111291 -0.014077 0.006939 -0.011972 -0.084211
# 3 -0.005155 -0.014077 0.012083 -0.006051 0.001307 0.011493
# 4 0.011262 0.006939 -0.006051 0.053863 -0.013506 -0.028027
# 5 -0.006576 -0.011972 0.001307 -0.013506 0.032436 0.028311
# 6 -0.010182 -0.084211 0.011493 -0.028027 0.028311 0.132809
#
#
# Mechanical properties :
#
#
# Convention : Reuss Voigt Hill
#
# Bulk Modulus (GPa) = 11.38139 62.38778 36.88459
# Shear Modulus (GPa) = 11.43093 28.72397 20.07745
#
# Velocity S-wave (km/s) = 2.15866 3.42189 2.86087
# Velocity P-wave (km/s) = 3.29434 6.40662 5.09399
#
# Compressibility (1/GPa) = 0.08786274
#
# Stress axis : x y z
#
# Youngs Moduli (GPa) = 66.37862 8.98543 82.76389
#
# Poissons Ratio (x) = 0.05442 0.42661
# Poissons Ratio (y) = 0.40200 1.16509
# Poissons Ratio (z) = 0.34215 0.12649
#
# Static dielectric constant tensor:
#      x y z
#    x 4.464000 0.199720 -0.066420 
#    y 0.199720 3.866930 -0.079780 
#    z -0.066420 -0.079780 4.460380 
# 
# 
# High freq. dielectric constant tensor:
#      x y z
#    x 1.980640 0.023590 0.001900 
#    y 0.023590 1.949820 -0.004130 
#    z 0.001900 -0.004130 1.974810 
# 
# From -- ./inp_files/515889.got.cif
#   From: 2010.06.25/outbox.cif.g09.slc.cpg/sg2_258_cif.got.tgz:515889.got - 2010.06.27 13:26:56.
