data_PCOD8001720
_publ_section_title
;
Structure prediction by ZEFSAII (Michael W. Deem and Ramdas Pophale) SiO2 
 PCOD8001720
Probable space group: P -1
;
_chemical_formula_sum "Si O2"
_cell_formula_units_Z 16
_cell_length_a 24.297475
_cell_length_b 9.329337
_cell_length_c 15.265104
_cell_angle_alpha 130.186700
_cell_angle_beta 161.643505
_cell_angle_gamma 48.705247
_cell_volume 816.125893
_symmetry_space_group_name_H-M "P -1"
_symmetry_group_IT_number 2
_symmetry_cell_setting 'triclinic'
loop_
_space_group_symop_operation_xyz
x,y,z
-x,-y,-z
loop_
_atom_site_type_symbol
_atom_site_label
_atom_site_fract_x
_atom_site_fract_y
_atom_site_fract_z
Si Si1 0.594345 0.733304 0.975129
Si Si2 0.244322 0.913361 0.896412
Si Si3 0.302294 0.117118 0.230815
Si Si4 0.125956 0.107752 0.617466
Si Si5 0.702022 0.482967 0.539027
Si Si6 0.575070 0.638935 0.233350
Si Si7 0.940024 0.082644 0.732992
Si Si8 0.325411 0.112723 0.665950
O O1 0.489150 0.562011 0.737674
O O2 0.476842 0.925458 0.833168
O O3 0.780999 0.711553 0.194380
O O4 0.638797 0.739833 0.147554
O O5 0.078185 0.814669 0.632639
O O6 0.231098 0.986102 0.806461
O O7 0.419314 0.751420 0.104765
O O8 0.253887 0.089143 0.045410
O O9 0.276969 0.341825 0.298366
O O10 0.500000 0.000000 0.500000
O O11 0.155803 0.039883 0.039845
O O12 0.143663 0.962942 0.504714
O O13 0.712067 0.527660 0.467793
O O14 0.863494 0.304402 0.729273
O O15 0.668190 0.787765 0.379256
O O16 0.500000 0.500000 0.000000
O O17 0.869650 0.944654 0.642748
#
# Coordination Sequence:
#
# PCOD8001720 Si02
#       8
#     2   2   2   2   2   2   2   2
#     4   9  16  32  54  83 110 143 181 229 282 328
#     4  10  20  34  54  82 110 149 183 225 275 333
#     4  11  22  39  56  79 116 156 184 219 277 340
#     4   9  17  34  60  81 109 140 185 231 280 323
#     4  11  21  34  57  85 113 145 188 228 273 333
#     4  12  20  32  55  87 113 139 184 237 281 317
#     4   9  20  38  62  84 105 146 193 229 273 329
#     4   9  17  31  55  83 111 139 180 237 282 320
#
# _framework density 19.604818999999999
#
# number of rings (size 3 to 8) (size 9 to 14) (size 15 to 20)
#    0.000    2.000    3.750    1.875    0.000    0.000 
#    0.000    3.125    0.000    0.000    0.000    0.000 
#    0.000    0.000    0.000    0.000    0.000    0.000 
#
# Total GULP energy -198309.731799 kJ/mol
# GULP energy per Si atom -12394.358237 kJ/mol
# Density = 1.956020 g / cm^3
# Si number density = 19.604819 Si / 1000 Ang^3
#
#
#
# Elastic Constant Matrix: (Units=GPa)
#
#
# Indices 1 2 3 4 5 6 
#
# 1 93.0340 32.9974 39.2314 11.8420 21.4498 8.4419
# 2 32.9974 60.0643 28.8138 12.8155 9.5439 -2.2131
# 3 39.2314 28.8138 97.9950 11.3213 27.9820 1.9935
# 4 11.8420 12.8155 11.3213 26.6978 -1.5926 -0.8694
# 5 21.4498 9.5439 27.9820 -1.5926 33.6575 5.3791
# 6 8.4419 -2.2131 1.9935 -0.8694 5.3791 31.5471
#
#
#
# Elastic Compliance Matrix: (Units=1/GPa)
#
#
# Indices 1 2 3 4 5 6 
#
# 1 0.016143 -0.006076 -0.002419 -0.003704 -0.006146 -0.003647
# 2 -0.006076 0.023399 -0.003502 -0.006984 -0.000728 0.003420
# 3 -0.002419 -0.003502 0.015869 -0.004597 -0.011061 0.001158
# 4 -0.003704 -0.006984 -0.004597 0.045021 0.010247 0.000285
# 5 -0.006146 -0.000728 -0.011061 0.010247 0.044311 -0.004981
# 6 -0.003647 0.003420 0.001158 0.000285 -0.004981 0.033699
#
#
# Mechanical properties :
#
#
# Convention : Reuss Voigt Hill
#
# Bulk Modulus (GPa) = 31.83098 50.35317 41.09208
# Shear Modulus (GPa) = 23.48430 28.38384 25.93407
#
# Velocity S-wave (km/s) = 3.46480 3.80912 3.64103
# Velocity P-wave (km/s) = 5.68137 6.71459 6.21948
#
# Compressibility (1/GPa) = 0.03141593
#
# Stress axis : x y z
#
# Youngs Moduli (GPa) = 61.94525 42.73767 63.01666
#
# Poissons Ratio (x) = 0.25966 0.15246
# Poissons Ratio (y) = 0.37636 0.22071
# Poissons Ratio (z) = 0.14986 0.14969
#
# Static dielectric constant tensor:
#      x y z
#    x 3.697990 0.028290 0.324010 
#    y 0.028290 3.303810 0.178630 
#    z 0.324010 0.178630 3.699550 
# 
# 
# High freq. dielectric constant tensor:
#      x y z
#    x 1.763310 0.001330 0.021590 
#    y 0.001330 1.735230 0.011010 
#    z 0.021590 0.011010 1.762750 
# 
# From -- ./inp_files/278572.got.cif
#   From: 2010.06.25/outbox.cif.g09.slc.cpg/sg2_140_cif.got.tgz:278572.got - 2010.06.27 13:26:56.
