data_PCOD8001135
_publ_section_title
;
Structure prediction by ZEFSAII (Michael W. Deem and Ramdas Pophale) SiO2 
 PCOD8001135
Probable space group: P -1
;
_chemical_formula_sum "Si O2"
_cell_formula_units_Z 16
_cell_length_a 11.320801
_cell_length_b 17.473568
_cell_length_c 10.432912
_cell_angle_alpha 132.604173
_cell_angle_beta 60.575694
_cell_angle_gamma 148.046639
_cell_volume 785.421319
_symmetry_space_group_name_H-M "P -1"
_symmetry_group_IT_number 2
_symmetry_cell_setting 'triclinic'
loop_
_space_group_symop_operation_xyz
x,y,z
-x,-y,-z
loop_
_atom_site_type_symbol
_atom_site_label
_atom_site_fract_x
_atom_site_fract_y
_atom_site_fract_z
Si Si1 0.629197 0.821099 0.509907
Si Si2 0.388458 0.420109 0.830505
Si Si3 0.799351 0.322405 0.483613
Si Si4 0.933723 0.631220 0.409971
Si Si5 0.921283 0.196248 0.739125
Si Si6 0.672006 0.638988 0.678705
Si Si7 0.486989 0.026023 0.892344
Si Si8 0.548167 0.765563 0.793318
O O1 0.692267 0.747275 0.340927
O O2 0.402808 0.719327 0.440317
O O3 0.582117 0.793179 0.654725
O O4 0.835846 0.025048 0.598729
O O5 0.570907 0.565733 0.791302
O O6 0.161721 0.351856 0.863975
O O7 0.500000 0.500000 0.000000
O O8 0.000000 0.500000 0.500000
O O9 0.890568 0.344350 0.598667
O O10 0.707592 0.162065 0.282911
O O11 0.885516 0.692306 0.611106
O O12 0.706832 0.430290 0.261394
O O13 0.046274 0.756261 0.371725
O O14 0.738416 0.164230 0.856131
O O15 0.500000 0.500000 0.500000
O O16 0.727449 0.794758 0.796053
O O17 0.413792 0.100902 0.006783
O O18 0.500000 0.000000 0.000000
#
# Coordination Sequence:
#
# PCOD8001135 Si02
#       8
#     2   2   2   2   2   2   2   2
#     4  11  22  42  67  91 133 176 212 270 332 390
#     4  12  24  42  67 102 130 163 229 281 318 390
#     4  11  21  39  67  94 125 174 222 261 324 393
#     4  11  21  41  70  91 126 180 226 255 328 402
#     4  11  24  42  65  96 128 177 215 267 336 390
#     4  10  19  41  69  87 129 177 216 259 328 396
#     4  11  23  40  62  98 136 166 214 274 325 385
#     4  11  19  42  69  87 127 180 216 257 331 401
#
# _framework density 20.371231000000002
#
# number of rings (size 3 to 8) (size 9 to 14) (size 15 to 20)
#    0.000    1.000    8.750    0.375    0.000    5.500 
#    4.500    0.625    0.000    0.000    0.000    0.000 
#    0.000    0.000    0.000    0.000    0.000    0.000 
#
# Total GULP energy -198374.157192 kJ/mol
# GULP energy per Si atom -12398.384824 kJ/mol
# Density = 2.032487 g / cm^3
# Si number density = 20.371231 Si / 1000 Ang^3
#
#
#
# Elastic Constant Matrix: (Units=GPa)
#
#
# Indices 1 2 3 4 5 6 
#
# 1 112.0912 35.4178 26.6148 -5.0377 3.4631 -9.8765
# 2 35.4178 110.4131 32.1799 -20.0079 7.5158 -12.1243
# 3 26.6148 32.1799 80.9809 -9.1178 -8.3759 -5.6203
# 4 -5.0377 -20.0079 -9.1178 26.9521 -11.0344 1.6500
# 5 3.4631 7.5158 -8.3759 -11.0344 40.9473 2.9792
# 6 -9.8765 -12.1243 -5.6203 1.6500 2.9792 39.5713
#
#
#
# Elastic Compliance Matrix: (Units=1/GPa)
#
#
# Indices 1 2 3 4 5 6 
#
# 1 0.010487 -0.002602 -0.002631 -0.001570 -0.001489 0.001624
# 2 -0.002602 0.012462 -0.003225 0.007116 -0.000991 0.002488
# 3 -0.002631 -0.003225 0.015539 0.004504 0.005208 -0.000018
# 4 -0.001570 0.007116 0.004504 0.048969 0.012987 -0.000592
# 5 -0.001489 -0.000991 0.005208 0.012987 0.029491 -0.002697
# 6 0.001624 0.002488 -0.000018 -0.000592 -0.002697 0.026664
#
#
# Mechanical properties :
#
#
# Convention : Reuss Voigt Hill
#
# Bulk Modulus (GPa) = 46.35704 54.65670 50.50687
# Shear Modulus (GPa) = 29.81201 35.44564 32.62883
#
# Velocity S-wave (km/s) = 3.82964 4.17584 4.00648
# Velocity P-wave (km/s) = 6.50849 7.08087 6.80070
#
# Compressibility (1/GPa) = 0.02157170
#
# Stress axis : x y z
#
# Youngs Moduli (GPa) = 95.35975 80.24576 64.35239
#
# Poissons Ratio (x) = 0.20880 0.16928
# Poissons Ratio (y) = 0.24813 0.20756
# Poissons Ratio (z) = 0.25085 0.25882
#
# Static dielectric constant tensor:
#      x y z
#    x 4.243160 -0.117230 -0.204470 
#    y -0.117230 3.704860 -0.065110 
#    z -0.204470 -0.065110 3.177060 
# 
# 
# High freq. dielectric constant tensor:
#      x y z
#    x 1.817350 -0.010840 -0.010840 
#    y -0.010840 1.795670 -0.005620 
#    z -0.010840 -0.005620 1.770510 
# 
# From -- ./inp_files/271868.got.cif
#   From: 2010.06.25/outbox.cif.g09.slc.cpg/sg2_136_cif.got.tgz:271868.got - 2010.06.27 13:26:56.
