data_PCOD8001759
_publ_section_title
;
Structure prediction by ZEFSAII (Michael W. Deem and Ramdas Pophale) SiO2 
 PCOD8001759
Probable space group: P -1
;
_chemical_formula_sum "Si O2"
_cell_formula_units_Z 10
_cell_length_a 13.596731
_cell_length_b 5.337520
_cell_length_c 9.875522
_cell_angle_alpha 112.065692
_cell_angle_beta 60.056850
_cell_angle_gamma 77.810373
_cell_volume 499.614971
_symmetry_space_group_name_H-M "P -1"
_symmetry_group_IT_number 2
_symmetry_cell_setting 'triclinic'
loop_
_space_group_symop_operation_xyz
x,y,z
-x,-y,-z
loop_
_atom_site_type_symbol
_atom_site_label
_atom_site_fract_x
_atom_site_fract_y
_atom_site_fract_z
Si Si1 0.868960 0.103269 0.526350
Si Si2 0.270418 0.904858 0.909715
Si Si3 0.367314 0.206438 0.711147
Si Si4 0.126312 0.182363 0.812871
Si Si5 0.845052 0.713798 0.666863
O O1 0.785015 0.481071 0.654908
O O2 0.904267 0.973034 0.323996
O O3 0.788817 0.963701 0.632691
O O4 0.000000 0.000000 0.500000
O O5 0.352795 0.542585 0.819924
O O6 0.366538 0.033178 0.816992
O O7 0.167434 0.955459 0.870239
O O8 0.187772 0.104352 0.133629
O O9 0.246018 0.246512 0.710160
O O10 0.500000 0.000000 0.500000
O O11 0.000000 0.500000 0.000000
O O12 0.000000 0.500000 0.500000
#
# Coordination Sequence:
#
# PCOD8001759 Si02
#       5
#     2   2   2   2   2
#     4  10  21  34  53  83 128 154 185 237 310 349
#     4  10  22  38  65  88 120 160 208 242 300 358
#     4  10  23  41  64  88 121 159 206 254 296 348
#     4  10  23  36  63  95 119 154 207 251 297 357
#     4  10  20  34  55  84 124 157 185 240 307 356
#
# _framework density 20.015411
#
# number of rings (size 3 to 8) (size 9 to 14) (size 15 to 20)
#    1.200    0.800    0.000    4.200    8.400    0.800 
#    0.000    0.000    0.000    7.200    0.000    0.000 
#    0.000    0.000    0.000    0.000    0.000    0.000 
#
# Total GULP energy -123889.633807 kJ/mol
# GULP energy per Si atom -12388.963381 kJ/mol
# Density = 1.996986 g / cm^3
# Si number density = 20.015411 Si / 1000 Ang^3
#
#
#
# Elastic Constant Matrix: (Units=GPa)
#
#
# Indices 1 2 3 4 5 6 
#
# 1 52.9483 24.8774 54.5345 6.7327 -0.5313 3.4640
# 2 24.8774 173.7905 71.5906 15.5032 14.6829 34.0900
# 3 54.5345 71.5906 194.6045 5.0576 16.8183 2.4778
# 4 6.7327 15.5032 5.0576 34.2821 -2.2766 7.8972
# 5 -0.5313 14.6829 16.8183 -2.2766 45.0467 -1.5307
# 6 3.4640 34.0900 2.4778 7.8972 -1.5307 20.2491
#
#
#
# Elastic Compliance Matrix: (Units=1/GPa)
#
#
# Indices 1 2 3 4 5 6 
#
# 1 0.027647 -0.000433 -0.007749 -0.003553 0.003132 -0.001430
# 2 -0.000433 0.011120 -0.003469 -0.000418 -0.002977 -0.018285
# 3 -0.007749 -0.003469 0.008675 0.000338 -0.001985 0.005822
# 4 -0.003553 -0.000418 0.000338 0.032714 0.001234 -0.011395
# 5 0.003132 -0.002977 -0.001985 0.001234 0.024216 0.006068
# 6 -0.001430 -0.018285 0.005822 -0.011395 0.006068 0.084604
#
#
# Mechanical properties :
#
#
# Convention : Reuss Voigt Hill
#
# Bulk Modulus (GPa) = 41.42107 80.37202 60.89655
# Shear Modulus (GPa) = 22.69392 37.93832 30.31612
#
# Velocity S-wave (km/s) = 3.37088 4.35841 3.89606
# Velocity P-wave (km/s) = 5.99082 8.09752 7.12249
#
# Compressibility (1/GPa) = 0.02414230
#
# Stress axis : x y z
#
# Youngs Moduli (GPa) = 36.17008 89.92454 115.27775
#
# Poissons Ratio (x) = 0.03891 0.89324
# Poissons Ratio (y) = 0.01565 0.39987
# Poissons Ratio (z) = 0.28027 0.31192
#
# Static dielectric constant tensor:
#      x y z
#    x 0.580580 -1.199380 -2.639320 
#    y -1.199380 3.820120 -1.764180 
#    z -2.639320 -1.764180 0.640030 
# 
# 
# High freq. dielectric constant tensor:
#      x y z
#    x 1.725530 0.022040 0.013900 
#    y 0.022040 1.802870 -0.000500 
#    z 0.013900 -0.000500 1.784330 
# 
# From -- ./inp_files/16523.got.cif
#   From: 2010.06.25/outbox.cif.g09.slc.cpg/sg2_9_cif.got.tgz:16523.got - 2010.06.27 13:26:56.
