data_PCOD8001321
_publ_section_title
;
Structure prediction by ZEFSAII (Michael W. Deem and Ramdas Pophale) SiO2 
 PCOD8001321
Probable space group: P -1
;
_chemical_formula_sum "Si O2"
_cell_formula_units_Z 16
_cell_length_a 13.640469
_cell_length_b 14.383084
_cell_length_c 15.053144
_cell_angle_alpha 19.880010
_cell_angle_beta 91.743166
_cell_angle_gamma 100.291251
_cell_volume 900.707002
_symmetry_space_group_name_H-M "P -1"
_symmetry_group_IT_number 2
_symmetry_cell_setting 'triclinic'
loop_
_space_group_symop_operation_xyz
x,y,z
-x,-y,-z
loop_
_atom_site_type_symbol
_atom_site_label
_atom_site_fract_x
_atom_site_fract_y
_atom_site_fract_z
Si Si1 0.260686 0.648578 0.316143
Si Si2 0.845709 0.647800 0.250595
Si Si3 0.343661 0.239561 0.163554
Si Si4 0.689233 0.399906 0.310878
Si Si5 0.438058 0.134932 0.591610
Si Si6 0.611174 0.745159 0.322831
Si Si7 0.935964 0.289223 0.767087
Si Si8 0.405340 0.498408 0.114795
O O1 0.224151 0.637707 0.428724
O O2 0.303875 0.395794 0.528483
O O3 0.151290 0.592661 0.304263
O O4 0.350342 0.985214 0.990891
O O5 0.775001 0.617330 0.189337
O O6 0.964770 0.676928 0.194906
O O7 0.864973 0.943917 0.042717
O O8 0.326417 0.289422 0.222266
O O9 0.287020 0.884570 0.456723
O O10 0.289208 0.405235 0.953142
O O11 0.471136 0.390504 0.011337
O O12 0.568425 0.291743 0.443669
O O13 0.410177 0.131073 0.696894
O O14 0.384089 0.309195 0.375423
O O15 0.381914 0.787540 0.869332
O O16 0.500000 0.500000 0.500000
O O17 0.000000 0.500000 0.500000
#
# Coordination Sequence:
#
# PCOD8001321 Si02
#       8
#     2   2   2   2   2   2   2   2
#     4  11  22  37  53  71 106 144 182 216 253 301
#     4  10  20  36  55  79 106 140 173 216 271 321
#     4   9  18  30  48  74  98 136 164 215 261 302
#     4  10  20  30  50  77 107 131 172 208 260 313
#     4  10  20  32  49  72 101 147 177 204 245 298
#     4  12  24  36  50  76 109 145 185 221 248 286
#     4   9  20  36  57  75  99 146 172 216 271 318
#     4   9  17  33  49  66 102 135 178 207 249 310
#
# _framework density 17.763825000000001
#
# number of rings (size 3 to 8) (size 9 to 14) (size 15 to 20)
#    0.000    2.000    1.250    2.625    3.500    5.000 
#    0.000    0.000    0.000    0.000    0.000    0.000 
#    0.000   20.000    0.000    0.000    0.000    0.000 
#
# Total GULP energy -198268.918952 kJ/mol
# GULP energy per Si atom -12391.807434 kJ/mol
# Density = 1.772339 g / cm^3
# Si number density = 17.763825 Si / 1000 Ang^3
#
#
#
# Elastic Constant Matrix: (Units=GPa)
#
#
# Indices 1 2 3 4 5 6 
#
# 1 70.8762 32.6832 22.9376 -4.5669 10.4259 4.1890
# 2 32.6832 98.2942 35.0075 2.3920 -2.9585 9.4836
# 3 22.9376 35.0075 108.0837 6.1219 9.8699 7.9526
# 4 -4.5669 2.3920 6.1219 19.9940 0.0002 3.4856
# 5 10.4259 -2.9585 9.8699 0.0002 25.7114 2.0948
# 6 4.1890 9.4836 7.9526 3.4856 2.0948 14.6664
#
#
#
# Elastic Compliance Matrix: (Units=1/GPa)
#
#
# Indices 1 2 3 4 5 6 
#
# 1 0.018957 -0.006004 -0.001634 0.005707 -0.007677 -0.000906
# 2 -0.006004 0.014158 -0.003333 -0.000957 0.005852 -0.006242
# 3 -0.001634 -0.003333 0.011374 -0.003063 -0.003903 -0.002261
# 4 0.005707 -0.000957 -0.003063 0.054510 -0.000249 -0.012269
# 5 -0.007677 0.005852 -0.003903 -0.000249 0.044650 -0.005793
# 6 -0.000906 -0.006242 -0.002261 -0.012269 -0.005793 0.077447
#
#
# Mechanical properties :
#
#
# Convention : Reuss Voigt Hill
#
# Bulk Modulus (GPa) = 44.34776 50.94562 47.64669
# Shear Modulus (GPa) = 19.95582 24.51607 22.23594
#
# Velocity S-wave (km/s) = 3.35535 3.71902 3.54185
# Velocity P-wave (km/s) = 6.32697 6.86900 6.60355
#
# Compressibility (1/GPa) = 0.02254905
#
# Stress axis : x y z
#
# Youngs Moduli (GPa) = 52.75097 70.62979 87.91606
#
# Poissons Ratio (x) = 0.42405 0.14365
# Poissons Ratio (y) = 0.31671 0.29298
# Poissons Ratio (z) = 0.08619 0.23538
#
# Static dielectric constant tensor:
#      x y z
#    x 3.968650 0.113380 0.366790 
#    y 0.113380 3.109620 -0.078100 
#    z 0.366790 -0.078100 3.458400 
# 
# 
# High freq. dielectric constant tensor:
#      x y z
#    x 1.666950 0.010680 0.024990 
#    y 0.010680 1.659530 0.004960 
#    z 0.024990 0.004960 1.700920 
# 
# From -- ./inp_files/73998.got.cif
#   From: 2010.06.25/outbox.cif.g09.slc.cpg/sg2_37_cif.got.tgz:73998.got - 2010.06.27 13:26:56.
