data_PCOD8001111
_publ_section_title
;
Structure prediction by ZEFSAII (Michael W. Deem and Ramdas Pophale) SiO2 
 PCOD8001111
Probable space group: P -1
;
_chemical_formula_sum "Si O2"
_cell_formula_units_Z 16
_cell_length_a 9.264947
_cell_length_b 8.982760
_cell_length_c 11.495803
_cell_angle_alpha 76.797386
_cell_angle_beta 49.387927
_cell_angle_gamma 71.350535
_cell_volume 687.882753
_symmetry_space_group_name_H-M "P -1"
_symmetry_group_IT_number 2
_symmetry_cell_setting 'triclinic'
loop_
_space_group_symop_operation_xyz
x,y,z
-x,-y,-z
loop_
_atom_site_type_symbol
_atom_site_label
_atom_site_fract_x
_atom_site_fract_y
_atom_site_fract_z
Si Si1 0.206890 0.000113 0.443400
Si Si2 0.404514 0.080555 0.886192
Si Si3 0.418633 0.487867 0.204257
Si Si4 0.147330 0.607220 0.934788
Si Si5 0.865088 0.807795 0.203388
Si Si6 0.251584 0.860533 0.687409
Si Si7 0.306728 0.273736 0.468681
Si Si8 0.537448 0.238777 0.993744
O O1 0.189411 0.174980 0.470414
O O2 0.370235 0.957594 0.266178
O O3 0.256864 0.871760 0.543594
O O4 0.000000 0.000000 0.500000
O O5 0.267024 0.178765 0.844563
O O6 0.386555 0.181974 0.995679
O O7 0.338658 0.916766 0.978192
O O8 0.636919 0.492208 0.131240
O O9 0.295554 0.445103 0.385849
O O10 0.330160 0.663067 0.167535
O O11 0.414953 0.357281 0.131380
O O12 0.150385 0.721614 0.802647
O O13 0.000000 0.500000 0.000000
O O14 0.078660 0.712079 0.068156
O O15 0.780860 0.702333 0.360233
O O16 0.870747 0.976499 0.222586
O O17 0.470595 0.829239 0.628402
#
# Coordination Sequence:
#
# PCOD8001111 Si02
#       8
#     2   2   2   2   2   2   2   2
#     4  11  21  34  59  93 125 154 205 260 312 359
#     4  11  20  38  60  97 118 160 213 258 304 368
#     4  10  21  43  61  87 126 173 203 242 324 376
#     4  11  24  39  59  95 126 159 210 264 306 361
#     4  11  20  38  70  91 119 161 217 257 306 367
#     4  10  20  40  63  87 126 165 203 258 312 372
#     4  10  19  41  67  88 123 168 207 256 311 380
#     4  10  22  36  65  83 126 167 201 250 305 384
#
# _framework density 23.259775999999999
#
# number of rings (size 3 to 8) (size 9 to 14) (size 15 to 20)
#    0.000    1.500    3.750    2.625    0.000    5.000 
#    2.250    1.875    0.000    2.250    0.000    0.000 
#    0.000    0.000    0.000    0.000    0.000    0.000 
#
# Total GULP energy -198374.032821 kJ/mol
# GULP energy per Si atom -12398.377051 kJ/mol
# Density = 2.320684 g / cm^3
# Si number density = 23.259776 Si / 1000 Ang^3
#
#
#
# Elastic Constant Matrix: (Units=GPa)
#
#
# Indices 1 2 3 4 5 6 
#
# 1 87.3672 15.6538 31.3692 -16.7680 8.1644 17.3142
# 2 15.6538 86.3249 43.5257 -36.9209 10.2926 10.1110
# 3 31.3692 43.5257 113.5677 -43.0138 15.5841 -8.4687
# 4 -16.7680 -36.9209 -43.0138 46.8179 -6.5600 5.8556
# 5 8.1644 10.2926 15.5841 -6.5600 37.0384 -3.6914
# 6 17.3142 10.1110 -8.4687 5.8556 -3.6914 26.9682
#
#
#
# Elastic Compliance Matrix: (Units=1/GPa)
#
#
# Indices 1 2 3 4 5 6 
#
# 1 0.017130 0.004484 -0.004497 0.007066 -0.003483 -0.016102
# 2 0.004484 0.022735 -0.004081 0.017323 -0.004217 -0.017023
# 3 -0.004497 -0.004081 0.015595 0.008281 -0.002251 0.007208
# 4 0.007066 0.017323 0.008281 0.047071 -0.003425 -0.019120
# 5 -0.003483 -0.004217 -0.002251 -0.003425 0.030074 0.007971
# 6 -0.016102 -0.017023 0.007208 -0.019120 0.007971 0.061307
#
#
# Mechanical properties :
#
#
# Convention : Reuss Voigt Hill
#
# Bulk Modulus (GPa) = 21.15429 52.03972 36.59700
# Shear Modulus (GPa) = 22.95098 35.27897 29.11497
#
# Velocity S-wave (km/s) = 3.14462 3.89876 3.54182
# Velocity P-wave (km/s) = 4.72223 6.53367 5.70037
#
# Compressibility (1/GPa) = 0.04727174
#
# Stress axis : x y z
#
# Youngs Moduli (GPa) = 58.37803 43.98575 64.12478
#
# Poissons Ratio (x) = -0.19725 0.28835
# Poissons Ratio (y) = -0.26180 0.26172
# Poissons Ratio (z) = 0.26251 0.17953
#
# Static dielectric constant tensor:
#      x y z
#    x 3.979070 -0.083860 0.370150 
#    y -0.083860 4.197170 -0.329610 
#    z 0.370150 -0.329610 4.508550 
# 
# 
# High freq. dielectric constant tensor:
#      x y z
#    x 1.910270 0.005130 0.023960 
#    y 0.005130 1.908880 -0.026740 
#    z 0.023960 -0.026740 1.921800 
# 
# From -- ./inp_files/333860.got.cif
#   From: 2010.06.25/outbox.cif.g09.slc.cpg/sg2_167_cif.got.tgz:333860.got - 2010.06.27 13:26:56.
