data_PCOD8001178
_publ_section_title
;
Structure prediction by ZEFSAII (Michael W. Deem and Ramdas Pophale) SiO2 
 PCOD8001178
Probable space group: P -1
;
_chemical_formula_sum "Si O2"
_cell_formula_units_Z 16
_cell_length_a 9.008214
_cell_length_b 13.072382
_cell_length_c 8.014003
_cell_angle_alpha 77.589752
_cell_angle_beta 130.714970
_cell_angle_gamma 85.946481
_cell_volume 669.646828
_symmetry_space_group_name_H-M "P -1"
_symmetry_group_IT_number 2
_symmetry_cell_setting 'triclinic'
loop_
_space_group_symop_operation_xyz
x,y,z
-x,-y,-z
loop_
_atom_site_type_symbol
_atom_site_label
_atom_site_fract_x
_atom_site_fract_y
_atom_site_fract_z
Si Si1 0.720418 0.942514 0.614760
Si Si2 0.063397 0.399081 0.260155
Si Si3 0.481767 0.740201 0.937174
Si Si4 0.388429 0.551043 0.134660
Si Si5 0.749390 0.819905 0.340766
Si Si6 0.260818 0.587495 0.390839
Si Si7 0.920972 0.090579 0.549089
Si Si8 0.853341 0.724040 0.976454
O O1 0.687017 0.903725 0.417920
O O2 0.835747 0.843763 0.852107
O O3 0.500000 0.000000 0.500000
O O4 0.851408 0.030670 0.676751
O O5 0.112901 0.296069 0.453046
O O6 0.201228 0.474530 0.386612
O O7 0.109227 0.364640 0.113458
O O8 0.823639 0.464726 0.082356
O O9 0.266122 0.810511 0.686232
O O10 0.654738 0.717667 0.930844
O O11 0.469495 0.624513 0.038393
O O12 0.544603 0.810815 0.105981
O O13 0.351737 0.609455 0.270342
O O14 0.561816 0.432805 0.328951
O O15 0.887804 0.861276 0.290370
O O16 0.062042 0.688328 0.254507
O O17 0.000000 0.000000 0.500000
#
# Coordination Sequence:
#
# PCOD8001178 Si02
#       8
#     2   2   2   2   2   2   2   2
#     4  10  20  41  64  88 117 160 200 249 301 351
#     4  10  19  42  63  88 119 165 202 239 299 365
#     4  12  22  40  61  94 122 155 199 254 301 353
#     4  10  20  35  64  87 121 158 204 241 296 358
#     4  10  22  39  66  89 119 159 200 244 302 366
#     4  10  21  40  62  90 119 165 203 239 299 365
#     4  10  22  40  65  86 121 159 200 250 300 354
#     4  10  22  37  62  88 128 154 196 258 296 343
#
# _framework density 23.893191000000002
#
# number of rings (size 3 to 8) (size 9 to 14) (size 15 to 20)
#    0.000    1.750    3.750    1.500    1.750    2.500 
#    0.000   10.625    0.000    0.000    0.000    0.000 
#    0.000    0.000    0.000    0.000    0.000    0.000 
#
# Total GULP energy -198360.855798 kJ/mol
# GULP energy per Si atom -12397.553487 kJ/mol
# Density = 2.383881 g / cm^3
# Si number density = 23.893191 Si / 1000 Ang^3
#
#
#
# Elastic Constant Matrix: (Units=GPa)
#
#
# Indices 1 2 3 4 5 6 
#
# 1 138.2594 25.0963 28.0598 -18.0100 3.0489 22.3660
# 2 25.0963 33.2752 13.5814 -15.8446 2.9487 8.7603
# 3 28.0598 13.5814 74.5778 -16.2064 20.9882 -3.2052
# 4 -18.0100 -15.8446 -16.2064 32.8174 -2.1444 5.8764
# 5 3.0489 2.9487 20.9882 -2.1444 39.6256 -11.0124
# 6 22.3660 8.7603 -3.2052 5.8764 -11.0124 37.5759
#
#
#
# Elastic Compliance Matrix: (Units=1/GPa)
#
#
# Indices 1 2 3 4 5 6 
#
# 1 0.009748 -0.002857 -0.002348 0.003864 -0.000801 -0.006175
# 2 -0.002857 0.048420 -0.001847 0.023225 -0.005298 -0.014930
# 3 -0.002348 -0.001847 0.018636 0.006473 -0.009291 -0.000318
# 4 0.003864 0.023225 0.006473 0.049576 -0.007530 -0.017122
# 5 -0.000801 -0.005298 -0.009291 -0.007530 0.033518 0.011920
# 6 -0.006175 -0.014930 -0.000318 -0.017122 0.011920 0.039913
#
#
# Mechanical properties :
#
#
# Convention : Reuss Voigt Hill
#
# Bulk Modulus (GPa) = 15.94852 42.17638 29.06245
# Shear Modulus (GPa) = 21.29342 33.96210 27.62776
#
# Velocity S-wave (km/s) = 2.98852 3.77425 3.40413
# Velocity P-wave (km/s) = 4.31251 6.05671 5.25745
#
# Compressibility (1/GPa) = 0.06270175
#
# Stress axis : x y z
#
# Youngs Moduli (GPa) = 102.58699 20.65268 53.65949
#
# Poissons Ratio (x) = 0.05900 0.12597
# Poissons Ratio (y) = 0.29307 0.09909
# Poissons Ratio (z) = 0.24083 0.03814
#
# Static dielectric constant tensor:
#      x y z
#    x 4.594580 0.271540 0.122540 
#    y 0.271540 3.988300 -0.015060 
#    z 0.122540 -0.015060 4.301640 
# 
# 
# High freq. dielectric constant tensor:
#      x y z
#    x 1.963360 0.016100 0.010240 
#    y 0.016100 1.932420 -0.019920 
#    z 0.010240 -0.019920 1.946600 
# 
# From -- ./inp_files/201097.got.cif
#   From: 2010.06.25/outbox.cif.g09.slc.cpg/sg2_101_cif.got.tgz:201097.got - 2010.06.27 13:26:56.
