data_PCOD8001475
_publ_section_title
;
Structure prediction by ZEFSAII (Michael W. Deem and Ramdas Pophale) SiO2 
 PCOD8001475
Probable space group: P -1
;
_chemical_formula_sum "Si O2"
_cell_formula_units_Z 16
_cell_length_a 17.855077
_cell_length_b 21.044031
_cell_length_c 8.881149
_cell_angle_alpha 150.774740
_cell_angle_beta 31.366888
_cell_angle_gamma 151.346609
_cell_volume 723.941189
_symmetry_space_group_name_H-M "P -1"
_symmetry_group_IT_number 2
_symmetry_cell_setting 'triclinic'
loop_
_space_group_symop_operation_xyz
x,y,z
-x,-y,-z
loop_
_atom_site_type_symbol
_atom_site_label
_atom_site_fract_x
_atom_site_fract_y
_atom_site_fract_z
Si Si1 0.461175 0.499450 0.310432
Si Si2 0.487123 0.134052 0.374280
Si Si3 0.351237 0.279380 0.302083
Si Si4 0.876845 0.942266 0.236456
Si Si5 0.376238 0.010531 0.623057
Si Si6 0.973025 0.241114 0.262639
Si Si7 0.999799 0.862537 0.296782
Si Si8 0.712038 0.475220 0.619536
O O1 0.394491 0.340158 0.182148
O O2 0.501888 0.623139 0.627810
O O3 0.320540 0.497350 0.440567
O O4 0.622389 0.534637 0.008787
O O5 0.318761 0.138015 0.636550
O O6 0.646664 0.297421 0.390255
O O7 0.492000 0.105660 0.482746
O O8 0.500000 0.000000 0.000000
O O9 0.186958 0.277983 0.636739
O O10 0.304618 0.105343 0.023507
O O11 0.906807 0.078801 0.580951
O O12 0.907345 0.821522 0.019883
O O13 0.000000 0.000000 0.000000
O O14 0.210888 0.846393 0.520881
O O15 0.500000 0.000000 0.500000
O O16 0.085095 0.421742 0.483418
O O17 0.927886 0.209437 0.095091
O O18 0.000000 0.000000 0.500000
#
# Coordination Sequence:
#
# PCOD8001475 Si02
#       8
#     2   2   2   2   2   2   2   2
#     4  10  22  35  68 101 135 169 217 296 340 391
#     4  12  28  46  70 101 138 186 229 277 347 422
#     4  11  20  40  62 103 135 171 229 275 347 396
#     4  11  21  40  71 102 133 173 235 288 327 393
#     4  12  27  44  70  94 142 188 225 273 341 426
#     4  11  23  41  68 102 133 172 229 290 341 393
#     4  10  20  32  62  99 130 165 217 284 331 385
#     4  11  23  41  67  99 136 171 227 288 350 394
#
# _framework density 22.101241000000002
#
# number of rings (size 3 to 8) (size 9 to 14) (size 15 to 20)
#    0.000    1.000    6.250    1.500    7.000    0.000 
#    0.000    1.250    5.500    0.000    0.000    0.000 
#    0.000    0.000    0.000    0.000    0.000    0.000 
#
# Total GULP energy -198311.541466 kJ/mol
# GULP energy per Si atom -12394.471342 kJ/mol
# Density = 2.205094 g / cm^3
# Si number density = 22.101241 Si / 1000 Ang^3
#
#
#
# Elastic Constant Matrix: (Units=GPa)
#
#
# Indices 1 2 3 4 5 6 
#
# 1 133.3880 59.1272 22.9731 5.9638 14.7901 -6.0964
# 2 59.1272 154.6463 27.8388 14.5464 -0.8053 13.6005
# 3 22.9731 27.8388 47.3025 11.1367 4.5952 -4.2678
# 4 5.9638 14.5464 11.1367 24.6016 4.4042 8.3711
# 5 14.7901 -0.8053 4.5952 4.4042 32.4094 -5.5466
# 6 -6.0964 13.6005 -4.2678 8.3711 -5.5466 30.6425
#
#
#
# Elastic Compliance Matrix: (Units=1/GPa)
#
#
# Indices 1 2 3 4 5 6 
#
# 1 0.010073 -0.003749 -0.002233 0.000681 -0.004049 0.002438
# 2 -0.003749 0.009139 -0.003784 -0.001575 0.001909 -0.004554
# 3 -0.002233 -0.003784 0.028298 -0.013051 0.000188 0.008776
# 4 0.000681 -0.001575 -0.013051 0.054922 -0.008977 -0.017612
# 5 -0.004049 0.001909 0.000188 -0.008977 0.035175 0.007193
# 6 0.002438 -0.004554 0.008776 -0.017612 0.007193 0.042476
#
#
# Mechanical properties :
#
#
# Convention : Reuss Voigt Hill
#
# Bulk Modulus (GPa) = 35.74001 61.69057 48.71529
# Shear Modulus (GPa) = 23.93022 32.55719 28.24371
#
# Velocity S-wave (km/s) = 3.29409 3.84225 3.57868
# Velocity P-wave (km/s) = 5.53843 6.90342 6.25825
#
# Compressibility (1/GPa) = 0.02797985
#
# Stress axis : x y z
#
# Youngs Moduli (GPa) = 99.27305 109.41657 35.33830
#
# Poissons Ratio (x) = 0.41020 0.07890
# Poissons Ratio (y) = 0.37217 0.13371
# Poissons Ratio (z) = 0.22165 0.41399
#
# Static dielectric constant tensor:
#      x y z
#    x 4.176200 0.011840 0.438370 
#    y 0.011840 4.238940 -0.025650 
#    z 0.438370 -0.025650 3.775450 
# 
# 
# High freq. dielectric constant tensor:
#      x y z
#    x 1.871900 0.000050 0.034230 
#    y 0.000050 1.884140 -0.002950 
#    z 0.034230 -0.002950 1.826230 
# 
# From -- ./inp_files/338226.got.cif
#   From: 2010.06.25/outbox.cif.g09.slc.cpg/sg2_170_cif.got.tgz:338226.got - 2010.06.27 13:26:56.
