data_PCOD8001156
_publ_section_title
;
Structure prediction by ZEFSAII (Michael W. Deem and Ramdas Pophale) SiO2 
 PCOD8001156
Probable space group: P -1
;
_chemical_formula_sum "Si O2"
_cell_formula_units_Z 14
_cell_length_a 17.613054
_cell_length_b 9.295120
_cell_length_c 12.263405
_cell_angle_alpha 47.553258
_cell_angle_beta 29.850864
_cell_angle_gamma 66.092763
_cell_volume 642.664405
_symmetry_space_group_name_H-M "P -1"
_symmetry_group_IT_number 2
_symmetry_cell_setting 'triclinic'
loop_
_space_group_symop_operation_xyz
x,y,z
-x,-y,-z
loop_
_atom_site_type_symbol
_atom_site_label
_atom_site_fract_x
_atom_site_fract_y
_atom_site_fract_z
Si Si1 0.194696 0.803203 0.668340
Si Si2 0.932386 0.861213 0.371109
Si Si3 0.957133 0.758222 0.633704
Si Si4 0.329012 0.394194 0.340416
Si Si5 0.651068 0.280366 0.285362
Si Si6 0.157477 0.579358 0.605282
Si Si7 0.299632 0.065948 0.719257
O O1 0.351532 0.839632 0.535442
O O2 0.224713 0.698977 0.575590
O O3 0.192213 0.026943 0.520475
O O4 0.016881 0.653508 0.034327
O O5 0.947316 0.750590 0.519834
O O6 0.840646 0.671598 0.490388
O O7 0.126001 0.042868 0.001487
O O8 0.114400 0.724568 0.499781
O O9 0.771636 0.549375 0.010390
O O10 0.000000 0.000000 0.500000
O O11 0.315233 0.550860 0.371199
O O12 0.325264 0.181586 0.510792
O O13 0.500000 0.500000 0.000000
O O14 0.454218 0.219313 0.532052
O O15 0.715276 0.175821 0.160979
#
# Coordination Sequence:
#
# PCOD8001156 Si02
#       7
#     2   2   2   2   2   2   2
#     4  10  19  41  71  96 125 177 229 271 333 406
#     4  12  22  41  71  95 130 183 225 277 339 402
#     4  11  23  41  66 102 139 176 225 284 343 399
#     4  12  25  42  68 102 138 174 230 283 341 403
#     4  10  23  41  67 100 139 176 223 286 338 400
#     4  10  22  40  69  97 132 177 224 278 339 399
#     4  11  23  42  69 101 136 175 234 281 336 406
#
# _framework density 21.784310000000001
#
# number of rings (size 3 to 8) (size 9 to 14) (size 15 to 20)
#    0.000    1.143    4.286    3.000    0.000    4.571 
#    0.000    5.000    0.000    0.000    0.000    0.000 
#    0.000    0.000    0.000    0.000    0.000    0.000 
#
# Total GULP energy -173576.326484 kJ/mol
# GULP energy per Si atom -12398.309035 kJ/mol
# Density = 2.173473 g / cm^3
# Si number density = 21.784310 Si / 1000 Ang^3
#
#
#
# Elastic Constant Matrix: (Units=GPa)
#
#
# Indices 1 2 3 4 5 6 
#
# 1 164.7317 24.3858 46.8388 7.9887 1.7529 2.8297
# 2 24.3858 103.2792 40.7891 3.0288 -0.1599 3.4416
# 3 46.8388 40.7891 93.9035 12.3887 -3.6264 -3.0318
# 4 7.9887 3.0288 12.3887 36.8141 2.4707 3.9127
# 5 1.7529 -0.1599 -3.6264 2.4707 38.1574 -5.8886
# 6 2.8297 3.4416 -3.0318 3.9127 -5.8886 28.0850
#
#
#
# Elastic Compliance Matrix: (Units=1/GPa)
#
#
# Indices 1 2 3 4 5 6 
#
# 1 0.007142 -0.000260 -0.003499 -0.000165 -0.000839 -0.001218
# 2 -0.000260 0.011877 -0.005293 0.001169 -0.000879 -0.002348
# 3 -0.003499 -0.005293 0.015522 -0.004605 0.002505 0.003844
# 4 -0.000165 0.001169 -0.004605 0.029438 -0.003163 -0.005388
# 5 -0.000839 -0.000879 0.002505 -0.003163 0.027721 0.006716
# 6 -0.001218 -0.002348 0.003844 -0.005388 0.006716 0.038590
#
#
# Mechanical properties :
#
#
# Convention : Reuss Voigt Hill
#
# Bulk Modulus (GPa) = 60.84306 65.10466 62.97386
# Shear Modulus (GPa) = 32.49392 37.27135 34.88263
#
# Velocity S-wave (km/s) = 3.86634 4.14082 4.00593
# Velocity P-wave (km/s) = 6.92256 7.26724 7.09699
#
# Compressibility (1/GPa) = 0.01643573
#
# Stress axis : x y z
#
# Youngs Moduli (GPa) = 140.02043 84.19596 64.42306
#
# Poissons Ratio (x) = 0.02190 0.22544
# Poissons Ratio (y) = 0.03642 0.34101
# Poissons Ratio (z) = 0.48997 0.44568
#
# Static dielectric constant tensor:
#      x y z
#    x 4.317060 -0.085560 0.032470 
#    y -0.085560 3.809410 -0.193380 
#    z 0.032470 -0.193380 3.601690 
# 
# 
# High freq. dielectric constant tensor:
#      x y z
#    x 1.880970 -0.000640 0.002620 
#    y -0.000640 1.851040 -0.011060 
#    z 0.002620 -0.011060 1.823780 
# 
# From -- ./inp_files/156613.got.cif
#   From: 2010.06.25/outbox.cif.g09.slc.cpg/sg2_79_cif.got.tgz:156613.got - 2010.06.27 13:26:56.
