data_PCOD8001114
_publ_section_title
;
Structure prediction by ZEFSAII (Michael W. Deem and Ramdas Pophale) SiO2 
 PCOD8001114
Probable space group: P -1
;
_chemical_formula_sum "Si O2"
_cell_formula_units_Z 16
_cell_length_a 9.404483
_cell_length_b 16.280684
_cell_length_c 11.076766
_cell_angle_alpha 37.395516
_cell_angle_beta 125.227072
_cell_angle_gamma 135.994990
_cell_volume 715.498806
_symmetry_space_group_name_H-M "P -1"
_symmetry_group_IT_number 2
_symmetry_cell_setting 'triclinic'
loop_
_space_group_symop_operation_xyz
x,y,z
-x,-y,-z
loop_
_atom_site_type_symbol
_atom_site_label
_atom_site_fract_x
_atom_site_fract_y
_atom_site_fract_z
Si Si1 0.161759 0.345502 0.934658
Si Si2 0.867573 0.811468 0.659074
Si Si3 0.458573 0.250594 0.101322
Si Si4 0.576457 0.294159 0.361319
Si Si5 0.311673 0.453421 0.289539
Si Si6 0.231792 0.065128 0.994412
Si Si7 0.454119 0.662182 0.326601
Si Si8 0.770392 0.229239 0.747265
O O1 0.338341 0.523716 0.841721
O O2 0.000534 0.353729 0.758098
O O3 0.060621 0.251160 0.120170
O O4 0.253967 0.252471 0.024166
O O5 0.636214 0.770003 0.600593
O O6 0.876306 0.718687 0.650404
O O7 0.000000 0.000000 0.500000
O O8 0.539832 0.209872 0.310253
O O9 0.632943 0.421602 0.936549
O O10 0.383216 0.108601 0.133282
O O11 0.731103 0.270602 0.545707
O O12 0.275497 0.529346 0.304357
O O13 0.503623 0.433337 0.439261
O O14 0.333187 0.225560 0.774869
O O15 0.251493 0.940543 0.068130
O O16 0.000000 0.000000 0.000000
O O17 0.380807 0.769321 0.229137
#
# Coordination Sequence:
#
# PCOD8001114 Si02
#       8
#     2   2   2   2   2   2   2   2
#     4  11  21  39  68  95 133 170 223 268 332 402
#     4  11  22  36  66 100 129 177 220 271 329 396
#     4  10  19  41  68  93 125 182 222 265 329 394
#     4  11  22  41  67  95 135 173 225 275 325 400
#     4  10  19  41  67  91 128 172 227 256 330 397
#     4  11  24  41  65  97 136 174 220 275 335 400
#     4  10  23  39  67  95 134 174 215 276 330 391
#     4  12  24  40  66 104 132 169 221 281 339 382
#
# _framework density 22.362023000000001
#
# number of rings (size 3 to 8) (size 9 to 14) (size 15 to 20)
#    0.000    1.250    5.000    1.500    1.750    1.500 
#    2.250    0.625    2.750    0.000    0.000    0.000 
#    0.000    0.000    0.000    0.000    0.000    0.000 
#
# Total GULP energy -198258.987066 kJ/mol
# GULP energy per Si atom -12391.186692 kJ/mol
# Density = 2.231113 g / cm^3
# Si number density = 22.362023 Si / 1000 Ang^3
#
#
#
# Elastic Constant Matrix: (Units=GPa)
#
#
# Indices 1 2 3 4 5 6 
#
# 1 64.1116 37.5880 19.8570 -7.0932 3.1185 -16.2696
# 2 37.5880 151.7867 47.8218 -3.7306 -7.3789 -18.4366
# 3 19.8570 47.8218 82.0927 5.2246 -4.3459 3.1494
# 4 -7.0932 -3.7306 5.2246 53.3066 1.9947 3.8344
# 5 3.1185 -7.3789 -4.3459 1.9947 26.6882 -2.5601
# 6 -16.2696 -18.4366 3.1494 3.8344 -2.5601 37.9122
#
#
#
# Elastic Compliance Matrix: (Units=1/GPa)
#
#
# Indices 1 2 3 4 5 6 
#
# 1 0.020955 -0.003208 -0.003823 0.002545 -0.003452 0.007259
# 2 -0.003208 0.009477 -0.004776 0.000338 0.002554 0.003767
# 3 -0.003823 -0.004776 0.016293 -0.002135 0.001459 -0.005002
# 4 0.002545 0.000338 -0.002135 0.019457 -0.002070 -0.000674
# 5 -0.003452 0.002554 0.001459 -0.002070 0.039211 0.002496
# 6 0.007259 0.003767 -0.005002 -0.000674 0.002496 0.031976
#
#
# Mechanical properties :
#
#
# Convention : Reuss Voigt Hill
#
# Bulk Modulus (GPa) = 43.26896 56.50275 49.88586
# Shear Modulus (GPa) = 29.64085 36.42969 33.03527
#
# Velocity S-wave (km/s) = 3.64469 4.04057 3.84773
# Velocity P-wave (km/s) = 6.09122 6.86225 6.48820
#
# Compressibility (1/GPa) = 0.02311125
#
# Stress axis : x y z
#
# Youngs Moduli (GPa) = 47.72245 105.51558 61.37578
#
# Poissons Ratio (x) = 0.33851 0.23464
# Poissons Ratio (y) = 0.15310 0.29311
# Poissons Ratio (z) = 0.18244 0.50391
#
# Static dielectric constant tensor:
#      x y z
#    x 3.691250 -0.370720 -0.109660 
#    y -0.370720 4.420030 0.072060 
#    z -0.109660 0.072060 3.835690 
# 
# 
# High freq. dielectric constant tensor:
#      x y z
#    x 1.839680 -0.027140 -0.009760 
#    y -0.027140 1.905870 0.006110 
#    z -0.009760 0.006110 1.871660 
# 
# From -- ./inp_files/436437.got.cif
#   From: 2010.06.25/outbox.cif.g09.slc.cpg/sg2_219_cif.got.tgz:436437.got - 2010.06.27 13:26:56.
