data_PCOD8001257
_publ_section_title
;
Structure prediction by ZEFSAII (Michael W. Deem and Ramdas Pophale) SiO2 
 PCOD8001257
Probable space group: P -1
;
_chemical_formula_sum "Si O2"
_cell_formula_units_Z 14
_cell_length_a 23.409133
_cell_length_b 12.089870
_cell_length_c 17.917849
_cell_angle_alpha 29.236627
_cell_angle_beta 160.683704
_cell_angle_gamma 158.197232
_cell_volume 622.740136
_symmetry_space_group_name_H-M "P -1"
_symmetry_group_IT_number 2
_symmetry_cell_setting 'triclinic'
loop_
_space_group_symop_operation_xyz
x,y,z
-x,-y,-z
loop_
_atom_site_type_symbol
_atom_site_label
_atom_site_fract_x
_atom_site_fract_y
_atom_site_fract_z
Si Si1 0.634445 0.425343 0.106925
Si Si2 0.577498 0.112518 0.945361
Si Si3 0.625150 0.660894 0.700079
Si Si4 0.087828 0.092974 0.948345
Si Si5 0.769463 0.336219 0.767718
Si Si6 0.405083 0.668665 0.719337
Si Si7 0.925133 0.441195 0.742262
O O1 0.855075 0.726027 0.163714
O O2 0.700026 0.412804 0.279332
O O3 0.427782 0.432052 0.854917
O O4 0.567662 0.147611 0.141042
O O5 0.837087 0.253416 0.171436
O O6 0.558269 0.363357 0.756274
O O7 0.500000 0.000000 0.000000
O O8 0.406598 0.632004 0.434312
O O9 0.701660 0.681239 0.868267
O O10 0.843869 0.971265 0.749484
O O11 0.056960 0.802202 0.066952
O O12 0.828324 0.482824 0.671657
O O13 0.653912 0.991539 0.831321
O O14 0.000000 0.500000 0.000000
O O15 0.245981 0.685180 0.462388
#
# Coordination Sequence:
#
# PCOD8001257 Si02
#       7
#     2   2   2   2   2   2   2
#     4  11  23  43  67 104 144 178 223 293 345 410
#     4  11  24  43  67 105 143 174 224 288 354 408
#     4  10  22  41  74 101 135 181 231 285 343 412
#     4  10  19  42  76 100 130 182 238 277 341 416
#     4  12  24  44  72 105 135 179 241 290 336 406
#     4  11  24  43  71 101 138 182 238 284 342 406
#     4  11  23  44  73  97 131 193 236 277 340 412
#
# _framework density 22.481286999999998
#
# number of rings (size 3 to 8) (size 9 to 14) (size 15 to 20)
#    0.000    1.143    4.286    2.143    0.000    0.571 
#    5.143   10.714    0.000    0.000    0.000    0.000 
#    0.000    0.000    0.000    0.000    0.000    0.000 
#
# Total GULP energy -173595.654110 kJ/mol
# GULP energy per Si atom -12399.689579 kJ/mol
# Density = 2.243012 g / cm^3
# Si number density = 22.481287 Si / 1000 Ang^3
#
#
#
# Elastic Constant Matrix: (Units=GPa)
#
#
# Indices 1 2 3 4 5 6 
#
# 1 162.4387 51.7312 53.1189 5.1459 -9.0993 24.9560
# 2 51.7312 101.0473 40.9412 2.6810 -3.5762 7.4201
# 3 53.1189 40.9412 130.1131 14.8476 4.9061 9.6223
# 4 5.1459 2.6810 14.8476 23.4050 -0.5062 7.3436
# 5 -9.0993 -3.5762 4.9061 -0.5062 34.3712 -6.4192
# 6 24.9560 7.4201 9.6223 7.3436 -6.4192 49.1959
#
#
#
# Elastic Compliance Matrix: (Units=1/GPa)
#
#
# Indices 1 2 3 4 5 6 
#
# 1 0.008509 -0.003092 -0.002446 0.001112 0.001677 -0.003319
# 2 -0.003092 0.012639 -0.002882 0.001019 0.000960 0.000199
# 3 -0.002446 -0.002882 0.010331 -0.005802 -0.002470 0.000198
# 4 0.001112 0.001019 -0.005802 0.048157 0.000690 -0.006682
# 5 0.001677 0.000960 -0.002470 0.000690 0.030632 0.003382
# 6 -0.003319 0.000199 0.000198 -0.006682 0.003382 0.023380
#
#
# Mechanical properties :
#
#
# Convention : Reuss Voigt Hill
#
# Bulk Modulus (GPa) = 68.30176 76.13132 72.21654
# Shear Modulus (GPa) = 32.18157 37.91494 35.04826
#
# Velocity S-wave (km/s) = 3.78760 4.11117 3.95270
# Velocity P-wave (km/s) = 7.04098 7.51488 7.28179
#
# Compressibility (1/GPa) = 0.01464091
#
# Stress axis : x y z
#
# Youngs Moduli (GPa) = 117.52011 79.11882 96.79147
#
# Poissons Ratio (x) = 0.24462 0.23673
# Poissons Ratio (y) = 0.36335 0.27895
# Poissons Ratio (z) = 0.28742 0.22802
#
# Static dielectric constant tensor:
#      x y z
#    x 4.384910 0.160540 0.190300 
#    y 0.160540 4.157890 -0.018670 
#    z 0.190300 -0.018670 3.649900 
# 
# 
# High freq. dielectric constant tensor:
#      x y z
#    x 1.903930 0.006800 0.012340 
#    y 0.006800 1.887960 -0.004300 
#    z 0.012340 -0.004300 1.860450 
# 
# From -- ./inp_files/219031.got.cif
#   From: 2010.06.25/outbox.cif.g09.slc.cpg/sg2_110_cif.got.tgz:219031.got - 2010.06.27 13:26:56.
