data_PCOD8001337
_publ_section_title
;
Structure prediction by ZEFSAII (Michael W. Deem and Ramdas Pophale) SiO2 
 PCOD8001337
Probable space group: P -1
;
_chemical_formula_sum "Si O2"
_cell_formula_units_Z 16
_cell_length_a 22.609049
_cell_length_b 5.240852
_cell_length_c 13.354714
_cell_angle_alpha 107.727410
_cell_angle_beta 140.334491
_cell_angle_gamma 90.560476
_cell_volume 881.102071
_symmetry_space_group_name_H-M "P -1"
_symmetry_group_IT_number 2
_symmetry_cell_setting 'triclinic'
loop_
_space_group_symop_operation_xyz
x,y,z
-x,-y,-z
loop_
_atom_site_type_symbol
_atom_site_label
_atom_site_fract_x
_atom_site_fract_y
_atom_site_fract_z
Si Si1 0.628405 0.297874 0.370161
Si Si2 0.875239 0.144673 0.369112
Si Si3 0.422608 0.327777 0.793704
Si Si4 0.789919 0.617871 0.768949
Si Si5 0.853850 0.259908 0.974443
Si Si6 0.109958 0.435526 0.736915
Si Si7 0.943045 0.529887 0.832083
Si Si8 0.773343 0.104459 0.438903
O O1 0.563514 0.464780 0.259494
O O2 0.678046 0.435143 0.557351
O O3 0.716786 0.323472 0.408314
O O4 0.555994 0.952977 0.248549
O O5 0.852632 0.345188 0.281651
O O6 0.800733 0.106082 0.359387
O O7 0.989428 0.301913 0.575294
O O8 0.852888 0.825886 0.257125
O O9 0.306572 0.218298 0.670479
O O10 0.500000 0.500000 0.000000
O O11 0.814567 0.418067 0.858034
O O12 0.873135 0.699049 0.796541
O O13 0.788331 0.912438 0.848269
O O14 0.839894 0.386184 0.077359
O O15 0.970657 0.299539 0.116280
O O16 0.872281 0.215035 0.653349
O O17 0.000000 0.500000 0.000000
#
# Coordination Sequence:
#
# PCOD8001337 Si02
#       8
#     2   2   2   2   2   2   2   2
#     4   9  20  33  52  77 104 134 161 201 256 309
#     4  10  20  35  47  68  96 138 181 214 251 283
#     4  10  20  35  54  76 107 134 163 207 258 311
#     4  10  20  31  49  70 102 133 170 203 244 305
#     4  11  19  33  46  69 100 138 174 207 245 280
#     4  10  21  33  48  67  98 137 183 219 240 283
#     4   9  18  32  45  73 100 143 168 204 234 306
#     4   9  20  33  53  73 105 139 171 208 252 298
#
# _framework density 18.159075999999999
#
# number of rings (size 3 to 8) (size 9 to 14) (size 15 to 20)
#    0.750    1.500    1.250    2.250    3.500    0.000 
#    2.250    0.000    0.000    0.000    0.000    0.000 
#    0.000   20.000    0.000    0.000    0.000    0.000 
#
# Total GULP energy -198249.763037 kJ/mol
# GULP energy per Si atom -12390.610190 kJ/mol
# Density = 1.811775 g / cm^3
# Si number density = 18.159076 Si / 1000 Ang^3
#
#
#
# Elastic Constant Matrix: (Units=GPa)
#
#
# Indices 1 2 3 4 5 6 
#
# 1 29.7729 5.2642 8.8557 6.1068 -16.6365 -1.8381
# 2 5.2642 130.7030 49.8651 10.0106 -8.2824 -4.1433
# 3 8.8557 49.8651 131.4300 18.0890 -13.9711 -4.9549
# 4 6.1068 10.0106 18.0890 32.1356 -3.3450 -6.3084
# 5 -16.6365 -8.2824 -13.9711 -3.3450 21.9404 5.1844
# 6 -1.8381 -4.1433 -4.9549 -6.3084 5.1844 12.6467
#
#
#
# Elastic Compliance Matrix: (Units=1/GPa)
#
#
# Indices 1 2 3 4 5 6 
#
# 1 0.062817 0.000274 0.002009 -0.011063 0.051230 -0.016513
# 2 0.000274 0.009014 -0.003163 -0.000781 0.001278 0.000840
# 3 0.002009 -0.003163 0.009925 -0.004673 0.006361 -0.001795
# 4 -0.011063 -0.000781 -0.004673 0.038935 -0.010452 0.020011
# 5 0.051230 0.001278 0.006361 -0.010452 0.095388 -0.033960
# 6 -0.016513 0.000840 -0.001795 0.020011 -0.033960 0.100147
#
#
# Mechanical properties :
#
#
# Convention : Reuss Voigt Hill
#
# Bulk Modulus (GPa) = 12.50061 46.65287 29.57674
# Shear Modulus (GPa) = 14.50734 28.53926 21.52330
#
# Velocity S-wave (km/s) = 2.82955 3.96867 3.44650
# Velocity P-wave (km/s) = 4.19214 6.83721 5.67105
#
# Compressibility (1/GPa) = 0.07999608
#
# Stress axis : x y z
#
# Youngs Moduli (GPa) = 15.91915 110.93517 100.75387
#
# Poissons Ratio (x) = -0.03034 -0.20246
# Poissons Ratio (y) = -0.00435 0.31872
# Poissons Ratio (z) = -0.03199 0.35093
#
# Static dielectric constant tensor:
#      x y z
#    x 2.992600 -0.036980 -0.128590 
#    y -0.036980 3.312870 0.111040 
#    z -0.128590 0.111040 3.318420 
# 
# 
# High freq. dielectric constant tensor:
#      x y z
#    x 1.649110 -0.001780 -0.022960 
#    y -0.001780 1.704050 0.008460 
#    z -0.022960 0.008460 1.706260 
# 
# From -- ./inp_files/473304.got.cif
#   From: 2010.06.25/outbox.cif.g09.slc.cpg/sg2_237_cif.got.tgz:473304.got - 2010.06.27 13:26:56.
