data_PCOD8001771
_publ_section_title
;
Structure prediction by ZEFSAII (Michael W. Deem and Ramdas Pophale) SiO2 
 PCOD8001771
Probable space group: P -1
;
_chemical_formula_sum "Si O2"
_cell_formula_units_Z 14
_cell_length_a 19.441244
_cell_length_b 25.364762
_cell_length_c 7.408221
_cell_angle_alpha 136.604929
_cell_angle_beta 51.590443
_cell_angle_gamma 161.425975
_cell_volume 760.461205
_symmetry_space_group_name_H-M "P -1"
_symmetry_group_IT_number 2
_symmetry_cell_setting 'triclinic'
loop_
_space_group_symop_operation_xyz
x,y,z
-x,-y,-z
loop_
_atom_site_type_symbol
_atom_site_label
_atom_site_fract_x
_atom_site_fract_y
_atom_site_fract_z
Si Si1 0.670869 0.488813 0.727538
Si Si2 0.154445 0.099098 0.659791
Si Si3 0.862878 0.416168 0.764179
Si Si4 0.325121 0.792247 0.795893
Si Si5 0.785550 0.688691 0.338427
Si Si6 0.789620 0.414645 0.254567
Si Si7 0.678551 0.616192 0.734191
O O1 0.398680 0.264653 0.612853
O O2 0.773480 0.489252 0.520855
O O3 0.755468 0.615992 0.753596
O O4 0.780794 0.605388 0.027334
O O5 0.184352 0.194199 0.985521
O O6 0.000000 0.000000 0.500000
O O7 0.027200 0.925984 0.533253
O O8 0.678621 0.254189 0.506194
O O9 0.080247 0.632417 0.850505
O O10 0.953605 0.408199 0.681009
O O11 0.746501 0.371887 0.003009
O O12 0.387177 0.780230 0.823066
O O13 0.500000 0.000000 0.000000
O O14 0.728649 0.622418 0.471800
O O15 0.591555 0.586478 0.310578
#
# Coordination Sequence:
#
# PCOD8001771 Si02
#       7
#     2   2   2   2   2   2   2
#     4  11  21  35  52  81 110 135 176 228 259 302
#     4  11  18  36  57  73 108 144 177 215 264 312
#     4   8  18  38  57  75 105 144 169 209 265 322
#     4   9  17  35  60  79 100 138 179 208 257 323
#     4  10  20  36  55  75 103 144 181 215 262 311
#     4   9  19  37  54  79 110 136 174 219 264 307
#     4  10  20  34  56  76 100 145 182 213 261 316
#
# _framework density 18.409880999999999
#
# number of rings (size 3 to 8) (size 9 to 14) (size 15 to 20)
#    0.857    1.429    2.857    1.286    0.000    1.714 
#    2.571    0.000    0.000    0.000    0.000    0.000 
#    0.000    0.000    0.000    0.000    0.000    0.000 
#
# Total GULP energy -173499.866896 kJ/mol
# GULP energy per Si atom -12392.847635 kJ/mol
# Density = 1.836798 g / cm^3
# Si number density = 18.409881 Si / 1000 Ang^3
#
#
#
# Elastic Constant Matrix: (Units=GPa)
#
#
# Indices 1 2 3 4 5 6 
#
# 1 41.8644 26.5342 48.8454 -12.4280 9.9732 -13.5627
# 2 26.5342 67.7071 73.5352 6.2728 0.2518 -12.4153
# 3 48.8454 73.5352 156.8594 -12.5767 6.5048 -15.9926
# 4 -12.4280 6.2728 -12.5767 37.7733 -1.1595 5.3780
# 5 9.9732 0.2518 6.5048 -1.1595 32.8478 -5.5703
# 6 -13.5627 -12.4153 -15.9926 5.3780 -5.5703 22.9594
#
#
#
# Elastic Compliance Matrix: (Units=1/GPa)
#
#
# Indices 1 2 3 4 5 6 
#
# 1 0.050438 -0.009283 -0.008514 0.013097 -0.010866 0.013140
# 2 -0.009283 0.039020 -0.015960 -0.016050 0.006793 0.009907
# 3 -0.008514 -0.015960 0.016646 0.005886 -0.001007 -0.003688
# 4 0.013097 -0.016050 0.005886 0.036184 -0.004843 -0.006493
# 5 -0.010866 0.006793 -0.001007 -0.004843 0.034757 0.006121
# 6 0.013140 0.009907 -0.003688 -0.006493 0.006121 0.057112
#
#
# Mechanical properties :
#
#
# Convention : Reuss Voigt Hill
#
# Bulk Modulus (GPa) = 25.91405 62.69561 44.30483
# Shear Modulus (GPa) = 15.89660 26.55050 21.22355
#
# Velocity S-wave (km/s) = 2.94169 3.80173 3.39903
# Velocity P-wave (km/s) = 5.06407 7.30755 6.28669
#
# Compressibility (1/GPa) = 0.03858911
#
# Stress axis : x y z
#
# Youngs Moduli (GPa) = 19.82651 25.62798 60.07462
#
# Poissons Ratio (x) = 0.23792 0.51145
# Poissons Ratio (y) = 0.18406 0.95880
# Poissons Ratio (z) = 0.16879 0.40903
#
# Static dielectric constant tensor:
#      x y z
#    x 3.282130 -0.184700 0.285490 
#    y -0.184700 3.310960 0.035100 
#    z 0.285490 0.035100 3.382040 
# 
# 
# High freq. dielectric constant tensor:
#      x y z
#    x 1.696040 -0.024920 0.019920 
#    y -0.024920 1.697530 -0.002540 
#    z 0.019920 -0.002540 1.711370 
# 
# From -- ./inp_files/350202.got.cif
#   From: 2010.06.25/outbox.cif.g09.slc.cpg/sg2_176_cif.got.tgz:350202.got - 2010.06.27 13:26:56.
