data_PCOD8001729
_publ_section_title
;
Structure prediction by ZEFSAII (Michael W. Deem and Ramdas Pophale) SiO2 
 PCOD8001729
Probable space group: P -1
;
_chemical_formula_sum "Si O2"
_cell_formula_units_Z 16
_cell_length_a 7.551769
_cell_length_b 12.098690
_cell_length_c 9.048734
_cell_angle_alpha 70.623493
_cell_angle_beta 111.093494
_cell_angle_gamma 124.577805
_cell_volume 626.286721
_symmetry_space_group_name_H-M "P -1"
_symmetry_group_IT_number 2
_symmetry_cell_setting 'triclinic'
loop_
_space_group_symop_operation_xyz
x,y,z
-x,-y,-z
loop_
_atom_site_type_symbol
_atom_site_label
_atom_site_fract_x
_atom_site_fract_y
_atom_site_fract_z
Si Si1 0.050244 0.691385 0.217730
Si Si2 0.611726 0.320855 0.526911
Si Si3 0.594574 0.659795 0.069051
Si Si4 0.827695 0.073884 0.619922
Si Si5 0.410254 0.832679 0.687191
Si Si6 0.287966 0.115775 0.753716
Si Si7 0.158322 0.811929 0.883027
Si Si8 0.342966 0.374818 0.218538
O O1 0.152172 0.597324 0.349498
O O2 0.142824 0.812462 0.307869
O O3 0.787061 0.619401 0.162283
O O4 0.163587 0.753468 0.068691
O O5 0.667881 0.287513 0.398443
O O6 0.458666 0.188940 0.639890
O O7 0.479861 0.396633 0.404169
O O8 0.645945 0.791277 0.119466
O O9 0.377656 0.523102 0.122831
O O10 0.580699 0.682136 0.877518
O O11 0.707458 0.079817 0.431533
O O12 0.054740 0.086272 0.635864
O O13 0.674967 0.928776 0.718698
O O14 0.316573 0.777139 0.847659
O O15 0.267475 0.974373 0.856818
O O16 0.911281 0.733530 0.776771
#
# Coordination Sequence:
#
# PCOD8001729 Si02
#       8
#     2   2   2   2   2   2   2   2
#     4   9  21  38  56  87 123 154 193 247 301 352
#     4  11  23  37  60  91 122 158 201 247 301 355
#     4   9  22  44  64  86 121 157 200 250 298 355
#     4   9  18  33  52  80 119 155 191 240 294 345
#     4  10  20  34  54  84 125 158 191 243 299 352
#     4  11  22  37  62  91 120 157 203 248 295 355
#     4  11  22  37  62  90 122 160 199 243 299 356
#     4  10  22  42  66  89 116 159 204 246 297 358
#
# _framework density 25.547402999999999
#
# number of rings (size 3 to 8) (size 9 to 14) (size 15 to 20)
#    0.000    2.000    0.000    3.750    0.000   11.000 
#    0.000    1.250    0.000    4.500    0.000    0.000 
#    0.000    0.000    0.000    0.000    0.000    0.000 
#
# Total GULP energy -198267.939587 kJ/mol
# GULP energy per Si atom -12391.746224 kJ/mol
# Density = 2.548926 g / cm^3
# Si number density = 25.547403 Si / 1000 Ang^3
#
#
#
# Elastic Constant Matrix: (Units=GPa)
#
#
# Indices 1 2 3 4 5 6 
#
# 1 70.0883 -0.3783 20.8556 5.7746 -16.1681 13.5505
# 2 -0.3783 73.9712 12.9012 -2.7655 -17.0834 7.5898
# 3 20.8556 12.9012 119.1518 3.8804 14.3470 9.1262
# 4 5.7746 -2.7655 3.8804 25.5688 4.8317 -6.5833
# 5 -16.1681 -17.0834 14.3470 4.8317 41.7607 2.9261
# 6 13.5505 7.5898 9.1262 -6.5833 2.9261 18.9759
#
#
#
# Elastic Compliance Matrix: (Units=1/GPa)
#
#
# Indices 1 2 3 4 5 6 
#
# 1 0.026999 0.007796 -0.005223 -0.015339 0.019185 -0.028166
# 2 0.007796 0.018723 -0.003674 -0.005724 0.013680 -0.015384
# 3 -0.005223 -0.003674 0.010428 0.001017 -0.007342 0.001669
# 4 -0.015339 -0.005724 0.001017 0.053838 -0.017247 0.034091
# 5 0.019185 0.013680 -0.007342 -0.017247 0.043473 -0.028327
# 6 -0.028166 -0.015384 0.001669 0.034091 -0.028327 0.094357
#
#
# Mechanical properties :
#
#
# Convention : Reuss Voigt Hill
#
# Bulk Modulus (GPa) = 18.53658 36.66314 27.59986
# Shear Modulus (GPa) = 18.65655 32.58327 25.61991
#
# Velocity S-wave (km/s) = 2.70529 3.57515 3.17020
# Velocity P-wave (km/s) = 4.12669 5.60575 4.92210
#
# Compressibility (1/GPa) = 0.05394738
#
# Stress axis : x y z
#
# Youngs Moduli (GPa) = 37.03887 53.40919 95.89736
#
# Poissons Ratio (x) = -0.41638 0.50087
# Poissons Ratio (y) = -0.28876 0.35236
# Poissons Ratio (z) = 0.19345 0.19624
#
# Static dielectric constant tensor:
#      x y z
#    x 4.861180 0.244830 0.307680 
#    y 0.244830 4.169960 0.131510 
#    z 0.307680 0.131510 5.079240 
# 
# 
# High freq. dielectric constant tensor:
#      x y z
#    x 2.025820 0.013670 0.006130 
#    y 0.013670 1.991210 0.005760 
#    z 0.006130 0.005760 2.039110 
# 
# From -- ./inp_files/206479.got.cif
#   From: 2010.06.25/outbox.cif.g09.slc.cpg/sg2_104_cif.got.tgz:206479.got - 2010.06.27 13:26:56.
