data_PCOD8001540
_publ_section_title
;
Structure prediction by ZEFSAII (Michael W. Deem and Ramdas Pophale) SiO2 
 PCOD8001540
Probable space group: P -1
;
_chemical_formula_sum "Si O2"
_cell_formula_units_Z 14
_cell_length_a 19.092646
_cell_length_b 12.062404
_cell_length_c 18.400111
_cell_angle_alpha 138.523905
_cell_angle_beta 160.701526
_cell_angle_gamma 31.970429
_cell_volume 708.790050
_symmetry_space_group_name_H-M "P -1"
_symmetry_group_IT_number 2
_symmetry_cell_setting 'triclinic'
loop_
_space_group_symop_operation_xyz
x,y,z
-x,-y,-z
loop_
_atom_site_type_symbol
_atom_site_label
_atom_site_fract_x
_atom_site_fract_y
_atom_site_fract_z
Si Si1 0.080941 0.194584 0.454334
Si Si2 0.302222 0.337114 0.630413
Si Si3 0.190251 0.165135 0.309507
Si Si4 0.914533 0.377821 0.999110
Si Si5 0.623152 0.256492 0.429967
Si Si6 0.204025 0.480293 0.248298
Si Si7 0.065966 0.953764 0.894406
O O1 0.285069 0.221290 0.626605
O O2 0.840698 0.414332 0.369272
O O3 0.235914 0.997023 0.568254
O O4 0.942109 0.138760 0.234425
O O5 0.148211 0.336551 0.409861
O O6 0.614856 0.208171 0.848517
O O7 0.500000 0.000000 0.500000
O O8 0.123191 0.028060 0.218557
O O9 0.953483 0.306710 0.085837
O O10 0.609160 0.604518 0.792271
O O11 0.961613 0.197210 0.902428
O O12 0.157363 0.392451 0.231097
O O13 0.507506 0.308514 0.425741
O O14 0.839012 0.303116 0.663693
O O15 0.000000 0.500000 0.000000
#
# Coordination Sequence:
#
# PCOD8001540 Si02
#       7
#     2   2   2   2   2   2   2
#     4  10  21  38  59  87 115 152 190 233 285 344
#     4  10  22  39  60  83 118 151 193 237 278 342
#     4  11  24  38  58  87 114 151 195 239 287 341
#     4  11  22  34  57  86 116 148 187 237 291 339
#     4  10  20  33  54  83 119 147 187 232 285 342
#     4   9  18  32  51  83 115 150 181 230 282 334
#     4  11  21  36  61  87 112 149 190 242 292 332
#
# _framework density 19.75197
#
# number of rings (size 3 to 8) (size 9 to 14) (size 15 to 20)
#    0.000    1.714    1.429    4.286    4.000    1.143 
#    0.000    0.714    0.000    1.714    0.000    0.000 
#    0.000    0.000    0.000    0.000    0.000    0.000 
#
# Total GULP energy -173527.154501 kJ/mol
# GULP energy per Si atom -12394.796750 kJ/mol
# Density = 1.970701 g / cm^3
# Si number density = 19.751970 Si / 1000 Ang^3
#
#
#
# Elastic Constant Matrix: (Units=GPa)
#
#
# Indices 1 2 3 4 5 6 
#
# 1 60.4487 36.8887 29.3245 2.0861 -3.5423 7.9048
# 2 36.8887 146.7463 45.3311 5.6657 -3.3651 20.8773
# 3 29.3245 45.3311 93.0485 5.1589 1.5689 12.1782
# 4 2.0861 5.6657 5.1589 28.8287 7.9553 -1.1411
# 5 -3.5423 -3.3651 1.5689 7.9553 38.4817 2.5270
# 6 7.9048 20.8773 12.1782 -1.1411 2.5270 24.1937
#
#
#
# Elastic Compliance Matrix: (Units=1/GPa)
#
#
# Indices 1 2 3 4 5 6 
#
# 1 0.021423 -0.003589 -0.004774 -0.000639 0.002100 -0.001749
# 2 -0.003589 0.009467 -0.002637 -0.001735 0.001351 -0.005893
# 3 -0.004774 -0.002637 0.014061 -0.001587 -0.000702 -0.003244
# 4 -0.000639 -0.001735 -0.001587 0.037856 -0.008311 0.005159
# 5 0.002100 0.001351 -0.000702 -0.008311 0.028363 -0.004853
# 6 -0.001749 -0.005893 -0.003244 0.005159 -0.004853 0.049373
#
#
# Mechanical properties :
#
#
# Convention : Reuss Voigt Hill
#
# Bulk Modulus (GPa) = 43.56973 58.14802 50.85887
# Shear Modulus (GPa) = 26.28913 30.88076 28.58495
#
# Velocity S-wave (km/s) = 3.65219 3.95831 3.80833
# Velocity P-wave (km/s) = 6.31593 7.09887 6.71882
#
# Compressibility (1/GPa) = 0.02295171
#
# Stress axis : x y z
#
# Youngs Moduli (GPa) = 46.67917 105.62553 71.12077
#
# Poissons Ratio (x) = 0.37907 0.33954
# Poissons Ratio (y) = 0.16752 0.18752
# Poissons Ratio (z) = 0.22285 0.27849
#
# Static dielectric constant tensor:
#      x y z
#    x 3.713230 0.309140 0.230590 
#    y 0.309140 3.673970 0.270280 
#    z 0.230590 0.270280 3.698590 
# 
# 
# High freq. dielectric constant tensor:
#      x y z
#    x 1.748340 0.022780 0.002330 
#    y 0.022780 1.761510 0.019250 
#    z 0.002330 0.019250 1.776840 
# 
# From -- ./inp_files/65442.got.cif
#   From: 2010.06.25/outbox.cif.g09.slc.cpg/sg2_33_cif.got.tgz:65442.got - 2010.06.27 13:26:56.
