data_PCOD8001943
_publ_section_title
;
Structure prediction by ZEFSAII (Michael W. Deem and Ramdas Pophale) SiO2 
 PCOD8001943
Probable space group: P -1
;
_chemical_formula_sum "Si O2"
_cell_formula_units_Z 16
_cell_length_a 18.935186
_cell_length_b 16.304367
_cell_length_c 25.357442
_cell_angle_alpha 161.464751
_cell_angle_beta 160.745360
_cell_angle_gamma 29.435124
_cell_volume 798.525962
_symmetry_space_group_name_H-M "P -1"
_symmetry_group_IT_number 2
_symmetry_cell_setting 'triclinic'
loop_
_space_group_symop_operation_xyz
x,y,z
-x,-y,-z
loop_
_atom_site_type_symbol
_atom_site_label
_atom_site_fract_x
_atom_site_fract_y
_atom_site_fract_z
Si Si1 0.662468 0.989914 0.348799
Si Si2 0.780765 0.525339 0.090688
Si Si3 0.247207 0.100872 0.169235
Si Si4 0.730467 0.334719 0.504449
Si Si5 0.933523 0.732833 0.128047
Si Si6 0.599950 0.007946 0.017980
Si Si7 0.561334 0.500973 0.809551
Si Si8 0.763886 0.937316 0.743270
O O1 0.427894 0.943882 0.184133
O O2 0.681043 0.209026 0.450221
O O3 0.853453 0.085677 0.584213
O O4 0.660050 0.702255 0.148827
O O5 0.030682 0.693723 0.363754
O O6 0.672404 0.466359 0.921582
O O7 0.762623 0.246304 0.936592
O O8 0.274001 0.357604 0.307300
O O9 0.280104 0.195251 0.310926
O O10 0.003117 0.913447 0.875913
O O11 0.553415 0.196413 0.253167
O O12 0.834739 0.925944 0.136838
O O13 0.752242 0.609217 0.968123
O O14 0.000000 0.500000 0.000000
O O15 0.608249 0.305591 0.184690
O O16 0.500000 0.000000 0.000000
O O17 0.422750 0.213203 0.519377
#
# Coordination Sequence:
#
# PCOD8001943 Si02
#       8
#     2   2   2   2   2   2   2   2
#     4  12  22  39  65  94 126 150 206 259 312 361
#     4  11  22  38  63  92 120 168 202 252 303 364
#     4  10  23  40  62  88 116 167 204 254 298 367
#     4  11  20  39  63  92 126 156 201 251 315 370
#     4  11  23  37  61  98 127 154 194 259 318 359
#     4  10  20  34  60  88 124 161 194 245 306 365
#     4  11  20  40  60  87 123 162 207 245 303 369
#     4  10  23  42  61  83 124 168 215 238 301 364
#
# _framework density 20.036919000000001
#
# number of rings (size 3 to 8) (size 9 to 14) (size 15 to 20)
#    0.000    1.250    2.500    5.625    0.000    2.500 
#    0.000    1.875    0.000    0.000    0.000    0.000 
#    0.000    0.000    0.000    0.000    0.000    0.000 
#
# Total GULP energy -198418.556180 kJ/mol
# GULP energy per Si atom -12401.159761 kJ/mol
# Density = 1.999131 g / cm^3
# Si number density = 20.036919 Si / 1000 Ang^3
#
#
#
# Elastic Constant Matrix: (Units=GPa)
#
#
# Indices 1 2 3 4 5 6 
#
# 1 54.2849 40.7535 37.7124 -10.0176 -0.1976 -17.0293
# 2 40.7535 117.5010 36.9909 -16.8973 6.9632 -12.1497
# 3 37.7124 36.9909 89.2794 -11.7755 -2.3586 -11.9838
# 4 -10.0176 -16.8973 -11.7755 27.2887 5.9670 -1.0139
# 5 -0.1976 6.9632 -2.3586 5.9670 27.7679 -5.1393
# 6 -17.0293 -12.1497 -11.9838 -1.0139 -5.1393 40.8060
#
#
#
# Elastic Compliance Matrix: (Units=1/GPa)
#
#
# Indices 1 2 3 4 5 6 
#
# 1 0.034484 -0.007543 -0.009587 0.003704 0.002324 0.009714
# 2 -0.007543 0.012610 -0.001485 0.005383 -0.004548 -0.000268
# 3 -0.009587 -0.001485 0.016282 0.002325 0.001291 0.000559
# 4 0.003704 0.005383 0.002325 0.044675 -0.010046 0.003676
# 5 0.002324 -0.004548 0.001291 -0.010046 0.040331 0.004825
# 6 0.009714 -0.000268 0.000559 0.003676 0.004825 0.029343
#
#
# Mechanical properties :
#
#
# Convention : Reuss Voigt Hill
#
# Bulk Modulus (GPa) = 38.24678 54.66431 46.45555
# Shear Modulus (GPa) = 22.35448 28.87975 25.61712
#
# Velocity S-wave (km/s) = 3.34378 3.80060 3.57948
# Velocity P-wave (km/s) = 5.83416 6.82645 6.34972
#
# Compressibility (1/GPa) = 0.02614599
#
# Stress axis : x y z
#
# Youngs Moduli (GPa) = 28.99935 79.30260 61.41935
#
# Poissons Ratio (x) = 0.59814 0.58884
# Poissons Ratio (y) = 0.21873 0.09119
# Poissons Ratio (z) = 0.27802 0.11775
#
# Static dielectric constant tensor:
#      x y z
#    x 3.512730 0.047030 -0.055670 
#    y 0.047030 4.170440 -0.161980 
#    z -0.055670 -0.161980 3.556250 
# 
# 
# High freq. dielectric constant tensor:
#      x y z
#    x 1.769360 0.004220 -0.012020 
#    y 0.004220 1.802190 -0.009410 
#    z -0.012020 -0.009410 1.775870 
# 
# From -- ./inp_files/184825.got.cif
#   From: 2010.06.25/outbox.cif.g09.slc.cpg/sg2_93_cif.got.tgz:184825.got - 2010.06.27 13:26:56.
