data_PCOD8001100
_publ_section_title
;
Structure prediction by ZEFSAII (Michael W. Deem and Ramdas Pophale) SiO2 
 PCOD8001100
Probable space group: P -1
;
_chemical_formula_sum "Si O2"
_cell_formula_units_Z 16
_cell_length_a 8.717717
_cell_length_b 12.475815
_cell_length_c 8.478997
_cell_angle_alpha 73.142504
_cell_angle_beta 128.727266
_cell_angle_gamma 90.307532
_cell_volume 669.093226
_symmetry_space_group_name_H-M "P -1"
_symmetry_group_IT_number 2
_symmetry_cell_setting 'triclinic'
loop_
_space_group_symop_operation_xyz
x,y,z
-x,-y,-z
loop_
_atom_site_type_symbol
_atom_site_label
_atom_site_fract_x
_atom_site_fract_y
_atom_site_fract_z
Si Si1 0.076980 0.055536 0.335482
Si Si2 0.411376 0.054491 0.757440
Si Si3 0.299760 0.796720 0.117565
Si Si4 0.676314 0.623584 0.974308
Si Si5 0.934186 0.177082 0.719967
Si Si6 0.681077 0.868005 0.819613
Si Si7 0.501281 0.563055 0.216182
Si Si8 0.912081 0.427521 0.599697
O O1 0.167200 0.072237 0.563504
O O2 0.204924 0.114974 0.273037
O O3 0.109821 0.919183 0.384106
O O4 0.842334 0.124917 0.140766
O O5 0.480518 0.174203 0.743119
O O6 0.499714 0.976550 0.695523
O O7 0.500000 0.000000 0.000000
O O8 0.192302 0.825192 0.202207
O O9 0.341575 0.662056 0.162224
O O10 0.582214 0.614132 0.089988
O O11 0.923174 0.600041 0.142599
O O12 0.593791 0.753023 0.799630
O O13 0.618411 0.533638 0.857307
O O14 0.881274 0.306299 0.556951
O O15 0.171397 0.143208 0.928949
O O16 0.691768 0.504183 0.476092
O O17 0.000000 0.500000 0.500000
#
# Coordination Sequence:
#
# PCOD8001100 Si02
#       8
#     2   2   2   2   2   2   2   2
#     4  11  23  42  67  92 125 178 209 255 330 385
#     4  12  25  39  62  97 130 162 212 267 319 374
#     4  11  23  42  60  97 135 159 216 272 309 379
#     4   9  20  38  62  88 122 173 216 252 314 383
#     4  10  20  41  68  90 126 174 215 259 316 383
#     4  10  19  41  66  91 128 165 217 263 309 388
#     4  10  21  38  60  91 128 171 210 259 318 374
#     4   9  20  38  61  90 121 163 214 259 302 373
#
# _framework density 23.912960999999999
#
# number of rings (size 3 to 8) (size 9 to 14) (size 15 to 20)
#    0.000    1.750    2.500    1.875    1.750    2.000 
#    2.250    8.125    0.000    0.000    0.000    0.000 
#    0.000    0.000    0.000    0.000    0.000    0.000 
#
# Total GULP energy -198337.289270 kJ/mol
# GULP energy per Si atom -12396.080579 kJ/mol
# Density = 2.385853 g / cm^3
# Si number density = 23.912961 Si / 1000 Ang^3
#
#
#
# Elastic Constant Matrix: (Units=GPa)
#
#
# Indices 1 2 3 4 5 6 
#
# 1 32.7528 28.8501 12.9078 6.1878 14.9509 1.4027
# 2 28.8501 149.1497 40.9699 3.3409 18.3070 27.2587
# 3 12.9078 40.9699 100.5678 8.9461 19.2539 2.0344
# 4 6.1878 3.3409 8.9461 37.3484 5.5976 4.9855
# 5 14.9509 18.3070 19.2539 5.5976 33.2840 -8.5469
# 6 1.4027 27.2587 2.0344 4.9855 -8.5469 39.4383
#
#
#
# Elastic Compliance Matrix: (Units=1/GPa)
#
#
# Indices 1 2 3 4 5 6 
#
# 1 0.044235 -0.006699 0.000440 -0.004523 -0.015623 0.000220
# 2 -0.006699 0.010658 -0.002827 0.002471 -0.003713 -0.008099
# 3 0.000440 -0.002827 0.012217 -0.002014 -0.005263 0.000422
# 4 -0.004523 0.002471 -0.002014 0.029308 -0.004674 -0.006161
# 5 -0.015623 -0.003713 -0.005263 -0.004674 0.046548 0.014072
# 6 0.000220 -0.008099 0.000422 -0.006161 0.014072 0.034753
#
#
# Mechanical properties :
#
#
# Convention : Reuss Voigt Hill
#
# Bulk Modulus (GPa) = 20.43355 49.76953 35.10154
# Shear Modulus (GPa) = 23.56230 35.33032 29.44631
#
# Velocity S-wave (km/s) = 3.14241 3.84794 3.51293
# Velocity P-wave (km/s) = 4.66153 6.37182 5.58256
#
# Compressibility (1/GPa) = 0.04893912
#
# Stress axis : x y z
#
# Youngs Moduli (GPa) = 22.60636 93.83014 81.85346
#
# Poissons Ratio (x) = 0.62853 -0.03605
# Poissons Ratio (y) = 0.15143 0.23141
# Poissons Ratio (z) = -0.00996 0.26527
#
# Static dielectric constant tensor:
#      x y z
#    x 4.222410 0.263730 0.462930 
#    y 0.263730 4.440570 -0.085160 
#    z 0.462930 -0.085160 4.741510 
# 
# 
# High freq. dielectric constant tensor:
#      x y z
#    x 1.937750 0.025580 0.020020 
#    y 0.025580 1.952040 -0.008010 
#    z 0.020020 -0.008010 1.945240 
# 
# From -- ./inp_files/187062.got.cif
#   From: 2010.06.25/outbox.cif.g09.slc.cpg/sg2_94_cif.got.tgz:187062.got - 2010.06.27 13:26:56.
