data_PCOD8001339
_publ_section_title
;
Structure prediction by ZEFSAII (Michael W. Deem and Ramdas Pophale) SiO2 
 PCOD8001339
Probable space group: P -1
;
_chemical_formula_sum "Si O2"
_cell_formula_units_Z 16
_cell_length_a 5.161054
_cell_length_b 14.127485
_cell_length_c 14.701043
_cell_angle_alpha 71.889493
_cell_angle_beta 70.400559
_cell_angle_gamma 64.852240
_cell_volume 896.096262
_symmetry_space_group_name_H-M "P -1"
_symmetry_group_IT_number 2
_symmetry_cell_setting 'triclinic'
loop_
_space_group_symop_operation_xyz
x,y,z
-x,-y,-z
loop_
_atom_site_type_symbol
_atom_site_label
_atom_site_fract_x
_atom_site_fract_y
_atom_site_fract_z
Si Si1 0.649174 0.648213 0.809094
Si Si2 0.349073 0.414633 0.555936
Si Si3 0.131196 0.766672 0.120886
Si Si4 0.288607 0.435907 0.364000
Si Si5 0.934457 0.414961 0.912977
Si Si6 0.983600 0.715788 0.894088
Si Si7 0.487297 0.623652 0.261812
Si Si8 0.606374 0.874625 0.031715
O O1 0.741903 0.634611 0.696033
O O2 0.721172 0.533866 0.883018
O O3 0.823955 0.714389 0.817622
O O4 0.305386 0.715154 0.834588
O O5 0.500000 0.500000 0.500000
O O6 0.382640 0.361022 0.466692
O O7 0.500426 0.338404 0.646033
O O8 0.011924 0.468981 0.606916
O O9 0.238162 0.665628 0.068772
O O10 0.186297 0.710807 0.230965
O O11 0.324467 0.840452 0.067785
O O12 0.789844 0.836752 0.116251
O O13 0.504151 0.500326 0.293240
O O14 0.233854 0.376966 0.829983
O O15 0.009611 0.390007 0.018324
O O16 0.817754 0.823740 0.936753
O O17 0.500000 0.000000 0.000000
#
# Coordination Sequence:
#
# PCOD8001339 Si02
#       8
#     2   2   2   2   2   2   2   2
#     4  12  22  33  51  76 116 148 183 210 256 315
#     4   9  19  32  49  70 105 154 194 213 260 300
#     4  11  20  34  58  80 103 140 184 221 271 318
#     4  10  20  31  49  74 108 159 182 220 256 305
#     4  11  21  33  50  76 117 147 180 213 260 302
#     4  11  24  34  51  77 104 146 188 217 261 327
#     4  11  17  33  53  76 112 143 186 227 254 307
#     4  11  24  42  57  73 104 141 186 241 282 311
#
# _framework density 17.855224
#
# number of rings (size 3 to 8) (size 9 to 14) (size 15 to 20)
#    0.000    1.250    5.000    3.375    1.750    0.000 
#    0.000    0.000    0.000    0.000    0.000    0.000 
#    0.000    6.000    0.000    0.000    0.000    0.000 
#
# Total GULP energy -198233.357930 kJ/mol
# GULP energy per Si atom -12389.584871 kJ/mol
# Density = 1.781458 g / cm^3
# Si number density = 17.855224 Si / 1000 Ang^3
#
#
#
# Elastic Constant Matrix: (Units=GPa)
#
#
# Indices 1 2 3 4 5 6 
#
# 1 112.6030 21.9224 35.9400 4.1014 18.8838 3.5902
# 2 21.9224 60.1040 9.0327 3.2978 10.3460 -2.9100
# 3 35.9400 9.0327 86.9371 19.4271 31.1567 1.7184
# 4 4.1014 3.2978 19.4271 17.5669 5.1046 2.2366
# 5 18.8838 10.3460 31.1567 5.1046 42.1625 -0.6636
# 6 3.5902 -2.9100 1.7184 2.2366 -0.6636 17.6837
#
#
#
# Elastic Compliance Matrix: (Units=1/GPa)
#
#
# Indices 1 2 3 4 5 6 
#
# 1 0.011209 -0.003534 -0.004635 0.003910 -0.001248 -0.002948
# 2 -0.003534 0.018724 0.001636 -0.003939 -0.003681 0.004000
# 3 -0.004635 0.001636 0.022139 -0.020310 -0.012208 0.001169
# 4 0.003910 -0.003939 -0.020310 0.079088 0.004502 -0.009302
# 5 -0.001248 -0.003681 -0.012208 0.004502 0.033681 0.001529
# 6 -0.002948 0.004000 0.001169 -0.009302 0.001529 0.058926
#
#
# Mechanical properties :
#
#
# Convention : Reuss Voigt Hill
#
# Bulk Modulus (GPa) = 25.63710 43.71493 34.67601
# Shear Modulus (GPa) = 20.01305 28.33254 24.17280
#
# Velocity S-wave (km/s) = 3.35154 3.98778 3.68342
# Velocity P-wave (km/s) = 5.41910 6.76308 6.12805
#
# Compressibility (1/GPa) = 0.03900598
#
# Stress axis : x y z
#
# Youngs Moduli (GPa) = 89.21372 53.40612 45.16846
#
# Poissons Ratio (x) = 0.18875 0.20935
# Poissons Ratio (y) = 0.31531 -0.07389
# Poissons Ratio (z) = 0.41350 -0.08736
#
# Static dielectric constant tensor:
#      x y z
#    x 3.697600 0.001560 0.466450 
#    y 0.001560 2.845470 0.125100 
#    z 0.466450 0.125100 3.618830 
# 
# 
# High freq. dielectric constant tensor:
#      x y z
#    x 1.725400 0.001900 0.012910 
#    y 0.001900 1.617250 0.013150 
#    z 0.012910 0.013150 1.682930 
# 
# From -- ./inp_files/119159.got.cif
#   From: 2010.06.25/outbox.cif.g09.slc.cpg/sg2_60_cif.got.tgz:119159.got - 2010.06.27 13:26:56.
