data_PCOD8001167
_publ_section_title
;
Structure prediction by ZEFSAII (Michael W. Deem and Ramdas Pophale) SiO2 
 PCOD8001167
Probable space group: P -1
;
_chemical_formula_sum "Si O2"
_cell_formula_units_Z 14
_cell_length_a 9.042346
_cell_length_b 8.771188
_cell_length_c 21.172550
_cell_angle_alpha 44.062409
_cell_angle_beta 133.521209
_cell_angle_gamma 99.137295
_cell_volume 631.401057
_symmetry_space_group_name_H-M "P -1"
_symmetry_group_IT_number 2
_symmetry_cell_setting 'triclinic'
loop_
_space_group_symop_operation_xyz
x,y,z
-x,-y,-z
loop_
_atom_site_type_symbol
_atom_site_label
_atom_site_fract_x
_atom_site_fract_y
_atom_site_fract_z
Si Si1 0.398413 0.514186 0.755860
Si Si2 0.012290 0.425963 0.290212
Si Si3 0.267513 0.849654 0.493831
Si Si4 0.784194 0.187508 0.160825
Si Si5 0.678862 0.381448 0.650672
Si Si6 0.062378 0.713026 0.948120
Si Si7 0.480696 0.029985 0.061013
O O1 0.280002 0.757434 0.596210
O O2 0.150849 0.619180 0.697237
O O3 0.514149 0.221827 0.837536
O O4 0.641401 0.453376 0.885093
O O5 0.105668 0.576976 0.309882
O O6 0.266058 0.116274 0.424125
O O7 0.810232 0.643271 0.108185
O O8 0.505215 0.578667 0.601920
O O9 0.969986 0.009676 0.329336
O O10 0.940983 0.227125 0.144816
O O11 0.732096 0.985358 0.176246
O O12 0.500000 0.500000 0.000000
O O13 0.500000 0.500000 0.500000
O O14 0.828310 0.041830 0.811067
O O15 0.000000 0.500000 0.000000
O O16 0.500000 0.000000 0.000000
#
# Coordination Sequence:
#
# PCOD8001167 Si02
#       7
#     2   2   2   2   2   2   2
#     4  11  24  46  73 107 135 185 241 291 344 412
#     4  11  22  47  76  97 142 189 235 284 349 426
#     4  12  27  42  71 112 144 180 234 291 358 416
#     4  12  23  46  72 106 134 184 240 289 347 419
#     4  12  27  47  69 104 148 190 229 284 360 424
#     4  12  26  47  72 102 146 185 231 292 356 412
#     4  10  19  41  74  94 134 183 230 279 346 410
#
# _framework density 22.172910999999999
#
# number of rings (size 3 to 8) (size 9 to 14) (size 15 to 20)
#    0.000    0.571    7.143    1.714    2.000    3.429 
#    0.000    0.000    0.000    0.000    0.000    0.000 
#    0.000    0.000    0.000    0.000    0.000    0.000 
#
# Total GULP energy -173486.229178 kJ/mol
# GULP energy per Si atom -12391.873513 kJ/mol
# Density = 2.212244 g / cm^3
# Si number density = 22.172911 Si / 1000 Ang^3
#
#
#
# Elastic Constant Matrix: (Units=GPa)
#
#
# Indices 1 2 3 4 5 6 
#
# 1 44.0693 41.0072 35.4259 -4.9361 13.2441 6.2803
# 2 41.0072 144.9870 55.5960 -11.3607 -3.5902 22.8493
# 3 35.4259 55.5960 137.4685 -8.8867 -2.7073 0.2078
# 4 -4.9361 -11.3607 -8.8867 60.4807 -10.6780 4.2456
# 5 13.2441 -3.5902 -2.7073 -10.6780 33.2233 -2.5813
# 6 6.2803 22.8493 0.2078 4.2456 -2.5813 38.4186
#
#
#
# Elastic Compliance Matrix: (Units=1/GPa)
#
#
# Indices 1 2 3 4 5 6 
#
# 1 0.044593 -0.009858 -0.008092 -0.002869 -0.020614 -0.002451
# 2 -0.009858 0.011527 -0.001852 0.002402 0.005398 -0.005137
# 3 -0.008092 -0.001852 0.010263 0.001100 0.004413 0.002544
# 4 -0.002869 0.002402 0.001100 0.018360 0.007199 -0.002511
# 5 -0.020614 0.005398 0.004413 0.007199 0.041740 0.002145
# 6 -0.002451 -0.005137 0.002544 -0.002511 0.002145 0.029893
#
#
# Mechanical properties :
#
#
# Convention : Reuss Voigt Hill
#
# Bulk Modulus (GPa) = 37.34465 65.62033 51.48249
# Shear Modulus (GPa) = 24.40123 39.39088 31.89605
#
# Velocity S-wave (km/s) = 3.32097 4.21946 3.79689
# Velocity P-wave (km/s) = 5.61998 7.30736 6.51850
#
# Compressibility (1/GPa) = 0.02677760
#
# Stress axis : x y z
#
# Youngs Moduli (GPa) = 22.42494 86.75265 97.43707
#
# Poissons Ratio (x) = 0.85524 0.78851
# Poissons Ratio (y) = 0.22107 0.18045
# Poissons Ratio (z) = 0.18147 0.16066
#
# Static dielectric constant tensor:
#      x y z
#    x 3.706970 0.103160 0.019240 
#    y 0.103160 4.873670 -0.511750 
#    z 0.019240 -0.511750 4.729750 
# 
# 
# High freq. dielectric constant tensor:
#      x y z
#    x 1.839320 -0.001990 0.007700 
#    y -0.001990 1.895710 -0.010880 
#    z 0.007700 -0.010880 1.893170 
# 
# From -- ./inp_files/557730.got.cif
#   From: 2010.06.25/outbox.cif.g09.slc.cpg/sg2_279_cif.got.tgz:557730.got - 2010.06.27 13:26:56.
