data_PCOD8001705
_publ_section_title
;
Structure prediction by ZEFSAII (Michael W. Deem and Ramdas Pophale) SiO2 
 PCOD8001705
Probable space group: P -1
;
_chemical_formula_sum "Si O2"
_cell_formula_units_Z 10
_cell_length_a 6.700831
_cell_length_b 15.776958
_cell_length_c 6.360222
_cell_angle_alpha 94.501808
_cell_angle_beta 88.901407
_cell_angle_gamma 45.984059
_cell_volume 479.503600
_symmetry_space_group_name_H-M "P -1"
_symmetry_group_IT_number 2
_symmetry_cell_setting 'triclinic'
loop_
_space_group_symop_operation_xyz
x,y,z
-x,-y,-z
loop_
_atom_site_type_symbol
_atom_site_label
_atom_site_fract_x
_atom_site_fract_y
_atom_site_fract_z
Si Si1 0.947358 0.830039 0.949632
Si Si2 0.559587 0.227026 0.311283
Si Si3 0.030650 0.366954 0.044088
Si Si4 0.204374 0.420527 0.669019
Si Si5 0.417611 0.971347 0.696531
O O1 0.069566 0.700499 0.975034
O O2 0.668429 0.901651 0.839401
O O3 0.172444 0.815989 0.816219
O O4 0.866857 0.904750 0.177440
O O5 0.306046 0.299568 0.165732
O O6 0.494120 0.305142 0.532766
O O7 0.635616 0.111137 0.374864
O O8 0.777143 0.499608 0.172338
O O9 0.090149 0.377566 0.806446
O O10 0.000000 0.500000 0.500000
O O11 0.500000 0.000000 0.500000
#
# Coordination Sequence:
#
# PCOD8001705 Si02
#       5
#     2   2   2   2   2
#     4  10  21  35  53  77 103 134 172 210 252 302
#     4  10  20  34  54  78 102 134 173 208 250 303
#     4   9  19  36  53  74 106 136 166 209 254 299
#     4   9  18  35  55  75 104 136 167 209 255 299
#     4  10  21  36  53  75 105 136 168 211 256 298
#
# _framework density 20.854901000000002
#
# number of rings (size 3 to 8) (size 9 to 14) (size 15 to 20)
#    0.000    2.400    0.000    1.800    0.000    3.200 
#    0.000    9.000    0.000    0.000    0.000    0.000 
#    0.000    0.000    0.000    0.000    0.000    0.000 
#
# Total GULP energy -123958.508066 kJ/mol
# GULP energy per Si atom -12395.850807 kJ/mol
# Density = 2.080743 g / cm^3
# Si number density = 20.854901 Si / 1000 Ang^3
#
#
#
# Elastic Constant Matrix: (Units=GPa)
#
#
# Indices 1 2 3 4 5 6 
#
# 1 71.5872 56.6234 29.9427 19.2200 -35.3030 21.0848
# 2 56.6234 146.7450 75.8326 30.4046 -28.6302 45.5823
# 3 29.9427 75.8326 142.6642 25.9855 -44.2647 16.9831
# 4 19.2200 30.4046 25.9855 53.8570 -5.1593 -7.4906
# 5 -35.3030 -28.6302 -44.2647 -5.1593 36.6329 -8.9718
# 6 21.0848 45.5823 16.9831 -7.4906 -8.9718 28.3564
#
#
#
# Elastic Compliance Matrix: (Units=1/GPa)
#
#
# Indices 1 2 3 4 5 6 
#
# 1 0.056365 -0.001419 0.017295 -0.027074 0.061030 -0.037831
# 2 -0.001419 0.029584 -0.006143 -0.019959 -0.000281 -0.048182
# 3 0.017295 -0.006143 0.019187 -0.009870 0.031951 -0.006974
# 4 -0.027074 -0.019959 -0.009870 0.049754 -0.031603 0.061270
# 5 0.061030 -0.000281 0.031951 -0.031603 0.110909 -0.037321
# 6 -0.037831 -0.048182 -0.006974 0.061270 -0.037321 0.149400
#
#
# Mechanical properties :
#
#
# Convention : Reuss Voigt Hill
#
# Bulk Modulus (GPa) = 8.02566 76.19931 42.11248
# Shear Modulus (GPa) = 11.43465 37.00911 24.22188
#
# Velocity S-wave (km/s) = 2.34411 4.21717 3.41170
# Velocity P-wave (km/s) = 3.34412 7.76723 5.97968
#
# Compressibility (1/GPa) = 0.12460040
#
# Stress axis : x y z
#
# Youngs Moduli (GPa) = 17.74136 33.80235 52.11943
#
# Poissons Ratio (x) = 0.04797 -0.90140
# Poissons Ratio (y) = 0.02518 0.32019
# Poissons Ratio (z) = -0.30683 0.20766
#
# Static dielectric constant tensor:
#      x y z
#    x 3.364700 0.305520 -0.059510 
#    y 0.305520 4.488310 0.332020 
#    z -0.059510 0.332020 4.094560 
# 
# 
# High freq. dielectric constant tensor:
#      x y z
#    x 1.777440 0.018440 -0.013790 
#    y 0.018440 1.839350 0.009110 
#    z -0.013790 0.009110 1.829890 
# 
# From -- ./inp_files/1441.got.cif
#   From: 2010.06.25/outbox.cif.g09.slc.cpg/sg2_1_cif.got.tgz:1441.got - 2010.06.27 13:26:56.
