data_PCOD8001554
_publ_section_title
;
Structure prediction by ZEFSAII (Michael W. Deem and Ramdas Pophale) SiO2 
 PCOD8001554
Probable space group: P -1
;
_chemical_formula_sum "Si O2"
_cell_formula_units_Z 16
_cell_length_a 28.069013
_cell_length_b 14.280341
_cell_length_c 8.464176
_cell_angle_alpha 58.717785
_cell_angle_beta 46.490065
_cell_angle_gamma 21.225319
_cell_volume 787.894221
_symmetry_space_group_name_H-M "P -1"
_symmetry_group_IT_number 2
_symmetry_cell_setting 'triclinic'
loop_
_space_group_symop_operation_xyz
x,y,z
-x,-y,-z
loop_
_atom_site_type_symbol
_atom_site_label
_atom_site_fract_x
_atom_site_fract_y
_atom_site_fract_z
Si Si1 0.279376 0.969574 0.787795
Si Si2 0.970619 0.174333 0.407611
Si Si3 0.047928 0.185793 0.930529
Si Si4 0.601575 0.093123 0.699751
Si Si5 0.818409 0.982946 0.730560
Si Si6 0.624375 0.301692 0.590280
Si Si7 0.665718 0.664243 0.901139
Si Si8 0.855685 0.532450 0.768106
O O1 0.320114 0.021731 0.559505
O O2 0.444047 0.637206 0.658713
O O3 0.101498 0.200218 0.913228
O O4 0.247702 0.016293 0.007378
O O5 0.776351 0.505085 0.625697
O O6 0.121895 0.005487 0.308707
O O7 0.000000 0.000000 0.500000
O O8 0.977573 0.194413 0.189055
O O9 0.893783 0.471434 0.920881
O O10 0.214168 0.891545 0.702538
O O11 0.607023 0.201085 0.676446
O O12 0.707422 0.848727 0.786667
O O13 0.402823 0.354407 0.908780
O O14 0.972745 0.696907 0.520199
O O15 0.659164 0.263393 0.732281
O O16 0.797992 0.497334 0.884382
O O17 0.500000 0.000000 0.000000
#
# Coordination Sequence:
#
# PCOD8001554 Si02
#       8
#     2   2   2   2   2   2   2   2
#     4  10  20  33  55  81 114 144 179 232 275 329
#     4  10  21  36  61  84 108 151 191 227 279 335
#     4   9  19  35  55  81 108 141 184 237 269 317
#     4  10  20  34  58  79 105 154 184 217 283 340
#     4   9  20  37  53  80 116 141 177 242 269 316
#     4  10  20  35  56  81 116 144 180 231 280 328
#     4   9  20  39  56  79 115 149 182 233 277 326
#     4   9  19  39  56  78 111 147 189 227 273 326
#
# _framework density 20.307295
#
# number of rings (size 3 to 8) (size 9 to 14) (size 15 to 20)
#    0.000    2.500    0.000    1.875    5.250    5.000 
#    2.250    9.375    0.000    0.000    0.000    0.000 
#    0.000    0.000    0.000    0.000    0.000    0.000 
#
# Total GULP energy -198241.204765 kJ/mol
# GULP energy per Si atom -12390.075298 kJ/mol
# Density = 2.026107 g / cm^3
# Si number density = 20.307295 Si / 1000 Ang^3
#
#
#
# Elastic Constant Matrix: (Units=GPa)
#
#
# Indices 1 2 3 4 5 6 
#
# 1 73.0267 36.4140 53.0279 -13.4594 2.8426 -14.3206
# 2 36.4140 80.3264 42.8772 -12.8306 -0.9937 -11.2147
# 3 53.0279 42.8772 158.8342 -20.3040 2.4597 -14.0767
# 4 -13.4594 -12.8306 -20.3040 32.8660 -4.4022 8.4846
# 5 2.8426 -0.9937 2.4597 -4.4022 31.2728 -2.5532
# 6 -14.3206 -11.2147 -14.0767 8.4846 -2.5532 26.4215
#
#
#
# Elastic Compliance Matrix: (Units=1/GPa)
#
#
# Indices 1 2 3 4 5 6 
#
# 1 0.021851 -0.006211 -0.004839 0.001862 -0.001057 0.005929
# 2 -0.006211 0.017089 -0.002051 0.002547 0.001803 0.002151
# 3 -0.004839 -0.002051 0.008828 0.002581 0.000075 0.000389
# 4 0.001862 0.002547 0.002581 0.036354 0.004189 -0.007804
# 5 -0.001057 0.001803 0.000075 0.004189 0.032882 0.002065
# 6 0.005929 0.002151 0.000389 -0.007804 0.002065 0.044887
#
#
# Mechanical properties :
#
#
# Convention : Reuss Voigt Hill
#
# Bulk Modulus (GPa) = 46.36705 64.09174 55.22939
# Shear Modulus (GPa) = 25.60394 30.10329 27.85362
#
# Velocity S-wave (km/s) = 3.55466 3.85436 3.70754
# Velocity P-wave (km/s) = 6.30316 7.17200 6.75157
#
# Compressibility (1/GPa) = 0.02156704
#
# Stress axis : x y z
#
# Youngs Moduli (GPa) = 45.76405 58.51685 113.27166
#
# Poissons Ratio (x) = 0.36343 0.54809
# Poissons Ratio (y) = 0.28423 0.23237
# Poissons Ratio (z) = 0.22144 0.12004
#
# Static dielectric constant tensor:
#      x y z
#    x 3.801220 -0.337730 -0.152500 
#    y -0.337730 3.508630 0.000990 
#    z -0.152500 0.000990 4.225660 
# 
# 
# High freq. dielectric constant tensor:
#      x y z
#    x 1.777630 -0.021360 0.001480 
#    y -0.021360 1.774050 0.003070 
#    z 0.001480 0.003070 1.806710 
# 
# From -- ./inp_files/320042.got.cif
#   From: 2010.06.25/outbox.cif.g09.slc.cpg/sg2_161_cif.got.tgz:320042.got - 2010.06.27 13:26:56.
