data_PCOD8001977
_publ_section_title
;
Structure prediction by ZEFSAII (Michael W. Deem and Ramdas Pophale) SiO2 
 PCOD8001977
Probable space group: P -1
;
_chemical_formula_sum "Si O2"
_cell_formula_units_Z 16
_cell_length_a 9.707118
_cell_length_b 31.474504
_cell_length_c 5.041223
_cell_angle_alpha 61.999019
_cell_angle_beta 77.435406
_cell_angle_gamma 34.099206
_cell_volume 715.347095
_symmetry_space_group_name_H-M "P -1"
_symmetry_group_IT_number 2
_symmetry_cell_setting 'triclinic'
loop_
_space_group_symop_operation_xyz
x,y,z
-x,-y,-z
loop_
_atom_site_type_symbol
_atom_site_label
_atom_site_fract_x
_atom_site_fract_y
_atom_site_fract_z
Si Si1 0.917681 0.623423 0.919157
Si Si2 0.581616 0.631811 0.064525
Si Si3 0.630710 0.737645 0.216740
Si Si4 0.989907 0.254806 0.593130
Si Si5 0.618067 0.992684 0.718004
Si Si6 0.815778 0.203558 0.909972
Si Si7 0.567805 0.572202 0.733807
Si Si8 0.669563 0.829652 0.788848
O O1 0.791547 0.696232 0.545465
O O2 0.811640 0.600598 0.959714
O O3 0.838635 0.660898 0.136688
O O4 0.233132 0.530020 0.034377
O O5 0.674462 0.579568 0.450905
O O6 0.320693 0.738690 0.929044
O O7 0.528611 0.607823 0.932536
O O8 0.389879 0.769758 0.248817
O O9 0.523668 0.821735 0.946817
O O10 0.721909 0.362482 0.431351
O O11 0.142697 0.235323 0.346565
O O12 0.902766 0.225103 0.638668
O O13 0.160187 0.201145 0.944441
O O14 0.931616 0.901667 0.832622
O O15 0.500000 0.000000 0.500000
O O16 0.541644 0.070668 0.509190
O O17 0.500000 0.000000 0.000000
#
# Coordination Sequence:
#
# PCOD8001977 Si02
#       8
#     2   2   2   2   2   2   2   2
#     4  11  21  40  59  91 129 174 214 254 318 374
#     4  10  20  34  61  93 133 160 209 271 319 359
#     4  11  26  41  65  90 136 171 206 261 320 382
#     4  11  22  40  66  91 129 164 218 262 314 368
#     4  12  24  41  71  98 125 157 214 265 310 385
#     4  10  22  42  66  99 123 165 213 258 321 371
#     4  11  21  35  62  95 124 170 217 268 303 370
#     4  12  24  45  62  95 129 171 205 261 327 372
#
# _framework density 22.366762999999999
#
# number of rings (size 3 to 8) (size 9 to 14) (size 15 to 20)
#    0.000    1.000    2.500    6.000    0.000    3.500 
#    0.000    3.750    0.000    6.750    0.000    0.000 
#    0.000    0.000    0.000    0.000    0.000    0.000 
#
# Total GULP energy -198395.036374 kJ/mol
# GULP energy per Si atom -12399.689773 kJ/mol
# Density = 2.231585 g / cm^3
# Si number density = 22.366763 Si / 1000 Ang^3
#
#
#
# Elastic Constant Matrix: (Units=GPa)
#
#
# Indices 1 2 3 4 5 6 
#
# 1 49.9429 17.5532 21.3158 -6.0099 3.5469 0.4989
# 2 17.5532 87.5544 46.6198 -14.6482 9.9142 -9.3704
# 3 21.3158 46.6198 124.3702 -2.3751 4.3413 -6.2293
# 4 -6.0099 -14.6482 -2.3751 50.5563 -0.6858 7.1416
# 5 3.5469 9.9142 4.3413 -0.6858 27.3152 -3.9925
# 6 0.4989 -9.3704 -6.2293 7.1416 -3.9925 22.2415
#
#
#
# Elastic Compliance Matrix: (Units=1/GPa)
#
#
# Indices 1 2 3 4 5 6 
#
# 1 0.022686 -0.002787 -0.002912 0.002230 -0.001936 -0.003562
# 2 -0.002787 0.016187 -0.005202 0.003557 -0.004078 0.003551
# 3 -0.002912 -0.005202 0.010506 -0.001555 0.000770 0.001454
# 4 0.002230 0.003557 -0.001555 0.021872 -0.001708 -0.006316
# 5 -0.001936 -0.004078 0.000770 -0.001708 0.039068 0.006102
# 6 -0.003562 0.003551 0.001454 -0.006316 0.006102 0.050067
#
#
# Mechanical properties :
#
#
# Convention : Reuss Voigt Hill
#
# Bulk Modulus (GPa) = 36.26052 48.09390 42.17721
# Shear Modulus (GPa) = 26.12603 31.78119 28.95361
#
# Velocity S-wave (km/s) = 3.42142 3.77359 3.60181
# Velocity P-wave (km/s) = 5.64403 6.36676 6.01626
#
# Compressibility (1/GPa) = 0.02757820
#
# Stress axis : x y z
#
# Youngs Moduli (GPa) = 44.07910 61.77797 95.18613
#
# Poissons Ratio (x) = 0.17216 0.27717
# Poissons Ratio (y) = 0.12284 0.49515
# Poissons Ratio (z) = 0.12835 0.32136
#
# Static dielectric constant tensor:
#      x y z
#    x 3.894230 -0.190010 0.103900 
#    y -0.190010 4.493460 -0.512060 
#    z 0.103900 -0.512060 4.494390 
# 
# 
# High freq. dielectric constant tensor:
#      x y z
#    x 1.861230 -0.001210 0.001460 
#    y -0.001210 1.878560 0.002280 
#    z 0.001460 0.002280 1.891550 
# 
# From -- ./inp_files/56712.got.cif
#   From: 2010.06.25/outbox.cif.g09.slc.cpg/sg2_29_cif.got.tgz:56712.got - 2010.06.27 13:26:56.
