data_PCOD8001471
_publ_section_title
;
Structure prediction by ZEFSAII (Michael W. Deem and Ramdas Pophale) SiO2 
 PCOD8001471
Probable space group: P -1
;
_chemical_formula_sum "Si O2"
_cell_formula_units_Z 16
_cell_length_a 12.461450
_cell_length_b 11.961971
_cell_length_c 15.202817
_cell_angle_alpha 53.519689
_cell_angle_beta 151.460997
_cell_angle_gamma 108.752717
_cell_volume 742.116973
_symmetry_space_group_name_H-M "P -1"
_symmetry_group_IT_number 2
_symmetry_cell_setting 'triclinic'
loop_
_space_group_symop_operation_xyz
x,y,z
-x,-y,-z
loop_
_atom_site_type_symbol
_atom_site_label
_atom_site_fract_x
_atom_site_fract_y
_atom_site_fract_z
Si Si1 0.306593 0.709452 0.688037
Si Si2 0.206049 0.055084 0.427120
Si Si3 0.165382 0.020103 0.219088
Si Si4 0.176749 0.604675 0.464968
Si Si5 0.427519 0.350325 0.359043
Si Si6 0.044522 0.385279 0.208960
Si Si7 0.892635 0.456945 0.260442
Si Si8 0.232907 0.073061 0.057056
O O1 0.292549 0.614727 0.636977
O O2 0.161934 0.679611 0.678381
O O3 0.156741 0.906128 0.475287
O O4 0.615689 0.629934 0.968695
O O5 0.988261 0.238078 0.216166
O O6 0.230094 0.078357 0.328974
O O7 0.453812 0.021576 0.680612
O O8 0.390909 0.832669 0.457959
O O9 0.164932 0.124972 0.087217
O O10 0.876544 0.041244 0.000725
O O11 0.386774 0.572670 0.553000
O O12 0.094985 0.469105 0.467175
O O13 0.897535 0.768749 0.170793
O O14 0.319773 0.351050 0.379117
O O15 0.184664 0.444333 0.073940
O O16 0.052622 0.398552 0.312583
#
# Coordination Sequence:
#
# PCOD8001471 Si02
#       8
#     2   2   2   2   2   2   2   2
#     4  11  23  43  68  90 113 166 221 259 292 353
#     4  12  21  38  63  90 129 160 201 255 308 358
#     4  10  20  37  60  89 127 159 212 244 288 373
#     4  11  21  41  68  93 119 156 217 260 295 358
#     4  10  21  40  61  93 127 162 202 242 309 375
#     4  11  24  38  61  95 133 164 189 249 324 376
#     4  11  24  43  66  88 123 163 213 256 304 362
#     4  10  20  32  60  96 116 158 202 252 301 355
#
# _framework density 21.559943000000001
#
# number of rings (size 3 to 8) (size 9 to 14) (size 15 to 20)
#    0.000    1.250    6.250    0.750    0.000    2.000 
#    2.250    0.000    0.000    1.500    0.000    0.000 
#    0.000    0.000    0.000    0.000    0.000    0.000 
#
# Total GULP energy -198251.890496 kJ/mol
# GULP energy per Si atom -12390.743156 kJ/mol
# Density = 2.151087 g / cm^3
# Si number density = 21.559943 Si / 1000 Ang^3
#
#
#
# Elastic Constant Matrix: (Units=GPa)
#
#
# Indices 1 2 3 4 5 6 
#
# 1 96.0443 26.4771 12.0722 3.6902 2.4114 3.8831
# 2 26.4771 70.0817 20.6979 14.5238 10.3617 4.9698
# 3 12.0722 20.6979 55.2042 14.8138 -4.1276 -6.6634
# 4 3.6902 14.5238 14.8138 30.6991 6.0139 -2.6909
# 5 2.4114 10.3617 -4.1276 6.0139 26.0767 -1.0525
# 6 3.8831 4.9698 -6.6634 -2.6909 -1.0525 20.9614
#
#
#
# Elastic Compliance Matrix: (Units=1/GPa)
#
#
# Indices 1 2 3 4 5 6 
#
# 1 0.011757 -0.004117 -0.001519 0.001136 -0.000016 -0.001540
# 2 -0.004117 0.020641 -0.007007 -0.004954 -0.008087 -0.007401
# 3 -0.001519 -0.007007 0.025577 -0.009918 0.009635 0.009284
# 4 0.001136 -0.004954 -0.009918 0.041604 -0.009193 0.002691
# 5 -0.000016 -0.008087 0.009635 -0.009193 0.045454 0.006085
# 6 -0.001540 -0.007401 0.009284 0.002691 0.006085 0.053349
#
#
# Mechanical properties :
#
#
# Convention : Reuss Voigt Hill
#
# Bulk Modulus (GPa) = 30.59287 37.75828 34.17558
# Shear Modulus (GPa) = 21.31618 26.35298 23.83458
#
# Velocity S-wave (km/s) = 3.14776 3.49995 3.32852
# Velocity P-wave (km/s) = 5.23753 5.82100 5.53696
#
# Compressibility (1/GPa) = 0.03268735
#
# Stress axis : x y z
#
# Youngs Moduli (GPa) = 85.05741 48.44734 39.09830
#
# Poissons Ratio (x) = 0.19945 0.05940
# Poissons Ratio (y) = 0.35017 0.27397
# Poissons Ratio (z) = 0.12923 0.33949
#
# Static dielectric constant tensor:
#      x y z
#    x 3.952290 0.251760 -0.078730 
#    y 0.251760 3.888320 0.150360 
#    z -0.078730 0.150360 3.971430 
# 
# 
# High freq. dielectric constant tensor:
#      x y z
#    x 1.829940 0.017770 -0.014960 
#    y 0.017770 1.832090 0.013060 
#    z -0.014960 0.013060 1.841690 
# 
# From -- ./inp_files/270270.got.cif
#   From: 2010.06.25/outbox.cif.g09.slc.cpg/sg2_136_cif.got.tgz:270270.got - 2010.06.27 13:26:56.
