data_PCOD8001847
_publ_section_title
;
Structure prediction by ZEFSAII (Michael W. Deem and Ramdas Pophale) SiO2 
 PCOD8001847
Probable space group: P -1
;
_chemical_formula_sum "Si O2"
_cell_formula_units_Z 16
_cell_length_a 15.648541
_cell_length_b 15.838419
_cell_length_c 7.614319
_cell_angle_alpha 61.250909
_cell_angle_beta 139.106214
_cell_angle_gamma 140.392565
_cell_volume 764.035389
_symmetry_space_group_name_H-M "P -1"
_symmetry_group_IT_number 2
_symmetry_cell_setting 'triclinic'
loop_
_space_group_symop_operation_xyz
x,y,z
-x,-y,-z
loop_
_atom_site_type_symbol
_atom_site_label
_atom_site_fract_x
_atom_site_fract_y
_atom_site_fract_z
Si Si1 0.672390 0.480001 0.109568
Si Si2 0.719979 0.804715 0.265408
Si Si3 0.257242 0.258393 0.014134
Si Si4 0.708794 0.211449 0.704861
Si Si5 0.101572 0.401446 0.986578
Si Si6 0.033839 0.148928 0.104506
Si Si7 0.647390 0.380499 0.546190
Si Si8 0.668127 0.980381 0.886552
O O1 0.703073 0.434658 0.378451
O O2 0.468271 0.354173 0.837446
O O3 0.695916 0.604432 0.069472
O O4 0.821066 0.520297 0.157929
O O5 0.875048 0.870027 0.586654
O O6 0.799813 0.816197 0.186907
O O7 0.680690 0.898989 0.123140
O O8 0.086677 0.145426 0.992100
O O9 0.435316 0.297485 0.332345
O O10 0.678207 0.282016 0.724060
O O11 0.540468 0.122965 0.397290
O O12 0.721148 0.113070 0.919884
O O13 0.892145 0.326894 0.759653
O O14 0.123837 0.299247 0.125654
O O15 0.222076 0.497667 0.240271
O O16 0.811436 0.034377 0.894040
#
# Coordination Sequence:
#
# PCOD8001847 Si02
#       8
#     2   2   2   2   2   2   2   2
#     4  10  20  34  57  89 118 142 178 232 289 336
#     4  11  19  36  58  87 113 147 183 230 285 332
#     4  10  20  34  57  89 118 142 178 232 289 336
#     4  10  21  39  58  79 113 155 193 228 272 326
#     4  10  21  36  60  87 113 146 184 231 281 334
#     4  10  21  36  60  87 113 146 184 231 281 334
#     4  11  19  36  58  87 113 147 183 230 285 332
#     4  10  21  39  58  79 113 155 193 228 272 326
#
# _framework density 20.941438000000002
#
# number of rings (size 3 to 8) (size 9 to 14) (size 15 to 20)
#    0.000    1.750    2.500    4.500    0.000    3.000 
#    0.000    0.000    0.000    4.500    0.000    0.000 
#    0.000    0.000    0.000    0.000    0.000    0.000 
#
# Total GULP energy -198346.169662 kJ/mol
# GULP energy per Si atom -12396.635604 kJ/mol
# Density = 2.089377 g / cm^3
# Si number density = 20.941438 Si / 1000 Ang^3
#
#
#
# Elastic Constant Matrix: (Units=GPa)
#
#
# Indices 1 2 3 4 5 6 
#
# 1 58.0303 16.6662 26.8522 6.9897 10.6592 6.2025
# 2 16.6662 45.4845 13.9522 -8.6700 6.9317 -1.9966
# 3 26.8522 13.9522 52.5449 -8.2380 7.0826 5.6866
# 4 6.9897 -8.6700 -8.2380 26.6200 -4.2120 9.1770
# 5 10.6592 6.9317 7.0826 -4.2120 27.7978 -0.5745
# 6 6.2025 -1.9966 5.6866 9.1770 -0.5745 21.3116
#
#
#
# Elastic Compliance Matrix: (Units=1/GPa)
#
#
# Indices 1 2 3 4 5 6 
#
# 1 0.029814 -0.008318 -0.014752 -0.016923 -0.008132 0.001548
# 2 -0.008318 0.027710 -0.001373 0.010168 -0.001810 0.000956
# 3 -0.014752 -0.001373 0.030744 0.016918 0.000495 -0.011311
# 4 -0.016923 0.010168 0.016918 0.060265 0.008271 -0.024364
# 5 -0.008132 -0.001810 0.000495 0.008271 0.040662 -0.000401
# 6 0.001548 0.000956 -0.011311 -0.024364 -0.000401 0.060061
#
#
# Mechanical properties :
#
#
# Convention : Reuss Voigt Hill
#
# Bulk Modulus (GPa) = 25.39085 30.11122 27.75104
# Shear Modulus (GPa) = 16.06333 21.71848 18.89091
#
# Velocity S-wave (km/s) = 2.77259 3.22391 3.00673
# Velocity P-wave (km/s) = 4.73294 5.31677 5.03333
#
# Compressibility (1/GPa) = 0.03938426
#
# Stress axis : x y z
#
# Youngs Moduli (GPa) = 33.54152 36.08765 32.52646
#
# Poissons Ratio (x) = 0.30017 0.47983
# Poissons Ratio (y) = 0.27899 0.04464
# Poissons Ratio (z) = 0.49480 0.04953
#
# Static dielectric constant tensor:
#      x y z
#    x 3.858710 -0.072070 0.341020 
#    y -0.072070 4.202980 -0.119330 
#    z 0.341020 -0.119330 3.603170 
# 
# 
# High freq. dielectric constant tensor:
#      x y z
#    x 1.806690 -0.006400 0.024810 
#    y -0.006400 1.841710 0.003090 
#    z 0.024810 0.003090 1.804070 
# 
# From -- ./inp_files/312903.got.cif
#   From: 2010.06.25/outbox.cif.g09.slc.cpg/sg2_157_cif.got.tgz:312903.got - 2010.06.27 13:26:56.
