data_PCOD8001513
_publ_section_title
;
Structure prediction by ZEFSAII (Michael W. Deem and Ramdas Pophale) SiO2 
 PCOD8001513
Probable space group: P -1
;
_chemical_formula_sum "Si O2"
_cell_formula_units_Z 16
_cell_length_a 9.236674
_cell_length_b 11.263397
_cell_length_c 14.469580
_cell_angle_alpha 103.479624
_cell_angle_beta 137.045028
_cell_angle_gamma 58.049693
_cell_volume 838.863420
_symmetry_space_group_name_H-M "P -1"
_symmetry_group_IT_number 2
_symmetry_cell_setting 'triclinic'
loop_
_space_group_symop_operation_xyz
x,y,z
-x,-y,-z
loop_
_atom_site_type_symbol
_atom_site_label
_atom_site_fract_x
_atom_site_fract_y
_atom_site_fract_z
Si Si1 0.746717 0.276619 0.039077
Si Si2 0.366256 0.427715 0.035594
Si Si3 0.877509 0.487565 0.724078
Si Si4 0.028770 0.327656 0.584887
Si Si5 0.757612 0.789498 0.656674
Si Si6 0.545215 0.253101 0.765790
Si Si7 0.519873 0.506396 0.711892
Si Si8 0.649504 0.910477 0.430661
O O1 0.589025 0.288194 0.059166
O O2 0.038454 0.204677 0.184384
O O3 0.623429 0.435852 0.966561
O O4 0.708022 0.187693 0.924641
O O5 0.422940 0.407935 0.168207
O O6 0.098084 0.448409 0.892989
O O7 0.968842 0.354543 0.671058
O O8 0.790914 0.633598 0.651703
O O9 0.637862 0.512242 0.671643
O O10 0.776693 0.423460 0.425817
O O11 0.243211 0.363470 0.669369
O O12 0.155191 0.158424 0.578073
O O13 0.794978 0.822541 0.575315
O O14 0.479508 0.916785 0.587309
O O15 0.641025 0.338883 0.766905
O O16 0.576672 0.119099 0.696841
#
# Coordination Sequence:
#
# PCOD8001513 Si02
#       8
#     2   2   2   2   2   2   2   2
#     4   9  16  29  53  77  97 133 170 209 249 292
#     4   9  17  30  48  76 108 130 162 209 255 298
#     4  11  21  33  51  80 107 131 165 211 255 301
#     4  10  20  34  52  75 101 135 173 207 249 293
#     4  10  20  33  53  78 105 127 170 215 252 296
#     4   9  19  33  52  76 101 132 171 210 245 297
#     4  11  20  30  52  80 104 136 164 207 258 302
#     4   9  20  35  52  75 102 133 169 217 247 288
#
# _framework density 19.073426999999999
#
# number of rings (size 3 to 8) (size 9 to 14) (size 15 to 20)
#    0.750    1.500    1.250    2.625    3.500    0.500 
#    0.000    0.625    0.000    1.500    0.000   10.500 
#    0.000    0.000    0.000    0.000    0.000    0.000 
#
# Total GULP energy -198222.197215 kJ/mol
# GULP energy per Si atom -12388.887326 kJ/mol
# Density = 1.903001 g / cm^3
# Si number density = 19.073427 Si / 1000 Ang^3
#
#
#
# Elastic Constant Matrix: (Units=GPa)
#
#
# Indices 1 2 3 4 5 6 
#
# 1 74.6721 25.2102 26.9278 -8.4017 -1.9884 -16.0287
# 2 25.2102 46.1419 17.7024 2.4810 -7.2511 -19.1545
# 3 26.9278 17.7024 89.8334 14.5628 -16.0861 -9.7493
# 4 -8.4017 2.4810 14.5628 19.9542 -6.5938 -2.4403
# 5 -1.9884 -7.2511 -16.0861 -6.5938 21.5771 6.3914
# 6 -16.0287 -19.1545 -9.7493 -2.4403 6.3914 20.3293
#
#
#
# Elastic Compliance Matrix: (Units=1/GPa)
#
#
# Indices 1 2 3 4 5 6 
#
# 1 0.022237 -0.006005 -0.007521 0.015612 -0.004200 0.011462
# 2 -0.006005 0.038435 -0.001986 -0.001705 0.001521 0.029843
# 3 -0.007521 -0.001986 0.016980 -0.012984 0.008480 -0.003884
# 4 0.015612 -0.001705 -0.012984 0.070860 0.009918 0.009864
# 5 -0.004200 0.001521 0.008480 0.009918 0.060451 -0.015626
# 6 0.011462 0.029843 -0.003884 0.009864 -0.015626 0.090581
#
#
# Mechanical properties :
#
#
# Convention : Reuss Voigt Hill
#
# Bulk Modulus (GPa) = 21.44733 38.92533 30.18633
# Shear Modulus (GPa) = 14.44627 21.75927 18.10277
#
# Velocity S-wave (km/s) = 2.75508 3.38126 3.08410
# Velocity P-wave (km/s) = 4.62489 5.97464 5.34257
#
# Compressibility (1/GPa) = 0.04662586
#
# Stress axis : x y z
#
# Youngs Moduli (GPa) = 44.97066 26.01826 58.89419
#
# Poissons Ratio (x) = 0.15624 0.44296
# Poissons Ratio (y) = 0.27005 0.11698
# Poissons Ratio (z) = 0.33823 0.05168
#
# Static dielectric constant tensor:
#      x y z
#    x 3.180170 -0.291440 -0.101630 
#    y -0.291440 3.186750 0.257710 
#    z -0.101630 0.257710 3.577170 
# 
# 
# High freq. dielectric constant tensor:
#      x y z
#    x 1.712690 -0.032580 -0.005930 
#    y -0.032580 1.703500 0.021530 
#    z -0.005930 0.021530 1.758070 
# 
# From -- ./inp_files/499214.got.cif
#   From: 2010.06.25/outbox.cif.g09.slc.cpg/sg2_250_cif.got.tgz:499214.got - 2010.06.27 13:26:56.
