data_PCOD8001997
_publ_section_title
;
Structure prediction by ZEFSAII (Michael W. Deem and Ramdas Pophale) SiO2 
 PCOD8001997
Probable space group: P -1
;
_chemical_formula_sum "Si O2"
_cell_formula_units_Z 16
_cell_length_a 13.558827
_cell_length_b 13.977309
_cell_length_c 13.887307
_cell_angle_alpha 20.567564
_cell_angle_beta 43.755317
_cell_angle_gamma 43.114612
_cell_volume 623.607080
_symmetry_space_group_name_H-M "P -1"
_symmetry_group_IT_number 2
_symmetry_cell_setting 'triclinic'
loop_
_space_group_symop_operation_xyz
x,y,z
-x,-y,-z
loop_
_atom_site_type_symbol
_atom_site_label
_atom_site_fract_x
_atom_site_fract_y
_atom_site_fract_z
Si Si1 0.435658 0.154842 0.665831
Si Si2 0.551921 0.652986 0.723764
Si Si3 0.221632 0.837354 0.050544
Si Si4 0.825776 0.148564 0.335992
Si Si5 0.259140 0.939201 0.729348
Si Si6 0.702640 0.735830 0.937910
Si Si7 0.862064 0.788654 0.964158
Si Si8 0.788866 0.382963 0.543661
O O1 0.511785 0.158802 0.503537
O O2 0.382517 0.452127 0.478649
O O3 0.539148 0.926398 0.874098
O O4 0.272793 0.093690 0.823274
O O5 0.622331 0.356627 0.908244
O O6 0.403136 0.670189 0.877091
O O7 0.674054 0.786964 0.565576
O O8 0.140117 0.689169 0.328848
O O9 0.149840 0.916027 0.920176
O O10 0.834629 0.055555 0.305301
O O11 0.980818 0.216559 0.187978
O O12 0.806328 0.890097 0.657394
O O13 0.702444 0.429374 0.182483
O O14 0.759478 0.693714 0.046189
O O15 0.784888 0.097495 0.761596
O O16 0.883394 0.561070 0.249631
#
# Coordination Sequence:
#
# PCOD8001997 Si02
#       8
#     2   2   2   2   2   2   2   2
#     4  10  21  39  68 103 136 169 212 285 332 395
#     4   9  18  34  60  97 141 164 209 269 342 396
#     4  10  20  38  64  95 138 170 211 270 333 393
#     4  12  26  45  69 101 135 172 225 276 329 401
#     4  10  20  34  63 100 130 174 211 268 340 394
#     4  12  26  44  71 102 132 167 225 287 341 383
#     4  12  26  48  69  91 134 188 226 270 322 389
#     4  11  24  46  68  96 134 181 227 267 324 397
#
# _framework density 25.657181999999999
#
# number of rings (size 3 to 8) (size 9 to 14) (size 15 to 20)
#    0.000    1.250    2.500    3.375    3.500    1.000 
#    0.000    1.250    0.000    0.000    0.000    0.000 
#    0.000    0.000    0.000    0.000    0.000    0.000 
#
# Total GULP energy -198286.204989 kJ/mol
# GULP energy per Si atom -12392.887812 kJ/mol
# Density = 2.559878 g / cm^3
# Si number density = 25.657182 Si / 1000 Ang^3
#
#
#
# Elastic Constant Matrix: (Units=GPa)
#
#
# Indices 1 2 3 4 5 6 
#
# 1 69.1666 0.8822 16.4031 -7.8057 4.3558 15.9027
# 2 0.8822 60.9441 15.6351 -9.1321 5.6434 25.1046
# 3 16.4031 15.6351 106.7353 1.9529 9.1311 29.3328
# 4 -7.8057 -9.1321 1.9529 39.3813 8.3412 3.8303
# 5 4.3558 5.6434 9.1311 8.3412 29.1475 0.1187
# 6 15.9027 25.1046 29.3328 3.8303 0.1187 19.7755
#
#
#
# Elastic Compliance Matrix: (Units=1/GPa)
#
#
# Indices 1 2 3 4 5 6 
#
# 1 -0.025075 -0.075142 -0.037353 -0.047085 0.042739 0.179823
# 2 -0.075142 -0.125072 -0.068130 -0.090551 0.081328 0.337310
# 3 -0.037353 -0.068130 -0.019635 -0.045103 0.037204 0.154165
# 4 -0.047085 -0.090551 -0.045103 -0.034811 0.047739 0.226173
# 5 0.042739 0.081328 0.037204 0.047739 -0.012319 -0.201969
# 6 0.179823 0.337310 0.154165 0.226173 -0.201969 -0.793512
#
#
# Mechanical properties :
#
#
# Convention : Reuss Voigt Hill
#
# Bulk Modulus (GPa) = -1.88312 33.63187 15.87438
# Shear Modulus (GPa) = -6.05191 31.25590 12.60200
#
# Velocity S-wave (km/s) = -1.53749 3.49408 2.21864
# Velocity P-wave (km/s) = 1.97165 5.42353 3.57263
#
# Compressibility (1/GPa) = -0.53103282
#
# Stress axis : x y z
#
# Youngs Moduli (GPa) = -39.87987 -7.99539 -50.92819
#
# Poissons Ratio (x) = -0.60079 -1.90231
# Poissons Ratio (y) = -2.99664 -3.46976
# Poissons Ratio (z) = -1.48963 -0.54473
#
# Static dielectric constant tensor:
#      x y z
#    x 4.312680 0.415390 0.338000 
#    y 0.415390 4.611640 0.039790 
#    z 0.338000 0.039790 4.852200 
# 
# 
# High freq. dielectric constant tensor:
#      x y z
#    x 1.996100 0.029960 0.018450 
#    y 0.029960 2.028160 -0.006310 
#    z 0.018450 -0.006310 2.040910 
# 
# From -- ./inp_files/100834.got.cif
#   From: 2010.06.25/outbox.cif.g09.slc.cpg/sg2_51_cif.got.tgz:100834.got - 2010.06.27 13:26:56.
