data_PCOD8001363
_publ_section_title
;
Structure prediction by ZEFSAII (Michael W. Deem and Ramdas Pophale) SiO2 
 PCOD8001363
Probable space group: P -1
;
_chemical_formula_sum "Si O2"
_cell_formula_units_Z 14
_cell_length_a 17.432446
_cell_length_b 5.291000
_cell_length_c 13.317142
_cell_angle_alpha 109.522304
_cell_angle_beta 31.583790
_cell_angle_gamma 104.968212
_cell_volume 605.469163
_symmetry_space_group_name_H-M "P -1"
_symmetry_group_IT_number 2
_symmetry_cell_setting 'triclinic'
loop_
_space_group_symop_operation_xyz
x,y,z
-x,-y,-z
loop_
_atom_site_type_symbol
_atom_site_label
_atom_site_fract_x
_atom_site_fract_y
_atom_site_fract_z
Si Si1 0.141724 0.871077 0.379187
Si Si2 0.875736 0.640032 0.288677
Si Si3 0.786982 0.443428 0.157459
Si Si4 0.620233 0.764544 0.826282
Si Si5 0.374250 0.467459 0.992921
Si Si6 0.257015 0.151054 0.906888
Si Si7 0.920581 0.232539 0.350568
O O1 0.244785 0.707700 0.160638
O O2 0.096175 0.692712 0.502409
O O3 0.229460 0.114903 0.363115
O O4 0.000000 0.000000 0.500000
O O5 0.773714 0.532510 0.299861
O O6 0.841940 0.473704 0.405842
O O7 0.841433 0.957716 0.379518
O O8 0.044789 0.587330 0.065660
O O9 0.707546 0.673606 0.207416
O O10 0.707490 0.163741 0.195640
O O11 0.653319 0.639388 0.880423
O O12 0.543350 0.557594 0.808845
O O13 0.500000 0.000000 0.000000
O O14 0.358987 0.243254 0.895939
O O15 0.090145 0.200314 0.131801
#
# Coordination Sequence:
#
# PCOD8001363 Si02
#       7
#     2   2   2   2   2   2   2
#     4  11  24  35  58  87 124 158 192 238 293 349
#     4   9  18  34  50  75 117 150 189 241 288 352
#     4   9  18  32  52  79 110 150 192 239 296 340
#     4   9  21  40  57  78 117 158 204 236 285 337
#     4  10  22  38  58  82 120 157 198 243 278 353
#     4  10  20  31  55  84 112 149 193 240 292 343
#     4  10  21  32  52  82 116 155 190 231 297 347
#
# _framework density 23.122563
#
# number of rings (size 3 to 8) (size 9 to 14) (size 15 to 20)
#    0.000    2.286    0.000    1.714   12.000    4.571 
#    0.000    0.000    0.000    0.000    0.000    6.000 
#    0.000    0.000    0.000    0.000    0.000    0.000 
#
# Total GULP energy -173510.421733 kJ/mol
# GULP energy per Si atom -12393.601552 kJ/mol
# Density = 2.306993 g / cm^3
# Si number density = 23.122563 Si / 1000 Ang^3
#
#
#
# Elastic Constant Matrix: (Units=GPa)
#
#
# Indices 1 2 3 4 5 6 
#
# 1 148.0798 75.9297 27.8295 -9.0191 10.8862 16.8007
# 2 75.9297 157.2462 13.1188 -9.7076 4.2792 4.5718
# 3 27.8295 13.1188 31.2620 -6.8366 -0.3483 -5.2782
# 4 -9.0191 -9.7076 -6.8366 22.5028 0.4547 7.1350
# 5 10.8862 4.2792 -0.3483 0.4547 29.5427 0.2968
# 6 16.8007 4.5718 -5.2782 7.1350 0.2968 40.4283
#
#
#
# Elastic Compliance Matrix: (Units=1/GPa)
#
#
# Indices 1 2 3 4 5 6 
#
# 1 0.011934 -0.004587 -0.009325 0.001942 -0.003813 -0.005973
# 2 -0.004587 0.008575 0.001036 0.001936 0.000423 0.000727
# 3 -0.009325 0.001036 0.042806 0.007083 0.003601 0.008070
# 4 0.001942 0.001936 0.007083 0.051126 -0.001608 -0.009113
# 5 -0.003813 0.000423 0.003601 -0.001608 0.035240 0.002032
# 6 -0.005973 0.000727 0.008070 -0.009113 0.002032 0.029782
#
#
# Mechanical properties :
#
#
# Convention : Reuss Voigt Hill
#
# Bulk Modulus (GPa) = 26.62236 63.37156 44.99696
# Shear Modulus (GPa) = 22.96362 33.14210 28.05286
#
# Velocity S-wave (km/s) = 3.15481 3.79003 3.48692
# Velocity P-wave (km/s) = 4.98086 6.82779 5.97611
#
# Compressibility (1/GPa) = 0.03756241
#
# Stress axis : x y z
#
# Youngs Moduli (GPa) = 83.79360 116.61835 23.36144
#
# Poissons Ratio (x) = 0.53497 0.21784
# Poissons Ratio (y) = 0.38439 -0.02421
# Poissons Ratio (z) = 0.78137 -0.12084
#
# Static dielectric constant tensor:
#      x y z
#    x 4.372140 0.273310 -0.183930 
#    y 0.273310 4.691360 -0.515220 
#    z -0.183930 -0.515220 3.949490 
# 
# 
# High freq. dielectric constant tensor:
#      x y z
#    x 1.910040 -0.002420 0.006980 
#    y -0.002420 1.932860 -0.005830 
#    z 0.006980 -0.005830 1.873500 
# 
# From -- ./inp_files/26710.got.cif
#   From: 2010.06.25/outbox.cif.g09.slc.cpg/sg2_14_cif.got.tgz:26710.got - 2010.06.27 13:26:56.
