data_PCOD8001983
_publ_section_title
;
Structure prediction by ZEFSAII (Michael W. Deem and Ramdas Pophale) SiO2 
 PCOD8001983
Probable space group: P -1
;
_chemical_formula_sum "Si O2"
_cell_formula_units_Z 14
_cell_length_a 12.601477
_cell_length_b 11.431508
_cell_length_c 17.317782
_cell_angle_alpha 44.828206
_cell_angle_beta 151.513433
_cell_angle_gamma 114.533893
_cell_volume 658.823522
_symmetry_space_group_name_H-M "P -1"
_symmetry_group_IT_number 2
_symmetry_cell_setting 'triclinic'
loop_
_space_group_symop_operation_xyz
x,y,z
-x,-y,-z
loop_
_atom_site_type_symbol
_atom_site_label
_atom_site_fract_x
_atom_site_fract_y
_atom_site_fract_z
Si Si1 0.229746 0.070919 0.527382
Si Si2 0.168521 0.021100 0.210531
Si Si3 0.453337 0.187954 0.928173
Si Si4 0.870397 0.845038 0.043838
Si Si5 0.983829 0.488068 0.603021
Si Si6 0.021458 0.832201 0.518405
Si Si7 0.832840 0.743642 0.761359
O O1 0.021227 0.206803 0.402217
O O2 0.098199 0.210274 0.300047
O O3 0.535343 0.008707 0.768529
O O4 0.274613 0.847031 0.657512
O O5 0.064442 0.165710 0.999787
O O6 0.070938 0.164956 0.156607
O O7 0.505080 0.846876 0.509412
O O8 0.019450 0.911290 0.163508
O O9 0.215178 0.280868 0.798378
O O10 0.329447 0.381987 0.697504
O O11 0.500000 0.000000 0.000000
O O12 0.757423 0.078711 0.211989
O O13 0.012955 0.601885 0.269932
O O14 0.066474 0.645723 0.584759
O O15 0.000000 0.500000 0.000000
#
# Coordination Sequence:
#
# PCOD8001983 Si02
#       7
#     2   2   2   2   2   2   2
#     4  10  22  40  59  88 129 162 197 257 300 351
#     4   9  22  42  62  89 123 151 204 261 303 352
#     4   9  19  36  53  85 119 149 200 247 290 359
#     4  10  20  41  63  88 121 161 199 255 306 353
#     4  10  20  34  62  85 117 163 202 241 304 362
#     4  10  21  39  57  87 127 163 202 244 298 363
#     4  10  22  42  65  91 117 159 205 248 310 362
#
# _framework density 21.249998999999999
#
# number of rings (size 3 to 8) (size 9 to 14) (size 15 to 20)
#    0.000    2.286    1.429    0.000    2.000    5.143 
#    2.571    2.143    0.000    0.000    0.000    0.000 
#    0.000    0.000    0.000    0.000    0.000    0.000 
#
# Total GULP energy -173453.568828 kJ/mol
# GULP energy per Si atom -12389.540631 kJ/mol
# Density = 2.120163 g / cm^3
# Si number density = 21.249999 Si / 1000 Ang^3
#
#
#
# Elastic Constant Matrix: (Units=GPa)
#
#
# Indices 1 2 3 4 5 6 
#
# 1 101.6782 44.8417 38.9575 -6.2133 -20.8235 -2.6356
# 2 44.8417 116.1840 41.5664 5.3557 -6.6974 -4.6618
# 3 38.9575 41.5664 79.6281 -10.8488 -19.2443 -5.9915
# 4 -6.2133 5.3557 -10.8488 33.7312 2.5911 -2.6450
# 5 -20.8235 -6.6974 -19.2443 2.5911 34.2855 -1.2067
# 6 -2.6356 -4.6618 -5.9915 -2.6450 -1.2067 35.0425
#
#
#
# Elastic Compliance Matrix: (Units=1/GPa)
#
#
# Indices 1 2 3 4 5 6 
#
# 1 0.014157 -0.004091 -0.003078 0.001837 0.005944 0.000338
# 2 -0.004091 0.012251 -0.005705 -0.004312 -0.002971 -0.000081
# 3 -0.003078 -0.005705 0.020072 0.006438 0.007908 0.003200
# 4 0.001837 -0.004312 0.006438 0.032874 0.001515 0.003199
# 5 0.005944 -0.002971 0.007908 0.001515 0.036619 0.002779
# 6 0.000338 -0.000081 0.003200 0.003199 0.002779 0.029436
#
#
# Mechanical properties :
#
#
# Convention : Reuss Voigt Hill
#
# Bulk Modulus (GPa) = 48.23793 60.91351 54.57572
# Shear Modulus (GPa) = 28.07902 32.08681 30.08292
#
# Velocity S-wave (km/s) = 3.63900 3.89005 3.76662
# Velocity P-wave (km/s) = 6.35657 6.99314 6.68244
#
# Compressibility (1/GPa) = 0.02073057
#
# Stress axis : x y z
#
# Youngs Moduli (GPa) = 70.63608 81.62292 49.82127
#
# Poissons Ratio (x) = 0.33393 0.15337
# Poissons Ratio (y) = 0.28898 0.28425
# Poissons Ratio (z) = 0.21744 0.46569
#
# Static dielectric constant tensor:
#      x y z
#    x 3.903460 -0.045440 -0.359650 
#    y -0.045440 3.872730 0.297900 
#    z -0.359650 0.297900 4.400870 
# 
# 
# High freq. dielectric constant tensor:
#      x y z
#    x 1.830020 -0.008280 -0.025910 
#    y -0.008280 1.829290 0.012100 
#    z -0.025910 0.012100 1.832360 
# 
# From -- ./inp_files/568618.got.cif
#   From: 2010.06.25/outbox.cif.g09.slc.cpg/sg2_285_cif.got.tgz:568618.got - 2010.06.27 13:26:56.
