data_PCOD8001160
_publ_section_title
;
Structure prediction by ZEFSAII (Michael W. Deem and Ramdas Pophale) SiO2 
 PCOD8001160
Probable space group: P -1
;
_chemical_formula_sum "Si O2"
_cell_formula_units_Z 16
_cell_length_a 9.239350
_cell_length_b 9.887574
_cell_length_c 10.872462
_cell_angle_alpha 113.203245
_cell_angle_beta 117.946396
_cell_angle_gamma 51.500195
_cell_volume 679.128626
_symmetry_space_group_name_H-M "P -1"
_symmetry_group_IT_number 2
_symmetry_cell_setting 'triclinic'
loop_
_space_group_symop_operation_xyz
x,y,z
-x,-y,-z
loop_
_atom_site_type_symbol
_atom_site_label
_atom_site_fract_x
_atom_site_fract_y
_atom_site_fract_z
Si Si1 0.649699 0.024707 0.640578
Si Si2 0.746229 0.758998 0.794198
Si Si3 0.969740 0.123713 0.421255
Si Si4 0.558885 0.374356 0.824581
Si Si5 0.431525 0.744972 0.805190
Si Si6 0.986920 0.368477 0.695100
Si Si7 0.931637 0.337912 0.936237
Si Si8 0.663372 0.673549 0.085805
O O1 0.696190 0.923341 0.751018
O O2 0.845060 0.956433 0.619115
O O3 0.500000 0.000000 0.500000
O O4 0.539262 0.231466 0.692560
O O5 0.550272 0.763185 0.748277
O O6 0.892799 0.576260 0.715929
O O7 0.852211 0.777422 0.963182
O O8 0.795375 0.145048 0.275960
O O9 0.923846 0.304884 0.528654
O O10 0.000000 0.000000 0.500000
O O11 0.496898 0.543534 0.777607
O O12 0.788292 0.282715 0.916709
O O13 0.419261 0.426425 0.907176
O O14 0.484114 0.812613 0.976232
O O15 0.921948 0.322404 0.779581
O O16 0.227264 0.262569 0.759370
O O17 0.836764 0.541613 0.011873
#
# Coordination Sequence:
#
# PCOD8001160 Si02
#       8
#     2   2   2   2   2   2   2   2
#     4  12  29  49  64  99 150 181 228 287 343 409
#     4  11  23  42  74 101 136 181 230 284 347 408
#     4  12  29  46  68 103 143 179 233 287 338 406
#     4  11  24  42  73 101 140 182 226 285 346 404
#     4  11  23  45  74 103 135 179 236 282 341 413
#     4  11  21  43  73  99 137 188 225 276 347 416
#     4  10  19  41  72 106 135 172 236 282 339 415
#     4  10  20  40  70 106 135 173 232 287 334 411
#
# _framework density 23.559601000000001
#
# number of rings (size 3 to 8) (size 9 to 14) (size 15 to 20)
#    0.000    1.000    3.750    4.500    7.000    1.500 
#    2.250    1.250    0.000    0.000    0.000    0.000 
#    0.000    0.000    0.000    0.000    0.000    0.000 
#
# Total GULP energy -198299.447160 kJ/mol
# GULP energy per Si atom -12393.715448 kJ/mol
# Density = 2.350598 g / cm^3
# Si number density = 23.559601 Si / 1000 Ang^3
#
#
#
# Elastic Constant Matrix: (Units=GPa)
#
#
# Indices 1 2 3 4 5 6 
#
# 1 161.2087 25.6776 25.6338 -30.0974 11.5771 6.0458
# 2 25.6776 55.9148 -5.3722 -14.8216 0.4101 11.7605
# 3 25.6338 -5.3722 58.0838 -26.4528 23.2315 -7.0811
# 4 -30.0974 -14.8216 -26.4528 28.2349 -4.2433 2.8013
# 5 11.5771 0.4101 23.2315 -4.2433 48.8239 -8.4950
# 6 6.0458 11.7605 -7.0811 2.8013 -8.4950 32.6469
#
#
#
# Elastic Compliance Matrix: (Units=1/GPa)
#
#
# Indices 1 2 3 4 5 6 
#
# 1 0.008092 -0.000642 0.001123 0.009267 -0.002052 -0.002353
# 2 -0.000642 0.033414 0.023434 0.038553 -0.010153 -0.012785
# 3 0.001123 0.023434 0.055870 0.063182 -0.022934 -0.007921
# 4 0.009267 0.038553 0.063182 0.122823 -0.025216 -0.019001
# 5 -0.002052 -0.010153 -0.022934 -0.025216 0.031410 0.009400
# 6 -0.002353 -0.012785 -0.007921 -0.019001 0.009400 0.038030
#
#
# Mechanical properties :
#
#
# Convention : Reuss Voigt Hill
#
# Bulk Modulus (GPa) = 6.88673 40.78730 23.83702
# Shear Modulus (GPa) = 17.22885 37.22568 27.22726
#
# Velocity S-wave (km/s) = 2.70717 3.97931 3.40321
# Velocity P-wave (km/s) = 3.56386 6.20187 5.05788
#
# Compressibility (1/GPa) = 0.14520687
#
# Stress axis : x y z
#
# Youngs Moduli (GPa) = 123.57172 29.92791 17.89872
#
# Poissons Ratio (x) = 0.01921 -0.02011
# Poissons Ratio (y) = 0.07933 -0.41944
# Poissons Ratio (z) = -0.13883 -0.70133
#
# Static dielectric constant tensor:
#      x y z
#    x 4.665300 -0.167360 0.311530 
#    y -0.167360 4.558080 -0.036530 
#    z 0.311530 -0.036530 4.532610 
# 
# 
# High freq. dielectric constant tensor:
#      x y z
#    x 1.961050 0.007550 0.016520 
#    y 0.007550 1.903010 0.003270 
#    z 0.016520 0.003270 1.929360 
# 
# From -- ./inp_files/299174.got.cif
#   From: 2010.06.25/outbox.cif.g09.slc.cpg/sg2_150_cif.got.tgz:299174.got - 2010.06.27 13:26:56.
