data_PCOD8001952
_publ_section_title
;
Structure prediction by ZEFSAII (Michael W. Deem and Ramdas Pophale) SiO2 
 PCOD8001952
Probable space group: P -1
;
_chemical_formula_sum "Si O2"
_cell_formula_units_Z 16
_cell_length_a 15.856130
_cell_length_b 9.072699
_cell_length_c 14.503820
_cell_angle_alpha 32.286907
_cell_angle_beta 49.766481
_cell_angle_gamma 45.360346
_cell_volume 785.595489
_symmetry_space_group_name_H-M "P -1"
_symmetry_group_IT_number 2
_symmetry_cell_setting 'triclinic'
loop_
_space_group_symop_operation_xyz
x,y,z
-x,-y,-z
loop_
_atom_site_type_symbol
_atom_site_label
_atom_site_fract_x
_atom_site_fract_y
_atom_site_fract_z
Si Si1 0.086409 0.239942 0.737813
Si Si2 0.176857 0.656552 0.075708
Si Si3 0.125785 0.938044 0.669916
Si Si4 0.292416 0.455913 0.913001
Si Si5 0.473220 0.758948 0.586558
Si Si6 0.922319 0.126713 0.577699
Si Si7 0.332733 0.866625 0.260382
Si Si8 0.319795 0.081519 0.356252
O O1 0.126085 0.515236 0.573270
O O2 0.946585 0.349128 0.798190
O O3 0.112297 0.109547 0.685604
O O4 0.163349 0.999035 0.888809
O O5 0.284864 0.443886 0.178485
O O6 0.206217 0.500132 0.038269
O O7 0.205725 0.585803 0.817250
O O8 0.195146 0.060014 0.483654
O O9 0.998511 0.982619 0.692165
O O10 0.378602 0.641359 0.762865
O O11 0.364898 0.095978 0.047907
O O12 0.594997 0.474847 0.636895
O O13 0.500000 0.000000 0.500000
O O14 0.424182 0.929809 0.435344
O O15 0.807780 0.044261 0.700974
O O16 0.000000 0.000000 0.500000
O O17 0.366489 0.909547 0.318600
#
# Coordination Sequence:
#
# PCOD8001952 Si02
#       8
#     2   2   2   2   2   2   2   2
#     4  10  20  34  60  91 127 163 203 247 306 361
#     4   9  18  35  61  88 119 166 196 245 316 350
#     4  10  20  36  63  91 123 165 199 252 301 361
#     4   9  21  42  62  85 128 162 202 249 318 361
#     4  11  25  41  68  91 115 156 220 264 294 361
#     4  12  22  36  60  94 130 155 211 240 299 382
#     4  11  23  40  64  89 126 171 195 250 316 361
#     4  10  20  41  62  85 124 163 203 244 320 363
#
# _framework density 20.366716
#
# number of rings (size 3 to 8) (size 9 to 14) (size 15 to 20)
#    0.000    1.750    2.500    1.875    5.250    0.500 
#    0.000    3.750    2.750    0.000    0.000    0.000 
#    0.000    0.000    0.000    0.000    0.000    0.000 
#
# Total GULP energy -198255.505049 kJ/mol
# GULP energy per Si atom -12390.969066 kJ/mol
# Density = 2.032036 g / cm^3
# Si number density = 20.366716 Si / 1000 Ang^3
#
#
#
# Elastic Constant Matrix: (Units=GPa)
#
#
# Indices 1 2 3 4 5 6 
#
# 1 103.3977 36.3456 62.1395 -33.3247 11.8776 -4.5188
# 2 36.3456 96.3751 44.5678 -20.9709 10.2459 -5.1550
# 3 62.1395 44.5678 127.6625 -33.2037 22.5844 -2.8251
# 4 -33.3247 -20.9709 -33.2037 31.9791 -6.6607 4.1387
# 5 11.8776 10.2459 22.5844 -6.6607 32.0895 -4.4937
# 6 -4.5188 -5.1550 -2.8251 4.1387 -4.4937 29.1705
#
#
#
# Elastic Compliance Matrix: (Units=1/GPa)
#
#
# Indices 1 2 3 4 5 6 
#
# 1 0.016737 -0.001677 -0.004534 0.011601 -0.000032 0.000207
# 2 -0.001677 0.013210 -0.002622 0.003881 -0.000786 0.001149
# 3 -0.004534 -0.002622 0.013746 0.006804 -0.005988 -0.001722
# 4 0.011601 0.003881 0.006804 0.053580 0.000179 -0.004432
# 5 -0.000032 -0.000786 -0.005988 0.000179 0.036356 0.004852
# 6 0.000207 0.001149 -0.001722 -0.004432 0.004852 0.035726
#
#
# Mechanical properties :
#
#
# Convention : Reuss Voigt Hill
#
# Bulk Modulus (GPa) = 38.41868 68.17123 53.29495
# Shear Modulus (GPa) = 25.54962 30.93999 28.24480
#
# Velocity S-wave (km/s) = 3.54570 3.90185 3.72803
# Velocity P-wave (km/s) = 5.97219 7.33783 6.68995
#
# Compressibility (1/GPa) = 0.02602900
#
# Stress axis : x y z
#
# Youngs Moduli (GPa) = 59.74712 75.69793 72.74669
#
# Poissons Ratio (x) = 0.12691 0.32983
# Poissons Ratio (y) = 0.10017 0.19073
# Poissons Ratio (z) = 0.27089 0.19847
#
# Static dielectric constant tensor:
#      x y z
#    x 3.513440 -0.181360 0.349560 
#    y -0.181360 3.798320 -0.223460 
#    z 0.349560 -0.223460 4.141920 
# 
# 
# High freq. dielectric constant tensor:
#      x y z
#    x 1.769190 -0.017570 0.026140 
#    y -0.017570 1.800200 -0.008410 
#    z 0.026140 -0.008410 1.810860 
# 
# From -- ./inp_files/178708.got.cif
#   From: 2010.06.25/outbox.cif.g09.slc.cpg/sg2_90_cif.got.tgz:178708.got - 2010.06.27 13:26:56.
