data_PCOD8001941
_publ_section_title
;
Structure prediction by ZEFSAII (Michael W. Deem and Ramdas Pophale) SiO2 
 PCOD8001941
Probable space group: P -1
;
_chemical_formula_sum "Si O2"
_cell_formula_units_Z 16
_cell_length_a 11.107926
_cell_length_b 9.455377
_cell_length_c 12.082347
_cell_angle_alpha 127.356846
_cell_angle_beta 52.384897
_cell_angle_gamma 113.655336
_cell_volume 798.055231
_symmetry_space_group_name_H-M "P -1"
_symmetry_group_IT_number 2
_symmetry_cell_setting 'triclinic'
loop_
_space_group_symop_operation_xyz
x,y,z
-x,-y,-z
loop_
_atom_site_type_symbol
_atom_site_label
_atom_site_fract_x
_atom_site_fract_y
_atom_site_fract_z
Si Si1 0.403146 0.577621 0.350807
Si Si2 0.342688 0.834709 0.321014
Si Si3 0.585761 0.143463 0.354879
Si Si4 0.074309 0.485187 0.569763
Si Si5 0.979970 0.107457 0.401870
Si Si6 0.533233 0.235935 0.187289
Si Si7 0.278947 0.933545 0.173242
Si Si8 0.934450 0.140856 0.188331
O O1 0.360376 0.645484 0.283570
O O2 0.480876 0.742470 0.453539
O O3 0.255013 0.507459 0.467325
O O4 0.517378 0.418700 0.214689
O O5 0.196796 0.941150 0.495961
O O6 0.325830 0.801910 0.183437
O O7 0.493040 0.956917 0.313814
O O8 0.578005 0.258900 0.301286
O O9 0.755780 0.096617 0.267088
O O10 0.026626 0.645488 0.756785
O O11 0.000000 0.500000 0.500000
O O12 0.023462 0.284063 0.537070
O O13 0.001422 0.121731 0.264605
O O14 0.098166 0.959963 0.299967
O O15 0.374142 0.121801 0.216142
O O16 0.676962 0.148244 0.007752
O O17 0.000000 0.000000 0.000000
#
# Coordination Sequence:
#
# PCOD8001941 Si02
#       8
#     2   2   2   2   2   2   2   2
#     4  11  19  35  61  83 115 147 196 237 284 344
#     4  11  22  36  59  86 116 152 190 236 291 344
#     4  10  21  38  57  87 114 151 197 227 288 354
#     4   9  17  33  55  86 109 145 199 235 272 337
#     4  11  19  37  62  81 117 153 195 238 279 351
#     4  10  21  37  58  83 115 150 190 244 283 337
#     4  10  22  37  56  86 116 148 192 237 295 334
#     4  10  20  34  60  87 116 150 189 245 289 334
#
# _framework density 20.048736999999999
#
# number of rings (size 3 to 8) (size 9 to 14) (size 15 to 20)
#    0.000    1.750    5.000    1.875    0.000    0.500 
#    0.000    1.250    0.000    0.750    0.000    0.000 
#    0.000    0.000    0.000    0.000    0.000    0.000 
#
# Total GULP energy -198215.097796 kJ/mol
# GULP energy per Si atom -12388.443612 kJ/mol
# Density = 2.000311 g / cm^3
# Si number density = 20.048737 Si / 1000 Ang^3
#
#
#
# Elastic Constant Matrix: (Units=GPa)
#
#
# Indices 1 2 3 4 5 6 
#
# 1 75.6245 32.4036 18.9447 8.4099 -0.5574 -6.4445
# 2 32.4036 75.4411 29.9412 4.9402 1.4089 -16.3828
# 3 18.9447 29.9412 79.9760 14.2466 7.5047 0.1324
# 4 8.4099 4.9402 14.2466 26.0684 -3.2541 2.2674
# 5 -0.5574 1.4089 7.5047 -3.2541 28.7814 -0.2612
# 6 -6.4445 -16.3828 0.1324 2.2674 -0.2612 33.1367
#
#
#
# Elastic Compliance Matrix: (Units=1/GPa)
#
#
# Indices 1 2 3 4 5 6 
#
# 1 0.016670 -0.006510 -0.000914 -0.003610 0.000474 0.000278
# 2 -0.006510 0.020403 -0.006365 0.001040 0.000732 0.008781
# 3 -0.000914 -0.006365 0.017048 -0.008203 -0.005105 -0.002871
# 4 -0.003610 0.001040 -0.008203 0.044971 0.007074 -0.003177
# 5 0.000474 0.000732 -0.005105 0.007074 0.036851 0.000281
# 6 0.000278 0.008781 -0.002871 -0.003177 0.000281 0.034805
#
#
# Mechanical properties :
#
#
# Convention : Reuss Voigt Hill
#
# Bulk Modulus (GPa) = 37.67208 43.73561 40.70384
# Shear Modulus (GPa) = 24.13459 27.58076 25.85767
#
# Velocity S-wave (km/s) = 3.47334 3.71305 3.59519
# Velocity P-wave (km/s) = 5.90902 6.34384 6.13029
#
# Compressibility (1/GPa) = 0.02654486
#
# Stress axis : x y z
#
# Youngs Moduli (GPa) = 59.98810 49.01343 58.65760
#
# Poissons Ratio (x) = 0.31906 0.05359
# Poissons Ratio (y) = 0.39050 0.37334
# Poissons Ratio (z) = 0.05481 0.31195
#
# Static dielectric constant tensor:
#      x y z
#    x 3.682520 -0.286520 0.245680 
#    y -0.286520 2.494850 0.436400 
#    z 0.245680 0.436400 3.596740 
# 
# 
# High freq. dielectric constant tensor:
#      x y z
#    x 1.793550 -0.004960 0.000380 
#    y -0.004960 1.761890 0.005400 
#    z 0.000380 0.005400 1.761700 
# 
# From -- ./inp_files/419690.got.cif
#   From: 2010.06.25/outbox.cif.g09.slc.cpg/sg2_210_cif.got.tgz:419690.got - 2010.06.27 13:26:56.
