data_PCOD8001866
_publ_section_title
;
Structure prediction by ZEFSAII (Michael W. Deem and Ramdas Pophale) SiO2 
 PCOD8001866
Probable space group: P -1
;
_chemical_formula_sum "Si O2"
_cell_formula_units_Z 16
_cell_length_a 23.170452
_cell_length_b 15.875828
_cell_length_c 9.299136
_cell_angle_alpha 62.353898
_cell_angle_beta 118.704023
_cell_angle_gamma 163.617886
_cell_volume 846.146690
_symmetry_space_group_name_H-M "P -1"
_symmetry_group_IT_number 2
_symmetry_cell_setting 'triclinic'
loop_
_space_group_symop_operation_xyz
x,y,z
-x,-y,-z
loop_
_atom_site_type_symbol
_atom_site_label
_atom_site_fract_x
_atom_site_fract_y
_atom_site_fract_z
Si Si1 0.234695 0.323220 0.224612
Si Si2 0.221026 0.083922 0.429769
Si Si3 0.798258 0.805344 0.206959
Si Si4 0.808302 0.006323 0.221884
Si Si5 0.831965 0.472083 0.567348
Si Si6 0.449760 0.082352 0.390945
Si Si7 0.479740 0.657814 0.527570
Si Si8 0.536012 0.343166 0.041010
O O1 0.228641 0.201602 0.291706
O O2 0.404597 0.586656 0.336917
O O3 0.301807 0.462020 0.044302
O O4 0.011971 0.054682 0.213891
O O5 0.301095 0.187940 0.610593
O O6 0.361310 0.212148 0.392104
O O7 0.985072 0.721414 0.428540
O O8 0.823927 0.951396 0.156157
O O9 0.726420 0.652030 0.385822
O O10 0.626807 0.554181 0.077836
O O11 0.678524 0.917579 0.080089
O O12 0.039021 0.357350 0.263352
O O13 0.643393 0.285204 0.512582
O O14 0.753337 0.260184 0.597582
O O15 0.403461 0.095413 0.449653
O O16 0.499326 0.199444 0.205419
#
# Coordination Sequence:
#
# PCOD8001866 Si02
#       8
#     2   2   2   2   2   2   2   2
#     4  12  20  36  58  85 119 152 184 231 285 342
#     4  10  20  34  58  84 111 152 188 225 275 339
#     4  11  22  33  56  85 117 150 190 230 276 343
#     4  10  20  38  56  84 113 155 183 227 284 340
#     4   9  20  41  61  81 110 154 191 233 274 341
#     4  10  22  39  62  86 109 147 196 238 275 328
#     4  11  19  34  57  86 114 150 192 226 275 346
#     4  11  23  36  54  88 120 147 179 241 291 322
#
# _framework density 18.909251000000001
#
# number of rings (size 3 to 8) (size 9 to 14) (size 15 to 20)
#    0.750    0.750    2.500    4.500    0.000    2.000 
#    0.000    0.000    0.000    8.250    0.000    0.000 
#    0.000    0.000    0.000    0.000    0.000    0.000 
#
# Total GULP energy -198390.030960 kJ/mol
# GULP energy per Si atom -12399.376935 kJ/mol
# Density = 1.886621 g / cm^3
# Si number density = 18.909251 Si / 1000 Ang^3
#
#
#
# Elastic Constant Matrix: (Units=GPa)
#
#
# Indices 1 2 3 4 5 6 
#
# 1 114.1279 41.4567 28.7160 -4.8317 -2.9332 0.9180
# 2 41.4567 84.2413 23.8630 5.7708 -1.8071 -9.8066
# 3 28.7160 23.8630 64.2602 -2.3010 -12.6166 -2.7738
# 4 -4.8317 5.7708 -2.3010 25.3072 3.8336 4.3245
# 5 -2.9332 -1.8071 -12.6166 3.8336 24.5568 2.9109
# 6 0.9180 -9.8066 -2.7738 4.3245 2.9109 30.8289
#
#
#
# Elastic Compliance Matrix: (Units=1/GPa)
#
#
# Indices 1 2 3 4 5 6 
#
# 1 0.011751 -0.005425 -0.003421 0.003805 -0.001013 -0.002821
# 2 -0.005425 0.016775 -0.004004 -0.006080 -0.001245 0.006108
# 3 -0.003421 -0.004004 0.020504 0.000705 0.009762 -0.000348
# 4 0.003805 -0.006080 0.000705 0.043835 -0.005572 -0.007607
# 5 -0.001013 -0.001245 0.009762 -0.005572 0.046765 -0.003122
# 6 -0.002821 0.006108 -0.000348 -0.007607 -0.003122 0.035795
#
#
# Mechanical properties :
#
#
# Convention : Reuss Voigt Hill
#
# Bulk Modulus (GPa) = 42.86112 50.07786 46.46949
# Shear Modulus (GPa) = 23.93465 27.37817 25.65641
#
# Velocity S-wave (km/s) = 3.56162 3.80922 3.68750
# Velocity P-wave (km/s) = 6.29519 6.77404 6.53900
#
# Compressibility (1/GPa) = 0.02333117
#
# Stress axis : x y z
#
# Youngs Moduli (GPa) = 85.09790 59.61160 48.77007
#
# Poissons Ratio (x) = 0.32337 0.16685
# Poissons Ratio (y) = 0.46163 0.19527
# Poissons Ratio (z) = 0.29114 0.23868
#
# Static dielectric constant tensor:
#      x y z
#    x 3.478110 -0.018670 -0.142490 
#    y -0.018670 3.440560 0.093280 
#    z -0.142490 0.093280 3.325570 
# 
# 
# High freq. dielectric constant tensor:
#      x y z
#    x 1.736580 0.007380 -0.007030 
#    y 0.007380 1.730910 0.014090 
#    z -0.007030 0.014090 1.717040 
# 
# From -- ./inp_files/240509.got.cif
#   From: 2010.06.25/outbox.cif.g09.slc.cpg/sg2_121_cif.got.tgz:240509.got - 2010.06.27 13:26:56.
