data_PCOD8001443
_publ_section_title
;
Structure prediction by ZEFSAII (Michael W. Deem and Ramdas Pophale) SiO2 
 PCOD8001443
Probable space group: P -1
;
_chemical_formula_sum "Si O2"
_cell_formula_units_Z 16
_cell_length_a 18.004732
_cell_length_b 8.330703
_cell_length_c 16.220859
_cell_angle_alpha 121.107735
_cell_angle_beta 157.009886
_cell_angle_gamma 57.060534
_cell_volume 796.542736
_symmetry_space_group_name_H-M "P -1"
_symmetry_group_IT_number 2
_symmetry_cell_setting 'triclinic'
loop_
_space_group_symop_operation_xyz
x,y,z
-x,-y,-z
loop_
_atom_site_type_symbol
_atom_site_label
_atom_site_fract_x
_atom_site_fract_y
_atom_site_fract_z
Si Si1 0.577111 0.428933 0.278792
Si Si2 0.703746 0.729171 0.147911
Si Si3 0.604170 0.066168 0.001955
Si Si4 0.078985 0.553879 0.008408
Si Si5 0.427824 0.240129 0.229513
Si Si6 0.102307 0.787087 0.570158
Si Si7 0.692135 0.742316 0.576926
Si Si8 0.372272 0.823592 0.409916
O O1 0.551899 0.325831 0.311568
O O2 0.765030 0.304186 0.394064
O O3 0.609264 0.640946 0.387900
O O4 0.388566 0.443823 0.030187
O O5 0.604654 0.803008 0.153390
O O6 0.935155 0.664547 0.383198
O O7 0.657234 0.896358 0.077273
O O8 0.598263 0.972967 0.880955
O O9 0.765595 0.200159 0.209925
O O10 0.214142 0.369058 0.056486
O O11 0.195318 0.722632 0.183172
O O12 0.000000 0.500000 0.000000
O O13 0.903228 0.623878 0.784883
O O14 0.549902 0.231087 0.434446
O O15 0.000000 0.000000 0.500000
O O16 0.548871 0.749130 0.509265
O O17 0.710117 0.951621 0.622152
#
# Coordination Sequence:
#
# PCOD8001443 Si02
#       8
#     2   2   2   2   2   2   2   2
#     4  10  20  32  56  87 111 149 195 235 283 338
#     4   8  15  30  46  79 117 141 178 232 286 334
#     4   8  16  28  46  79 114 143 175 232 290 331
#     4  12  23  39  61  88 114 148 198 249 288 333
#     4  11  20  37  58  86 117 145 194 247 284 335
#     4   9  16  28  50  81 119 143 178 238 293 330
#     4  11  24  40  61  82 116 161 191 234 295 352
#     4  11  24  44  56  81 123 155 190 240 298 346
#
# _framework density 20.086805999999999
#
# number of rings (size 3 to 8) (size 9 to 14) (size 15 to 20)
#    0.000    2.000    2.500    3.750    5.250    0.000 
#    2.250    0.000    0.000    3.000    0.000    4.375 
#    0.000    0.000    0.000    0.000    0.000    0.000 
#
# Total GULP energy -198339.586410 kJ/mol
# GULP energy per Si atom -12396.224151 kJ/mol
# Density = 2.004109 g / cm^3
# Si number density = 20.086806 Si / 1000 Ang^3
#
#
#
# Elastic Constant Matrix: (Units=GPa)
#
#
# Indices 1 2 3 4 5 6 
#
# 1 62.9054 53.8204 39.1696 12.4849 17.5479 -25.0985
# 2 53.8204 66.0345 51.0118 16.7023 -4.7138 -18.5789
# 3 39.1696 51.0118 133.7960 22.4459 21.1158 -15.7931
# 4 12.4849 16.7023 22.4459 35.0760 -8.3317 -3.8487
# 5 17.5479 -4.7138 21.1158 -8.3317 28.0509 4.4553
# 6 -25.0985 -18.5789 -15.7931 -3.8487 4.4553 27.9924
#
#
#
# Elastic Compliance Matrix: (Units=1/GPa)
#
#
# Indices 1 2 3 4 5 6 
#
# 1 -0.059480 0.056422 -0.025594 0.025287 0.079747 -0.039538
# 2 0.056422 -0.026015 0.013990 -0.027023 -0.065846 0.047980
# 3 -0.025594 0.013990 0.005026 0.001868 0.017248 -0.013315
# 4 0.025287 -0.027023 0.001868 0.028929 -0.015107 0.012173
# 5 0.079747 -0.065846 0.017248 -0.015107 -0.049660 0.043358
# 6 -0.039538 0.047980 -0.013315 0.012173 0.043358 0.019378
#
#
# Mechanical properties :
#
#
# Convention : Reuss Voigt Hill
#
# Bulk Modulus (GPa) = 109.09301 61.19329 85.14315
# Shear Modulus (GPa) = -29.69053 26.13947 -1.77553
#
# Velocity S-wave (km/s) = -3.84879 3.61130 -0.94120
# Velocity P-wave (km/s) = 5.88878 6.92237 6.42639
#
# Compressibility (1/GPa) = 0.00916649
#
# Stress axis : x y z
#
# Youngs Moduli (GPa) = -16.81242 -38.43863 198.97686
#
# Poissons Ratio (x) = 2.16878 5.09253
# Poissons Ratio (y) = 0.94859 -2.78363
# Poissons Ratio (z) = -0.43029 0.53775
#
# Static dielectric constant tensor:
#      x y z
#    x 3.574830 -0.334400 0.177950 
#    y -0.334400 3.698140 0.429920 
#    z 0.177950 0.429920 4.490270 
# 
# 
# High freq. dielectric constant tensor:
#      x y z
#    x 1.769030 -0.030030 0.010180 
#    y -0.030030 1.763880 0.020650 
#    z 0.010180 0.020650 1.800110 
# 
# From -- ./inp_files/577609.got.cif
#   From: 2010.06.25/outbox.cif.g09.slc.cpg/sg2_289_cif.got.tgz:577609.got - 2010.06.27 13:26:56.
