data_PCOD8001831
_publ_section_title
;
Structure prediction by ZEFSAII (Michael W. Deem and Ramdas Pophale) SiO2 
 PCOD8001831
Probable space group: P -1
;
_chemical_formula_sum "Si O2"
_cell_formula_units_Z 16
_cell_length_a 11.566634
_cell_length_b 15.038411
_cell_length_c 12.170256
_cell_angle_alpha 128.442849
_cell_angle_beta 31.062730
_cell_angle_gamma 120.331019
_cell_volume 853.518501
_symmetry_space_group_name_H-M "P -1"
_symmetry_group_IT_number 2
_symmetry_cell_setting 'triclinic'
loop_
_space_group_symop_operation_xyz
x,y,z
-x,-y,-z
loop_
_atom_site_type_symbol
_atom_site_label
_atom_site_fract_x
_atom_site_fract_y
_atom_site_fract_z
Si Si1 0.832769 0.440364 0.511839
Si Si2 0.572701 0.283611 0.756769
Si Si3 0.027366 0.906295 0.172128
Si Si4 0.443873 0.838391 0.930678
Si Si5 0.021126 0.150710 0.277541
Si Si6 0.760303 0.961496 0.628629
Si Si7 0.626527 0.669911 0.812792
Si Si8 0.902899 0.773415 0.958648
O O1 0.656525 0.381095 0.685657
O O2 0.710262 0.540433 0.614660
O O3 0.000000 0.500000 0.500000
O O4 0.968524 0.350847 0.253824
O O5 0.363593 0.234502 0.826672
O O6 0.762239 0.181524 0.543724
O O7 0.506038 0.335217 0.968946
O O8 0.794675 0.922597 0.444340
O O9 0.984554 0.826960 0.044533
O O10 0.102899 0.029109 0.167480
O O11 0.228104 0.844719 0.032269
O O12 0.671258 0.857239 0.691321
O O13 0.469643 0.715896 0.874917
O O14 0.418880 0.931461 0.122061
O O15 0.168383 0.248784 0.280235
O O16 0.038822 0.145283 0.127144
O O17 0.000000 0.000000 0.500000
#
# Coordination Sequence:
#
# PCOD8001831 Si02
#       8
#     2   2   2   2   2   2   2   2
#     4  11  20  39  59  86 111 140 186 241 280 327
#     4  10  20  35  59  87 110 141 185 230 294 323
#     4  11  22  38  55  81 123 152 185 222 272 345
#     4  10  21  36  56  81 113 152 186 230 276 320
#     4  10  20  34  57  86 115 144 183 231 279 334
#     4   9  18  34  54  78 110 148 192 223 268 320
#     4  11  20  34  60  88 109 142 191 236 277 326
#     4  10  23  37  55  85 115 152 185 225 283 331
#
# _framework density 18.745930999999999
#
# number of rings (size 3 to 8) (size 9 to 14) (size 15 to 20)
#    0.000    1.750    3.750    3.750    0.000    4.500 
#    0.000    0.625    0.000    1.500    0.000    0.000 
#    0.000    0.000    0.000    0.000    0.000    0.000 
#
# Total GULP energy -198355.456170 kJ/mol
# GULP energy per Si atom -12397.216011 kJ/mol
# Density = 1.870326 g / cm^3
# Si number density = 18.745931 Si / 1000 Ang^3
#
#
#
# Elastic Constant Matrix: (Units=GPa)
#
#
# Indices 1 2 3 4 5 6 
#
# 1 98.2562 39.1802 48.4354 11.1683 -4.2937 -13.5962
# 2 39.1802 80.3411 47.7677 11.6527 -6.5807 -13.9316
# 3 48.4354 47.7677 103.9800 -6.0495 -0.7137 0.1993
# 4 11.1683 11.6527 -6.0495 30.2580 -1.6079 -10.2506
# 5 -4.2937 -6.5807 -0.7137 -1.6079 31.8042 5.5862
# 6 -13.5962 -13.9316 0.1993 -10.2506 5.5862 29.1142
#
#
#
# Elastic Compliance Matrix: (Units=1/GPa)
#
#
# Indices 1 2 3 4 5 6 
#
# 1 0.015382 -0.002206 -0.006423 -0.004572 0.000459 0.004474
# 2 -0.002206 0.021249 -0.009133 -0.006934 0.002438 0.006291
# 3 -0.006423 -0.009133 0.017256 0.007738 -0.001182 -0.004537
# 4 -0.004572 -0.006934 0.007738 0.042131 -0.001435 0.009603
# 5 0.000459 0.002438 -0.001182 -0.001435 0.032862 -0.005421
# 6 0.004474 0.006291 -0.004537 0.009603 -0.005421 0.043899
#
#
# Mechanical properties :
#
#
# Convention : Reuss Voigt Hill
#
# Bulk Modulus (GPa) = 54.45782 61.48266 57.97024
# Shear Modulus (GPa) = 23.31813 28.04822 25.68318
#
# Velocity S-wave (km/s) = 3.53073 3.87231 3.70546
# Velocity P-wave (km/s) = 6.76276 7.27063 7.02129
#
# Compressibility (1/GPa) = 0.01836283
#
# Stress axis : x y z
#
# Youngs Moduli (GPa) = 65.00950 47.06070 57.95158
#
# Poissons Ratio (x) = 0.10381 0.37225
# Poissons Ratio (y) = 0.14340 0.52927
# Poissons Ratio (z) = 0.41758 0.42980
#
# Static dielectric constant tensor:
#      x y z
#    x 3.350490 -0.250740 -0.161240 
#    y -0.250740 3.617950 -0.165130 
#    z -0.161240 -0.165130 4.389820 
# 
# 
# High freq. dielectric constant tensor:
#      x y z
#    x 1.707250 -0.015840 -0.011890 
#    y -0.015840 1.719640 -0.012960 
#    z -0.011890 -0.012960 1.737940 
# 
# From -- ./inp_files/66851.got.cif
#   From: 2010.06.25/outbox.cif.g09.slc.cpg/sg2_34_cif.got.tgz:66851.got - 2010.06.27 13:26:56.
