data_PCOD8001642
_publ_section_title
;
Structure prediction by ZEFSAII (Michael W. Deem and Ramdas Pophale) SiO2 
 PCOD8001642
Probable space group: P -1
;
_chemical_formula_sum "Si O2"
_cell_formula_units_Z 16
_cell_length_a 11.751581
_cell_length_b 8.429762
_cell_length_c 17.611533
_cell_angle_alpha 64.133865
_cell_angle_beta 28.733206
_cell_angle_gamma 62.834223
_cell_volume 743.554456
_symmetry_space_group_name_H-M "P -1"
_symmetry_group_IT_number 2
_symmetry_cell_setting 'triclinic'
loop_
_space_group_symop_operation_xyz
x,y,z
-x,-y,-z
loop_
_atom_site_type_symbol
_atom_site_label
_atom_site_fract_x
_atom_site_fract_y
_atom_site_fract_z
Si Si1 0.256365 0.929684 0.779266
Si Si2 0.985545 0.908626 0.259482
Si Si3 0.991142 0.286983 0.926472
Si Si4 0.203128 0.285930 0.361941
Si Si5 0.212832 0.424750 0.493029
Si Si6 0.538696 0.577184 0.378585
Si Si7 0.739983 0.034424 0.515077
Si Si8 0.372733 0.678427 0.996455
O O1 0.160943 0.961364 0.743623
O O2 0.150850 0.095441 0.858640
O O3 0.544473 0.921789 0.614401
O O4 0.181707 0.745936 0.894898
O O5 0.879816 0.729036 0.373467
O O6 0.954197 0.031322 0.328239
O O7 0.261938 0.836733 0.087477
O O8 0.180948 0.419442 0.804238
O O9 0.841354 0.363793 0.923814
O O10 0.253925 0.393942 0.385697
O O11 0.439562 0.243442 0.181446
O O12 0.987200 0.396760 0.417135
O O13 0.143819 0.089675 0.457498
O O14 0.457127 0.455445 0.385139
O O15 0.500000 0.500000 0.500000
O O16 0.372888 0.771580 0.431237
O O17 0.500000 0.500000 0.000000
#
# Coordination Sequence:
#
# PCOD8001642 Si02
#       8
#     2   2   2   2   2   2   2   2
#     4   9  16  31  55  83 117 144 203 242 287 342
#     4  10  20  33  62  90 113 156 208 246 289 349
#     4   9  19  33  54  88 112 153 194 247 295 352
#     4  10  21  37  64  88 115 157 214 247 288 349
#     4  10  21  40  59  91 120 159 200 250 298 359
#     4  11  23  39  61  87 130 158 193 245 316 366
#     4  10  20  36  60  89 117 156 199 251 295 356
#     4  11  19  34  61  90 117 153 205 257 289 340
#
# _framework density 21.518260999999999
#
# number of rings (size 3 to 8) (size 9 to 14) (size 15 to 20)
#    0.000    2.000    2.500    2.625    1.750    1.500 
#    0.000    0.625    2.750    0.750    0.000    0.000 
#    0.000    0.000    0.000    0.000    0.000    0.000 
#
# Total GULP energy -198283.002544 kJ/mol
# GULP energy per Si atom -12392.687659 kJ/mol
# Density = 2.146928 g / cm^3
# Si number density = 21.518261 Si / 1000 Ang^3
#
#
#
# Elastic Constant Matrix: (Units=GPa)
#
#
# Indices 1 2 3 4 5 6 
#
# 1 70.3462 10.3414 26.6698 -10.2216 2.0465 -16.4725
# 2 10.3414 52.1144 8.6876 -0.6916 3.1805 -26.8316
# 3 26.6698 8.6876 105.8052 5.5760 15.0645 -3.1036
# 4 -10.2216 -0.6916 5.5760 36.7055 -4.6025 -1.0771
# 5 2.0465 3.1805 15.0645 -4.6025 31.0644 0.7251
# 6 -16.4725 -26.8316 -3.1036 -1.0771 0.7251 29.8643
#
#
#
# Elastic Compliance Matrix: (Units=1/GPa)
#
#
# Indices 1 2 3 4 5 6 
#
# 1 0.020161 0.004597 -0.005638 0.007202 0.001655 0.014884
# 2 0.004597 0.037661 -0.002904 0.003102 -0.003137 0.036258
# 3 -0.005638 -0.002904 0.012016 -0.004295 -0.005690 -0.004487
# 4 0.007202 0.003102 -0.004295 0.030889 0.005697 0.007288
# 5 0.001655 -0.003137 -0.005690 0.005697 0.036081 -0.003168
# 6 0.014884 0.036258 -0.004487 0.007288 -0.003168 0.074145
#
#
# Mechanical properties :
#
#
# Convention : Reuss Voigt Hill
#
# Bulk Modulus (GPa) = 16.14275 35.51815 25.83045
# Shear Modulus (GPa) = 20.87766 31.69797 26.28781
#
# Velocity S-wave (km/s) = 3.11823 3.84223 3.49900
# Velocity P-wave (km/s) = 4.52578 6.01876 5.32485
#
# Compressibility (1/GPa) = 0.06194731
#
# Stress axis : x y z
#
# Youngs Moduli (GPa) = 49.60167 26.55259 83.22410
#
# Poissons Ratio (x) = -0.12206 0.46920
# Poissons Ratio (y) = -0.22802 0.24171
# Poissons Ratio (z) = 0.27964 0.07712
#
# Static dielectric constant tensor:
#      x y z
#    x 3.685920 -0.333700 0.097820 
#    y -0.333700 3.860500 0.164450 
#    z 0.097820 0.164450 4.257070 
# 
# 
# High freq. dielectric constant tensor:
#      x y z
#    x 1.821270 -0.035490 0.019300 
#    y -0.035490 1.840370 0.014240 
#    z 0.019300 0.014240 1.850170 
# 
# From -- ./inp_files/186676.got.cif
#   From: 2010.06.25/outbox.cif.g09.slc.cpg/sg2_94_cif.got.tgz:186676.got - 2010.06.27 13:26:56.
