data_PCOD8001725
_publ_section_title
;
Structure prediction by ZEFSAII (Michael W. Deem and Ramdas Pophale) SiO2 
 PCOD8001725
Probable space group: P -1
;
_chemical_formula_sum "Si O2"
_cell_formula_units_Z 12
_cell_length_a 20.225116
_cell_length_b 5.148224
_cell_length_c 13.218056
_cell_angle_alpha 85.976208
_cell_angle_beta 149.346881
_cell_angle_gamma 106.209010
_cell_volume 631.893848
_symmetry_space_group_name_H-M "P -1"
_symmetry_group_IT_number 2
_symmetry_cell_setting 'triclinic'
loop_
_space_group_symop_operation_xyz
x,y,z
-x,-y,-z
loop_
_atom_site_type_symbol
_atom_site_label
_atom_site_fract_x
_atom_site_fract_y
_atom_site_fract_z
Si Si1 0.425015 0.192741 0.857917
Si Si2 0.562127 0.811116 0.362416
Si Si3 0.672901 0.172231 0.822547
Si Si4 0.886600 0.145927 0.459414
Si Si5 0.932368 0.199890 0.288647
Si Si6 0.614468 0.328454 0.537691
O O1 0.445172 0.235038 0.764388
O O2 0.258112 0.043973 0.667817
O O3 0.500000 0.500000 0.000000
O O4 0.500000 0.000000 0.000000
O O5 0.397551 0.693624 0.190282
O O6 0.644522 0.639206 0.525666
O O7 0.650797 0.146426 0.502819
O O8 0.709888 0.360761 0.762777
O O9 0.554900 0.846148 0.649426
O O10 0.815465 0.160980 0.051247
O O11 0.856483 0.125544 0.300322
O O12 0.943585 0.475609 0.560615
O O13 0.001902 0.024812 0.643533
#
# Coordination Sequence:
#
# PCOD8001725 Si02
#       6
#     2   2   2   2   2   2
#     4  12  24  38  60  81 113 151 189 229 278 337
#     4  10  20  34  54  83 114 140 176 247 271 322
#     4   9  20  33  61  84 110 145 186 230 290 310
#     4  10  23  38  51  86 108 149 187 219 282 330
#     4  10  21  36  59  75 118 144 181 234 267 344
#     4   9  20  33  55  90 110 136 192 234 278 322
#
# _framework density 18.990528999999999
#
# number of rings (size 3 to 8) (size 9 to 14) (size 15 to 20)
#    1.000    1.000    0.000    3.500    4.667    1.333 
#    0.000    0.000    0.000    6.000    0.000    0.000 
#    0.000    0.000    0.000    0.000    0.000    0.000 
#
# Total GULP energy -148769.058889 kJ/mol
# GULP energy per Si atom -12397.421574 kJ/mol
# Density = 1.894731 g / cm^3
# Si number density = 18.990529 Si / 1000 Ang^3
#
#
#
# Elastic Constant Matrix: (Units=GPa)
#
#
# Indices 1 2 3 4 5 6 
#
# 1 90.9774 29.3515 37.6410 -7.4933 -17.5761 3.1567
# 2 29.3515 94.7210 25.7826 -23.7393 -2.0035 -11.2240
# 3 37.6410 25.7826 112.3548 -32.0201 -12.0557 9.5249
# 4 -7.4933 -23.7393 -32.0201 35.0176 4.7481 -0.1263
# 5 -17.5761 -2.0035 -12.0557 4.7481 19.6873 -6.6122
# 6 3.1567 -11.2240 9.5249 -0.1263 -6.6122 24.6576
#
#
#
# Elastic Compliance Matrix: (Units=1/GPa)
#
#
# Indices 1 2 3 4 5 6 
#
# 1 0.016578 -0.004932 -0.004793 -0.005955 0.013126 0.000974
# 2 -0.004932 0.015268 0.000036 0.009743 -0.002878 0.006845
# 3 -0.004793 0.000036 0.014359 0.012117 -0.000039 -0.004865
# 4 -0.005955 0.009743 0.012117 0.046121 -0.008545 -0.001538
# 5 0.013126 -0.002878 -0.000039 -0.008545 0.069503 0.015619
# 6 0.000974 0.006845 -0.004865 -0.001538 0.015619 0.049607
#
#
# Mechanical properties :
#
#
# Convention : Reuss Voigt Hill
#
# Bulk Modulus (GPa) = 37.27598 53.73373 45.50485
# Shear Modulus (GPa) = 20.85463 29.55770 25.20616
#
# Velocity S-wave (km/s) = 3.31744 3.94946 3.64717
# Velocity P-wave (km/s) = 5.86048 7.01100 6.46140
#
# Compressibility (1/GPa) = 0.02682693
#
# Stress axis : x y z
#
# Youngs Moduli (GPa) = 60.32219 65.49723 69.64080
#
# Poissons Ratio (x) = 0.32301 0.33382
# Poissons Ratio (y) = 0.29749 -0.00253
# Poissons Ratio (z) = 0.28915 -0.00238
#
# Static dielectric constant tensor:
#      x y z
#    x 4.282890 0.381750 -0.590590 
#    y 0.381750 3.788730 -0.436490 
#    z -0.590590 -0.436490 3.466850 
# 
# 
# High freq. dielectric constant tensor:
#      x y z
#    x 1.722530 -0.015300 -0.017530 
#    y -0.015300 1.743890 -0.023220 
#    z -0.017530 -0.023220 1.723680 
# 
# From -- ./inp_files/66702.got.cif
#   From: 2010.06.25/outbox.cif.g09.slc.cpg/sg2_34_cif.got.tgz:66702.got - 2010.06.27 13:26:56.
