data_PCOD8001686
_publ_section_title
;
Structure prediction by ZEFSAII (Michael W. Deem and Ramdas Pophale) SiO2 
 PCOD8001686
Probable space group: P -1
;
_chemical_formula_sum "Si O2"
_cell_formula_units_Z 12
_cell_length_a 11.844622
_cell_length_b 11.380660
_cell_length_c 13.687939
_cell_angle_alpha 73.724262
_cell_angle_beta 20.830768
_cell_angle_gamma 77.910654
_cell_volume 622.353755
_symmetry_space_group_name_H-M "P -1"
_symmetry_group_IT_number 2
_symmetry_cell_setting 'triclinic'
loop_
_space_group_symop_operation_xyz
x,y,z
-x,-y,-z
loop_
_atom_site_type_symbol
_atom_site_label
_atom_site_fract_x
_atom_site_fract_y
_atom_site_fract_z
Si Si1 0.794790 0.366847 0.215603
Si Si2 0.400811 0.598063 0.982234
Si Si3 0.645569 0.845098 0.830318
Si Si4 0.335785 0.443705 0.424208
Si Si5 0.381428 0.881236 0.238062
Si Si6 0.560756 0.694255 0.281287
O O1 0.501019 0.348633 0.380500
O O2 0.646844 0.353683 0.445882
O O3 0.000000 0.500000 0.000000
O O4 0.055906 0.273512 0.011871
O O5 0.434881 0.732521 0.971971
O O6 0.635009 0.596769 0.701333
O O7 0.500000 0.500000 0.000000
O O8 0.037778 0.563878 0.245884
O O9 0.016007 0.840743 0.509484
O O10 0.539166 0.970998 0.845530
O O11 0.598241 0.836853 0.987303
O O12 0.502577 0.585458 0.272544
O O13 0.453690 0.818129 0.296103
#
# Coordination Sequence:
#
# PCOD8001686 Si02
#       6
#     2   2   2   2   2   2
#     4  10  20  34  53  79 107 136 174 219 262 303
#     4  12  22  34  53  78 109 139 169 205 262 325
#     4  10  21  36  53  79 108 139 174 212 263 306
#     4  11  21  34  52  77 109 136 165 215 265 309
#     4  10  20  36  57  77 104 137 178 222 251 303
#     4  11  19  34  57  80 103 135 181 217 259 305
#
# _framework density 19.281637
#
# number of rings (size 3 to 8) (size 9 to 14) (size 15 to 20)
#    0.000    1.333    0.000    9.500    0.000    0.000 
#    0.000    0.000    0.000    6.000    0.000    0.000 
#    0.000    0.000    0.000    0.000    0.000    0.000 
#
# Total GULP energy -148820.167824 kJ/mol
# GULP energy per Si atom -12401.680652 kJ/mol
# Density = 1.923775 g / cm^3
# Si number density = 19.281637 Si / 1000 Ang^3
#
#
#
# Elastic Constant Matrix: (Units=GPa)
#
#
# Indices 1 2 3 4 5 6 
#
# 1 102.9822 58.2950 28.2677 0.1298 8.9800 -21.8123
# 2 58.2950 96.9311 29.1917 0.1542 0.6587 -14.5724
# 3 28.2677 29.1917 92.8409 9.4956 -1.2488 -5.0063
# 4 0.1298 0.1542 9.4956 19.5719 0.9600 -1.9462
# 5 8.9800 0.6587 -1.2488 0.9600 37.9490 2.3620
# 6 -21.8123 -14.5724 -5.0063 -1.9462 2.3620 27.0959
#
#
#
# Elastic Compliance Matrix: (Units=1/GPa)
#
#
# Indices 1 2 3 4 5 6 
#
# 1 0.017609 -0.008326 -0.002522 0.002383 -0.004777 0.009819
# 2 -0.008326 0.016339 -0.002630 0.001286 0.001470 0.001563
# 3 -0.002522 -0.002630 0.012958 -0.006477 0.001334 -0.001632
# 4 0.002383 0.001286 -0.006477 0.054889 -0.002535 0.005577
# 5 -0.004777 0.001470 0.001334 -0.002535 0.027902 -0.005422
# 6 0.009819 0.001563 -0.001632 0.005577 -0.005422 0.046223
#
#
# Mechanical properties :
#
#
# Convention : Reuss Voigt Hill
#
# Bulk Modulus (GPa) = 50.12366 58.25146 54.18756
# Shear Modulus (GPa) = 23.86350 28.72334 26.29342
#
# Velocity S-wave (km/s) = 3.52181 3.86382 3.69677
# Velocity P-wave (km/s) = 6.52606 7.08392 6.81070
#
# Compressibility (1/GPa) = 0.01995066
#
# Stress axis : x y z
#
# Youngs Moduli (GPa) = 56.78933 61.20441 77.17030
#
# Poissons Ratio (x) = 0.50957 0.19464
# Poissons Ratio (y) = 0.47281 0.20294
# Poissons Ratio (z) = 0.14323 0.16095
#
# Static dielectric constant tensor:
#      x y z
#    x 3.491550 -0.278420 -0.112120 
#    y -0.278420 3.469330 0.238570 
#    z -0.112120 0.238570 3.852970 
# 
# 
# High freq. dielectric constant tensor:
#      x y z
#    x 1.742790 -0.022190 0.008920 
#    y -0.022190 1.726700 0.016920 
#    z 0.008920 0.016920 1.771580 
# 
# From -- ./inp_files/108649.got.cif
#   From: 2010.06.25/outbox.cif.g09.slc.cpg/sg2_55_cif.got.tgz:108649.got - 2010.06.27 13:26:56.
