data_PCOD8001290
_publ_section_title
;
Structure prediction by ZEFSAII (Michael W. Deem and Ramdas Pophale) SiO2 
 PCOD8001290
Probable space group: P -1
;
_chemical_formula_sum "Si O2"
_cell_formula_units_Z 14
_cell_length_a 20.648339
_cell_length_b 9.268031
_cell_length_c 7.645935
_cell_angle_alpha 49.311237
_cell_angle_beta 143.932802
_cell_angle_gamma 130.555471
_cell_volume 627.827736
_symmetry_space_group_name_H-M "P -1"
_symmetry_group_IT_number 2
_symmetry_cell_setting 'triclinic'
loop_
_space_group_symop_operation_xyz
x,y,z
-x,-y,-z
loop_
_atom_site_type_symbol
_atom_site_label
_atom_site_fract_x
_atom_site_fract_y
_atom_site_fract_z
Si Si1 0.249814 0.550377 0.808532
Si Si2 0.874264 0.124375 0.761288
Si Si3 0.127451 0.136706 0.370840
Si Si4 0.496429 0.706986 0.238781
Si Si5 0.481319 0.174785 0.436160
Si Si6 0.331296 0.434673 0.443895
Si Si7 0.774988 0.856131 0.074395
O O1 0.157889 0.673106 0.499279
O O2 0.195880 0.347569 0.748649
O O3 0.373689 0.676929 0.900180
O O4 0.270551 0.499455 0.093109
O O5 0.854330 0.003171 0.634077
O O6 0.006181 0.181563 0.059314
O O7 0.795715 0.999852 0.839952
O O8 0.228713 0.343275 0.425935
O O9 0.141613 0.040509 0.666022
O O10 0.500000 0.500000 0.500000
O O11 0.509959 0.866810 0.300864
O O12 0.604297 0.740387 0.316405
O O13 0.576764 0.373782 0.426983
O O14 0.500000 0.000000 0.500000
O O15 0.356063 0.196249 0.107738
#
# Coordination Sequence:
#
# PCOD8001290 Si02
#       7
#     2   2   2   2   2   2   2
#     4  10  20  42  72  92 134 184 212 273 341 388
#     4  11  26  48  65 101 132 179 232 271 331 390
#     4  11  26  44  70  97 134 177 228 281 322 394
#     4   8  15  36  65  90 131 177 203 259 344 390
#     4  10  20  35  65 103 134 165 220 275 327 400
#     4  10  19  44  67  97 137 177 213 269 346 396
#     4  12  23  46  67  98 139 174 221 281 329 398
#
# _framework density 22.299112000000001
#
# number of rings (size 3 to 8) (size 9 to 14) (size 15 to 20)
#    0.000    2.000    5.714    0.429    4.000    2.857 
#    2.571    3.571    0.000    0.000    0.000    0.000 
#    0.000    0.000    0.000    0.000    0.000    0.000 
#
# Total GULP energy -173527.013091 kJ/mol
# GULP energy per Si atom -12394.786649 kJ/mol
# Density = 2.224836 g / cm^3
# Si number density = 22.299112 Si / 1000 Ang^3
#
#
#
# Elastic Constant Matrix: (Units=GPa)
#
#
# Indices 1 2 3 4 5 6 
#
# 1 71.8991 45.0841 31.8439 0.2161 6.5934 -11.1906
# 2 45.0841 83.1923 16.3086 0.5888 11.6294 -14.5402
# 3 31.8439 16.3086 79.1211 3.2733 7.3441 -10.0057
# 4 0.2161 0.5888 3.2733 33.0358 -4.5773 5.7396
# 5 6.5934 11.6294 7.3441 -4.5773 35.7023 9.4831
# 6 -11.1906 -14.5402 -10.0057 5.7396 9.4831 30.0581
#
#
#
# Elastic Compliance Matrix: (Units=1/GPa)
#
#
# Indices 1 2 3 4 5 6 
#
# 1 0.024756 -0.011979 -0.007549 0.000836 0.000864 0.000477
# 2 -0.011979 0.020854 0.002647 -0.003372 -0.008139 0.009721
# 3 -0.007549 0.002647 0.016510 -0.003390 -0.004938 0.006172
# 4 0.000836 -0.003372 -0.003390 0.033980 0.009137 -0.011820
# 5 0.000864 -0.008139 -0.004938 0.009137 0.037709 -0.018901
# 6 0.000477 0.009721 0.006172 -0.011820 -0.018901 0.048423
#
#
# Mechanical properties :
#
#
# Convention : Reuss Voigt Hill
#
# Bulk Modulus (GPa) = 35.26277 46.74287 41.00282
# Shear Modulus (GPa) = 22.17813 29.15764 25.66789
#
# Velocity S-wave (km/s) = 3.15711 3.61996 3.39643
# Velocity P-wave (km/s) = 5.39793 6.20317 5.81451
#
# Compressibility (1/GPa) = 0.02835852
#
# Stress axis : x y z
#
# Youngs Moduli (GPa) = 40.39474 47.95253 60.56776
#
# Poissons Ratio (x) = 0.57444 0.45721
# Poissons Ratio (y) = 0.48390 -0.16033
# Poissons Ratio (z) = 0.30493 -0.12694
#
# Static dielectric constant tensor:
#      x y z
#    x 4.393480 -0.101520 0.244960 
#    y -0.101520 3.921770 0.239730 
#    z 0.244960 0.239730 3.976480 
# 
# 
# High freq. dielectric constant tensor:
#      x y z
#    x 1.875770 -0.007240 0.009630 
#    y -0.007240 1.862670 0.017800 
#    z 0.009630 0.017800 1.876240 
# 
# From -- ./inp_files/351645.got.cif
#   From: 2010.06.25/outbox.cif.g09.slc.cpg/sg2_176_cif.got.tgz:351645.got - 2010.06.27 13:26:56.
