data_PCOD8001689
_publ_section_title
;
Structure prediction by ZEFSAII (Michael W. Deem and Ramdas Pophale) SiO2 
 PCOD8001689
Probable space group: P -1
;
_chemical_formula_sum "Si O2"
_cell_formula_units_Z 14
_cell_length_a 18.364737
_cell_length_b 11.129008
_cell_length_c 7.724728
_cell_angle_alpha 137.539442
_cell_angle_beta 127.454111
_cell_angle_gamma 44.377550
_cell_volume 734.408173
_symmetry_space_group_name_H-M "P -1"
_symmetry_group_IT_number 2
_symmetry_cell_setting 'triclinic'
loop_
_space_group_symop_operation_xyz
x,y,z
-x,-y,-z
loop_
_atom_site_type_symbol
_atom_site_label
_atom_site_fract_x
_atom_site_fract_y
_atom_site_fract_z
Si Si1 0.237815 0.887523 0.297192
Si Si2 0.893964 0.798457 0.064365
Si Si3 0.741175 0.238449 0.433342
Si Si4 0.128941 0.566928 0.267271
Si Si5 0.376460 0.635015 0.942679
Si Si6 0.800291 0.417350 0.250505
Si Si7 0.881808 0.686689 0.549794
O O1 0.295811 0.787426 0.456991
O O2 0.160667 0.133800 0.466017
O O3 0.328738 0.825966 0.214390
O O4 0.165230 0.786436 0.031479
O O5 0.848337 0.667290 0.957542
O O6 0.868574 0.807708 0.835594
O O7 0.018284 0.705972 0.163907
O O8 0.842484 0.025800 0.302499
O O9 0.779068 0.408808 0.669645
O O10 0.648678 0.290861 0.215057
O O11 0.119994 0.635684 0.528729
O O12 0.319054 0.501509 0.762708
O O13 0.500000 0.500000 0.000000
O O14 0.803729 0.592201 0.326797
O O15 0.000000 0.500000 0.500000
#
# Coordination Sequence:
#
# PCOD8001689 Si02
#       7
#     2   2   2   2   2   2   2
#     4  10  23  37  58  87 114 149 194 233 284 346
#     4  10  20  34  53  80 116 157 192 224 279 337
#     4  11  21  36  59  82 115 147 185 243 282 340
#     4   9  19  34  53  78 113 157 189 226 275 338
#     4   9  20  44  63  80 112 148 194 250 290 328
#     4   8  20  39  55  84 116 151 195 232 284 338
#     4  11  22  36  56  84 126 158 186 230 278 343
#
# _framework density 19.062968999999999
#
# number of rings (size 3 to 8) (size 9 to 14) (size 15 to 20)
#    0.857    1.429    1.429    0.429    8.000    1.143 
#    0.000    0.714    0.000    0.857    0.000    0.000 
#    0.000    0.000    0.000    0.000    0.000    0.000 
#
# Total GULP energy -173448.100466 kJ/mol
# GULP energy per Si atom -12389.150033 kJ/mol
# Density = 1.901958 g / cm^3
# Si number density = 19.062969 Si / 1000 Ang^3
#
#
#
# Elastic Constant Matrix: (Units=GPa)
#
#
# Indices 1 2 3 4 5 6 
#
# 1 69.9130 50.6549 30.6924 -4.4617 4.8806 8.0468
# 2 50.6549 109.1286 32.5401 -12.4034 6.4030 11.9334
# 3 30.6924 32.5401 61.4533 1.3644 1.7821 11.2283
# 4 -4.4617 -12.4034 1.3644 22.9904 3.5940 -1.2309
# 5 4.8806 6.4030 1.7821 3.5940 25.6904 -0.1327
# 6 8.0468 11.9334 11.2283 -1.2309 -0.1327 26.9363
#
#
#
# Elastic Compliance Matrix: (Units=1/GPa)
#
#
# Indices 1 2 3 4 5 6 
#
# 1 0.024075 -0.008785 -0.007285 0.000660 -0.001972 -0.000243
# 2 -0.008785 0.015542 -0.003458 0.007218 -0.002988 -0.002504
# 3 -0.007285 -0.003458 0.022929 -0.005176 0.001348 -0.006079
# 4 0.000660 0.007218 -0.005176 0.049198 -0.008443 0.000969
# 5 -0.001972 -0.002988 0.001348 -0.008443 0.041138 0.001168
# 6 -0.000243 -0.002504 -0.006079 0.000969 0.001168 0.040891
#
#
# Mechanical properties :
#
#
# Convention : Reuss Voigt Hill
#
# Bulk Modulus (GPa) = 42.57379 52.02996 47.30187
# Shear Modulus (GPa) = 20.77630 23.56393 22.17011
#
# Velocity S-wave (km/s) = 3.30491 3.51965 3.41397
# Velocity P-wave (km/s) = 6.07824 6.62346 6.35670
#
# Compressibility (1/GPa) = 0.02348863
#
# Stress axis : x y z
#
# Youngs Moduli (GPa) = 41.53707 64.34117 43.61346
#
# Poissons Ratio (x) = 0.56526 0.31773
# Poissons Ratio (y) = 0.36492 0.15081
# Poissons Ratio (z) = 0.30261 0.22249
#
# Static dielectric constant tensor:
#      x y z
#    x 3.361790 0.468140 0.057390 
#    y 0.468140 3.351020 -0.009710 
#    z 0.057390 -0.009710 3.595820 
# 
# 
# High freq. dielectric constant tensor:
#      x y z
#    x 1.712900 0.033740 -0.000540 
#    y 0.033740 1.720850 -0.006240 
#    z -0.000540 -0.006240 1.746480 
# 
# From -- ./inp_files/344426.got.cif
#   From: 2010.06.25/outbox.cif.g09.slc.cpg/sg2_173_cif.got.tgz:344426.got - 2010.06.27 13:26:56.
