data_PCOD8001929
_publ_section_title
;
Structure prediction by ZEFSAII (Michael W. Deem and Ramdas Pophale) SiO2 
 PCOD8001929
Probable space group: P -1
;
_chemical_formula_sum "Si O2"
_cell_formula_units_Z 14
_cell_length_a 9.705025
_cell_length_b 9.159364
_cell_length_c 11.745813
_cell_angle_alpha 83.616421
_cell_angle_beta 100.366354
_cell_angle_gamma 133.003754
_cell_volume 751.004796
_symmetry_space_group_name_H-M "P -1"
_symmetry_group_IT_number 2
_symmetry_cell_setting 'triclinic'
loop_
_space_group_symop_operation_xyz
x,y,z
-x,-y,-z
loop_
_atom_site_type_symbol
_atom_site_label
_atom_site_fract_x
_atom_site_fract_y
_atom_site_fract_z
Si Si1 0.863632 0.694243 0.514508
Si Si2 0.343633 0.673443 0.327322
Si Si3 0.483320 0.292404 0.109912
Si Si4 0.510334 0.385220 0.858496
Si Si5 0.761032 0.069032 0.735361
Si Si6 0.810650 0.650480 0.250928
Si Si7 0.722554 0.911395 0.500651
O O1 0.807675 0.522575 0.603180
O O2 0.817375 0.610441 0.387311
O O3 0.738259 0.746669 0.524505
O O4 0.087611 0.885982 0.544768
O O5 0.362294 0.607647 0.214581
O O6 0.254249 0.767921 0.286502
O O7 0.546413 0.833543 0.404279
O O8 0.389925 0.387643 0.112581
O O9 0.696417 0.442564 0.183187
O O10 0.359953 0.075859 0.164441
O O11 0.493203 0.271565 0.977901
O O12 0.299594 0.271340 0.785988
O O13 0.979007 0.180471 0.781833
O O14 0.685071 0.942737 0.619070
#
# Coordination Sequence:
#
# PCOD8001929 Si02
#       7
#     2   2   2   2   2   2   2
#     4  10  20  34  60  79 110 139 186 214 262 314
#     4  12  22  35  53  87 111 143 169 226 268 323
#     4   9  19  40  59  76 103 145 182 229 254 318
#     4   9  20  39  60  75 105 141 192 216 265 305
#     4  11  23  33  57  82 113 139 178 212 286 312
#     4   9  19  38  57  80 104 142 179 227 255 320
#     4  10  20  36  54  83 108 145 178 218 257 329
#
# _framework density 18.641691999999999
#
# number of rings (size 3 to 8) (size 9 to 14) (size 15 to 20)
#    0.857    1.143    1.429    2.571    0.000    4.571 
#    0.000    0.714    0.000    0.000    0.000    0.000 
#    0.000    0.000    0.000    0.000    0.000    0.000 
#
# Total GULP energy -173591.605236 kJ/mol
# GULP energy per Si atom -12399.400374 kJ/mol
# Density = 1.859926 g / cm^3
# Si number density = 18.641692 Si / 1000 Ang^3
#
#
#
# Elastic Constant Matrix: (Units=GPa)
#
#
# Indices 1 2 3 4 5 6 
#
# 1 34.0043 19.4370 13.7504 -2.6544 5.4513 -2.1089
# 2 19.4370 84.6008 51.2900 -21.8280 6.3530 4.9009
# 3 13.7504 51.2900 119.3915 -18.6837 -4.4514 2.7310
# 4 -2.6544 -21.8280 -18.6837 20.9035 -4.7142 3.7081
# 5 5.4513 6.3530 -4.4514 -4.7142 10.9265 -7.1385
# 6 -2.1089 4.9009 2.7310 3.7081 -7.1385 19.1153
#
#
#
# Elastic Compliance Matrix: (Units=1/GPa)
#
#
# Indices 1 2 3 4 5 6 
#
# 1 0.037785 -0.008287 -0.003346 -0.011492 -0.019145 0.001851
# 2 -0.008287 0.024621 -0.007109 0.017524 -0.015602 -0.015437
# 3 -0.003346 -0.007109 0.013513 0.007357 0.017510 0.004635
# 4 -0.011492 0.017524 0.007357 0.079008 0.024029 -0.013165
# 5 -0.019145 -0.015602 0.017510 0.024029 0.164277 0.056074
# 6 0.001851 -0.015437 0.004635 -0.013165 0.056074 0.079308
#
#
# Mechanical properties :
#
#
# Convention : Reuss Voigt Hill
#
# Bulk Modulus (GPa) = 26.01824 45.21684 35.61754
# Shear Modulus (GPa) = 11.14060 20.42367 15.78213
#
# Velocity S-wave (km/s) = 2.44727 3.31356 2.91280
# Velocity P-wave (km/s) = 4.68752 6.24083 5.51910
#
# Compressibility (1/GPa) = 0.03843458
#
# Stress axis : x y z
#
# Youngs Moduli (GPa) = 26.46558 40.61532 74.00139
#
# Poissons Ratio (x) = 0.33659 0.24762
# Poissons Ratio (y) = 0.21933 0.52608
# Poissons Ratio (z) = 0.08856 0.28874
#
# Static dielectric constant tensor:
#      x y z
#    x 3.272480 0.061560 -0.056380 
#    y 0.061560 3.282090 0.069070 
#    z -0.056380 0.069070 3.405030 
# 
# 
# High freq. dielectric constant tensor:
#      x y z
#    x 1.707240 0.006280 -0.005110 
#    y 0.006280 1.714150 0.001550 
#    z -0.005110 0.001550 1.726010 
# 
# From -- ./inp_files/203945.got.cif
#   From: 2010.06.25/outbox.cif.g09.slc.cpg/sg2_102_cif.got.tgz:203945.got - 2010.06.27 13:26:56.
