data_PCOD8001839
_publ_section_title
;
Structure prediction by ZEFSAII (Michael W. Deem and Ramdas Pophale) SiO2 
 PCOD8001839
Probable space group: P -1
;
_chemical_formula_sum "Si O2"
_cell_formula_units_Z 12
_cell_length_a 25.034676
_cell_length_b 9.283067
_cell_length_c 12.284657
_cell_angle_alpha 140.566940
_cell_angle_beta 26.141746
_cell_angle_gamma 152.933328
_cell_volume 567.140715
_symmetry_space_group_name_H-M "P -1"
_symmetry_group_IT_number 2
_symmetry_cell_setting 'triclinic'
loop_
_space_group_symop_operation_xyz
x,y,z
-x,-y,-z
loop_
_atom_site_type_symbol
_atom_site_label
_atom_site_fract_x
_atom_site_fract_y
_atom_site_fract_z
Si Si1 0.802052 0.498569 0.061190
Si Si2 0.790677 0.985023 0.387524
Si Si3 0.311318 0.318773 0.206243
Si Si4 0.185946 0.828688 0.320145
Si Si5 0.789729 0.303931 0.381173
Si Si6 0.192353 0.842897 0.968367
O O1 0.719326 0.638369 0.294005
O O2 0.721574 0.254110 0.963335
O O3 0.755541 0.312324 0.149839
O O4 0.005846 0.767047 0.832323
O O5 0.715543 0.976311 0.635204
O O6 0.727362 0.067738 0.457414
O O7 0.301997 0.576239 0.373536
O O8 0.179192 0.036566 0.371736
O O9 0.270424 0.169588 0.073037
O O10 0.500000 0.500000 0.000000
O O11 0.000000 0.500000 0.500000
O O12 0.990387 0.611671 0.197908
O O13 0.735169 0.098732 0.251464
#
# Coordination Sequence:
#
# PCOD8001839 Si02
#       6
#     2   2   2   2   2   2
#     4   8  15  28  48  77 105 133 175 225 276 318
#     4   9  16  28  50  78 105 133 175 231 275 314
#     4  11  23  38  57  83 118 153 184 229 288 341
#     4   9  18  33  55  78 104 145 189 226 266 327
#     4  10  20  34  57  87 113 144 191 239 279 327
#     4   9  19  35  57  82 109 146 192 236 274 329
#
# _framework density 21.158770000000001
#
# number of rings (size 3 to 8) (size 9 to 14) (size 15 to 20)
#    0.000    2.667    0.000    2.500    0.000    6.000 
#    0.000    0.833    0.000    5.000    0.000    0.000 
#    0.000    0.000    0.000    0.000    0.000    0.000 
#
# Total GULP energy -148741.142408 kJ/mol
# GULP energy per Si atom -12395.095201 kJ/mol
# Density = 2.111061 g / cm^3
# Si number density = 21.158770 Si / 1000 Ang^3
#
#
#
# Elastic Constant Matrix: (Units=GPa)
#
#
# Indices 1 2 3 4 5 6 
#
# 1 154.9280 44.8297 87.9578 39.0278 31.3400 -7.2106
# 2 44.8297 33.9308 46.9234 19.0503 4.6597 -5.9662
# 3 87.9578 46.9234 96.6632 47.9209 10.1567 -1.3695
# 4 39.0278 19.0503 47.9209 35.6432 10.0811 -1.0039
# 5 31.3400 4.6597 10.1567 10.0811 42.0630 14.2988
# 6 -7.2106 -5.9662 -1.3695 -1.0039 14.2988 34.9673
#
#
#
# Elastic Compliance Matrix: (Units=1/GPa)
#
#
# Indices 1 2 3 4 5 6 
#
# 1 0.020390 0.008508 -0.029910 0.018638 -0.017521 0.012185
# 2 0.008508 0.122813 -0.092759 0.056538 -0.021060 0.029311
# 3 -0.029910 -0.092759 0.129272 -0.103269 0.038165 -0.035503
# 4 0.018638 0.056538 -0.103269 0.126924 -0.034940 0.027377
# 5 -0.017521 -0.021060 0.038165 -0.034940 0.047158 -0.025999
# 6 0.012185 0.029311 -0.035503 0.027377 -0.025999 0.046139
#
#
# Mechanical properties :
#
#
# Convention : Reuss Voigt Hill
#
# Bulk Modulus (GPa) = 22.64914 71.66041 47.15477
# Shear Modulus (GPa) = 6.79592 29.58878 18.19235
#
# Velocity S-wave (km/s) = 1.79411 3.74360 2.93542
# Velocity P-wave (km/s) = 3.87549 7.25448 5.81579
#
# Compressibility (1/GPa) = 0.04415178
#
# Stress axis : x y z
#
# Youngs Moduli (GPa) = 49.04379 8.14249 7.73562
#
# Poissons Ratio (x) = -0.06927 0.23137
# Poissons Ratio (y) = -0.41725 0.71755
# Poissons Ratio (z) = 1.46689 0.75529
#
# Static dielectric constant tensor:
#      x y z
#    x 4.050110 -0.022250 0.473510 
#    y -0.022250 3.890760 0.460650 
#    z 0.473510 0.460650 3.729650 
# 
# 
# High freq. dielectric constant tensor:
#      x y z
#    x 1.825800 -0.005110 0.027940 
#    y -0.005110 1.821430 0.030120 
#    z 0.027940 0.030120 1.807960 
# 
# From -- ./inp_files/151401.got.cif
#   From: 2010.06.25/outbox.cif.g09.slc.cpg/sg2_76_cif.got.tgz:151401.got - 2010.06.27 13:26:56.
