data_PCOD8001478
_publ_section_title
;
Structure prediction by ZEFSAII (Michael W. Deem and Ramdas Pophale) SiO2 
 PCOD8001478
Probable space group: P -1
;
_chemical_formula_sum "Si O2"
_cell_formula_units_Z 16
_cell_length_a 15.263644
_cell_length_b 23.863903
_cell_length_c 14.927300
_cell_angle_alpha 31.015506
_cell_angle_beta 18.972140
_cell_angle_gamma 31.253574
_cell_volume 878.256352
_symmetry_space_group_name_H-M "P -1"
_symmetry_group_IT_number 2
_symmetry_cell_setting 'triclinic'
loop_
_space_group_symop_operation_xyz
x,y,z
-x,-y,-z
loop_
_atom_site_type_symbol
_atom_site_label
_atom_site_fract_x
_atom_site_fract_y
_atom_site_fract_z
Si Si1 0.058646 0.372211 0.654915
Si Si2 0.071088 0.422739 0.767524
Si Si3 0.501133 0.126349 0.307734
Si Si4 0.886459 0.220069 0.702064
Si Si5 0.429330 0.708209 0.838595
Si Si6 0.513357 0.436430 0.859802
Si Si7 0.863046 0.352833 0.372715
Si Si8 0.310874 0.393186 0.756714
O O1 0.006048 0.356786 0.833544
O O2 0.376561 0.302774 0.421219
O O3 0.000000 0.500000 0.500000
O O4 0.876416 0.300159 0.880336
O O5 0.267467 0.491690 0.438944
O O6 0.237286 0.349573 0.790220
O O7 0.780656 0.495875 0.992789
O O8 0.594113 0.177340 0.239272
O O9 0.191747 0.199421 0.478462
O O10 0.500000 0.000000 0.500000
O O11 0.734812 0.122343 0.008633
O O12 0.658157 0.327721 0.812516
O O13 0.911715 0.243847 0.539532
O O14 0.570548 0.599354 0.912449
O O15 0.638364 0.344712 0.525409
O O16 0.762635 0.469930 0.365076
O O17 0.152760 0.348334 0.050356
#
# Coordination Sequence:
#
# PCOD8001478 Si02
#       8
#     2   2   2   2   2   2   2   2
#     4  12  21  33  48  76 106 144 188 209 244 311
#     4  12  21  30  47  68 110 142 185 207 246 289
#     4  11  24  40  59  81 107 135 177 231 282 317
#     4  11  21  35  57  77 104 140 182 213 275 320
#     4  11  21  35  50  73 104 141 176 222 251 312
#     4  11  19  30  47  72  99 143 179 211 238 303
#     4  10  20  33  49  71 101 141 183 214 256 308
#     4  10  21  31  45  72 106 141 182 218 246 296
#
# _framework density 18.217915000000001
#
# number of rings (size 3 to 8) (size 9 to 14) (size 15 to 20)
#    0.000    1.000    3.750    6.000    3.500    0.000 
#    0.000    0.000    0.000    0.000    0.000    0.000 
#    0.000   20.000    0.000    0.000    0.000    0.000 
#
# Total GULP energy -198311.542217 kJ/mol
# GULP energy per Si atom -12394.471389 kJ/mol
# Density = 1.817645 g / cm^3
# Si number density = 18.217915 Si / 1000 Ang^3
#
#
#
# Elastic Constant Matrix: (Units=GPa)
#
#
# Indices 1 2 3 4 5 6 
#
# 1 116.8662 30.6899 27.1422 -7.3507 -1.0324 -7.5815
# 2 30.6899 39.4433 28.7641 -5.1000 -1.1873 0.7248
# 3 27.1422 28.7641 107.0025 -3.3268 -8.6595 -3.2700
# 4 -7.3507 -5.1000 -3.3268 28.7465 -4.1598 -2.3514
# 5 -1.0324 -1.1873 -8.6595 -4.1598 34.1367 0.0567
# 6 -7.5815 0.7248 -3.2700 -2.3514 0.0567 14.1737
#
#
#
# Elastic Compliance Matrix: (Units=1/GPa)
#
#
# Indices 1 2 3 4 5 6 
#
# 1 0.011438 -0.008529 -0.000324 0.001959 0.000194 0.006804
# 2 -0.008529 0.038647 -0.008433 0.002947 -0.000681 -0.007993
# 3 -0.000324 -0.008433 0.012031 0.000472 0.002801 0.003101
# 4 0.001959 0.002947 0.000472 0.037144 0.004796 0.007149
# 5 0.000194 -0.000681 0.002801 0.004796 0.030569 0.001459
# 6 0.006804 -0.007993 0.003101 0.007149 0.001459 0.076497
#
#
# Mechanical properties :
#
#
# Convention : Reuss Voigt Hill
#
# Bulk Modulus (GPa) = 36.30709 48.50050 42.40379
# Shear Modulus (GPa) = 19.99364 27.19242 23.59303
#
# Velocity S-wave (km/s) = 3.31640 3.86764 3.60258
# Velocity P-wave (km/s) = 5.88535 6.82825 6.37426
#
# Compressibility (1/GPa) = 0.02754283
#
# Stress axis : x y z
#
# Youngs Moduli (GPa) = 87.42591 25.87543 83.11971
#
# Poissons Ratio (x) = 0.22070 0.02693
# Poissons Ratio (y) = 0.74570 0.70095
# Poissons Ratio (z) = 0.02833 0.21821
#
# Static dielectric constant tensor:
#      x y z
#    x 3.458070 -0.099910 0.037140 
#    y -0.099910 2.759560 0.092890 
#    z 0.037140 0.092890 3.781870 
# 
# 
# High freq. dielectric constant tensor:
#      x y z
#    x 1.706850 -0.009220 -0.004220 
#    y -0.009220 1.629410 0.025640 
#    z -0.004220 0.025640 1.734700 
# 
# From -- ./inp_files/454752.got.cif
#   From: 2010.06.25/outbox.cif.g09.slc.cpg/sg2_228_cif.got.tgz:454752.got - 2010.06.27 13:26:56.
