data_PCOD8001018
_publ_section_title
;
Structure prediction by ZEFSAII (Michael W. Deem and Ramdas Pophale) SiO2 
 PCOD8001018
Probable space group: P -1
;
_chemical_formula_sum "Si O2"
_cell_formula_units_Z 16
_cell_length_a 27.639278
_cell_length_b 9.809161
_cell_length_c 27.960634
_cell_angle_alpha 37.589443
_cell_angle_beta 169.689673
_cell_angle_gamma 143.347198
_cell_volume 809.610090
_symmetry_space_group_name_H-M "P -1"
_symmetry_group_IT_number 2
_symmetry_cell_setting 'triclinic'
loop_
_space_group_symop_operation_xyz
x,y,z
-x,-y,-z
loop_
_atom_site_type_symbol
_atom_site_label
_atom_site_fract_x
_atom_site_fract_y
_atom_site_fract_z
Si Si1 0.121246 0.987994 0.892164
Si Si2 0.315063 0.758386 0.648151
Si Si3 0.529656 0.079822 0.138953
Si Si4 0.089465 0.330419 0.595796
Si Si5 0.299107 0.654759 0.423059
Si Si6 0.273550 0.647859 0.058051
Si Si7 0.011229 0.239958 0.075191
Si Si8 0.526423 0.102794 0.571428
O O1 0.171871 0.781191 0.966079
O O2 0.969565 0.885128 0.821170
O O3 0.928446 0.125122 0.638283
O O4 0.409690 0.162060 0.138242
O O5 0.411727 0.840668 0.772078
O O6 0.204337 0.482416 0.618441
O O7 0.818598 0.132980 0.375435
O O8 0.391254 0.811033 0.082081
O O9 0.326140 0.217183 0.878245
O O10 0.000000 0.500000 0.500000
O O11 0.484267 0.465861 0.654822
O O12 0.309210 0.777298 0.347715
O O13 0.398391 0.837908 0.510287
O O14 0.982146 0.540242 0.157711
O O15 0.740051 0.111038 0.819861
O O16 0.000000 0.500000 0.000000
O O17 0.284931 0.233843 0.313126
#
# Coordination Sequence:
#
# PCOD8001018 Si02
#       8
#     2   2   2   2   2   2   2   2
#     4  11  21  33  51  78 109 143 180 214 257 321
#     4  10  18  30  46  70 107 147 178 208 255 314
#     4  10  18  27  45  73 105 139 176 210 253 318
#     4  10  16  27  43  67 104 145 175 205 253 311
#     4  11  22  38  58  76 106 139 178 222 264 313
#     4  11  20  34  53  80 110 142 174 214 267 311
#     4  12  24  39  58  80 110 140 176 220 263 311
#     4  11  24  40  57  80 103 140 182 219 264 312
#
# _framework density 19.762599999999999
#
# number of rings (size 3 to 8) (size 9 to 14) (size 15 to 20)
#    0.000    1.250    0.000   11.625    0.000    2.000 
#    0.000    0.000    0.000    0.000    0.000    0.000 
#    0.000   70.000    0.000    0.000    0.000    0.000 
#
# Total GULP energy -198403.321932 kJ/mol
# GULP energy per Si atom -12400.207621 kJ/mol
# Density = 1.971762 g / cm^3
# Si number density = 19.762600 Si / 1000 Ang^3
#
#
#
# Elastic Constant Matrix: (Units=GPa)
#
#
# Indices 1 2 3 4 5 6 
#
# 1 62.0238 62.9636 31.1871 4.7498 7.1396 10.6800
# 2 62.9636 134.5573 51.4313 18.6687 10.2075 27.8264
# 3 31.1871 51.4313 130.0317 3.3542 5.7824 8.9074
# 4 4.7498 18.6687 3.3542 43.5303 15.2087 3.2390
# 5 7.1396 10.2075 5.7824 15.2087 30.2018 2.7223
# 6 10.6800 27.8264 8.9074 3.2390 2.7223 29.1094
#
#
#
# Elastic Compliance Matrix: (Units=1/GPa)
#
#
# Indices 1 2 3 4 5 6 
#
# 1 0.032249 -0.015381 -0.001790 0.004611 -0.004706 0.003346
# 2 -0.015381 0.018648 -0.002875 -0.005939 0.001849 -0.010816
# 3 -0.001790 -0.002875 0.009234 0.000999 -0.000926 0.000555
# 4 0.004611 -0.005939 0.000999 0.029867 -0.014468 0.001710
# 5 -0.004706 0.001849 -0.000926 -0.014468 0.041242 -0.002005
# 6 0.003346 -0.010816 0.000555 0.001710 -0.002005 0.043292
#
#
# Mechanical properties :
#
#
# Convention : Reuss Voigt Hill
#
# Bulk Modulus (GPa) = 49.90033 68.64185 59.27109
# Shear Modulus (GPa) = 22.59324 32.63703 27.61514
#
# Velocity S-wave (km/s) = 3.38484 4.06822 3.74216
# Velocity P-wave (km/s) = 6.37031 7.54161 6.98057
#
# Compressibility (1/GPa) = 0.02003995
#
# Stress axis : x y z
#
# Youngs Moduli (GPa) = 31.00840 53.62420 108.29137
#
# Poissons Ratio (x) = 0.82479 0.19384
# Poissons Ratio (y) = 0.47694 0.31135
# Poissons Ratio (z) = 0.05551 0.15418
#
# Static dielectric constant tensor:
#      x y z
#    x 3.423120 0.209580 -0.024190 
#    y 0.209580 2.642350 -0.505930 
#    z -0.024190 -0.505930 3.335130 
# 
# 
# High freq. dielectric constant tensor:
#      x y z
#    x 1.727870 0.042990 0.002390 
#    y 0.042990 1.770930 0.007020 
#    z 0.002390 0.007020 1.796320 
# 
# From -- ./inp_files/223957.got.cif
#   From: 2010.06.25/outbox.cif.g09.slc.cpg/sg2_112_cif.got.tgz:223957.got - 2010.06.27 13:26:56.
