data_PCOD8001466
_publ_section_title
;
Structure prediction by ZEFSAII (Michael W. Deem and Ramdas Pophale) SiO2 
 PCOD8001466
Probable space group: P -1
;
_chemical_formula_sum "Si O2"
_cell_formula_units_Z 14
_cell_length_a 9.027646
_cell_length_b 13.351475
_cell_length_c 11.265604
_cell_angle_alpha 53.596452
_cell_angle_beta 41.854004
_cell_angle_gamma 49.103914
_cell_volume 669.612652
_symmetry_space_group_name_H-M "P -1"
_symmetry_group_IT_number 2
_symmetry_cell_setting 'triclinic'
loop_
_space_group_symop_operation_xyz
x,y,z
-x,-y,-z
loop_
_atom_site_type_symbol
_atom_site_label
_atom_site_fract_x
_atom_site_fract_y
_atom_site_fract_z
Si Si1 0.217579 0.169683 0.611794
Si Si2 0.068926 0.812863 0.605349
Si Si3 0.732216 0.020418 0.495158
Si Si4 0.693084 0.606668 0.754768
Si Si5 0.569062 0.334821 0.690289
Si Si6 0.300331 0.666171 0.129559
Si Si7 0.864435 0.463650 0.302715
O O1 0.188499 0.057361 0.622023
O O2 0.244269 0.287525 0.433963
O O3 0.980002 0.234579 0.788387
O O4 0.442844 0.101538 0.613127
O O5 0.278347 0.794160 0.393085
O O6 0.052583 0.668668 0.741465
O O7 0.813745 0.916041 0.630545
O O8 0.139664 0.872808 0.639866
O O9 0.665276 0.490918 0.771715
O O10 0.903084 0.528001 0.780139
O O11 0.444380 0.689315 0.915163
O O12 0.594713 0.294827 0.840846
O O13 0.684936 0.447543 0.522440
O O14 0.284230 0.400161 0.778907
#
# Coordination Sequence:
#
# PCOD8001466 Si02
#       7
#     2   2   2   2   2   2   2
#     4  11  21  38  59  82 110 156 178 229 275 327
#     4   9  17  34  55  88 108 140 192 231 255 345
#     4  10  20  32  60  86 108 150 196 212 272 328
#     4  11  23  37  57  85 112 142 186 234 279 331
#     4   9  18  33  58  84 104 148 181 223 287 323
#     4  11  23  37  57  85 112 142 186 234 279 331
#     4   9  18  33  58  84 104 148 181 223 287 323
#
# _framework density 20.907609000000001
#
# number of rings (size 3 to 8) (size 9 to 14) (size 15 to 20)
#    0.857    1.143    4.286    0.429    4.000    0.571 
#    0.000    2.857    0.000    3.429    0.000    0.000 
#    0.000    0.000    0.000    0.000    0.000    0.000 
#
# Total GULP energy -173500.927311 kJ/mol
# GULP energy per Si atom -12392.923379 kJ/mol
# Density = 2.086002 g / cm^3
# Si number density = 20.907609 Si / 1000 Ang^3
#
#
#
# Elastic Constant Matrix: (Units=GPa)
#
#
# Indices 1 2 3 4 5 6 
#
# 1 107.9001 34.6076 21.5384 15.2929 -13.1943 -15.9635
# 2 34.6076 72.6027 20.3481 23.5619 -5.6801 -23.4036
# 3 21.5384 20.3481 56.0081 27.9757 -11.1688 -12.3020
# 4 15.2929 23.5619 27.9757 26.7273 -2.5315 -11.7122
# 5 -13.1943 -5.6801 -11.1688 -2.5315 16.5318 10.6383
# 6 -15.9635 -23.4036 -12.3020 -11.7122 10.6383 40.6483
#
#
#
# Elastic Compliance Matrix: (Units=1/GPa)
#
#
# Indices 1 2 3 4 5 6 
#
# 1 0.011949 -0.004585 -0.000797 -0.001508 0.007583 -0.000608
# 2 -0.004585 0.023425 0.004640 -0.019618 -0.000321 0.007522
# 3 -0.000797 0.004640 0.047527 -0.053360 0.028880 -0.006191
# 4 -0.001508 -0.019618 -0.053360 0.114280 -0.035645 0.014220
# 5 0.007583 -0.000321 0.028880 -0.035645 0.095807 -0.023811
# 6 -0.000608 0.007522 -0.006191 0.014220 -0.023811 0.037149
#
#
# Mechanical properties :
#
#
# Convention : Reuss Voigt Hill
#
# Bulk Modulus (GPa) = 12.28241 43.27767 27.78004
# Shear Modulus (GPa) = 13.93687 27.44927 20.69307
#
# Velocity S-wave (km/s) = 2.58465 3.62731 3.14942
# Velocity P-wave (km/s) = 3.84637 6.18769 5.15180
#
# Compressibility (1/GPa) = 0.08141722
#
# Stress axis : x y z
#
# Youngs Moduli (GPa) = 83.69089 42.68908 21.04047
#
# Poissons Ratio (x) = 0.19575 0.01677
# Poissons Ratio (y) = 0.38376 -0.09764
# Poissons Ratio (z) = 0.06670 -0.19809
#
# Static dielectric constant tensor:
#      x y z
#    x 3.828090 -0.043290 -0.189440 
#    y -0.043290 3.844710 0.328580 
#    z -0.189440 0.328580 3.210210 
# 
# 
# High freq. dielectric constant tensor:
#      x y z
#    x 1.826070 -0.002250 -0.014110 
#    y -0.002250 1.819520 0.030240 
#    z -0.014110 0.030240 1.756780 
# 
# From -- ./inp_files/164014.got.cif
#   From: 2010.06.25/outbox.cif.g09.slc.cpg/sg2_83_cif.got.tgz:164014.got - 2010.06.27 13:26:56.
