data_PCOD8001149
_publ_section_title
;
Structure prediction by ZEFSAII (Michael W. Deem and Ramdas Pophale) SiO2 
 PCOD8001149
Probable space group: P -1
;
_chemical_formula_sum "Si O2"
_cell_formula_units_Z 16
_cell_length_a 9.623994
_cell_length_b 22.697084
_cell_length_c 8.933310
_cell_angle_alpha 151.970811
_cell_angle_beta 53.289266
_cell_angle_gamma 133.278601
_cell_volume 667.438051
_symmetry_space_group_name_H-M "P -1"
_symmetry_group_IT_number 2
_symmetry_cell_setting 'triclinic'
loop_
_space_group_symop_operation_xyz
x,y,z
-x,-y,-z
loop_
_atom_site_type_symbol
_atom_site_label
_atom_site_fract_x
_atom_site_fract_y
_atom_site_fract_z
Si Si1 0.958341 0.695615 0.731119
Si Si2 0.428476 0.708528 0.121779
Si Si3 0.392682 0.839510 0.735313
Si Si4 0.291308 0.414977 0.622303
Si Si5 0.667693 0.953291 0.315923
Si Si6 0.959929 0.795665 0.271909
Si Si7 0.028642 0.587740 0.968024
Si Si8 0.654041 0.798834 0.697466
O O1 0.171075 0.805186 0.804139
O O2 0.955741 0.544539 0.411252
O O3 0.818333 0.693896 0.682518
O O4 0.889070 0.747737 0.041215
O O5 0.451270 0.763117 0.396566
O O6 0.593799 0.813305 0.146019
O O7 0.445376 0.560747 0.782837
O O8 0.226253 0.691263 0.146273
O O9 0.456137 0.792650 0.745036
O O10 0.500000 0.000000 0.000000
O O11 0.390263 0.347473 0.520476
O O12 0.136284 0.456682 0.899614
O O13 0.500000 0.000000 0.500000
O O14 0.840564 0.069769 0.554414
O O15 0.738336 0.922714 0.041147
O O16 0.804637 0.831298 0.539196
O O17 0.981218 0.667336 0.044645
#
# Coordination Sequence:
#
# PCOD8001149 Si02
#       8
#     2   2   2   2   2   2   2   2
#     4  11  21  42  72 103 132 182 239 273 331 416
#     4  11  21  41  70 101 138 180 234 282 336 409
#     4  12  25  42  70 105 138 177 232 286 339 412
#     4  10  22  45  71 102 139 184 225 286 347 398
#     4  12  24  45  71 101 136 183 233 279 346 417
#     4  11  24  42  69 103 140 180 229 288 345 399
#     4  10  19  41  71 101 137 181 234 278 334 409
#     4  11  28  46  66 103 142 181 224 290 351 405
#
# _framework density 23.972261
#
# number of rings (size 3 to 8) (size 9 to 14) (size 15 to 20)
#    0.000    1.000    3.750    3.750    0.000    3.000 
#    0.000    1.875    0.000    0.000    0.000    0.000 
#    0.000    0.000    0.000    0.000    0.000    0.000 
#
# Total GULP energy -198474.210223 kJ/mol
# GULP energy per Si atom -12404.638139 kJ/mol
# Density = 2.391770 g / cm^3
# Si number density = 23.972261 Si / 1000 Ang^3
#
#
#
# Elastic Constant Matrix: (Units=GPa)
#
#
# Indices 1 2 3 4 5 6 
#
# 1 77.8493 28.2908 28.6927 5.2114 8.2223 -27.5799
# 2 28.2908 110.5136 47.9770 8.7354 9.7534 -14.5847
# 3 28.6927 47.9770 140.1346 -17.8534 20.8257 -9.1016
# 4 5.2114 8.7354 -17.8534 49.1780 -2.4978 6.9526
# 5 8.2223 9.7534 20.8257 -2.4978 42.1289 -3.3459
# 6 -27.5799 -14.5847 -9.1016 6.9526 -3.3459 21.4856
#
#
#
# Elastic Compliance Matrix: (Units=1/GPa)
#
#
# Indices 1 2 3 4 5 6 
#
# 1 0.028917 0.000737 -0.004847 -0.010491 -0.000958 0.038812
# 2 0.000737 0.012429 -0.004413 -0.005200 -0.000423 0.009131
# 3 -0.004847 -0.004413 0.010432 0.005936 -0.003413 -0.007250
# 4 -0.010491 -0.005200 0.005936 0.027849 0.000104 -0.023477
# 5 -0.000958 -0.000423 -0.003413 0.000104 0.025796 0.001021
# 6 0.038812 0.009131 -0.007250 -0.023477 0.001021 0.107247
#
#
# Mechanical properties :
#
#
# Convention : Reuss Voigt Hill
#
# Bulk Modulus (GPa) = 28.79028 59.82429 44.30728
# Shear Modulus (GPa) = 20.72173 37.46097 29.09135
#
# Velocity S-wave (km/s) = 2.94327 3.95736 3.48737
# Velocity P-wave (km/s) = 4.85657 6.77427 5.89394
#
# Compressibility (1/GPa) = 0.03473395
#
# Stress axis : x y z
#
# Youngs Moduli (GPa) = 34.58135 80.45660 95.86127
#
# Poissons Ratio (x) = -0.05932 0.46460
# Poissons Ratio (y) = -0.02550 0.42302
# Poissons Ratio (z) = 0.16760 0.35504
#
# Static dielectric constant tensor:
#      x y z
#    x 4.248320 -0.108310 0.061540 
#    y -0.108310 4.215440 -0.159450 
#    z 0.061540 -0.159450 4.319800 
# 
# 
# High freq. dielectric constant tensor:
#      x y z
#    x 1.951130 -0.005560 -0.000240 
#    y -0.005560 1.949800 -0.005280 
#    z -0.000240 -0.005280 1.965110 
# 
# From -- ./inp_files/226773.got.cif
#   From: 2010.06.25/outbox.cif.g09.slc.cpg/sg2_114_cif.got.tgz:226773.got - 2010.06.27 13:26:56.
