data_PCOD8001894
_publ_section_title
;
Structure prediction by ZEFSAII (Michael W. Deem and Ramdas Pophale) SiO2 
 PCOD8001894
Probable space group: P -1
;
_chemical_formula_sum "Si O2"
_cell_formula_units_Z 16
_cell_length_a 12.147785
_cell_length_b 5.198163
_cell_length_c 10.725434
_cell_angle_alpha 86.129600
_cell_angle_beta 85.070517
_cell_angle_gamma 83.148978
_cell_volume 668.823971
_symmetry_space_group_name_H-M "P -1"
_symmetry_group_IT_number 2
_symmetry_cell_setting 'triclinic'
loop_
_space_group_symop_operation_xyz
x,y,z
-x,-y,-z
loop_
_atom_site_type_symbol
_atom_site_label
_atom_site_fract_x
_atom_site_fract_y
_atom_site_fract_z
Si Si1 0.263482 0.753921 0.779147
Si Si2 0.409185 0.067652 0.613413
Si Si3 0.085930 0.180462 0.038516
Si Si4 0.899479 0.520956 0.747424
Si Si5 0.126014 0.317337 0.776027
Si Si6 0.728953 0.244575 0.941582
Si Si7 0.293974 0.261889 0.395669
Si Si8 0.405175 0.742265 0.275287
O O1 0.208522 0.526052 0.719947
O O2 0.373571 0.809035 0.690118
O O3 0.182777 0.023785 0.776332
O O4 0.298514 0.654725 0.918641
O O5 0.303117 0.222333 0.546542
O O6 0.464557 0.237046 0.707951
O O7 0.500000 0.000000 0.500000
O O8 0.049291 0.264720 0.179043
O O9 0.212489 0.046218 0.043145
O O10 0.090942 0.397128 0.922038
O O11 0.000000 0.000000 0.000000
O O12 0.813756 0.404365 0.852519
O O13 0.834372 0.637394 0.627773
O O14 0.011172 0.333716 0.704416
O O15 0.615050 0.253092 0.872220
O O16 0.374984 0.472926 0.343126
O O17 0.327492 0.987825 0.332717
#
# Coordination Sequence:
#
# PCOD8001894 Si02
#       8
#     2   2   2   2   2   2   2   2
#     4  11  25  39  60  92 130 160 209 258 305 369
#     4  10  24  48  69  86 114 167 220 266 317 358
#     4  11  18  31  56  89 134 167 198 227 294 376
#     4  11  19  35  59  91 132 165 200 234 308 375
#     4  11  23  36  58  95 131 167 196 244 308 374
#     4  10  20  34  58  96 132 158 197 251 309 371
#     4  10  22  38  65  92 117 159 216 258 292 373
#     4  10  21  38  65  92 118 155 209 265 313 363
#
# _framework density 23.922584000000001
#
# number of rings (size 3 to 8) (size 9 to 14) (size 15 to 20)
#    0.000    1.500    3.750    2.250    0.000    4.500 
#    0.000    1.250    0.000    9.000    0.000    0.000 
#    0.000    0.000    0.000    0.000    0.000    0.000 
#
# Total GULP energy -198239.037320 kJ/mol
# GULP energy per Si atom -12389.939832 kJ/mol
# Density = 2.386814 g / cm^3
# Si number density = 23.922584 Si / 1000 Ang^3
#
#
#
# Elastic Constant Matrix: (Units=GPa)
#
#
# Indices 1 2 3 4 5 6 
#
# 1 89.0096 10.2831 61.6459 -1.5790 31.4095 23.2852
# 2 10.2831 74.0453 22.7525 -6.8310 8.5672 18.7304
# 3 61.6459 22.7525 103.7633 -17.6889 28.0771 11.2582
# 4 -1.5790 -6.8310 -17.6889 25.1522 -1.0585 -4.7639
# 5 31.4095 8.5672 28.0771 -1.0585 50.9339 -5.2741
# 6 23.2852 18.7304 11.2582 -4.7639 -5.2741 30.7823
#
#
#
# Elastic Compliance Matrix: (Units=1/GPa)
#
#
# Indices 1 2 3 4 5 6 
#
# 1 0.038079 0.009640 -0.018686 -0.015236 -0.018576 -0.033377
# 2 0.009640 0.019460 -0.006304 -0.002375 -0.007710 -0.018516
# 3 -0.018686 -0.006304 0.023085 0.015723 0.001449 0.012210
# 4 -0.015236 -0.002375 0.015723 0.052407 0.003873 0.015994
# 5 -0.018576 -0.007710 0.001449 0.003873 0.034222 0.024675
# 6 -0.033377 -0.018516 0.012210 0.015994 0.024675 0.071238
#
#
# Mechanical properties :
#
#
# Convention : Reuss Voigt Hill
#
# Bulk Modulus (GPa) = 20.03056 50.68679 35.35867
# Shear Modulus (GPa) = 17.49282 32.84946 25.17114
#
# Velocity S-wave (km/s) = 2.70705 3.70963 3.24727
# Velocity P-wave (km/s) = 4.26170 6.29145 5.37329
#
# Compressibility (1/GPa) = 0.04992373
#
# Stress axis : x y z
#
# Youngs Moduli (GPa) = 26.26138 51.38643 43.31905
#
# Poissons Ratio (x) = -0.49538 0.80947
# Poissons Ratio (y) = -0.25317 0.27309
# Poissons Ratio (z) = 0.49072 0.32394
#
# Static dielectric constant tensor:
#      x y z
#    x 4.668620 0.049080 0.505140 
#    y 0.049080 4.208160 -0.251650 
#    z 0.505140 -0.251650 4.762960 
# 
# 
# High freq. dielectric constant tensor:
#      x y z
#    x 1.945170 0.003470 0.027210 
#    y 0.003470 1.946380 -0.013820 
#    z 0.027210 -0.013820 1.932350 
# 
# From -- ./inp_files/409186.got.cif
#   From: 2010.06.25/outbox.cif.g09.slc.cpg/sg2_205_cif.got.tgz:409186.got - 2010.06.27 13:26:56.
