data_PCOD8001919
_publ_section_title
;
Structure prediction by ZEFSAII (Michael W. Deem and Ramdas Pophale) SiO2 
 PCOD8001919
Probable space group: P -1
;
_chemical_formula_sum "Si O2"
_cell_formula_units_Z 16
_cell_length_a 9.014741
_cell_length_b 8.587419
_cell_length_c 13.404699
_cell_angle_alpha 70.411186
_cell_angle_beta 47.159384
_cell_angle_gamma 88.722290
_cell_volume 684.347278
_symmetry_space_group_name_H-M "P -1"
_symmetry_group_IT_number 2
_symmetry_cell_setting 'triclinic'
loop_
_space_group_symop_operation_xyz
x,y,z
-x,-y,-z
loop_
_atom_site_type_symbol
_atom_site_label
_atom_site_fract_x
_atom_site_fract_y
_atom_site_fract_z
Si Si1 0.509470 0.671300 0.243901
Si Si2 0.199346 0.849590 0.300742
Si Si3 0.002975 0.084731 0.243944
Si Si4 0.503534 0.622766 0.829199
Si Si5 0.839439 0.581702 0.414133
Si Si6 0.161957 0.452032 0.170855
Si Si7 0.332285 0.004265 0.414080
Si Si8 0.294735 0.147366 0.705192
O O1 0.410868 0.792734 0.193150
O O2 0.584889 0.534426 0.174682
O O3 0.323210 0.583345 0.426316
O O4 0.706861 0.793012 0.191001
O O5 0.991009 0.690426 0.407610
O O6 0.193746 0.901871 0.407666
O O7 0.203170 0.014073 0.193133
O O8 0.065969 0.290796 0.174777
O O9 0.824289 0.990232 0.426358
O O10 0.911454 0.015963 0.191013
O O11 0.725581 0.612605 0.774369
O O12 0.535413 0.802225 0.720162
O O13 0.330142 0.603195 0.000016
O O14 0.703724 0.692685 0.400959
O O15 0.975545 0.522394 0.279900
O O16 0.494512 0.906617 0.400809
#
# Coordination Sequence:
#
# PCOD8001919 Si02
#       8
#     2   2   2   2   2   2   2   2
#     4  11  22  39  65  94 131 166 212 256 316 373
#     4  10  20  34  59  92 119 164 212 258 296 370
#     4  11  22  39  65  94 131 166 212 256 316 373
#     4  11  24  42  65  97 129 162 208 269 323 365
#     4  11  22  39  65  94 131 166 212 256 316 373
#     4  11  24  42  65  97 129 162 208 269 323 365
#     4  11  22  39  65  94 131 166 212 256 316 373
#     4  10  24  40  59  94 127 170 208 260 308 376
#
# _framework density 23.379943000000001
#
# number of rings (size 3 to 8) (size 9 to 14) (size 15 to 20)
#    0.000    1.250    2.500    4.500    3.500    1.000 
#    0.000   10.000    0.000    0.000    0.000    0.000 
#    0.000    0.000    0.000    0.000    0.000    0.000 
#
# Total GULP energy -198409.776272 kJ/mol
# GULP energy per Si atom -12400.611017 kJ/mol
# Density = 2.332673 g / cm^3
# Si number density = 23.379943 Si / 1000 Ang^3
#
#
#
# Elastic Constant Matrix: (Units=GPa)
#
#
# Indices 1 2 3 4 5 6 
#
# 1 143.0300 56.4463 13.9591 3.9163 -15.5566 8.1020
# 2 56.4463 146.5632 29.8731 6.4910 -3.3046 7.2231
# 3 13.9591 29.8731 80.7457 0.3451 6.8713 -12.2985
# 4 3.9163 6.4910 0.3451 22.6247 0.7320 -1.2813
# 5 -15.5566 -3.3046 6.8713 0.7320 8.9532 1.3772
# 6 8.1020 7.2231 -12.2985 -1.2813 1.3772 44.2167
#
#
#
# Elastic Compliance Matrix: (Units=1/GPa)
#
#
# Indices 1 2 3 4 5 6 
#
# 1 0.010926 -0.002876 -0.003066 -0.001871 0.020904 -0.003090
# 2 -0.002876 0.008777 -0.003119 -0.002114 0.001096 -0.001870
# 3 -0.003066 -0.003119 0.016788 0.002199 -0.020534 0.006444
# 4 -0.001871 -0.002114 0.002199 0.045582 -0.009895 0.002929
# 5 0.020904 0.001096 -0.020534 -0.009895 0.167328 -0.015219
# 6 -0.003090 -0.001870 0.006444 0.002929 -0.015219 0.025839
#
#
# Mechanical properties :
#
#
# Convention : Reuss Voigt Hill
#
# Bulk Modulus (GPa) = 54.44314 63.43287 58.93800
# Shear Modulus (GPa) = 16.69530 33.16294 24.92912
#
# Velocity S-wave (km/s) = 2.67514 3.77030 3.26891
# Velocity P-wave (km/s) = 5.73399 6.79292 6.28579
#
# Compressibility (1/GPa) = 0.01836779
#
# Stress axis : x y z
#
# Youngs Moduli (GPa) = 91.52587 113.93447 59.56615
#
# Poissons Ratio (x) = 0.32773 0.18264
# Poissons Ratio (y) = 0.26327 0.18578
# Poissons Ratio (z) = 0.28064 0.35535
#
# Static dielectric constant tensor:
#      x y z
#    x 4.492690 0.119180 -0.112740 
#    y 0.119180 4.515090 0.078740 
#    z -0.112740 0.078740 3.600300 
# 
# 
# High freq. dielectric constant tensor:
#      x y z
#    x 1.930550 0.006860 -0.006830 
#    y 0.006860 1.951240 0.006770 
#    z -0.006830 0.006770 1.876690 
# 
# From -- ./inp_files/494802.got.cif
#   From: 2010.06.25/outbox.cif.g09.slc.cpg/sg2_248_cif.got.tgz:494802.got - 2010.06.27 13:26:56.
