data_PCOD8001501
_publ_section_title
;
Structure prediction by ZEFSAII (Michael W. Deem and Ramdas Pophale) SiO2 
 PCOD8001501
Probable space group: P -1
;
_chemical_formula_sum "Si O2"
_cell_formula_units_Z 14
_cell_length_a 9.794958
_cell_length_b 9.619219
_cell_length_c 12.501777
_cell_angle_alpha 102.973278
_cell_angle_beta 99.306015
_cell_angle_gamma 44.775356
_cell_volume 808.458607
_symmetry_space_group_name_H-M "P -1"
_symmetry_group_IT_number 2
_symmetry_cell_setting 'triclinic'
loop_
_space_group_symop_operation_xyz
x,y,z
-x,-y,-z
loop_
_atom_site_type_symbol
_atom_site_label
_atom_site_fract_x
_atom_site_fract_y
_atom_site_fract_z
Si Si1 0.672303 0.329191 0.841393
Si Si2 0.753243 0.392226 0.090056
Si Si3 0.199215 0.496558 0.225763
Si Si4 0.139024 0.102485 0.208234
Si Si5 0.968043 0.550638 0.627898
Si Si6 0.797396 0.674269 0.189766
Si Si7 0.563543 0.928952 0.876929
O O1 0.440923 0.504152 0.850985
O O2 0.746508 0.378326 0.763913
O O3 0.743561 0.121312 0.779029
O O4 0.763795 0.305484 0.962851
O O5 0.761338 0.556225 0.097004
O O6 0.931168 0.208455 0.152610
O O7 0.177386 0.465347 0.343163
O O8 0.374871 0.279506 0.160266
O O9 0.993718 0.609028 0.160479
O O10 0.118102 0.227697 0.326829
O O11 0.255068 0.100101 0.129268
O O12 0.000000 0.500000 0.500000
O O13 0.171119 0.392074 0.692325
O O14 0.614737 0.910743 0.198090
O O15 0.500000 0.000000 0.000000
#
# Coordination Sequence:
#
# PCOD8001501 Si02
#       7
#     2   2   2   2   2   2   2
#     4  11  21  33  51  81 115 146 179 214 275 328
#     4  10  20  33  52  76 115 155 174 210 271 330
#     4   9  22  34  54  80 109 137 185 233 255 322
#     4  10  21  35  53  78 112 146 181 221 273 324
#     4   8  18  40  62  77 101 142 189 237 275 311
#     4   9  19  36  56  77 108 146 182 224 264 320
#     4  11  20  31  54  81 110 147 182 210 262 334
#
# _framework density 17.316904000000001
#
# number of rings (size 3 to 8) (size 9 to 14) (size 15 to 20)
#    0.857    1.429    2.857    1.286    4.000    2.286 
#    0.000    3.571    0.000    3.429    0.000    0.000 
#    0.000    0.000    0.000    0.000    0.000    0.000 
#
# Total GULP energy -173500.744793 kJ/mol
# GULP energy per Si atom -12392.910342 kJ/mol
# Density = 1.727749 g / cm^3
# Si number density = 17.316904 Si / 1000 Ang^3
#
#
#
# Elastic Constant Matrix: (Units=GPa)
#
#
# Indices 1 2 3 4 5 6 
#
# 1 89.6807 35.5074 35.3241 9.8286 -7.3346 9.2345
# 2 35.5074 92.9205 41.4482 6.5930 -2.3704 0.3906
# 3 35.3241 41.4482 100.4078 12.9033 -17.6863 1.0030
# 4 9.8286 6.5930 12.9033 17.5953 -2.6378 4.3787
# 5 -7.3346 -2.3704 -17.6863 -2.6378 20.2842 -0.7477
# 6 9.2345 0.3906 1.0030 4.3787 -0.7477 34.0461
#
#
#
# Elastic Compliance Matrix: (Units=1/GPa)
#
#
# Indices 1 2 3 4 5 6 
#
# 1 0.014726 -0.004132 -0.002633 -0.003618 0.001952 -0.003361
# 2 -0.004132 0.014623 -0.005353 -0.000168 -0.004436 0.001035
# 3 -0.002633 -0.005353 0.015996 -0.006885 0.011528 0.001443
# 4 -0.003618 -0.000168 -0.006885 0.065922 0.000973 -0.007271
# 5 0.001952 -0.004436 0.011528 0.000973 0.059679 0.000367
# 6 -0.003361 0.001035 0.001443 -0.007271 0.000367 0.031172
#
#
# Mechanical properties :
#
#
# Convention : Reuss Voigt Hill
#
# Bulk Modulus (GPa) = 47.37101 56.39651 51.88376
# Shear Modulus (GPa) = 21.42341 25.76706 23.59524
#
# Velocity S-wave (km/s) = 3.52111 3.86161 3.69528
# Velocity P-wave (km/s) = 6.62916 7.24712 6.94501
#
# Compressibility (1/GPa) = 0.02110996
#
# Stress axis : x y z
#
# Youngs Moduli (GPa) = 67.90738 68.38539 62.51525
#
# Poissons Ratio (x) = 0.28259 0.16457
# Poissons Ratio (y) = 0.28061 0.33463
# Poissons Ratio (z) = 0.17877 0.36605
#
# Static dielectric constant tensor:
#      x y z
#    x 3.242350 -0.124360 0.062740 
#    y -0.124360 3.541450 0.031650 
#    z 0.062740 0.031650 2.744320 
# 
# 
# High freq. dielectric constant tensor:
#      x y z
#    x 1.668970 -0.005740 0.002300 
#    y -0.005740 1.679320 0.006170 
#    z 0.002300 0.006170 1.619820 
# 
# From -- ./inp_files/215594.got.cif
#   From: 2010.06.25/outbox.cif.g09.slc.cpg/sg2_108_cif.got.tgz:215594.got - 2010.06.27 13:26:56.
