data_PCOD8001551
_publ_section_title
;
Structure prediction by ZEFSAII (Michael W. Deem and Ramdas Pophale) SiO2 
 PCOD8001551
Probable space group: P -1
;
_chemical_formula_sum "Si O2"
_cell_formula_units_Z 14
_cell_length_a 15.578694
_cell_length_b 26.209779
_cell_length_c 27.030472
_cell_angle_alpha 10.665171
_cell_angle_beta 160.833660
_cell_angle_gamma 162.087700
_cell_volume 619.451500
_symmetry_space_group_name_H-M "P -1"
_symmetry_group_IT_number 2
_symmetry_cell_setting 'triclinic'
loop_
_space_group_symop_operation_xyz
x,y,z
-x,-y,-z
loop_
_atom_site_type_symbol
_atom_site_label
_atom_site_fract_x
_atom_site_fract_y
_atom_site_fract_z
Si Si1 0.443346 0.657367 0.749212
Si Si2 0.672176 0.970538 0.750136
Si Si3 0.692533 0.290046 0.550828
Si Si4 0.317989 0.154982 0.944628
Si Si5 0.742865 0.616535 0.560972
Si Si6 0.460983 0.907971 0.978083
Si Si7 0.052859 0.372976 0.894128
O O1 0.170477 0.550733 0.738214
O O2 0.442110 0.933070 0.453710
O O3 0.428078 0.385724 0.963898
O O4 0.728693 0.767819 0.832117
O O5 0.542179 0.071280 0.631694
O O6 0.011907 0.121160 0.789948
O O7 0.534521 0.509796 0.271259
O O8 0.000000 0.500000 0.500000
O O9 0.715740 0.095311 0.794994
O O10 0.507539 0.118920 0.037661
O O11 0.500000 0.500000 0.500000
O O12 0.774951 0.949226 0.276926
O O13 0.021475 0.600302 0.702324
O O14 0.657330 0.419428 0.751598
O O15 0.755990 0.104120 0.978380
#
# Coordination Sequence:
#
# PCOD8001551 Si02
#       7
#     2   2   2   2   2   2   2
#     4  11  24  35  57  81 114 159 178 224 268 340
#     4  11  21  36  53  82 114 148 185 217 285 331
#     4  10  20  33  55  80 114 145 177 231 284 334
#     4  11  20  34  56  84 113 143 181 230 283 338
#     4  10  22  36  57  78 110 150 190 236 271 312
#     4  11  22  36  59  83 112 149 183 233 280 319
#     4  10  23  39  54  82 117 148 194 219 273 326
#
# _framework density 22.600639999999999
#
# number of rings (size 3 to 8) (size 9 to 14) (size 15 to 20)
#    0.000    1.429    1.429    6.857    4.000    6.857 
#    0.000    0.000    0.000    0.000    0.000   20.000 
#    0.000    0.000    0.000    0.000    0.000    0.000 
#
# Total GULP energy -173597.978915 kJ/mol
# GULP energy per Si atom -12399.855637 kJ/mol
# Density = 2.254920 g / cm^3
# Si number density = 22.600640 Si / 1000 Ang^3
#
#
#
# Elastic Constant Matrix: (Units=GPa)
#
#
# Indices 1 2 3 4 5 6 
#
# 1 144.3941 6.2507 50.8594 -4.7428 1.2942 -6.1932
# 2 6.2507 25.9578 1.9278 -1.0710 1.0748 2.7918
# 3 50.8594 1.9278 120.2614 -9.3901 -11.1111 3.5478
# 4 -4.7428 -1.0710 -9.3901 20.7139 -9.4854 6.2936
# 5 1.2942 1.0748 -11.1111 -9.4854 52.5089 -4.0538
# 6 -6.1932 2.7918 3.5478 6.2936 -4.0538 16.1180
#
#
#
# Elastic Compliance Matrix: (Units=1/GPa)
#
#
# Indices 1 2 3 4 5 6 
#
# 1 0.008597 -0.002365 -0.003991 -0.001960 -0.000967 0.005113
# 2 -0.002365 0.040328 0.000989 0.004856 -0.000462 -0.010124
# 3 -0.003991 0.000989 0.011069 0.007572 0.003304 -0.006267
# 4 -0.001960 0.004856 0.007572 0.064423 0.011213 -0.025596
# 5 -0.000967 -0.000462 0.003304 0.011213 0.021809 0.000088
# 6 0.005113 -0.010124 -0.006267 -0.025596 0.000088 0.077157
#
#
# Mechanical properties :
#
#
# Convention : Reuss Voigt Hill
#
# Bulk Modulus (GPa) = 20.30040 45.40990 32.85515
# Shear Modulus (GPa) = 19.95706 33.30653 26.63180
#
# Velocity S-wave (km/s) = 2.97481 3.84304 3.43646
# Velocity P-wave (km/s) = 4.56081 6.31093 5.50586
#
# Compressibility (1/GPa) = 0.04926013
#
# Stress axis : x y z
#
# Youngs Moduli (GPa) = 116.31606 24.79646 90.34507
#
# Poissons Ratio (x) = 0.05863 0.36058
# Poissons Ratio (y) = 0.27504 -0.08932
# Poissons Ratio (z) = 0.46424 -0.02452
#
# Static dielectric constant tensor:
#      x y z
#    x 4.816220 -0.075940 0.619430 
#    y -0.075940 3.724640 -0.060080 
#    z 0.619430 -0.060080 4.523660 
# 
# 
# High freq. dielectric constant tensor:
#      x y z
#    x 1.908100 -0.002990 0.009220 
#    y -0.002990 1.834190 -0.008480 
#    z 0.009220 -0.008480 1.907340 
# 
# From -- ./inp_files/533866.got.cif
#   From: 2010.06.25/outbox.cif.g09.slc.cpg/sg2_267_cif.got.tgz:533866.got - 2010.06.27 13:26:56.
