data_PCOD8001022
_publ_section_title
;
Structure prediction by ZEFSAII (Michael W. Deem and Ramdas Pophale) SiO2 
 PCOD8001022
Probable space group: P -1
;
_chemical_formula_sum "Si O2"
_cell_formula_units_Z 16
_cell_length_a 9.206003
_cell_length_b 22.227565
_cell_length_c 14.847554
_cell_angle_alpha 161.842494
_cell_angle_beta 126.486241
_cell_angle_gamma 48.543056
_cell_volume 701.815426
_symmetry_space_group_name_H-M "P -1"
_symmetry_group_IT_number 2
_symmetry_cell_setting 'triclinic'
loop_
_space_group_symop_operation_xyz
x,y,z
-x,-y,-z
loop_
_atom_site_type_symbol
_atom_site_label
_atom_site_fract_x
_atom_site_fract_y
_atom_site_fract_z
Si Si1 0.712069 0.320684 0.810344
Si Si2 0.834201 0.680918 0.356090
Si Si3 0.263322 0.280477 0.154721
Si Si4 0.731512 0.546959 0.789363
Si Si5 0.635206 0.509855 0.353585
Si Si6 0.522371 0.835694 0.616460
Si Si7 0.102629 0.847799 0.174798
Si Si8 0.133542 0.262015 0.737988
O O1 0.678022 0.173024 0.511750
O O2 0.791173 0.190208 0.743841
O O3 0.500000 0.500000 0.000000
O O4 0.853723 0.438140 0.000497
O O5 0.693581 0.790963 0.542638
O O6 0.752640 0.817767 0.429625
O O7 0.057854 0.649829 0.416125
O O8 0.323471 0.354717 0.189305
O O9 0.230925 0.453454 0.466199
O O10 0.066698 0.239999 0.012635
O O11 0.449166 0.074298 0.962268
O O12 0.574419 0.455443 0.632971
O O13 0.725483 0.729752 0.117378
O O14 0.610451 0.674610 0.499538
O O15 0.742324 0.276162 0.021508
O O16 0.028753 0.099500 0.491322
O O17 0.000000 0.500000 0.000000
#
# Coordination Sequence:
#
# PCOD8001022 Si02
#       8
#     2   2   2   2   2   2   2   2
#     4  10  19  40  71 101 133 172 227 289 354 408
#     4  10  21  43  66 101 144 176 215 291 363 415
#     4  12  27  45  69 101 140 191 242 280 333 419
#     4  11  24  44  69  99 145 174 230 291 351 409
#     4  12  26  47  68 101 142 190 238 283 334 419
#     4  11  24  42  71 101 140 181 235 287 345 414
#     4  12  25  45  75 100 139 190 231 290 357 409
#     4  10  25  41  70 107 141 170 227 294 362 413
#
# _framework density 22.798017000000002
#
# number of rings (size 3 to 8) (size 9 to 14) (size 15 to 20)
#    0.000    1.000    3.750    2.625   10.500    1.500 
#    0.000    0.625    0.000    0.000    0.000    0.000 
#    0.000    0.000    0.000    0.000    0.000    0.000 
#
# Total GULP energy -198349.251296 kJ/mol
# GULP energy per Si atom -12396.828206 kJ/mol
# Density = 2.274613 g / cm^3
# Si number density = 22.798017 Si / 1000 Ang^3
#
#
#
# Elastic Constant Matrix: (Units=GPa)
#
#
# Indices 1 2 3 4 5 6 
#
# 1 79.3567 27.9391 -10.3416 -1.5767 9.9564 9.2776
# 2 27.9391 114.8536 34.5999 -8.3880 2.0937 23.3592
# 3 -10.3416 34.5999 48.3099 -2.8456 -4.1815 7.8249
# 4 -1.5767 -8.3880 -2.8456 31.6306 -0.9109 0.9923
# 5 9.9564 2.0937 -4.1815 -0.9109 22.7380 5.8606
# 6 9.2776 23.3592 7.8249 0.9923 5.8606 40.7278
#
#
#
# Elastic Compliance Matrix: (Units=1/GPa)
#
#
# Indices 1 2 3 4 5 6 
#
# 1 0.016429 -0.005974 0.007519 -0.000201 -0.005002 -0.001036
# 2 -0.005974 0.014616 -0.010685 0.002800 0.000744 -0.005144
# 3 0.007519 -0.010685 0.030656 0.000475 0.003875 -0.002044
# 4 -0.000201 0.002800 0.000475 0.032531 0.001922 -0.002720
# 5 -0.005002 0.000744 0.003875 0.001922 0.048718 -0.007089
# 6 -0.001036 -0.005144 -0.002044 -0.002720 -0.007089 0.029219
#
#
# Mechanical properties :
#
#
# Convention : Reuss Voigt Hill
#
# Bulk Modulus (GPa) = 23.03018 38.54610 30.78814
# Shear Modulus (GPa) = 24.39948 31.70747 28.05348
#
# Velocity S-wave (km/s) = 3.27501 3.73339 3.51169
# Velocity P-wave (km/s) = 4.94213 5.96059 5.47509
#
# Compressibility (1/GPa) = 0.04342128
#
# Stress axis : x y z
#
# Youngs Moduli (GPa) = 60.86673 68.41816 32.62006
#
# Poissons Ratio (x) = 0.40876 -0.24527
# Poissons Ratio (y) = 0.36365 0.34853
# Poissons Ratio (z) = -0.45765 0.73101
#
# Static dielectric constant tensor:
#      x y z
#    x 4.551100 0.189750 0.393510 
#    y 0.189750 4.383630 -0.577330 
#    z 0.393510 -0.577330 5.388030 
# 
# 
# High freq. dielectric constant tensor:
#      x y z
#    x 1.918380 0.014510 -0.001440 
#    y 0.014510 1.899180 0.000750 
#    z -0.001440 0.000750 1.885870 
# 
# From -- ./inp_files/508214.got.cif
#   From: 2010.06.25/outbox.cif.g09.slc.cpg/sg2_255_cif.got.tgz:508214.got - 2010.06.27 13:26:56.
