data_PCOD8001541
_publ_section_title
;
Structure prediction by ZEFSAII (Michael W. Deem and Ramdas Pophale) SiO2 
 PCOD8001541
Probable space group: P -1
;
_chemical_formula_sum "Si O2"
_cell_formula_units_Z 12
_cell_length_a 7.807610
_cell_length_b 13.854618
_cell_length_c 9.376753
_cell_angle_alpha 54.574092
_cell_angle_beta 66.658990
_cell_angle_gamma 44.833329
_cell_volume 582.537430
_symmetry_space_group_name_H-M "P -1"
_symmetry_group_IT_number 2
_symmetry_cell_setting 'triclinic'
loop_
_space_group_symop_operation_xyz
x,y,z
-x,-y,-z
loop_
_atom_site_type_symbol
_atom_site_label
_atom_site_fract_x
_atom_site_fract_y
_atom_site_fract_z
Si Si1 0.735426 0.925236 0.643073
Si Si2 0.877155 0.453471 0.753586
Si Si3 0.769738 0.315163 0.420525
Si Si4 0.692801 0.569201 0.409815
Si Si5 0.517706 0.793348 0.698192
Si Si6 0.145881 0.756417 0.856291
O O1 0.599498 0.853445 0.741734
O O2 0.949098 0.838389 0.525118
O O3 0.863709 0.892541 0.783437
O O4 0.554828 0.105792 0.509434
O O5 0.797888 0.465675 0.607175
O O6 0.738900 0.617256 0.737122
O O7 0.165639 0.368248 0.729499
O O8 0.839802 0.347342 0.939193
O O9 0.728256 0.464762 0.358255
O O10 0.595409 0.294163 0.582041
O O11 0.699567 0.345216 0.248679
O O12 0.281836 0.818999 0.814395
#
# Coordination Sequence:
#
# PCOD8001541 Si02
#       6
#     2   2   2   2   2   2
#     4   9  21  36  58  85 110 147 191 230 271 330
#     4  11  20  35  57  90 109 144 187 236 280 325
#     4   9  19  36  54  84 108 152 185 225 276 331
#     4  10  20  33  54  83 121 146 175 230 291 337
#     4  11  19  35  59  86 112 144 189 234 274 327
#     4  10  21  36  58  90 108 142 196 233 270 319
#
# _framework density 20.599534999999999
#
# number of rings (size 3 to 8) (size 9 to 14) (size 15 to 20)
#    1.000    1.000    3.333    1.000    0.000    2.667 
#    3.000    0.000    0.000   10.000    4.333    0.000 
#    0.000    0.000    0.000    0.000    0.000    0.000 
#
# Total GULP energy -148672.338524 kJ/mol
# GULP energy per Si atom -12389.361544 kJ/mol
# Density = 2.055265 g / cm^3
# Si number density = 20.599535 Si / 1000 Ang^3
#
#
#
# Elastic Constant Matrix: (Units=GPa)
#
#
# Indices 1 2 3 4 5 6 
#
# 1 142.5331 15.8746 40.7306 -9.6936 -32.8404 -5.7260
# 2 15.8746 14.4617 19.6719 -5.6428 -7.9140 -4.3175
# 3 40.7306 19.6719 87.6880 -13.3944 -25.8378 3.5092
# 4 -9.6936 -5.6428 -13.3944 23.2519 2.0432 0.5160
# 5 -32.8404 -7.9140 -25.8378 2.0432 28.3607 -4.7049
# 6 -5.7260 -4.3175 3.5092 0.5160 -4.7049 19.3939
#
#
#
# Elastic Compliance Matrix: (Units=1/GPa)
#
#
# Indices 1 2 3 4 5 6 
#
# 1 0.010539 -0.000986 -0.001088 0.002365 0.011741 0.005874
# 2 -0.000986 0.126814 -0.021227 0.015595 0.019782 0.036166
# 3 -0.001088 -0.021227 0.020830 0.005631 0.010316 -0.006463
# 4 0.002365 0.015595 0.005631 0.050116 0.009286 0.004070
# 5 0.011741 0.019782 0.010316 0.009286 0.066746 0.021949
# 6 0.005874 0.036166 -0.006463 0.004070 0.021949 0.067734
#
#
# Mechanical properties :
#
#
# Convention : Reuss Voigt Hill
#
# Bulk Modulus (GPa) = 8.96230 44.13744 26.54987
# Shear Modulus (GPa) = 11.72128 25.42834 18.57481
#
# Velocity S-wave (km/s) = 2.38797 3.51723 3.00611
# Velocity P-wave (km/s) = 3.45882 6.16178 4.99654
#
# Compressibility (1/GPa) = 0.11157852
#
# Stress axis : x y z
#
# Youngs Moduli (GPa) = 94.88804 7.88559 48.00774
#
# Poissons Ratio (x) = 0.00778 0.05224
# Poissons Ratio (y) = 0.09360 1.01908
# Poissons Ratio (z) = 0.10325 0.16739
#
# Static dielectric constant tensor:
#      x y z
#    x 4.212060 -0.185290 -0.200060 
#    y -0.185290 3.421100 0.101560 
#    z -0.200060 0.101560 3.310910 
# 
# 
# High freq. dielectric constant tensor:
#      x y z
#    x 1.839900 -0.007230 -0.016430 
#    y -0.007230 1.769700 0.001100 
#    z -0.016430 0.001100 1.761170 
# 
# From -- ./inp_files/159941.got.cif
#   From: 2010.06.25/outbox.cif.g09.slc.cpg/sg2_80_cif.got.tgz:159941.got - 2010.06.27 13:26:56.
