data_PCOD8001267
_publ_section_title
;
Structure prediction by ZEFSAII (Michael W. Deem and Ramdas Pophale) SiO2 
 PCOD8001267
Probable space group: P -1
;
_chemical_formula_sum "Si O2"
_cell_formula_units_Z 16
_cell_length_a 8.422696
_cell_length_b 9.125925
_cell_length_c 17.184762
_cell_angle_alpha 126.426256
_cell_angle_beta 63.555300
_cell_angle_gamma 134.619883
_cell_volume 755.581429
_symmetry_space_group_name_H-M "P -1"
_symmetry_group_IT_number 2
_symmetry_cell_setting 'triclinic'
loop_
_space_group_symop_operation_xyz
x,y,z
-x,-y,-z
loop_
_atom_site_type_symbol
_atom_site_label
_atom_site_fract_x
_atom_site_fract_y
_atom_site_fract_z
Si Si1 0.084456 0.770386 0.791711
Si Si2 0.664422 0.417789 0.362488
Si Si3 0.482120 0.694360 0.901407
Si Si4 0.317759 0.466526 0.294284
Si Si5 0.864214 0.792181 0.140911
Si Si6 0.191035 0.283951 0.429570
Si Si7 0.814580 0.172338 0.039891
Si Si8 0.800853 0.796402 0.327063
O O1 0.286137 0.761688 0.722867
O O2 0.047883 0.757681 0.888351
O O3 0.853646 0.549661 0.734902
O O4 0.148096 0.008664 0.821750
O O5 0.398432 0.272731 0.386171
O O6 0.790188 0.553059 0.456586
O O7 0.756411 0.595335 0.327319
O O8 0.637994 0.713098 0.803590
O O9 0.378055 0.455348 0.893531
O O10 0.286581 0.689985 0.902775
O O11 0.617405 0.898804 0.998213
O O12 0.191094 0.382914 0.377662
O O13 0.554379 0.721939 0.332613
O O14 0.931053 0.825189 0.228380
O O15 0.034204 0.774707 0.050501
O O16 0.953048 0.035207 0.415498
#
# Coordination Sequence:
#
# PCOD8001267 Si02
#       8
#     2   2   2   2   2   2   2   2
#     4  12  23  41  57  93 130 158 192 259 306 355
#     4  10  24  39  66  92 119 153 210 253 297 358
#     4  10  22  40  63  87 115 168 206 246 289 363
#     4  10  21  39  61  87 129 156 193 249 312 351
#     4  11  22  38  62  85 123 159 199 245 306 352
#     4  10  19  43  67  87 116 163 205 248 298 362
#     4  11  22  40  62  86 121 160 211 246 292 353
#     4  10  20  42  65  86 118 165 202 247 295 364
#
# _framework density 21.175744000000002
#
# number of rings (size 3 to 8) (size 9 to 14) (size 15 to 20)
#    0.000    1.500    2.500    3.375    0.000    2.000 
#    6.750    0.625    0.000    0.000    0.000    0.000 
#    0.000    0.000    0.000    0.000    0.000    0.000 
#
# Total GULP energy -198356.131009 kJ/mol
# GULP energy per Si atom -12397.258188 kJ/mol
# Density = 2.112755 g / cm^3
# Si number density = 21.175744 Si / 1000 Ang^3
#
#
#
# Elastic Constant Matrix: (Units=GPa)
#
#
# Indices 1 2 3 4 5 6 
#
# 1 86.2095 35.9007 28.0408 -2.8588 25.7520 5.2951
# 2 35.9007 84.0629 22.7834 1.7893 8.2576 6.5335
# 3 28.0408 22.7834 81.7630 -11.8323 12.7249 -5.3786
# 4 -2.8588 1.7893 -11.8323 30.6286 3.4934 13.2243
# 5 25.7520 8.2576 12.7249 3.4934 38.9987 5.7124
# 6 5.2951 6.5335 -5.3786 13.2243 5.7124 24.5980
#
#
#
# Elastic Compliance Matrix: (Units=1/GPa)
#
#
# Indices 1 2 3 4 5 6 
#
# 1 0.018117 -0.005918 -0.002753 0.003090 -0.009748 -0.002327
# 2 -0.005918 0.015295 -0.003007 -0.001499 0.002248 -0.003163
# 3 -0.002753 -0.003007 0.015472 0.005056 -0.003466 0.002861
# 4 0.003090 -0.001499 0.005056 0.045155 -0.004125 -0.022480
# 5 -0.009748 0.002248 -0.003466 -0.004125 0.033819 -0.004893
# 6 -0.002327 -0.003163 0.002861 -0.022480 -0.004893 0.055842
#
#
# Mechanical properties :
#
#
# Convention : Reuss Voigt Hill
#
# Bulk Modulus (GPa) = 39.17433 47.27613 43.22523
# Shear Modulus (GPa) = 23.19473 29.86576 26.53025
#
# Velocity S-wave (km/s) = 3.31319 3.75957 3.54342
# Velocity P-wave (km/s) = 5.75987 6.42027 6.09902
#
# Compressibility (1/GPa) = 0.02552692
#
# Stress axis : x y z
#
# Youngs Moduli (GPa) = 55.19710 65.37954 64.63399
#
# Poissons Ratio (x) = 0.38694 0.17794
# Poissons Ratio (y) = 0.32668 0.19436
# Poissons Ratio (z) = 0.15196 0.19660
#
# Static dielectric constant tensor:
#      x y z
#    x 3.834960 0.219770 0.210750 
#    y 0.219770 3.786790 -0.022470 
#    z 0.210750 -0.022470 3.932720 
# 
# 
# High freq. dielectric constant tensor:
#      x y z
#    x 1.818160 0.013930 0.017350 
#    y 0.013930 1.818360 -0.005790 
#    z 0.017350 -0.005790 1.839330 
# 
# From -- ./inp_files/492988.got.cif
#   From: 2010.06.25/outbox.cif.g09.slc.cpg/sg2_247_cif.got.tgz:492988.got - 2010.06.27 13:26:56.
