data_PCOD8001310
_publ_section_title
;
Structure prediction by ZEFSAII (Michael W. Deem and Ramdas Pophale) SiO2 
 PCOD8001310
Probable space group: P -1
;
_chemical_formula_sum "Si O2"
_cell_formula_units_Z 14
_cell_length_a 5.171550
_cell_length_b 13.790406
_cell_length_c 14.782953
_cell_angle_alpha 74.061975
_cell_angle_beta 53.645885
_cell_angle_gamma 84.844355
_cell_volume 812.823592
_symmetry_space_group_name_H-M "P -1"
_symmetry_group_IT_number 2
_symmetry_cell_setting 'triclinic'
loop_
_space_group_symop_operation_xyz
x,y,z
-x,-y,-z
loop_
_atom_site_type_symbol
_atom_site_label
_atom_site_fract_x
_atom_site_fract_y
_atom_site_fract_z
Si Si1 0.777709 0.714387 0.983436
Si Si2 0.210949 0.221664 0.848783
Si Si3 0.217330 0.600920 0.790773
Si Si4 0.615374 0.483334 0.880899
Si Si5 0.423276 0.882301 0.061320
Si Si6 0.618543 0.375614 0.598573
Si Si7 0.653094 0.612598 0.543160
O O1 0.010919 0.680455 0.865374
O O2 0.954019 0.727484 0.042147
O O3 0.458328 0.636123 0.090758
O O4 0.634079 0.820826 0.961446
O O5 0.479292 0.150394 0.849107
O O6 0.371355 0.309294 0.729450
O O7 0.954343 0.148618 0.865491
O O8 0.403292 0.541636 0.841054
O O9 0.470518 0.659760 0.654160
O O10 0.991520 0.524605 0.791296
O O11 0.500000 0.500000 0.000000
O O12 0.500000 0.000000 0.000000
O O13 0.621959 0.492004 0.597426
O O14 0.513372 0.357912 0.521767
O O15 0.976787 0.341337 0.545191
#
# Coordination Sequence:
#
# PCOD8001310 Si02
#       7
#     2   2   2   2   2   2   2
#     4   9  22  30  55  75 107 135 170 212 269 316
#     4  10  21  34  58  74 107 133 175 219 268 314
#     4  11  21  33  48  77 111 143 173 206 255 307
#     4  10  20  29  46  72 109 142 172 198 245 316
#     4  10  22  36  54  82 105 130 173 224 279 318
#     4  10  20  35  49  75 100 148 178 212 243 294
#     4  10  21  32  51  71 111 139 184 209 237 293
#
# _framework density 17.223908999999999
#
# number of rings (size 3 to 8) (size 9 to 14) (size 15 to 20)
#    0.857    1.143    0.000    4.714    8.000    1.143 
#    0.000    0.000    0.000    0.000    0.000    6.000 
#    0.000    0.000    0.000    0.000    0.000    0.000 
#
# Total GULP energy -173446.618676 kJ/mol
# GULP energy per Si atom -12389.044191 kJ/mol
# Density = 1.718471 g / cm^3
# Si number density = 17.223909 Si / 1000 Ang^3
#
#
#
# Elastic Constant Matrix: (Units=GPa)
#
#
# Indices 1 2 3 4 5 6 
#
# 1 126.6067 32.1255 27.6113 -2.9152 -3.1818 11.1393
# 2 32.1255 76.6951 40.2155 -4.0500 3.5118 1.7686
# 3 27.6113 40.2155 87.9420 7.3793 -4.0878 3.1627
# 4 -2.9152 -4.0500 7.3793 20.8650 -2.4685 -3.5392
# 5 -3.1818 3.5118 -4.0878 -2.4685 25.7144 -7.2296
# 6 11.1393 1.7686 3.1627 -3.5392 -7.2296 14.6199
#
#
#
# Elastic Compliance Matrix: (Units=1/GPa)
#
#
# Indices 1 2 3 4 5 6 
#
# 1 0.009579 -0.003118 -0.001357 -0.000023 -0.000548 -0.006904
# 2 -0.003118 0.019284 -0.008581 0.006259 -0.003279 0.001793
# 3 -0.001357 -0.008581 0.016566 -0.007840 0.002237 -0.002303
# 4 -0.000023 0.006259 -0.007840 0.056109 0.008560 0.018772
# 5 -0.000548 -0.003279 0.002237 0.008560 0.047762 0.026021
# 6 -0.006904 0.001793 -0.002303 0.018772 0.026021 0.091353
#
#
# Mechanical properties :
#
#
# Convention : Reuss Voigt Hill
#
# Bulk Modulus (GPa) = 51.77011 54.57205 53.17108
# Shear Modulus (GPa) = 18.30139 24.99262 21.64700
#
# Velocity S-wave (km/s) = 3.26323 3.81339 3.54898
# Velocity P-wave (km/s) = 6.65737 7.15136 6.90878
#
# Compressibility (1/GPa) = 0.01931617
#
# Stress axis : x y z
#
# Youngs Moduli (GPa) = 104.39911 51.85775 60.36387
#
# Poissons Ratio (x) = 0.16167 0.08192
# Poissons Ratio (y) = 0.32547 0.51801
# Poissons Ratio (z) = 0.14167 0.44502
#
# Static dielectric constant tensor:
#      x y z
#    x 1.465910 -1.004660 1.389240 
#    y -1.004660 2.308660 0.822680 
#    z 1.389240 0.822680 1.971970 
# 
# 
# High freq. dielectric constant tensor:
#      x y z
#    x 1.691000 0.006770 0.000670 
#    y 0.006770 1.620720 0.007790 
#    z 0.000670 0.007790 1.649040 
# 
# From -- ./inp_files/483289.got.cif
#   From: 2010.06.25/outbox.cif.g09.slc.cpg/sg2_242_cif.got.tgz:483289.got - 2010.06.27 13:26:56.
