data_PCOD8001904
_publ_section_title
;
Structure prediction by ZEFSAII (Michael W. Deem and Ramdas Pophale) SiO2 
 PCOD8001904
Probable space group: P -1
;
_chemical_formula_sum "Si O2"
_cell_formula_units_Z 16
_cell_length_a 19.841236
_cell_length_b 15.892245
_cell_length_c 9.197389
_cell_angle_alpha 140.015373
_cell_angle_beta 147.400307
_cell_angle_gamma 31.809018
_cell_volume 810.558206
_symmetry_space_group_name_H-M "P -1"
_symmetry_group_IT_number 2
_symmetry_cell_setting 'triclinic'
loop_
_space_group_symop_operation_xyz
x,y,z
-x,-y,-z
loop_
_atom_site_type_symbol
_atom_site_label
_atom_site_fract_x
_atom_site_fract_y
_atom_site_fract_z
Si Si1 0.737725 0.854777 0.858216
Si Si2 0.296745 0.583337 0.883130
Si Si3 0.083842 0.849225 0.061072
Si Si4 0.366948 0.708187 0.930132
Si Si5 0.862245 0.745531 0.521386
Si Si6 0.150924 0.939275 0.603426
Si Si7 0.901396 0.541634 0.594100
Si Si8 0.413547 0.958124 0.468109
O O1 0.881679 0.663818 0.845210
O O2 0.591909 0.888537 0.729330
O O3 0.665587 0.932757 0.674207
O O4 0.817313 0.926108 0.178837
O O5 0.253561 0.683938 0.786069
O O6 0.228350 0.481544 0.627450
O O7 0.238241 0.701945 0.070633
O O8 0.481115 0.463751 0.068540
O O9 0.139099 0.889004 0.356412
O O10 0.976267 0.793657 0.838549
O O11 0.000000 0.000000 0.000000
O O12 0.293786 0.790676 0.753301
O O13 0.404353 0.807609 0.236066
O O14 0.859437 0.630864 0.481247
O O15 0.929896 0.635794 0.349514
O O16 0.690919 0.917361 0.423389
O O17 0.000000 0.000000 0.500000
#
# Coordination Sequence:
#
# PCOD8001904 Si02
#       8
#     2   2   2   2   2   2   2   2
#     4   9  17  29  53  77 109 143 185 230 277 333
#     4  10  20  34  59  87 117 154 190 232 289 344
#     4  11  22  39  60  84 112 156 194 240 289 344
#     4  10  20  35  58  90 115 151 192 241 282 341
#     4   9  18  29  55  81 111 143 192 232 277 343
#     4  11  22  36  58  85 116 149 196 242 282 339
#     4   9  16  31  50  85 111 145 188 228 280 342
#     4   9  15  29  51  82 105 146 187 224 277 343
#
# _framework density 19.739483
#
# number of rings (size 3 to 8) (size 9 to 14) (size 15 to 20)
#    0.000    2.250    1.250    3.750    1.750    0.500 
#    0.000    0.000    2.750   18.000    0.000    0.000 
#    0.000    0.000    0.000    0.000    0.000    0.000 
#
# Total GULP energy -198246.270692 kJ/mol
# GULP energy per Si atom -12390.391918 kJ/mol
# Density = 1.969456 g / cm^3
# Si number density = 19.739483 Si / 1000 Ang^3
#
#
#
# Elastic Constant Matrix: (Units=GPa)
#
#
# Indices 1 2 3 4 5 6 
#
# 1 110.1578 48.0333 53.6681 15.9851 18.5813 -7.5355
# 2 48.0333 121.4822 51.5339 26.9398 0.1433 -29.6609
# 3 53.6681 51.5339 90.1637 25.3086 9.0833 0.1732
# 4 15.9851 26.9398 25.3086 23.8515 -0.4644 2.8218
# 5 18.5813 0.1433 9.0833 -0.4644 29.9218 3.8531
# 6 -7.5355 -29.6609 0.1732 2.8218 3.8531 43.9068
#
#
#
# Elastic Compliance Matrix: (Units=1/GPa)
#
#
# Indices 1 2 3 4 5 6 
#
# 1 0.014771 -0.002679 -0.006410 -0.000385 -0.007404 0.001425
# 2 -0.002679 0.017316 -0.004354 -0.014551 0.001120 0.012092
# 3 -0.006410 -0.004354 0.021296 -0.013062 -0.002269 -0.003087
# 4 -0.000385 -0.014551 -0.013062 0.074431 0.007396 -0.015277
# 5 -0.007404 0.001120 -0.002269 0.007396 0.039388 -0.004437
# 6 0.001425 0.012092 -0.003087 -0.015277 -0.004437 0.032572
#
#
# Mechanical properties :
#
#
# Convention : Reuss Voigt Hill
#
# Bulk Modulus (GPa) = 37.74025 69.80825 53.77425
# Shear Modulus (GPa) = 21.23223 30.77392 26.00307
#
# Velocity S-wave (km/s) = 3.28323 3.95270 3.63342
# Velocity P-wave (km/s) = 5.79081 7.50156 6.70100
#
# Compressibility (1/GPa) = 0.02649691
#
# Stress axis : x y z
#
# Youngs Moduli (GPa) = 67.69980 57.75047 46.95810
#
# Poissons Ratio (x) = 0.15474 0.30098
# Poissons Ratio (y) = 0.18140 0.20444
# Poissons Ratio (z) = 0.43393 0.25143
#
# Static dielectric constant tensor:
#      x y z
#    x 4.071580 -0.202580 0.184190 
#    y -0.202580 4.062520 0.273770 
#    z 0.184190 0.273770 3.260820 
# 
# 
# High freq. dielectric constant tensor:
#      x y z
#    x 1.775840 -0.014670 0.031340 
#    y -0.014670 1.790200 0.027760 
#    z 0.031340 0.027760 1.720390 
# 
# From -- ./inp_files/269645.got.cif
#   From: 2010.06.25/outbox.cif.g09.slc.cpg/sg2_135_cif.got.tgz:269645.got - 2010.06.27 13:26:56.
