data_PCOD8001259
_publ_section_title
;
Structure prediction by ZEFSAII (Michael W. Deem and Ramdas Pophale) SiO2 
 PCOD8001259
Probable space group: P -1
;
_chemical_formula_sum "Si O2"
_cell_formula_units_Z 14
_cell_length_a 9.296925
_cell_length_b 7.427842
_cell_length_c 21.610275
_cell_angle_alpha 133.879854
_cell_angle_beta 27.061612
_cell_angle_gamma 131.945108
_cell_volume 483.377006
_symmetry_space_group_name_H-M "P -1"
_symmetry_group_IT_number 2
_symmetry_cell_setting 'triclinic'
loop_
_space_group_symop_operation_xyz
x,y,z
-x,-y,-z
loop_
_atom_site_type_symbol
_atom_site_label
_atom_site_fract_x
_atom_site_fract_y
_atom_site_fract_z
Si Si1 0.915621 0.600502 0.141056
Si Si2 0.081140 0.270796 0.603207
Si Si3 0.661677 0.705615 0.888759
Si Si4 0.443510 0.114523 0.263173
Si Si5 0.955052 0.968070 0.721186
Si Si6 0.453536 0.601699 0.440860
Si Si7 0.009166 0.899863 0.055789
O O1 0.832958 0.740421 0.143355
O O2 0.813840 0.765389 0.279887
O O3 0.290802 0.591909 0.003820
O O4 0.785899 0.293629 0.106918
O O5 0.346117 0.366580 0.473313
O O6 0.259889 0.220128 0.588542
O O7 0.866550 0.484887 0.749435
O O8 0.853517 0.010605 0.608160
O O9 0.740268 0.904702 0.849979
O O10 0.761933 0.851132 0.949076
O O11 0.750660 0.983992 0.129134
O O12 0.302837 0.003651 0.224920
O O13 0.516347 0.425005 0.314662
O O14 0.169789 0.756610 0.571009
#
# Coordination Sequence:
#
# PCOD8001259 Si02
#       7
#     2   2   2   2   2   2   2
#     4  10  21  41  62  87 119 161 200 238 289 358
#     4  10  21  38  66  87 113 160 202 242 289 349
#     4  10  19  43  62  85 118 162 201 237 288 357
#     4  12  22  39  60  95 120 150 197 253 297 343
#     4  10  23  38  61  88 127 154 187 252 304 338
#     4  10  22  42  61  86 120 158 201 238 289 366
#     4  10  20  35  64  86 116 153 203 240 282 352
#
# _framework density 28.962900999999999
#
# number of rings (size 3 to 8) (size 9 to 14) (size 15 to 20)
#    0.000    1.714    2.857    2.571    2.000    1.143 
#    0.000    8.571    0.000    0.000    0.000    0.000 
#    0.000    0.000    0.000    0.000    0.000    0.000 
#
# Total GULP energy -173656.456209 kJ/mol
# GULP energy per Si atom -12404.032586 kJ/mol
# Density = 2.889698 g / cm^3
# Si number density = 28.962901 Si / 1000 Ang^3
#
#
#
# Elastic Constant Matrix: (Units=GPa)
#
#
# Indices 1 2 3 4 5 6 
#
# 1 163.6077 38.4366 46.6360 11.3052 -8.3500 6.2651
# 2 38.4366 180.6821 17.3417 9.1682 5.7222 34.3412
# 3 46.6360 17.3417 104.5680 12.3937 12.1255 15.6712
# 4 11.3052 9.1682 12.3937 46.8712 6.2262 -1.2703
# 5 -8.3500 5.7222 12.1255 6.2262 47.5654 1.9577
# 6 6.2651 34.3412 15.6712 -1.2703 1.9577 45.1199
#
#
#
# Elastic Compliance Matrix: (Units=1/GPa)
#
#
# Indices 1 2 3 4 5 6 
#
# 1 0.007617 -0.001545 -0.003501 -0.000907 0.002485 0.001201
# 2 -0.001545 0.006887 0.000567 -0.001149 -0.000879 -0.005218
# 3 -0.003501 0.000567 0.012299 -0.002184 -0.003362 -0.004133
# 4 -0.000907 -0.001149 -0.002184 0.022762 -0.002547 0.002510
# 5 0.002485 -0.000879 -0.003362 -0.002547 0.022738 0.000434
# 6 0.001201 -0.005218 -0.004133 0.002510 0.000434 0.027455
#
#
# Mechanical properties :
#
#
# Convention : Reuss Voigt Hill
#
# Bulk Modulus (GPa) = 56.04321 72.63183 64.33752
# Shear Modulus (GPa) = 43.60533 51.00755 47.30644
#
# Velocity S-wave (km/s) = 3.88436 4.20114 4.04585
# Velocity P-wave (km/s) = 6.28567 6.97601 6.63982
#
# Compressibility (1/GPa) = 0.01784337
#
# Stress axis : x y z
#
# Youngs Moduli (GPa) = 131.28977 145.20499 81.30910
#
# Poissons Ratio (x) = 0.22438 0.28470
# Poissons Ratio (y) = 0.20288 -0.04612
# Poissons Ratio (z) = 0.45970 -0.08236
#
# Static dielectric constant tensor:
#      x y z
#    x 5.551050 -0.262860 0.541260 
#    y -0.262860 6.449970 -0.412330 
#    z 0.541260 -0.412330 5.291730 
# 
# 
# High freq. dielectric constant tensor:
#      x y z
#    x 2.196940 -0.007920 0.034480 
#    y -0.007920 2.244590 -0.016150 
#    z 0.034480 -0.016150 2.191670 
# 
# From -- ./inp_files/177176.got.cif
#   From: 2010.06.25/outbox.cif.g09.slc.cpg/sg2_89_cif.got.tgz:177176.got - 2010.06.27 13:26:56.
