data_PCOD8001122
_publ_section_title
;
Structure prediction by ZEFSAII (Michael W. Deem and Ramdas Pophale) SiO2 
 PCOD8001122
Probable space group: P -1
;
_chemical_formula_sum "Si O2"
_cell_formula_units_Z 16
_cell_length_a 7.738457
_cell_length_b 16.786382
_cell_length_c 9.362563
_cell_angle_alpha 66.307248
_cell_angle_beta 129.004083
_cell_angle_gamma 128.638400
_cell_volume 738.151425
_symmetry_space_group_name_H-M "P -1"
_symmetry_group_IT_number 2
_symmetry_cell_setting 'triclinic'
loop_
_space_group_symop_operation_xyz
x,y,z
-x,-y,-z
loop_
_atom_site_type_symbol
_atom_site_label
_atom_site_fract_x
_atom_site_fract_y
_atom_site_fract_z
Si Si1 0.617863 0.203471 0.440397
Si Si2 0.395706 0.407649 0.903259
Si Si3 0.265181 0.815554 0.799184
Si Si4 0.023705 0.113286 0.219077
Si Si5 0.074060 0.431943 0.500029
Si Si6 0.097491 0.590033 0.872776
Si Si7 0.841237 0.926673 0.101833
Si Si8 0.948896 0.189991 0.839556
O O1 0.660578 0.159718 0.346760
O O2 0.333336 0.186834 0.316302
O O3 0.822387 0.321553 0.460962
O O4 0.674560 0.157149 0.644134
O O5 0.336497 0.440837 0.694126
O O6 0.122503 0.310167 0.882527
O O7 0.500000 0.500000 0.000000
O O8 0.604776 0.373471 0.033057
O O9 0.111371 0.694735 0.849186
O O10 0.081739 0.859864 0.714337
O O11 0.532927 0.878182 0.979053
O O12 0.885634 0.128776 0.997792
O O13 0.947466 0.994776 0.254090
O O14 0.000000 0.500000 0.500000
O O15 0.104453 0.461157 0.327621
O O16 0.000000 0.500000 0.000000
O O17 0.895863 0.834875 0.182485
O O18 0.000000 0.000000 0.000000
#
# Coordination Sequence:
#
# PCOD8001122 Si02
#       8
#     2   2   2   2   2   2   2   2
#     4  10  22  41  61  93 127 164 209 262 312 367
#     4  11  21  37  67  86 120 172 207 249 315 372
#     4  11  22  43  65  91 133 161 211 262 312 373
#     4  11  23  40  66  91 125 168 205 260 319 374
#     4  10  21  37  61  89 119 166 216 249 301 383
#     4  11  24  39  59  94 130 161 204 262 314 366
#     4  10  19  41  68  89 123 170 207 258 319 368
#     4  10  21  41  65  92 124 166 212 259 310 374
#
# _framework density 21.67577
#
# number of rings (size 3 to 8) (size 9 to 14) (size 15 to 20)
#    0.000    1.500    5.000    1.125    1.750    1.000 
#    2.250    3.125    0.000    0.000    0.000    0.000 
#    0.000    0.000    0.000    0.000    0.000    0.000 
#
# Total GULP energy -198278.133790 kJ/mol
# GULP energy per Si atom -12392.383362 kJ/mol
# Density = 2.162644 g / cm^3
# Si number density = 21.675770 Si / 1000 Ang^3
#
#
#
# Elastic Constant Matrix: (Units=GPa)
#
#
# Indices 1 2 3 4 5 6 
#
# 1 105.7223 18.1443 23.5905 14.2615 -0.7167 -18.5217
# 2 18.1443 72.7577 17.4425 21.1640 -6.4668 -17.0702
# 3 23.5905 17.4425 123.8918 3.8322 6.3948 -0.6205
# 4 14.2615 21.1640 3.8322 30.6073 -2.4740 -6.2228
# 5 -0.7167 -6.4668 6.3948 -2.4740 17.1119 0.4690
# 6 -18.5217 -17.0702 -0.6205 -6.2228 0.4690 34.6775
#
#
#
# Elastic Compliance Matrix: (Units=1/GPa)
#
#
# Indices 1 2 3 4 5 6 
#
# 1 0.011383 0.000133 -0.002065 -0.003996 0.000573 0.005383
# 2 0.000133 0.020172 -0.002821 -0.011523 0.006803 0.007790
# 3 -0.002065 -0.002821 0.009044 0.001005 -0.004330 -0.002091
# 4 -0.003996 -0.011523 0.001005 0.042438 0.001243 -0.000190
# 5 0.000573 0.006803 -0.004330 0.001243 0.062751 0.002952
# 6 0.005383 0.007790 -0.002091 -0.000190 0.002952 0.035436
#
#
# Mechanical properties :
#
#
# Convention : Reuss Voigt Hill
#
# Bulk Modulus (GPa) = 32.16272 46.74739 39.45505
# Shear Modulus (GPa) = 24.86413 32.69232 28.77822
#
# Velocity S-wave (km/s) = 3.39055 3.88782 3.64767
# Velocity P-wave (km/s) = 5.49528 6.46274 5.99855
#
# Compressibility (1/GPa) = 0.03109190
#
# Stress axis : x y z
#
# Youngs Moduli (GPa) = 87.85157 49.57448 110.57238
#
# Poissons Ratio (x) = -0.00659 0.22835
# Poissons Ratio (y) = -0.01167 0.31192
# Poissons Ratio (z) = 0.18143 0.13985
#
# Static dielectric constant tensor:
#      x y z
#    x 3.792400 -0.326980 0.174240 
#    y -0.326980 4.090000 0.023690 
#    z 0.174240 0.023690 4.580970 
# 
# 
# High freq. dielectric constant tensor:
#      x y z
#    x 1.826370 -0.018480 0.012490 
#    y -0.018480 1.860040 0.015800 
#    z 0.012490 0.015800 1.852860 
# 
# From -- ./inp_files/214949.got.cif
#   From: 2010.06.25/outbox.cif.g09.slc.cpg/sg2_108_cif.got.tgz:214949.got - 2010.06.27 13:26:56.
