data_PCOD8001623
_publ_section_title
;
Structure prediction by ZEFSAII (Michael W. Deem and Ramdas Pophale) SiO2 
 PCOD8001623
Probable space group: P -1
;
_chemical_formula_sum "Si O2"
_cell_formula_units_Z 16
_cell_length_a 10.736074
_cell_length_b 26.034875
_cell_length_c 18.217764
_cell_angle_alpha 22.895734
_cell_angle_beta 22.439250
_cell_angle_gamma 31.222349
_cell_volume 755.960489
_symmetry_space_group_name_H-M "P -1"
_symmetry_group_IT_number 2
_symmetry_cell_setting 'triclinic'
loop_
_space_group_symop_operation_xyz
x,y,z
-x,-y,-z
loop_
_atom_site_type_symbol
_atom_site_label
_atom_site_fract_x
_atom_site_fract_y
_atom_site_fract_z
Si Si1 0.814122 0.131398 0.403766
Si Si2 0.813939 0.657809 0.703366
Si Si3 0.054845 0.623134 0.159233
Si Si4 0.133784 0.391118 0.889339
Si Si5 0.157123 0.642831 0.387911
Si Si6 0.079996 0.102514 0.882894
Si Si7 0.873047 0.075587 0.774109
Si Si8 0.861008 0.890848 0.892859
O O1 0.453295 0.138528 0.622132
O O2 0.847962 0.128873 0.299584
O O3 0.000000 0.000000 0.500000
O O4 0.967521 0.262239 0.183715
O O5 0.997845 0.532330 0.807642
O O6 0.876816 0.670079 0.565801
O O7 0.923795 0.791835 0.506522
O O8 0.435519 0.634285 0.950963
O O9 0.941137 0.607781 0.157276
O O10 0.925020 0.487541 0.444338
O O11 0.878304 0.757277 0.109600
O O12 0.513065 0.376409 0.720471
O O13 0.153218 0.766899 0.171211
O O14 0.999630 0.036509 0.091419
O O15 0.000000 0.000000 0.000000
O O16 0.917306 0.020218 0.740379
O O17 0.490205 0.102759 0.964322
#
# Coordination Sequence:
#
# PCOD8001623 Si02
#       8
#     2   2   2   2   2   2   2   2
#     4  11  20  38  61  90 118 149 197 245 295 343
#     4  11  19  35  56  86 118 150 200 244 290 346
#     4  10  20  34  57  84 114 153 197 246 289 344
#     4  10  20  33  59  86 113 153 196 248 290 342
#     4  11  19  34  56  85 118 151 198 245 292 342
#     4  12  23  36  57  92 123 154 194 243 297 349
#     4  11  23  39  60  87 122 160 193 238 300 351
#     4  10  22  41  60  87 116 160 199 240 290 355
#
# _framework density 21.165127999999999
#
# number of rings (size 3 to 8) (size 9 to 14) (size 15 to 20)
#    0.000    1.250    2.500    8.250    0.000    0.500 
#    0.000    0.625    0.000    0.750    0.000    0.000 
#    0.000    0.000    0.000    0.000    0.000    0.000 
#
# Total GULP energy -198310.941447 kJ/mol
# GULP energy per Si atom -12394.433840 kJ/mol
# Density = 2.111696 g / cm^3
# Si number density = 21.165128 Si / 1000 Ang^3
#
#
#
# Elastic Constant Matrix: (Units=GPa)
#
#
# Indices 1 2 3 4 5 6 
#
# 1 53.8859 30.5007 36.4957 -9.6902 -11.6601 -13.7518
# 2 30.5007 104.5902 44.7166 -36.3721 -5.4755 -21.8453
# 3 36.4957 44.7166 127.8507 -35.9821 -24.4958 -4.5185
# 4 -9.6902 -36.3721 -35.9821 48.4132 -4.0158 3.0835
# 5 -11.6601 -5.4755 -24.4958 -4.0158 29.6859 -4.9175
# 6 -13.7518 -21.8453 -4.5185 3.0835 -4.9175 35.8479
#
#
#
# Elastic Compliance Matrix: (Units=1/GPa)
#
#
# Indices 1 2 3 4 5 6 
#
# 1 0.027986 -0.004262 -0.005243 -0.001454 0.007104 0.008577
# 2 -0.004262 0.016812 -0.000464 0.011240 0.003910 0.008121
# 3 -0.005243 -0.000464 0.014570 0.010356 0.011312 0.000203
# 4 -0.001454 0.011240 0.010356 0.037429 0.016204 0.006600
# 5 0.007104 0.003910 0.011312 0.016204 0.050728 0.012098
# 6 0.008577 0.008121 0.000203 0.006600 0.012098 0.037252
#
#
# Mechanical properties :
#
#
# Convention : Reuss Voigt Hill
#
# Bulk Modulus (GPa) = 25.36201 56.63920 41.00060
# Shear Modulus (GPa) = 22.95070 34.43031 28.69051
#
# Velocity S-wave (km/s) = 3.29654 4.03767 3.68578
# Velocity P-wave (km/s) = 5.14767 6.96820 6.12594
#
# Compressibility (1/GPa) = 0.03942906
#
# Stress axis : x y z
#
# Youngs Moduli (GPa) = 35.73252 59.48121 68.63564
#
# Poissons Ratio (x) = 0.25350 0.35986
# Poissons Ratio (y) = 0.15229 0.03186
# Poissons Ratio (z) = 0.18735 0.02761
#
# Static dielectric constant tensor:
#      x y z
#    x 4.433590 0.195370 1.897810 
#    y 0.195370 4.592900 0.504770 
#    z 1.897810 0.504770 8.444720 
# 
# 
# High freq. dielectric constant tensor:
#      x y z
#    x 1.787610 -0.031720 -0.025140 
#    y -0.031720 1.839600 -0.030290 
#    z -0.025140 -0.030290 1.839520 
# 
# From -- ./inp_files/252549.got.cif
#   From: 2010.06.25/outbox.cif.g09.slc.cpg/sg2_127_cif.got.tgz:252549.got - 2010.06.27 13:26:56.
