data_PCOD8001935
_publ_section_title
;
Structure prediction by ZEFSAII (Michael W. Deem and Ramdas Pophale) SiO2 
 PCOD8001935
Probable space group: P -1
;
_chemical_formula_sum "Si O2"
_cell_formula_units_Z 16
_cell_length_a 9.524589
_cell_length_b 10.833891
_cell_length_c 8.931051
_cell_angle_alpha 95.335524
_cell_angle_beta 121.747713
_cell_angle_gamma 76.973991
_cell_volume 763.156564
_symmetry_space_group_name_H-M "P -1"
_symmetry_group_IT_number 2
_symmetry_cell_setting 'triclinic'
loop_
_space_group_symop_operation_xyz
x,y,z
-x,-y,-z
loop_
_atom_site_type_symbol
_atom_site_label
_atom_site_fract_x
_atom_site_fract_y
_atom_site_fract_z
Si Si1 0.184364 0.472858 0.234227
Si Si2 0.708418 0.332187 0.876693
Si Si3 0.415940 0.285103 0.516795
Si Si4 0.796370 0.178765 0.176323
Si Si5 0.617830 0.131433 0.358067
Si Si6 0.810919 0.911142 0.639034
Si Si7 0.042038 0.291669 0.932697
Si Si8 0.290493 0.053257 0.074080
O O1 0.287084 0.525175 0.161308
O O2 0.302926 0.425929 0.437584
O O3 0.026385 0.588640 0.205672
O O4 0.119488 0.349560 0.128130
O O5 0.539245 0.290938 0.724230
O O6 0.876724 0.239850 0.888904
O O7 0.726372 0.311406 0.063674
O O8 0.518784 0.244546 0.417513
O O9 0.303526 0.185949 0.487831
O O10 0.721027 0.193811 0.301617
O O11 0.997025 0.148056 0.298503
O O12 0.726758 0.070962 0.036399
O O13 0.486471 0.059843 0.193745
O O14 0.750557 0.037129 0.523095
O O15 0.788816 0.945315 0.805122
O O16 0.182605 0.175739 0.935264
#
# Coordination Sequence:
#
# PCOD8001935 Si02
#       8
#     2   2   2   2   2   2   2   2
#     4   9  17  35  57  90 109 137 188 240 273 315
#     4  10  20  34  60  86 109 145 190 228 269 332
#     4  11  20  37  60  83 115 143 189 231 278 322
#     4  12  23  37  55  85 117 149 185 224 283 336
#     4  11  24  36  53  84 120 149 177 232 285 330
#     4  11  21  37  55  82 110 154 183 232 272 329
#     4   9  18  33  60  88 107 140 190 240 268 317
#     4  11  20  38  60  81 110 149 192 229 270 330
#
# _framework density 20.965553
#
# number of rings (size 3 to 8) (size 9 to 14) (size 15 to 20)
#    0.750    0.750    3.750    4.500    1.750    0.000 
#    0.000    0.625    0.000    0.000    0.000    5.250 
#    0.000    0.000    0.000    0.000    0.000    0.000 
#
# Total GULP energy -198263.721185 kJ/mol
# GULP energy per Si atom -12391.482574 kJ/mol
# Density = 2.091783 g / cm^3
# Si number density = 20.965553 Si / 1000 Ang^3
#
#
#
# Elastic Constant Matrix: (Units=GPa)
#
#
# Indices 1 2 3 4 5 6 
#
# 1 88.1663 -6.7472 35.1948 -1.4932 5.5895 -1.5728
# 2 -6.7472 41.2931 23.8603 -23.3998 -0.9740 3.9561
# 3 35.1948 23.8603 81.7968 -26.3344 17.4830 -5.2650
# 4 -1.4932 -23.3998 -26.3344 30.2363 3.1524 4.1022
# 5 5.5895 -0.9740 17.4830 3.1524 34.3410 -3.7062
# 6 -1.5728 3.9561 -5.2650 4.1022 -3.7062 17.0309
#
#
#
# Elastic Compliance Matrix: (Units=1/GPa)
#
#
# Indices 1 2 3 4 5 6 
#
# 1 0.015926 0.007543 -0.010748 -0.002753 0.003102 -0.002266
# 2 0.007543 0.054418 -0.007544 0.039419 -0.002077 -0.024223
# 3 -0.010748 -0.007544 0.028742 0.019983 -0.014757 0.001621
# 4 -0.002753 0.039419 0.019983 0.086748 -0.019636 -0.028401
# 5 0.003102 -0.002077 -0.014757 -0.019636 0.038886 0.009399
# 6 -0.002266 -0.024223 0.001621 -0.028401 0.009399 0.073522
#
#
# Mechanical properties :
#
#
# Convention : Reuss Voigt Hill
#
# Bulk Modulus (GPa) = 12.88832 35.09689 23.99261
# Shear Modulus (GPa) = 14.46745 26.91820 20.69282
#
# Velocity S-wave (km/s) = 2.62975 3.58708 3.14505
# Velocity P-wave (km/s) = 3.92192 5.82518 4.96559
#
# Compressibility (1/GPa) = 0.07758960
#
# Stress axis : x y z
#
# Youngs Moduli (GPa) = 62.78947 18.37614 34.79170
#
# Poissons Ratio (x) = -0.13861 0.37394
# Poissons Ratio (y) = -0.47362 0.26246
# Poissons Ratio (z) = 0.67486 0.13863
#
# Static dielectric constant tensor:
#      x y z
#    x 3.779520 0.119810 0.322270 
#    y 0.119810 3.649410 -0.403870 
#    z 0.322270 -0.403870 3.800060 
# 
# 
# High freq. dielectric constant tensor:
#      x y z
#    x 1.806160 0.020250 0.037800 
#    y 0.020250 1.803890 -0.036000 
#    z 0.037800 -0.036000 1.814720 
# 
# From -- ./inp_files/187856.got.cif
#   From: 2010.06.25/outbox.cif.g09.slc.cpg/sg2_94_cif.got.tgz:187856.got - 2010.06.27 13:26:56.
