data_PCOD8001567
_publ_section_title
;
Structure prediction by ZEFSAII (Michael W. Deem and Ramdas Pophale) SiO2 
 PCOD8001567
Probable space group: P -1
;
_chemical_formula_sum "Si O2"
_cell_formula_units_Z 16
_cell_length_a 16.159028
_cell_length_b 14.966097
_cell_length_c 8.635887
_cell_angle_alpha 59.753528
_cell_angle_beta 110.945741
_cell_angle_gamma 153.554064
_cell_volume 779.389714
_symmetry_space_group_name_H-M "P -1"
_symmetry_group_IT_number 2
_symmetry_cell_setting 'triclinic'
loop_
_space_group_symop_operation_xyz
x,y,z
-x,-y,-z
loop_
_atom_site_type_symbol
_atom_site_label
_atom_site_fract_x
_atom_site_fract_y
_atom_site_fract_z
Si Si1 0.483790 0.391971 0.777253
Si Si2 0.545895 0.926028 0.451281
Si Si3 0.784647 0.865583 0.626065
Si Si4 0.623646 0.830005 0.815122
Si Si5 0.691306 0.939352 0.274657
Si Si6 0.948969 0.219498 0.923583
Si Si7 0.058191 0.018085 0.857706
Si Si8 0.817841 0.359337 0.415787
O O1 0.651457 0.646436 0.636434
O O2 0.470486 0.300041 0.703823
O O3 0.521823 0.364650 0.982876
O O4 0.285699 0.248950 0.791889
O O5 0.520096 0.810812 0.663718
O O6 0.582043 0.916062 0.314952
O O7 0.345880 0.782047 0.443364
O O8 0.727527 0.185988 0.384617
O O9 0.681671 0.794252 0.776781
O O10 0.820716 0.002204 0.421713
O O11 0.982259 0.013299 0.673418
O O12 0.811921 0.073464 0.808995
O O13 0.828137 0.132200 0.069054
O O14 0.120411 0.475750 0.783420
O O15 0.030353 0.188904 0.039001
O O16 0.000000 0.000000 0.000000
O O17 0.000000 0.500000 0.500000
#
# Coordination Sequence:
#
# PCOD8001567 Si02
#       8
#     2   2   2   2   2   2   2   2
#     4  10  21  34  55  85 124 163 201 241 289 349
#     4  10  22  41  66  89 115 151 202 250 307 362
#     4  11  19  35  59  83 123 167 201 238 289 345
#     4   9  18  35  58  87 118 156 204 245 281 356
#     4   9  22  41  57  90 131 156 195 252 299 364
#     4  10  21  39  60  87 129 155 197 255 298 345
#     4  10  20  33  55  89 120 158 207 244 279 346
#     4  11  23  41  69  91 111 150 205 255 301 364
#
# _framework density 20.528884000000001
#
# number of rings (size 3 to 8) (size 9 to 14) (size 15 to 20)
#    0.000    2.250    3.750    0.750    1.750    3.500 
#    0.000    3.125    0.000    0.000    0.000    0.000 
#    0.000    0.000    0.000    0.000    0.000    0.000 
#
# Total GULP energy -198377.371668 kJ/mol
# GULP energy per Si atom -12398.585729 kJ/mol
# Density = 2.048216 g / cm^3
# Si number density = 20.528884 Si / 1000 Ang^3
#
#
#
# Elastic Constant Matrix: (Units=GPa)
#
#
# Indices 1 2 3 4 5 6 
#
# 1 116.9538 43.6684 25.3813 8.9687 -23.3391 -8.5231
# 2 43.6684 88.8713 21.7182 -1.2247 -11.1429 1.3358
# 3 25.3813 21.7182 64.0434 2.1133 -9.3027 -9.0729
# 4 8.9687 -1.2247 2.1133 29.4418 -4.9177 3.2906
# 5 -23.3391 -11.1429 -9.3027 -4.9177 34.1951 11.1579
# 6 -8.5231 1.3358 -9.0729 3.2906 11.1579 25.3307
#
#
#
# Elastic Compliance Matrix: (Units=1/GPa)
#
#
# Indices 1 2 3 4 5 6 
#
# 1 0.012239 -0.004929 -0.002076 -0.003121 0.005156 0.001768
# 2 -0.004929 0.015044 -0.003623 0.003468 0.002828 -0.005446
# 3 -0.002076 -0.003623 0.018635 -0.001523 0.000205 0.006274
# 4 -0.003121 0.003468 -0.001523 0.037463 0.007173 -0.009805
# 5 0.005156 0.002828 0.000205 0.007173 0.040332 -0.017038
# 6 0.001768 -0.005446 0.006274 -0.009805 -0.017038 0.051386
#
#
# Mechanical properties :
#
#
# Convention : Reuss Voigt Hill
#
# Bulk Modulus (GPa) = 40.55177 50.15604 45.35390
# Shear Modulus (GPa) = 24.44067 29.73356 27.08712
#
# Velocity S-wave (km/s) = 3.45418 3.80988 3.63638
# Velocity P-wave (km/s) = 5.97536 6.62107 6.30648
#
# Compressibility (1/GPa) = 0.02465984
#
# Stress axis : x y z
#
# Youngs Moduli (GPa) = 81.70842 66.47158 53.66253
#
# Poissons Ratio (x) = 0.32766 0.11142
# Poissons Ratio (y) = 0.40277 0.19444
# Poissons Ratio (z) = 0.16965 0.24085
#
# Static dielectric constant tensor:
#      x y z
#    x 3.790510 -0.120230 0.070910 
#    y -0.120230 3.590910 0.140200 
#    z 0.070910 0.140200 3.718600 
# 
# 
# High freq. dielectric constant tensor:
#      x y z
#    x 1.802560 -0.007410 0.001050 
#    y -0.007410 1.785810 0.008970 
#    z 0.001050 0.008970 1.800160 
# 
# From -- ./inp_files/312839.got.cif
#   From: 2010.06.25/outbox.cif.g09.slc.cpg/sg2_157_cif.got.tgz:312839.got - 2010.06.27 13:26:56.
