data_PCOD8001020
_publ_section_title
;
Structure prediction by ZEFSAII (Michael W. Deem and Ramdas Pophale) SiO2 
 PCOD8001020
Probable space group: P -1
;
_chemical_formula_sum "Si O2"
_cell_formula_units_Z 16
_cell_length_a 9.167301
_cell_length_b 12.512957
_cell_length_c 11.433521
_cell_angle_alpha 48.869374
_cell_angle_beta 67.982101
_cell_angle_gamma 44.811075
_cell_volume 685.741614
_symmetry_space_group_name_H-M "P -1"
_symmetry_group_IT_number 2
_symmetry_cell_setting 'triclinic'
loop_
_space_group_symop_operation_xyz
x,y,z
-x,-y,-z
loop_
_atom_site_type_symbol
_atom_site_label
_atom_site_fract_x
_atom_site_fract_y
_atom_site_fract_z
Si Si1 0.121436 0.575585 0.897507
Si Si2 0.887572 0.840821 0.312332
Si Si3 0.050967 0.437772 0.671750
Si Si4 0.807853 0.853599 0.965296
Si Si5 0.574504 0.824654 0.872166
Si Si6 0.267473 0.569055 0.617676
Si Si7 0.267673 0.181378 0.405773
Si Si8 0.724140 0.226188 0.727931
O O1 0.106562 0.651485 0.716399
O O2 0.019245 0.742733 0.901509
O O3 0.361225 0.381286 0.993575
O O4 0.000000 0.500000 0.000000
O O5 0.938529 0.643973 0.402986
O O6 0.878075 0.844197 0.457582
O O7 0.076270 0.828718 0.221552
O O8 0.670066 0.025175 0.192097
O O9 0.212216 0.474809 0.610258
O O10 0.817145 0.615610 0.664938
O O11 0.137202 0.252772 0.853188
O O12 0.621649 0.874417 0.944513
O O13 0.722577 0.060211 0.863579
O O14 0.726582 0.817695 0.737577
O O15 0.502638 0.411798 0.711685
O O16 0.257291 0.729034 0.443910
O O17 0.500000 0.000000 0.500000
#
# Coordination Sequence:
#
# PCOD8001020 Si02
#       8
#     2   2   2   2   2   2   2   2
#     4  10  19  40  70  97 117 165 225 274 303 368
#     4  11  25  39  65  93 135 174 207 263 326 389
#     4  12  21  42  73  94 121 174 230 258 304 386
#     4  11  23  41  69 100 124 164 223 273 316 374
#     4  10  20  41  68  97 120 169 224 269 311 374
#     4  11  23  44  69  90 133 169 218 266 317 387
#     4  10  21  40  65  98 129 158 219 274 311 371
#     4  11  27  43  58 100 140 170 200 269 343 377
#
# _framework density 23.332404
#
# number of rings (size 3 to 8) (size 9 to 14) (size 15 to 20)
#    0.000    1.250    5.000    1.875    1.750    2.000 
#    2.250    1.875    0.000    0.000    0.000    0.000 
#    0.000    0.000    0.000    0.000    0.000    0.000 
#
# Total GULP energy -198214.721952 kJ/mol
# GULP energy per Si atom -12388.420122 kJ/mol
# Density = 2.327930 g / cm^3
# Si number density = 23.332404 Si / 1000 Ang^3
#
#
#
# Elastic Constant Matrix: (Units=GPa)
#
#
# Indices 1 2 3 4 5 6 
#
# 1 79.7356 19.1458 6.9496 -1.4860 3.3286 -21.0107
# 2 19.1458 45.4697 7.9409 -6.9408 5.1586 -15.3017
# 3 6.9496 7.9409 87.8594 -12.4589 -5.8634 -6.5210
# 4 -1.4860 -6.9408 -12.4589 51.0668 -3.7008 3.1297
# 5 3.3286 5.1586 -5.8634 -3.7008 28.5886 0.7233
# 6 -21.0107 -15.3017 -6.5210 3.1297 0.7233 28.9148
#
#
#
# Elastic Compliance Matrix: (Units=1/GPa)
#
#
# Indices 1 2 3 4 5 6 
#
# 1 0.016046 -0.003249 -0.000469 -0.000826 -0.001737 0.009967
# 2 -0.003249 0.028715 -0.001429 0.002330 -0.005108 0.012388
# 3 -0.000469 -0.001429 0.012271 0.002938 0.003177 0.001273
# 4 -0.000826 0.002330 0.002938 0.020873 0.003007 -0.001039
# 5 -0.001737 -0.005108 0.003177 0.003007 0.037258 -0.004506
# 6 0.009967 0.012388 0.001273 -0.001039 -0.004506 0.048895
#
#
# Mechanical properties :
#
#
# Convention : Reuss Voigt Hill
#
# Bulk Modulus (GPa) = 21.39632 31.23750 26.31691
# Shear Modulus (GPa) = 26.32523 33.64926 29.98724
#
# Velocity S-wave (km/s) = 3.36262 3.80171 3.58888
# Velocity P-wave (km/s) = 4.92609 5.71732 5.33639
#
# Compressibility (1/GPa) = 0.04673700
#
# Stress axis : x y z
#
# Youngs Moduli (GPa) = 62.32043 34.82561 81.49118
#
# Poissons Ratio (x) = 0.11316 0.03820
# Poissons Ratio (y) = 0.20250 0.11647
# Poissons Ratio (z) = 0.02922 0.04978
#
# Static dielectric constant tensor:
#      x y z
#    x 3.950400 -0.541570 0.413610 
#    y -0.541570 4.952360 -0.155800 
#    z 0.413610 -0.155800 4.924660 
# 
# 
# High freq. dielectric constant tensor:
#      x y z
#    x 1.877230 -0.043490 0.029030 
#    y -0.043490 1.929370 -0.003470 
#    z 0.029030 -0.003470 1.961740 
# 
# From -- ./inp_files/392061.got.cif
#   From: 2010.06.25/outbox.cif.g09.slc.cpg/sg2_197_cif.got.tgz:392061.got - 2010.06.27 13:26:56.
