data_PCOD8001573
_publ_section_title
;
Structure prediction by ZEFSAII (Michael W. Deem and Ramdas Pophale) SiO2 
 PCOD8001573
Probable space group: P -1
;
_chemical_formula_sum "Si O2"
_cell_formula_units_Z 16
_cell_length_a 11.717762
_cell_length_b 25.998054
_cell_length_c 16.754883
_cell_angle_alpha 20.117531
_cell_angle_beta 29.415588
_cell_angle_gamma 29.922264
_cell_volume 825.519733
_symmetry_space_group_name_H-M "P -1"
_symmetry_group_IT_number 2
_symmetry_cell_setting 'triclinic'
loop_
_space_group_symop_operation_xyz
x,y,z
-x,-y,-z
loop_
_atom_site_type_symbol
_atom_site_label
_atom_site_fract_x
_atom_site_fract_y
_atom_site_fract_z
Si Si1 0.869831 0.495966 0.810519
Si Si2 0.641579 0.484338 0.237568
Si Si3 0.416321 0.755322 0.665758
Si Si4 0.093105 0.580836 0.397214
Si Si5 0.328329 0.144771 0.782232
Si Si6 0.948182 0.952080 0.510993
Si Si7 0.354791 0.849068 0.282696
Si Si8 0.082278 0.388034 0.994529
O O1 0.652393 0.656685 0.713122
O O2 0.034418 0.495148 0.635367
O O3 0.761094 0.349648 0.092406
O O4 0.054186 0.481715 0.792289
O O5 0.377154 0.565736 0.243284
O O6 0.680993 0.308380 0.502245
O O7 0.830694 0.471409 0.070339
O O8 0.691064 0.588610 0.128143
O O9 0.479671 0.820694 0.447078
O O10 0.279580 0.902563 0.589778
O O11 0.000000 0.500000 0.500000
O O12 0.942318 0.763921 0.215807
O O13 0.389068 0.199218 0.754547
O O14 0.351870 0.960478 0.045826
O O15 0.868458 0.794740 0.786093
O O16 0.160126 0.939086 0.336655
O O17 0.000000 0.000000 0.500000
#
# Coordination Sequence:
#
# PCOD8001573 Si02
#       8
#     2   2   2   2   2   2   2   2
#     4  10  22  35  58  86 117 155 190 240 296 346
#     4  10  22  41  60  83 120 158 196 239 286 355
#     4  10  20  35  54  86 117 143 191 247 286 340
#     4  11  23  35  58  89 119 151 193 247 292 342
#     4  10  20  34  52  86 115 143 191 244 293 335
#     4  11  19  32  58  87 113 146 193 248 286 339
#     4  10  20  33  56  84 115 151 190 239 297 341
#     4  10  22  40  61  85 117 159 197 234 291 353
#
# _framework density 19.381727999999999
#
# number of rings (size 3 to 8) (size 9 to 14) (size 15 to 20)
#    0.000    1.750    3.750    0.750    5.250    1.500 
#    0.000    1.250    0.000    7.500    0.000    0.000 
#    0.000    0.000    0.000    0.000    0.000    0.000 
#
# Total GULP energy -198318.842988 kJ/mol
# GULP energy per Si atom -12394.927687 kJ/mol
# Density = 1.933761 g / cm^3
# Si number density = 19.381728 Si / 1000 Ang^3
#
#
#
# Elastic Constant Matrix: (Units=GPa)
#
#
# Indices 1 2 3 4 5 6 
#
# 1 110.9159 44.0018 53.3776 -8.6027 -3.7794 -8.6036
# 2 44.0018 91.6022 30.3955 -9.7821 -5.9718 -13.6705
# 3 53.3776 30.3955 104.7094 -10.0578 8.8408 -0.6747
# 4 -8.6027 -9.7821 -10.0578 25.5746 -0.1881 -5.9468
# 5 -3.7794 -5.9718 8.8408 -0.1881 36.6373 -1.3351
# 6 -8.6036 -13.6705 -0.6747 -5.9468 -1.3351 24.9806
#
#
#
# Elastic Compliance Matrix: (Units=1/GPa)
#
#
# Indices 1 2 3 4 5 6 
#
# 1 0.013871 -0.003928 -0.005964 0.001523 0.002345 0.002955
# 2 -0.003928 0.015647 -0.002176 0.005854 0.003018 0.008706
# 3 -0.005964 -0.002176 0.013759 0.001925 -0.004377 -0.002649
# 4 0.001523 0.005854 0.001925 0.046067 0.001423 0.014823
# 5 0.002345 0.003018 -0.004377 0.001423 0.029246 0.004243
# 6 0.002955 0.008706 -0.002649 0.014823 0.004243 0.049497
#
#
# Mechanical properties :
#
#
# Convention : Reuss Voigt Hill
#
# Bulk Modulus (GPa) = 52.24061 62.53082 57.38571
# Shear Modulus (GPa) = 25.17582 29.40200 27.28891
#
# Velocity S-wave (km/s) = 3.60800 3.89909 3.75636
# Velocity P-wave (km/s) = 6.66100 7.25282 6.96320
#
# Compressibility (1/GPa) = 0.01914220
#
# Stress axis : x y z
#
# Youngs Moduli (GPa) = 72.09161 63.91096 72.67787
#
# Poissons Ratio (x) = 0.25103 0.43343
# Poissons Ratio (y) = 0.28317 0.15815
# Poissons Ratio (z) = 0.42993 0.13907
#
# Static dielectric constant tensor:
#      x y z
#    x 3.433480 -0.208840 0.193070 
#    y -0.208840 3.853770 -0.181270 
#    z 0.193070 -0.181270 3.632430 
# 
# 
# High freq. dielectric constant tensor:
#      x y z
#    x 1.729280 -0.009970 0.021340 
#    y -0.009970 1.761360 -0.003410 
#    z 0.021340 -0.003410 1.751390 
# 
# From -- ./inp_files/436656.got.cif
#   From: 2010.06.25/outbox.cif.g09.slc.cpg/sg2_219_cif.got.tgz:436656.got - 2010.06.27 13:26:56.
