data_PCOD8001411
_publ_section_title
;
Structure prediction by ZEFSAII (Michael W. Deem and Ramdas Pophale) SiO2 
 PCOD8001411
Probable space group: P -1
;
_chemical_formula_sum "Si O2"
_cell_formula_units_Z 16
_cell_length_a 12.340657
_cell_length_b 9.248376
_cell_length_c 11.349219
_cell_angle_alpha 140.678021
_cell_angle_beta 95.031574
_cell_angle_gamma 86.013894
_cell_volume 817.635710
_symmetry_space_group_name_H-M "P -1"
_symmetry_group_IT_number 2
_symmetry_cell_setting 'triclinic'
loop_
_space_group_symop_operation_xyz
x,y,z
-x,-y,-z
loop_
_atom_site_type_symbol
_atom_site_label
_atom_site_fract_x
_atom_site_fract_y
_atom_site_fract_z
Si Si1 0.493720 0.033900 0.376300
Si Si2 0.805776 0.031772 0.901831
Si Si3 0.249945 0.091438 0.434961
Si Si4 0.479350 0.556821 0.166491
Si Si5 0.438344 0.877808 0.020744
Si Si6 0.297956 0.714141 0.376890
Si Si7 0.128953 0.475855 0.380634
Si Si8 0.883896 0.470869 0.318302
O O1 0.374460 0.148423 0.449855
O O2 0.592292 0.212825 0.496806
O O3 0.511127 0.829473 0.349562
O O4 0.499099 0.926188 0.179307
O O5 0.684586 0.040813 0.946680
O O6 0.806439 0.035711 0.762087
O O7 0.861103 0.796987 0.800542
O O8 0.870754 0.244812 0.095821
O O9 0.189296 0.324934 0.611874
O O10 0.238064 0.925474 0.441525
O O11 0.349249 0.539790 0.173699
O O12 0.500000 0.500000 0.000000
O O13 0.551469 0.399819 0.162440
O O14 0.500000 0.000000 0.000000
O O15 0.216378 0.592468 0.379080
O O16 0.149665 0.568916 0.573474
O O17 0.009359 0.547345 0.371496
#
# Coordination Sequence:
#
# PCOD8001411 Si02
#       8
#     2   2   2   2   2   2   2   2
#     4   9  20  35  54  82 119 156 177 229 302 346
#     4  10  21  38  60  81 116 155 193 240 297 342
#     4   9  20  39  58  89 113 150 197 239 285 353
#     4   9  18  34  54  77 118 156 181 220 285 354
#     4  10  20  32  52  88 117 143 196 237 272 353
#     4  11  21  37  59  84 127 145 191 246 288 337
#     4  10  23  42  58  89 114 154 197 250 286 344
#     4  10  22  41  66  79 114 159 202 233 301 349
#
# _framework density 19.568617
#
# number of rings (size 3 to 8) (size 9 to 14) (size 15 to 20)
#    0.000    2.250    0.000    3.375    5.250    0.500 
#    0.000    3.125    0.000    0.000    0.000    0.000 
#    0.000    0.000    0.000    0.000    0.000    0.000 
#
# Total GULP energy -198306.909668 kJ/mol
# GULP energy per Si atom -12394.181854 kJ/mol
# Density = 1.952408 g / cm^3
# Si number density = 19.568617 Si / 1000 Ang^3
#
#
#
# Elastic Constant Matrix: (Units=GPa)
#
#
# Indices 1 2 3 4 5 6 
#
# 1 96.2278 46.4566 40.1488 0.2989 -11.6845 1.3179
# 2 46.4566 89.6187 41.6357 3.5944 -7.0057 -3.0200
# 3 40.1488 41.6357 109.3165 10.4616 0.8563 -1.8877
# 4 0.2989 3.5944 10.4616 23.9436 -8.2063 -10.9597
# 5 -11.6845 -7.0057 0.8563 -8.2063 28.7785 1.6787
# 6 1.3179 -3.0200 -1.8877 -10.9597 1.6787 36.3135
#
#
#
# Elastic Compliance Matrix: (Units=1/GPa)
#
#
# Indices 1 2 3 4 5 6 
#
# 1 0.015696 -0.005985 -0.003970 0.004514 0.006333 -0.000204
# 2 -0.005985 0.016312 -0.004069 0.000694 0.001773 0.001490
# 3 -0.003970 -0.004069 0.012874 -0.007374 -0.005000 -0.001519
# 4 0.004514 0.000694 -0.007374 0.058443 0.017935 0.016320
# 5 0.006333 0.001773 -0.005000 0.017935 0.042834 0.003090
# 6 -0.000204 0.001490 -0.001519 0.016320 0.003090 0.032373
#
#
# Mechanical properties :
#
#
# Convention : Reuss Voigt Hill
#
# Bulk Modulus (GPa) = 59.40513 61.29394 60.34953
# Shear Modulus (GPa) = 23.56355 28.93523 26.24939
#
# Velocity S-wave (km/s) = 3.47385 3.84950 3.66649
# Velocity P-wave (km/s) = 6.82008 7.15184 6.98793
#
# Compressibility (1/GPa) = 0.01683356
#
# Stress axis : x y z
#
# Youngs Moduli (GPa) = 63.71253 61.30347 77.67297
#
# Poissons Ratio (x) = 0.36687 0.30839
# Poissons Ratio (y) = 0.38129 0.31609
# Poissons Ratio (z) = 0.25296 0.24947
#
# Static dielectric constant tensor:
#      x y z
#    x 3.637230 -0.390880 -0.451350 
#    y -0.390880 3.877640 0.324190 
#    z -0.451350 0.324190 4.380420 
# 
# 
# High freq. dielectric constant tensor:
#      x y z
#    x 1.751990 -0.015100 -0.017900 
#    y -0.015100 1.758140 -0.002300 
#    z -0.017900 -0.002300 1.775840 
# 
# From -- ./inp_files/276317.got.cif
#   From: 2010.06.25/outbox.cif.g09.slc.cpg/sg2_139_cif.got.tgz:276317.got - 2010.06.27 13:26:56.
