data_PCOD8001003
_publ_section_title
;
Structure prediction by ZEFSAII (Michael W. Deem and Ramdas Pophale) SiO2 
 PCOD8001003
Probable space group: P -1
;
_chemical_formula_sum "Si O2"
_cell_formula_units_Z 16
_cell_length_a 8.322733
_cell_length_b 23.009027
_cell_length_c 9.238300
_cell_angle_alpha 51.676905
_cell_angle_beta 63.745011
_cell_angle_gamma 34.778011
_cell_volume 782.753408
_symmetry_space_group_name_H-M "P -1"
_symmetry_group_IT_number 2
_symmetry_cell_setting 'triclinic'
loop_
_space_group_symop_operation_xyz
x,y,z
-x,-y,-z
loop_
_atom_site_type_symbol
_atom_site_label
_atom_site_fract_x
_atom_site_fract_y
_atom_site_fract_z
Si Si1 0.256168 0.624255 0.187810
Si Si2 0.789279 0.521496 0.453554
Si Si3 0.810338 0.781643 0.612464
Si Si4 0.832774 0.249220 0.703799
Si Si5 0.891143 0.463186 0.179318
Si Si6 0.309953 0.996583 0.012738
Si Si7 0.227390 0.982623 0.370224
Si Si8 0.213352 0.159974 0.148185
O O1 0.295150 0.524976 0.354163
O O2 0.125830 0.702515 0.263065
O O3 0.559741 0.560610 0.124804
O O4 0.050461 0.706177 0.008645
O O5 0.501392 0.661462 0.322989
O O6 0.940643 0.452782 0.348136
O O7 0.000000 0.500000 0.500000
O O8 0.731545 0.841737 0.704357
O O9 0.044188 0.759077 0.481493
O O10 0.929665 0.661108 0.767777
O O11 0.531544 0.868710 0.491935
O O12 0.005512 0.120718 0.879717
O O13 0.000000 0.500000 0.000000
O O14 0.245699 0.959708 0.225216
O O15 0.500738 0.903365 0.950039
O O16 0.500000 0.000000 0.000000
O O17 0.141451 0.096156 0.253291
O O18 0.000000 0.000000 0.500000
#
# Coordination Sequence:
#
# PCOD8001003 Si02
#       8
#     2   2   2   2   2   2   2   2
#     4  11  21  44  67  91 129 177 218 263 336 394
#     4  11  25  43  67  98 127 170 229 273 326 399
#     4  12  23  42  66  94 133 172 218 271 328 389
#     4  11  19  43  71  89 124 178 216 262 332 392
#     4  11  26  42  66  96 130 173 220 274 333 389
#     4  10  19  40  69  90 122 169 214 257 321 392
#     4  11  24  42  66  97 131 168 221 273 329 382
#     4  11  24  39  68  96 129 173 222 262 321 402
#
# _framework density 20.440664000000002
#
# number of rings (size 3 to 8) (size 9 to 14) (size 15 to 20)
#    0.000    1.000    7.500    1.125    3.500    1.500 
#    0.000    0.625    0.000    0.000    0.000    0.000 
#    0.000    0.000    0.000    0.000    0.000    0.000 
#
# Total GULP energy -198435.755031 kJ/mol
# GULP energy per Si atom -12402.234689 kJ/mol
# Density = 2.039414 g / cm^3
# Si number density = 20.440664 Si / 1000 Ang^3
#
#
#
# Elastic Constant Matrix: (Units=GPa)
#
#
# Indices 1 2 3 4 5 6 
#
# 1 75.0112 41.0238 44.0208 5.6775 2.2421 -12.2879
# 2 41.0238 91.2147 61.6463 1.0323 -0.7124 -2.4252
# 3 44.0208 61.6463 139.0144 7.8179 -4.0897 -9.2369
# 4 5.6775 1.0323 7.8179 45.1790 -14.1986 7.5183
# 5 2.2421 -0.7124 -4.0897 -14.1986 29.2372 4.2485
# 6 -12.2879 -2.4252 -9.2369 7.5183 4.2485 26.7348
#
#
#
# Elastic Compliance Matrix: (Units=1/GPa)
#
#
# Indices 1 2 3 4 5 6 
#
# 1 0.021463 -0.007628 -0.002537 -0.006039 -0.006727 0.011064
# 2 -0.007628 0.018444 -0.006227 0.003296 0.002536 -0.005315
# 3 -0.002537 -0.006227 0.011035 -0.001750 0.000371 0.002515
# 4 -0.006039 0.003296 -0.001750 0.031048 0.017497 -0.014593
# 5 -0.006727 0.002536 0.000371 0.017497 0.045493 -0.014884
# 6 0.011064 -0.005315 0.002515 -0.014593 -0.014884 0.049345
#
#
# Mechanical properties :
#
#
# Convention : Reuss Voigt Hill
#
# Bulk Modulus (GPa) = 55.07704 66.51357 60.79530
# Shear Modulus (GPa) = 23.18423 30.80016 26.99220
#
# Velocity S-wave (km/s) = 3.37147 3.88597 3.63783
# Velocity P-wave (km/s) = 6.49300 7.26257 6.88854
#
# Compressibility (1/GPa) = 0.01815639
#
# Stress axis : x y z
#
# Youngs Moduli (GPa) = 46.59280 54.21873 90.62304
#
# Poissons Ratio (x) = 0.41360 0.22988
# Poissons Ratio (y) = 0.35543 0.56433
# Poissons Ratio (z) = 0.11819 0.33763
#
# Static dielectric constant tensor:
#      x y z
#    x 3.176330 0.341840 0.224740 
#    y 0.341840 3.319230 -0.096220 
#    z 0.224740 -0.096220 3.983780 
# 
# 
# High freq. dielectric constant tensor:
#      x y z
#    x 1.769210 -0.009880 0.012060 
#    y -0.009880 1.811150 0.000330 
#    z 0.012060 0.000330 1.814050 
# 
# From -- ./inp_files/178762.got.cif
#   From: 2010.06.25/outbox.cif.g09.slc.cpg/sg2_90_cif.got.tgz:178762.got - 2010.06.27 13:26:56.
