data_PCOD8001663
_publ_section_title
;
Structure prediction by ZEFSAII (Michael W. Deem and Ramdas Pophale) SiO2 
 PCOD8001663
Probable space group: P -1
;
_chemical_formula_sum "Si O2"
_cell_formula_units_Z 16
_cell_length_a 18.270968
_cell_length_b 11.241125
_cell_length_c 16.837679
_cell_angle_alpha 38.772587
_cell_angle_beta 158.787233
_cell_angle_gamma 143.485716
_cell_volume 737.099029
_symmetry_space_group_name_H-M "P -1"
_symmetry_group_IT_number 2
_symmetry_cell_setting 'triclinic'
loop_
_space_group_symop_operation_xyz
x,y,z
-x,-y,-z
loop_
_atom_site_type_symbol
_atom_site_label
_atom_site_fract_x
_atom_site_fract_y
_atom_site_fract_z
Si Si1 0.537777 0.223035 0.327853
Si Si2 0.063010 0.197613 0.808316
Si Si3 0.910832 0.621988 0.098125
Si Si4 0.625104 0.222638 0.097121
Si Si5 0.307018 0.557572 0.469002
Si Si6 0.761054 0.884059 0.341846
Si Si7 0.703249 0.432314 0.233444
Si Si8 0.687345 0.868896 0.646581
O O1 0.579129 0.378414 0.362117
O O2 0.712900 0.316652 0.384755
O O3 0.576675 0.017263 0.498799
O O4 0.295273 0.177453 0.072377
O O5 0.976964 0.279012 0.757860
O O6 0.087440 0.361146 0.676367
O O7 0.870392 0.983000 0.706372
O O8 0.749722 0.396518 0.069714
O O9 0.086443 0.606609 0.219959
O O10 0.801229 0.777513 0.875338
O O11 0.668829 0.288987 0.197134
O O12 0.687431 0.022876 0.255613
O O13 0.374473 0.161109 0.853540
O O14 0.258254 0.322990 0.525290
O O15 0.473451 0.679667 0.503606
O O16 0.000000 0.000000 0.500000
O O17 0.500000 0.500000 0.000000
#
# Coordination Sequence:
#
# PCOD8001663 Si02
#       8
#     2   2   2   2   2   2   2   2
#     4  11  22  36  57  85 123 157 189 228 289 355
#     4  10  20  34  51  79 115 160 180 230 291 339
#     4  11  20  33  52  82 122 146 184 236 291 342
#     4  10  21  40  59  88 118 149 189 248 293 335
#     4  12  22  34  55  90 118 149 191 245 288 344
#     4  11  21  37  63  87 114 148 199 245 298 332
#     4   9  20  40  59  84 125 154 191 235 283 354
#     4  12  22  33  53  83 123 152 190 235 289 355
#
# _framework density 21.706717999999999
#
# number of rings (size 3 to 8) (size 9 to 14) (size 15 to 20)
#    0.000    1.250    5.000    3.000    0.000    0.500 
#    0.000    1.250    0.000    0.750    0.000    5.250 
#    0.000    0.000    0.000    0.000    0.000    0.000 
#
# Total GULP energy -198220.250915 kJ/mol
# GULP energy per Si atom -12388.765682 kJ/mol
# Density = 2.165731 g / cm^3
# Si number density = 21.706718 Si / 1000 Ang^3
#
#
#
# Elastic Constant Matrix: (Units=GPa)
#
#
# Indices 1 2 3 4 5 6 
#
# 1 52.4007 40.6971 23.7131 1.1244 8.7432 12.9000
# 2 40.6971 162.9194 58.6380 -4.6353 14.9984 30.2109
# 3 23.7131 58.6380 96.1924 -11.9417 6.7889 10.2309
# 4 1.1244 -4.6353 -11.9417 48.5232 7.8834 7.3489
# 5 8.7432 14.9984 6.7889 7.8834 23.5593 6.9027
# 6 12.9000 30.2109 10.2309 7.3489 6.9027 32.2991
#
#
#
# Elastic Compliance Matrix: (Units=1/GPa)
#
#
# Indices 1 2 3 4 5 6 
#
# 1 0.025452 -0.004028 -0.003069 -0.000319 -0.004610 -0.004368
# 2 -0.004028 0.010052 -0.004131 0.001369 -0.002327 -0.006299
# 3 -0.003069 -0.004131 0.014181 0.003387 -0.001494 0.000146
# 4 -0.000319 0.001369 0.003387 0.023770 -0.007944 -0.005937
# 5 -0.004610 -0.002327 -0.001494 -0.007944 0.050013 -0.004390
# 6 -0.004368 -0.006299 0.000146 -0.005937 -0.004390 0.040840
#
#
# Mechanical properties :
#
#
# Convention : Reuss Voigt Hill
#
# Bulk Modulus (GPa) = 36.72366 61.95656 49.34011
# Shear Modulus (GPa) = 25.53110 33.44061 29.48586
#
# Velocity S-wave (km/s) = 3.43328 3.92926 3.68961
# Velocity P-wave (km/s) = 5.71588 7.01356 6.39771
#
# Compressibility (1/GPa) = 0.02723040
#
# Stress axis : x y z
#
# Youngs Moduli (GPa) = 39.28933 99.48089 70.51877
#
# Poissons Ratio (x) = 0.40073 0.21639
# Poissons Ratio (y) = 0.15827 0.29128
# Poissons Ratio (z) = 0.12056 0.41091
#
# Static dielectric constant tensor:
#      x y z
#    x 3.348610 0.725810 0.117610 
#    y 0.725810 4.399340 -0.017310 
#    z 0.117610 -0.017310 4.385460 
# 
# 
# High freq. dielectric constant tensor:
#      x y z
#    x 1.790470 0.043740 0.027500 
#    y 0.043740 1.860060 -0.002160 
#    z 0.027500 -0.002160 1.891140 
# 
# From -- ./inp_files/431532.got.cif
#   From: 2010.06.25/outbox.cif.g09.slc.cpg/sg2_216_cif.got.tgz:431532.got - 2010.06.27 13:26:56.
