data_PCOD8001876
_publ_section_title
;
Structure prediction by ZEFSAII (Michael W. Deem and Ramdas Pophale) SiO2 
 PCOD8001876
Probable space group: P -1
;
_chemical_formula_sum "Si O2"
_cell_formula_units_Z 16
_cell_length_a 13.040267
_cell_length_b 12.997038
_cell_length_c 17.993890
_cell_angle_alpha 154.253571
_cell_angle_beta 43.101508
_cell_angle_gamma 145.327938
_cell_volume 752.925733
_symmetry_space_group_name_H-M "P -1"
_symmetry_group_IT_number 2
_symmetry_cell_setting 'triclinic'
loop_
_space_group_symop_operation_xyz
x,y,z
-x,-y,-z
loop_
_atom_site_type_symbol
_atom_site_label
_atom_site_fract_x
_atom_site_fract_y
_atom_site_fract_z
Si Si1 0.836529 0.754140 0.213503
Si Si2 0.378676 0.006617 0.289604
Si Si3 0.175089 0.039127 0.036789
Si Si4 0.604888 0.831312 0.141095
Si Si5 0.007025 0.539139 0.887326
Si Si6 0.093400 0.828060 0.681121
Si Si7 0.502740 0.884076 0.003879
Si Si8 0.830221 0.785484 0.401387
O O1 0.649774 0.446370 0.115226
O O2 0.874057 0.904369 0.371281
O O3 0.834758 0.970731 0.298286
O O4 0.993672 0.707986 0.074572
O O5 0.465760 0.915571 0.247062
O O6 0.175290 0.761213 0.220342
O O7 0.355893 0.256490 0.496577
O O8 0.489579 0.080525 0.202010
O O9 0.314130 0.104670 0.073663
O O10 0.069451 0.188608 0.200555
O O11 0.264195 0.122662 0.964740
O O12 0.029724 0.699642 0.901942
O O13 0.727323 0.040600 0.278465
O O14 0.500000 0.500000 0.000000
O O15 0.178967 0.511769 0.789952
O O16 0.000000 0.500000 0.500000
O O17 0.500000 0.000000 0.000000
O O18 0.000000 0.000000 0.500000
#
# Coordination Sequence:
#
# PCOD8001876 Si02
#       8
#     2   2   2   2   2   2   2   2
#     4  10  21  39  59  85 120 160 202 241 301 376
#     4   9  21  37  58  90 119 152 200 247 297 359
#     4  10  21  38  62  87 113 156 210 246 292 374
#     4  11  22  42  64  84 118 165 208 251 303 363
#     4   9  18  37  61  88 117 155 196 242 300 367
#     4  11  25  41  61  90 121 158 206 265 308 343
#     4  10  20  38  62  89 121 159 197 242 302 373
#     4  10  20  34  58  87 117 149 186 244 305 357
#
# _framework density 21.250435
#
# number of rings (size 3 to 8) (size 9 to 14) (size 15 to 20)
#    0.000    2.000    0.000    4.500    0.000    9.000 
#    0.000    7.500    0.000    0.000    0.000    0.000 
#    0.000    0.000    0.000    0.000    0.000    0.000 
#
# Total GULP energy -198229.420844 kJ/mol
# GULP energy per Si atom -12389.338803 kJ/mol
# Density = 2.120207 g / cm^3
# Si number density = 21.250435 Si / 1000 Ang^3
#
#
#
# Elastic Constant Matrix: (Units=GPa)
#
#
# Indices 1 2 3 4 5 6 
#
# 1 119.3680 14.9750 54.6361 -20.9649 -2.1598 -12.2461
# 2 14.9750 73.9370 31.8121 -15.4208 -5.2629 -16.5243
# 3 54.6361 31.8121 107.2155 -15.9564 -14.6635 -4.0531
# 4 -20.9649 -15.4208 -15.9564 35.7120 4.0215 -3.7381
# 5 -2.1598 -5.2629 -14.6635 4.0215 38.9233 -5.3663
# 6 -12.2461 -16.5243 -4.0531 -3.7381 -5.3663 37.9883
#
#
#
# Elastic Compliance Matrix: (Units=1/GPa)
#
#
# Indices 1 2 3 4 5 6 
#
# 1 0.012450 0.002410 -0.006117 0.006266 -0.001267 0.004847
# 2 0.002410 0.019211 -0.005166 0.008264 0.001251 0.009572
# 3 -0.006117 -0.005166 0.014454 -0.000047 0.004123 -0.002099
# 4 0.006266 0.008264 -0.000047 0.036292 -0.001057 0.009031
# 5 -0.001267 0.001251 0.004123 -0.001057 0.028065 0.004436
# 6 0.004847 0.009572 -0.002099 0.009031 0.004436 0.033342
#
#
# Mechanical properties :
#
#
# Convention : Reuss Voigt Hill
#
# Bulk Modulus (GPa) = 35.24727 55.92965 45.58846
# Shear Modulus (GPa) = 29.23716 35.79788 32.51752
#
# Velocity S-wave (km/s) = 3.71325 4.10881 3.91603
# Velocity P-wave (km/s) = 5.91667 6.99186 6.47662
#
# Compressibility (1/GPa) = 0.02837099
#
# Stress axis : x y z
#
# Youngs Moduli (GPa) = 80.32274 52.05255 69.18328
#
# Poissons Ratio (x) = -0.12546 0.42319
# Poissons Ratio (y) = -0.19361 0.35738
# Poissons Ratio (z) = 0.49133 0.26889
#
# Static dielectric constant tensor:
#      x y z
#    x 4.040490 0.059860 -0.301390 
#    y 0.059860 4.133450 -0.308490 
#    z -0.301390 -0.308490 4.541460 
# 
# 
# High freq. dielectric constant tensor:
#      x y z
#    x 1.837780 -0.000460 -0.009900 
#    y -0.000460 1.844080 -0.007970 
#    z -0.009900 -0.007970 1.824300 
# 
# From -- ./inp_files/568986.got.cif
#   From: 2010.06.25/outbox.cif.g09.slc.cpg/sg2_285_cif.got.tgz:568986.got - 2010.06.27 13:26:56.
