data_PCOD8001027
_publ_section_title
;
Structure prediction by ZEFSAII (Michael W. Deem and Ramdas Pophale) SiO2 
 PCOD8001027
Probable space group: P -1
;
_chemical_formula_sum "Si O2"
_cell_formula_units_Z 14
_cell_length_a 8.993919
_cell_length_b 6.592131
_cell_length_c 11.405039
_cell_angle_alpha 64.373231
_cell_angle_beta 115.429378
_cell_angle_gamma 79.374780
_cell_volume 490.448690
_symmetry_space_group_name_H-M "P -1"
_symmetry_group_IT_number 2
_symmetry_cell_setting 'triclinic'
loop_
_space_group_symop_operation_xyz
x,y,z
-x,-y,-z
loop_
_atom_site_type_symbol
_atom_site_label
_atom_site_fract_x
_atom_site_fract_y
_atom_site_fract_z
Si Si1 0.537565 0.490779 0.837737
Si Si2 0.548449 0.249451 0.504193
Si Si3 0.544282 0.993766 0.284481
Si Si4 0.959406 0.808715 0.451896
Si Si5 0.823502 0.529222 0.196888
Si Si6 0.206871 0.988705 0.057047
Si Si7 0.051134 0.054161 0.233700
O O1 0.459950 0.671047 0.652215
O O2 0.561452 0.707277 0.865362
O O3 0.386645 0.417215 0.860856
O O4 0.741306 0.252256 0.952988
O O5 0.500000 0.500000 0.500000
O O6 0.422797 0.115107 0.541492
O O7 0.741431 0.002172 0.658363
O O8 0.415003 0.883558 0.208423
O O9 0.748401 0.885767 0.330758
O O10 0.064517 0.542335 0.621962
O O11 0.037188 0.815493 0.347310
O O12 0.000000 0.000000 0.500000
O O13 0.907286 0.316883 0.177113
O O14 0.846745 0.766602 0.099913
O O15 0.047073 0.033238 0.092521
#
# Coordination Sequence:
#
# PCOD8001027 Si02
#       7
#     2   2   2   2   2   2   2
#     4  12  21  42  68  98 139 173 231 274 337 403
#     4  11  21  41  71 102 132 171 239 283 326 404
#     4  11  23  42  75  98 132 184 230 274 346 397
#     4  10  19  40  71  96 132 182 223 277 336 400
#     4  11  22  41  70  99 142 180 218 285 347 388
#     4  11  26  42  71 101 135 184 230 276 333 410
#     4  10  19  41  69  93 135 180 220 280 336 392
#
# _framework density 28.545293999999998
#
# number of rings (size 3 to 8) (size 9 to 14) (size 15 to 20)
#    0.000    1.143    7.143    2.143    0.000    2.857 
#    0.000    2.857    9.429    5.143    0.000    0.000 
#    0.000    0.000    0.000    0.000    0.000    0.000 
#
# Total GULP energy -173432.671881 kJ/mol
# GULP energy per Si atom -12388.047992 kJ/mol
# Density = 2.848032 g / cm^3
# Si number density = 28.545294 Si / 1000 Ang^3
#
#
#
# Elastic Constant Matrix: (Units=GPa)
#
#
# Indices 1 2 3 4 5 6 
#
# 1 181.9205 60.4177 64.8458 -20.8691 -28.7045 -17.4095
# 2 60.4177 83.1174 63.6619 -28.4418 -6.3525 -17.6697
# 3 64.8458 63.6619 133.0716 -19.7745 -45.0865 -11.8452
# 4 -20.8691 -28.4418 -19.7745 57.8051 2.2434 -0.6977
# 5 -28.7045 -6.3525 -45.0865 2.2434 70.4157 -11.9656
# 6 -17.4095 -17.6697 -11.8452 -0.6977 -11.9656 36.6544
#
#
#
# Elastic Compliance Matrix: (Units=1/GPa)
#
#
# Indices 1 2 3 4 5 6 
#
# 1 0.007893 -0.004577 -0.000388 0.000379 0.002949 0.002387
# 2 -0.004577 0.027561 -0.011167 0.008384 -0.005817 0.005764
# 3 -0.000388 -0.011167 0.016688 -0.000279 0.010056 0.003103
# 4 0.000379 0.008384 -0.000279 0.021490 0.000867 0.004823
# 5 0.002949 -0.005817 0.010056 0.000867 0.022875 0.009330
# 6 0.002387 0.005764 0.003103 0.004823 0.009330 0.035334
#
#
# Mechanical properties :
#
#
# Convention : Reuss Voigt Hill
#
# Bulk Modulus (GPa) = 50.31013 86.21781 68.26397
# Shear Modulus (GPa) = 29.28575 46.92064 38.10320
#
# Velocity S-wave (km/s) = 3.20650 4.05869 3.65750
# Velocity P-wave (km/s) = 5.60106 7.22726 6.46549
#
# Compressibility (1/GPa) = 0.01987671
#
# Stress axis : x y z
#
# Youngs Moduli (GPa) = 126.69883 36.28342 59.92377
#
# Poissons Ratio (x) = 0.16608 0.02327
# Poissons Ratio (y) = 0.57995 0.66915
# Poissons Ratio (z) = 0.04919 0.40517
#
# Static dielectric constant tensor:
#      x y z
#    x 5.648540 -0.056340 -0.532140 
#    y -0.056340 5.622910 0.405060 
#    z -0.532140 0.405060 5.816140 
# 
# 
# High freq. dielectric constant tensor:
#      x y z
#    x 2.179140 0.000330 -0.009900 
#    y 0.000330 2.171130 0.009740 
#    z -0.009900 0.009740 2.180440 
# 
# From -- ./inp_files/492084.got.cif
#   From: 2010.06.25/outbox.cif.g09.slc.cpg/sg2_247_cif.got.tgz:492084.got - 2010.06.27 13:26:56.
