data_PCOD8001392
_publ_section_title
;
Structure prediction by ZEFSAII (Michael W. Deem and Ramdas Pophale) SiO2 
 PCOD8001392
Probable space group: P -1
;
_chemical_formula_sum "Si O2"
_cell_formula_units_Z 16
_cell_length_a 10.653847
_cell_length_b 10.916667
_cell_length_c 16.741151
_cell_angle_alpha 44.764318
_cell_angle_beta 52.864643
_cell_angle_gamma 35.386848
_cell_volume 792.526513
_symmetry_space_group_name_H-M "P -1"
_symmetry_group_IT_number 2
_symmetry_cell_setting 'triclinic'
loop_
_space_group_symop_operation_xyz
x,y,z
-x,-y,-z
loop_
_atom_site_type_symbol
_atom_site_label
_atom_site_fract_x
_atom_site_fract_y
_atom_site_fract_z
Si Si1 0.299783 0.627682 0.319295
Si Si2 0.494818 0.988058 0.298530
Si Si3 0.506712 0.021163 0.098217
Si Si4 0.061386 0.132256 0.377777
Si Si5 0.070811 0.140978 0.189278
Si Si6 0.672135 0.757128 0.597782
Si Si7 0.869887 0.463162 0.437624
Si Si8 0.641042 0.621791 0.134082
O O1 0.296424 0.464981 0.338014
O O2 0.257554 0.596035 0.440959
O O3 0.532570 0.542958 0.259655
O O4 0.119590 0.914440 0.236559
O O5 0.320290 0.966538 0.363142
O O6 0.401809 0.195641 0.302790
O O7 0.537857 0.041874 0.170215
O O8 0.716057 0.747965 0.362876
O O9 0.683482 0.747749 0.123242
O O10 0.276939 0.108565 0.123296
O O11 0.515322 0.193121 0.964326
O O12 0.986488 0.186536 0.291011
O O13 0.922466 0.381238 0.363583
O O14 0.000000 0.000000 0.500000
O O15 0.863613 0.390162 0.112561
O O16 0.907141 0.668999 0.538965
O O17 0.500000 0.000000 0.500000
#
# Coordination Sequence:
#
# PCOD8001392 Si02
#       8
#     2   2   2   2   2   2   2   2
#     4  11  23  34  55  88 111 145 195 224 282 334
#     4  10  22  37  58  79 113 154 185 234 280 332
#     4   9  20  41  57  88 111 149 193 225 287 331
#     4  10  20  32  50  84 118 143 182 224 281 344
#     4  10  20  35  57  86 117 151 180 233 283 336
#     4  11  24  39  57  82 114 151 193 232 278 344
#     4  11  22  36  56  83 113 152 183 228 290 342
#     4  10  21  36  63  83 116 147 188 239 272 339
#
# _framework density 20.188597999999999
#
# number of rings (size 3 to 8) (size 9 to 14) (size 15 to 20)
#    0.000    1.750    2.500    1.500    3.500    0.500 
#    0.000    0.625    0.000    1.500    0.000    0.000 
#    0.000    0.000    0.000    0.000    0.000    0.000 
#
# Total GULP energy -198277.823794 kJ/mol
# GULP energy per Si atom -12392.363987 kJ/mol
# Density = 2.014265 g / cm^3
# Si number density = 20.188598 Si / 1000 Ang^3
#
#
#
# Elastic Constant Matrix: (Units=GPa)
#
#
# Indices 1 2 3 4 5 6 
#
# 1 59.0081 32.2411 27.0350 -8.3405 1.7399 12.3485
# 2 32.2411 124.1290 28.9189 -17.0759 0.8200 11.3266
# 3 27.0350 28.9189 76.8032 4.1525 5.1316 3.2184
# 4 -8.3405 -17.0759 4.1525 31.8055 6.4948 2.0073
# 5 1.7399 0.8200 5.1316 6.4948 23.7383 1.1323
# 6 12.3485 11.3266 3.2184 2.0073 1.1323 35.7475
#
#
#
# Elastic Compliance Matrix: (Units=1/GPa)
#
#
# Indices 1 2 3 4 5 6 
#
# 1 0.024477 -0.003078 -0.007408 0.006495 -0.001523 -0.007130
# 2 -0.003078 0.010544 -0.003032 0.005578 -0.000900 -0.002289
# 3 -0.007408 -0.003032 0.017083 -0.005618 -0.001620 0.002349
# 4 0.006495 0.005578 -0.005618 0.039241 -0.009933 -0.005394
# 5 -0.001523 -0.000900 -0.001620 -0.009933 0.045333 0.000079
# 6 -0.007130 -0.002289 0.002349 -0.005394 0.000079 0.031251
#
#
# Mechanical properties :
#
#
# Convention : Reuss Voigt Hill
#
# Bulk Modulus (GPa) = 39.89013 48.48112 44.18563
# Shear Modulus (GPa) = 24.59144 29.70795 27.14969
#
# Velocity S-wave (km/s) = 3.49389 3.84020 3.67113
# Velocity P-wave (km/s) = 6.00650 6.61280 6.31693
#
# Compressibility (1/GPa) = 0.02506886
#
# Stress axis : x y z
#
# Youngs Moduli (GPa) = 40.85411 94.83847 58.53681
#
# Poissons Ratio (x) = 0.29189 0.43363
# Poissons Ratio (y) = 0.12574 0.17750
# Poissons Ratio (z) = 0.30264 0.28758
#
# Static dielectric constant tensor:
#      x y z
#    x 2.750700 0.106910 -0.641260 
#    y 0.106910 4.273570 0.110050 
#    z -0.641260 0.110050 2.918040 
# 
# 
# High freq. dielectric constant tensor:
#      x y z
#    x 1.746190 0.006660 0.003160 
#    y 0.006660 1.816780 0.009680 
#    z 0.003160 0.009680 1.777100 
# 
# From -- ./inp_files/67175.got.cif
#   From: 2010.06.25/outbox.cif.g09.slc.cpg/sg2_34_cif.got.tgz:67175.got - 2010.06.27 13:26:56.
