data_PCOD8001468
_publ_section_title
;
Structure prediction by ZEFSAII (Michael W. Deem and Ramdas Pophale) SiO2 
 PCOD8001468
Probable space group: P -1
;
_chemical_formula_sum "Si O2"
_cell_formula_units_Z 14
_cell_length_a 9.990611
_cell_length_b 16.411374
_cell_length_c 14.685595
_cell_angle_alpha 147.645532
_cell_angle_beta 136.904229
_cell_angle_gamma 33.853607
_cell_volume 714.499980
_symmetry_space_group_name_H-M "P -1"
_symmetry_group_IT_number 2
_symmetry_cell_setting 'triclinic'
loop_
_space_group_symop_operation_xyz
x,y,z
-x,-y,-z
loop_
_atom_site_type_symbol
_atom_site_label
_atom_site_fract_x
_atom_site_fract_y
_atom_site_fract_z
Si Si1 0.812166 0.620928 0.097623
Si Si2 0.198538 0.377475 0.557018
Si Si3 0.083795 0.463791 0.263271
Si Si4 0.579823 0.122891 0.201462
Si Si5 0.526557 0.967616 0.755666
Si Si6 0.074536 0.120845 0.991530
Si Si7 0.421959 0.576124 0.931831
O O1 0.968544 0.586565 0.232037
O O2 0.664769 0.833135 0.193663
O O3 0.637408 0.557932 0.967725
O O4 0.000000 0.500000 0.000000
O O5 0.048490 0.387229 0.579648
O O6 0.376568 0.168141 0.410986
O O7 0.355730 0.455314 0.729181
O O8 0.000000 0.500000 0.500000
O O9 0.377654 0.346866 0.296989
O O10 0.034483 0.306531 0.103111
O O11 0.609899 0.081896 0.286083
O O12 0.500000 0.000000 0.000000
O O13 0.828603 0.042669 0.193044
O O14 0.743934 0.955815 0.904679
O O15 0.805268 0.200591 0.966781
O O16 0.500000 0.500000 0.000000
#
# Coordination Sequence:
#
# PCOD8001468 Si02
#       7
#     2   2   2   2   2   2   2
#     4  12  23  38  59  90 127 153 194 254 309 344
#     4  11  18  39  63  87 118 160 206 241 288 366
#     4   9  17  32  56  81 114 157 194 228 299 346
#     4   8  14  29  55  83 105 151 205 233 271 357
#     4  10  20  32  60  91 115 159 196 247 300 344
#     4   9  16  33  56  83 111 151 208 233 277 356
#     4  11  22  38  62  90 116 161 202 243 293 364
#
# _framework density 19.594121999999999
#
# number of rings (size 3 to 8) (size 9 to 14) (size 15 to 20)
#    0.000    2.286    7.143    2.571    0.000    1.143 
#    0.000    0.714    0.000    0.857    0.000    0.000 
#    0.000    0.000    0.000    0.000    0.000    0.000 
#
# Total GULP energy -173443.839496 kJ/mol
# GULP energy per Si atom -12388.845678 kJ/mol
# Density = 1.954952 g / cm^3
# Si number density = 19.594122 Si / 1000 Ang^3
#
#
#
# Elastic Constant Matrix: (Units=GPa)
#
#
# Indices 1 2 3 4 5 6 
#
# 1 118.6607 64.8028 54.6775 6.7221 -41.0545 -18.1122
# 2 64.8028 173.8604 58.1741 10.1255 -25.3651 12.6444
# 3 54.6775 58.1741 86.2135 7.1268 -39.7454 -6.3373
# 4 6.7221 10.1255 7.1268 29.8519 -8.1331 -16.3981
# 5 -41.0545 -25.3651 -39.7454 -8.1331 41.7662 3.0372
# 6 -18.1122 12.6444 -6.3373 -16.3981 3.0372 33.8019
#
#
#
# Elastic Compliance Matrix: (Units=1/GPa)
#
#
# Indices 1 2 3 4 5 6 
#
# 1 0.019983 -0.007024 -0.000090 0.012092 0.016357 0.017715
# 2 -0.007024 0.011021 -0.006555 -0.009887 -0.007411 -0.013246
# 3 -0.000090 -0.006555 0.025995 0.006532 0.021319 0.008530
# 4 0.012092 -0.009887 0.006532 0.059285 0.020857 0.038289
# 5 0.016357 -0.007411 0.021319 0.020857 0.058386 0.020406
# 6 0.017715 -0.013246 0.008530 0.038289 0.020406 0.062372
#
#
# Mechanical properties :
#
#
# Convention : Reuss Voigt Hill
#
# Bulk Modulus (GPa) = 33.71493 81.56039 57.63766
# Shear Modulus (GPa) = 18.23039 34.48934 26.35986
#
# Velocity S-wave (km/s) = 3.05356 4.20001 3.67180
# Velocity P-wave (km/s) = 5.44759 8.07684 6.88882
#
# Compressibility (1/GPa) = 0.02966045
#
# Stress axis : x y z
#
# Youngs Moduli (GPa) = 50.04140 90.73559 38.46932
#
# Poissons Ratio (x) = 0.63735 0.00348
# Poissons Ratio (y) = 0.35150 0.25215
# Poissons Ratio (z) = 0.00453 0.59474
#
# Static dielectric constant tensor:
#      x y z
#    x 4.005100 -0.446440 -0.361570 
#    y -0.446440 3.853710 0.000640 
#    z -0.361570 0.000640 2.853020 
# 
# 
# High freq. dielectric constant tensor:
#      x y z
#    x 1.757120 -0.014240 -0.049440 
#    y -0.014240 1.777470 0.003470 
#    z -0.049440 0.003470 1.720000 
# 
# From -- ./inp_files/523073.got.cif
#   From: 2010.06.25/outbox.cif.g09.slc.cpg/sg2_262_cif.got.tgz:523073.got - 2010.06.27 13:26:56.
