data_PCOD8001973
_publ_section_title
;
Structure prediction by ZEFSAII (Michael W. Deem and Ramdas Pophale) SiO2 
 PCOD8001973
Probable space group: P -1
;
_chemical_formula_sum "Si O2"
_cell_formula_units_Z 16
_cell_length_a 9.135386
_cell_length_b 8.891528
_cell_length_c 17.272746
_cell_angle_alpha 58.720859
_cell_angle_beta 86.281766
_cell_angle_gamma 48.414284
_cell_volume 806.419636
_symmetry_space_group_name_H-M "P -1"
_symmetry_group_IT_number 2
_symmetry_cell_setting 'triclinic'
loop_
_space_group_symop_operation_xyz
x,y,z
-x,-y,-z
loop_
_atom_site_type_symbol
_atom_site_label
_atom_site_fract_x
_atom_site_fract_y
_atom_site_fract_z
Si Si1 0.360081 0.544149 0.748030
Si Si2 0.627838 0.418862 0.096223
Si Si3 0.374655 0.907955 0.602097
Si Si4 0.404908 0.981982 0.195579
Si Si5 0.168509 0.360750 0.383524
Si Si6 0.279644 0.265191 0.977165
Si Si7 0.256278 0.057845 0.737463
Si Si8 0.960131 0.670514 0.767638
O O1 0.495419 0.460940 0.846692
O O2 0.325162 0.745119 0.642598
O O3 0.480299 0.299555 0.755681
O O4 0.120431 0.692669 0.742677
O O5 0.736918 0.513013 0.058269
O O6 0.777765 0.111045 0.183694
O O7 0.500000 0.500000 0.000000
O O8 0.606558 0.733234 0.600733
O O9 0.189019 0.175516 0.489353
O O10 0.377580 0.962994 0.676535
O O11 0.592296 0.963072 0.204508
O O12 0.260321 0.071427 0.251763
O O13 0.244112 0.186990 0.077444
O O14 0.105143 0.357126 0.302161
O O15 0.982687 0.652668 0.343744
O O16 0.083473 0.410438 0.884048
O O17 0.500000 0.000000 0.000000
#
# Coordination Sequence:
#
# PCOD8001973 Si02
#       8
#     2   2   2   2   2   2   2   2
#     4  10  23  41  60  90 126 161 201 261 302 362
#     4  10  20  34  61  90 122 160 201 245 301 363
#     4  10  24  42  64  92 123 155 212 264 308 367
#     4  12  21  39  64  88 128 166 202 247 310 366
#     4  11  22  42  67  90 120 164 207 258 315 364
#     4  11  20  39  62  88 125 166 202 248 305 362
#     4  11  21  39  65  90 123 166 202 252 312 367
#     4  11  23  38  62  92 121 166 209 246 306 370
#
# _framework density 19.840788
#
# number of rings (size 3 to 8) (size 9 to 14) (size 15 to 20)
#    0.000    1.250    6.250    0.750    0.000    3.500 
#    0.000    0.625    0.000    6.750    0.000    0.000 
#    0.000    0.000    0.000    0.000    0.000    0.000 
#
# Total GULP energy -198252.990697 kJ/mol
# GULP energy per Si atom -12390.811919 kJ/mol
# Density = 1.979563 g / cm^3
# Si number density = 19.840788 Si / 1000 Ang^3
#
#
#
# Elastic Constant Matrix: (Units=GPa)
#
#
# Indices 1 2 3 4 5 6 
#
# 1 66.6895 34.2927 27.0539 -19.7877 -13.7145 4.6284
# 2 34.2927 98.4289 21.9861 -19.1597 -10.3779 7.2368
# 3 27.0539 21.9861 91.0410 -26.2349 -11.4551 6.1618
# 4 -19.7877 -19.1597 -26.2349 24.8805 6.9507 -3.2465
# 5 -13.7145 -10.3779 -11.4551 6.9507 35.0392 0.5432
# 6 4.6284 7.2368 6.1618 -3.2465 0.5432 31.4239
#
#
#
# Elastic Compliance Matrix: (Units=1/GPa)
#
#
# Indices 1 2 3 4 5 6 
#
# 1 0.022384 -0.004736 -0.001715 0.010944 0.004640 -0.000820
# 2 -0.004736 0.013181 0.000229 0.006133 0.000936 -0.001765
# 3 -0.001715 0.000229 0.016110 0.015144 0.001681 -0.001424
# 4 0.010944 0.006133 0.015144 0.070594 -0.002974 0.001351
# 5 0.004640 0.000936 0.001681 -0.002974 0.031804 -0.002086
# 6 -0.000820 -0.001765 -0.001424 0.001351 -0.002086 0.032805
#
#
# Mechanical properties :
#
#
# Convention : Reuss Voigt Hill
#
# Bulk Modulus (GPa) = 25.49020 46.98054 36.23537
# Shear Modulus (GPa) = 23.54053 29.79053 26.66553
#
# Velocity S-wave (km/s) = 3.44826 3.87910 3.67000
# Velocity P-wave (km/s) = 5.35997 6.61765 6.02173
#
# Compressibility (1/GPa) = 0.03923076
#
# Stress axis : x y z
#
# Youngs Moduli (GPa) = 44.67482 75.86809 62.07191
#
# Poissons Ratio (x) = 0.35930 0.10646
# Poissons Ratio (y) = 0.21157 -0.01420
# Poissons Ratio (z) = 0.07662 -0.01736
#
# Static dielectric constant tensor:
#      x y z
#    x 3.547800 0.106130 -0.013060 
#    y 0.106130 3.690760 0.034300 
#    z -0.013060 0.034300 3.950540 
# 
# 
# High freq. dielectric constant tensor:
#      x y z
#    x 1.751600 0.012300 -0.007760 
#    y 0.012300 1.778210 0.008430 
#    z -0.007760 0.008430 1.785910 
# 
# From -- ./inp_files/208008.got.cif
#   From: 2010.06.25/outbox.cif.g09.slc.cpg/sg2_105_cif.got.tgz:208008.got - 2010.06.27 13:26:56.
