data_PCOD8001278
_publ_section_title
;
Structure prediction by ZEFSAII (Michael W. Deem and Ramdas Pophale) SiO2 
 PCOD8001278
Probable space group: P -1
;
_chemical_formula_sum "Si O2"
_cell_formula_units_Z 16
_cell_length_a 14.577177
_cell_length_b 9.687574
_cell_length_c 11.542547
_cell_angle_alpha 136.499499
_cell_angle_beta 140.846373
_cell_angle_gamma 42.883443
_cell_volume 651.842282
_symmetry_space_group_name_H-M "P -1"
_symmetry_group_IT_number 2
_symmetry_cell_setting 'triclinic'
loop_
_space_group_symop_operation_xyz
x,y,z
-x,-y,-z
loop_
_atom_site_type_symbol
_atom_site_label
_atom_site_fract_x
_atom_site_fract_y
_atom_site_fract_z
Si Si1 0.679083 0.131822 0.445310
Si Si2 0.194907 0.005719 0.280530
Si Si3 0.675177 0.844737 0.900868
Si Si4 0.606520 0.753957 0.410848
Si Si5 0.872451 0.724425 0.248487
Si Si6 0.089571 0.608151 0.731517
Si Si7 0.674772 0.218056 0.970862
Si Si8 0.776330 0.458636 0.602520
O O1 0.507404 0.122586 0.263129
O O2 0.684557 0.326656 0.492360
O O3 0.721667 0.169512 0.642737
O O4 0.818709 0.908402 0.406173
O O5 0.244528 0.214402 0.479864
O O6 0.006627 0.130695 0.183833
O O7 0.242973 0.902371 0.139968
O O8 0.786193 0.639909 0.809708
O O9 0.699117 0.056220 0.004155
O O10 0.738412 0.804751 0.068417
O O11 0.511609 0.670149 0.173280
O O12 0.662385 0.575699 0.457065
O O13 0.500000 0.000000 0.500000
O O14 0.875552 0.502491 0.174384
O O15 0.045652 0.693283 0.352872
O O16 0.000000 0.500000 0.500000
O O17 0.249075 0.603219 0.819940
#
# Coordination Sequence:
#
# PCOD8001278 Si02
#       8
#     2   2   2   2   2   2   2   2
#     4  12  27  45  73 108 155 192 234 298 368 432
#     4  11  21  45  72 102 145 185 245 302 354 428
#     4  12  25  48  71 110 146 190 248 295 357 441
#     4  10  19  43  72 104 140 180 238 305 353 417
#     4  12  28  47  68 105 155 194 236 299 365 437
#     4  12  26  45  69 100 144 190 245 295 366 426
#     4  11  24  43  75 105 136 190 244 307 355 421
#     4  12  25  45  77 106 148 195 240 297 364 427
#
# _framework density 24.545815000000001
#
# number of rings (size 3 to 8) (size 9 to 14) (size 15 to 20)
#    0.000    0.500    6.250    2.625    5.250    1.000 
#    0.000    1.250    0.000    0.000    0.000    0.000 
#    0.000    0.000    0.000    0.000    0.000    0.000 
#
# Total GULP energy -198368.581783 kJ/mol
# GULP energy per Si atom -12398.036361 kJ/mol
# Density = 2.448995 g / cm^3
# Si number density = 24.545815 Si / 1000 Ang^3
#
#
#
# Elastic Constant Matrix: (Units=GPa)
#
#
# Indices 1 2 3 4 5 6 
#
# 1 114.1557 48.9380 26.5223 -8.6159 17.5179 21.6958
# 2 48.9380 118.3066 30.4684 -30.5359 5.5363 31.7247
# 3 26.5223 30.4684 95.3958 -6.6617 20.1269 24.6301
# 4 -8.6159 -30.5359 -6.6617 36.8381 13.5118 -2.9292
# 5 17.5179 5.5363 20.1269 13.5118 38.7118 2.2083
# 6 21.6958 31.7247 24.6301 -2.9292 2.2083 56.8877
#
#
#
# Elastic Compliance Matrix: (Units=1/GPa)
#
#
# Indices 1 2 3 4 5 6 
#
# 1 0.011626 -0.003612 -0.000464 0.001256 -0.004829 -0.001966
# 2 -0.003612 0.015211 -0.000454 0.012825 -0.004435 -0.006076
# 3 -0.000464 -0.000454 0.014212 0.004791 -0.008493 -0.005147
# 4 0.001256 0.012825 0.004791 0.045958 -0.020561 -0.006541
# 5 -0.004829 -0.004435 -0.008493 -0.020561 0.039936 0.005383
# 6 -0.001966 -0.006076 -0.005147 -0.006541 0.005383 0.023399
#
#
# Mechanical properties :
#
#
# Convention : Reuss Voigt Hill
#
# Bulk Modulus (GPa) = 31.26193 59.96840 45.61517
# Shear Modulus (GPa) = 29.40037 41.28283 35.34160
#
# Velocity S-wave (km/s) = 3.46464 4.10551 3.79861
# Velocity P-wave (km/s) = 5.36366 6.85258 6.15332
#
# Compressibility (1/GPa) = 0.03198779
#
# Stress axis : x y z
#
# Youngs Moduli (GPa) = 86.01488 65.74304 70.36389
#
# Poissons Ratio (x) = 0.23747 0.03267
# Poissons Ratio (y) = 0.31069 0.03194
# Poissons Ratio (z) = 0.03994 0.02984
#
# Static dielectric constant tensor:
#      x y z
#    x 5.196220 -0.071100 0.988490 
#    y -0.071100 4.611420 -0.246200 
#    z 0.988490 -0.246200 5.745360 
# 
# 
# High freq. dielectric constant tensor:
#      x y z
#    x 1.995430 -0.007790 0.008760 
#    y -0.007790 1.986170 -0.010790 
#    z 0.008760 -0.010790 1.977050 
# 
# From -- ./inp_files/448252.got.cif
#   From: 2010.06.25/outbox.cif.g09.slc.cpg/sg2_225_cif.got.tgz:448252.got - 2010.06.27 13:26:56.
