data_PCOD8001612
_publ_section_title
;
Structure prediction by ZEFSAII (Michael W. Deem and Ramdas Pophale) SiO2 
 PCOD8001612
Probable space group: P -1
;
_chemical_formula_sum "Si O2"
_cell_formula_units_Z 16
_cell_length_a 9.068699
_cell_length_b 12.790621
_cell_length_c 11.918959
_cell_angle_alpha 88.444639
_cell_angle_beta 122.329894
_cell_angle_gamma 129.450885
_cell_volume 791.735918
_symmetry_space_group_name_H-M "P -1"
_symmetry_group_IT_number 2
_symmetry_cell_setting 'triclinic'
loop_
_space_group_symop_operation_xyz
x,y,z
-x,-y,-z
loop_
_atom_site_type_symbol
_atom_site_label
_atom_site_fract_x
_atom_site_fract_y
_atom_site_fract_z
Si Si1 0.414025 0.443757 0.091729
Si Si2 0.243253 0.591561 0.787486
Si Si3 0.392462 0.861310 0.706795
Si Si4 0.292010 0.614945 0.071255
Si Si5 0.273439 0.032557 0.696632
Si Si6 0.891651 0.148673 0.801652
Si Si7 0.159259 0.029062 0.399777
Si Si8 0.272887 0.741881 0.425038
O O1 0.611137 0.441359 0.216173
O O2 0.406383 0.550104 0.154744
O O3 0.500000 0.500000 0.000000
O O4 0.124916 0.273255 0.976078
O O5 0.324392 0.732687 0.757061
O O6 0.937365 0.442146 0.654985
O O7 0.309111 0.629850 0.943739
O O8 0.248575 0.795613 0.529557
O O9 0.327110 0.935689 0.749852
O O10 0.696025 0.997525 0.802764
O O11 0.472403 0.783436 0.192824
O O12 0.000000 0.500000 0.000000
O O13 0.172549 0.990286 0.530532
O O14 0.040205 0.962564 0.686016
O O15 0.765366 0.199797 0.700064
O O16 0.972835 0.116677 0.727988
O O17 0.444596 0.186643 0.468950
#
# Coordination Sequence:
#
# PCOD8001612 Si02
#       8
#     2   2   2   2   2   2   2   2
#     4  10  20  37  62  87 111 151 204 242 276 337
#     4  11  24  39  60  86 121 151 191 244 293 341
#     4  11  23  38  58  90 120 151 185 243 305 338
#     4  11  22  38  60  86 115 159 198 233 284 350
#     4  11  21  34  56  87 121 149 191 234 289 346
#     4  11  18  38  64  85 111 147 205 243 277 338
#     4  10  20  33  58  89 109 148 197 245 276 332
#     4  11  19  39  62  85 111 152 200 241 281 337
#
# _framework density 20.208760000000002
#
# number of rings (size 3 to 8) (size 9 to 14) (size 15 to 20)
#    0.000    1.250    5.000    4.125    0.000    1.000 
#    0.000    3.125    0.000    0.000    0.000    0.000 
#    0.000    0.000    0.000    0.000    0.000    0.000 
#
# Total GULP energy -198312.422273 kJ/mol
# GULP energy per Si atom -12394.526392 kJ/mol
# Density = 2.016276 g / cm^3
# Si number density = 20.208760 Si / 1000 Ang^3
#
#
#
# Elastic Constant Matrix: (Units=GPa)
#
#
# Indices 1 2 3 4 5 6 
#
# 1 136.3466 54.5221 21.1404 3.5146 9.5576 -19.2286
# 2 54.5221 135.0957 22.9920 16.0793 8.6719 -10.6425
# 3 21.1404 22.9920 43.7390 17.1995 6.3548 -1.2453
# 4 3.5146 16.0793 17.1995 24.0780 -0.4598 -1.4427
# 5 9.5576 8.6719 6.3548 -0.4598 24.4677 3.3542
# 6 -19.2286 -10.6425 -1.2453 -1.4427 3.3542 31.6511
#
#
#
# Elastic Compliance Matrix: (Units=1/GPa)
#
#
# Indices 1 2 3 4 5 6 
#
# 1 0.010109 -0.003265 -0.004260 0.004022 -0.002337 0.005307
# 2 -0.003265 0.009772 -0.001175 -0.005176 -0.002151 0.001248
# 3 -0.004260 -0.001175 0.036342 -0.024810 -0.007566 -0.001883
# 4 0.004022 -0.005176 -0.024810 0.062376 0.007638 0.001760
# 5 -0.002337 -0.002151 -0.007566 0.007638 0.045604 -0.006925
# 6 0.005307 0.001248 -0.001883 0.001760 -0.006925 0.035978
#
#
# Mechanical properties :
#
#
# Convention : Reuss Voigt Hill
#
# Bulk Modulus (GPa) = 25.75901 56.94336 41.35118
# Shear Modulus (GPa) = 21.68980 30.47448 26.08214
#
# Velocity S-wave (km/s) = 3.27966 3.88749 3.59644
# Velocity P-wave (km/s) = 5.20727 6.95621 6.14429
#
# Compressibility (1/GPa) = 0.03882137
#
# Stress axis : x y z
#
# Youngs Moduli (GPa) = 98.92052 102.32800 27.51654
#
# Poissons Ratio (x) = 0.33414 0.11723
# Poissons Ratio (y) = 0.32301 0.03234
# Poissons Ratio (z) = 0.42144 0.12026
#
# Static dielectric constant tensor:
#      x y z
#    x 4.056930 -0.144650 -0.144360 
#    y -0.144650 3.497800 0.262970 
#    z -0.144360 0.262970 3.277610 
# 
# 
# High freq. dielectric constant tensor:
#      x y z
#    x 1.802330 0.000310 0.003800 
#    y 0.000310 1.769040 0.032300 
#    z 0.003800 0.032300 1.774050 
# 
# From -- ./inp_files/185990.got.cif
#   From: 2010.06.25/outbox.cif.g09.slc.cpg/sg2_93_cif.got.tgz:185990.got - 2010.06.27 13:26:56.
