data_PCOD8001667
_publ_section_title
;
Structure prediction by ZEFSAII (Michael W. Deem and Ramdas Pophale) SiO2 
 PCOD8001667
Probable space group: P -1
;
_chemical_formula_sum "Si O2"
_cell_formula_units_Z 16
_cell_length_a 27.935120
_cell_length_b 8.208051
_cell_length_c 27.578564
_cell_angle_alpha 40.453240
_cell_angle_beta 10.037509
_cell_angle_gamma 41.545913
_cell_volume 715.085890
_symmetry_space_group_name_H-M "P -1"
_symmetry_group_IT_number 2
_symmetry_cell_setting 'triclinic'
loop_
_space_group_symop_operation_xyz
x,y,z
-x,-y,-z
loop_
_atom_site_type_symbol
_atom_site_label
_atom_site_fract_x
_atom_site_fract_y
_atom_site_fract_z
Si Si1 0.288101 0.513554 0.014717
Si Si2 0.317634 0.032407 0.816273
Si Si3 0.408767 0.280355 0.175835
Si Si4 0.932010 0.240659 0.725690
Si Si5 0.149112 0.749184 0.814289
Si Si6 0.775123 0.243763 0.552788
Si Si7 0.315120 0.439273 0.803455
Si Si8 0.157132 0.697359 0.635997
O O1 0.584560 0.382611 0.750820
O O2 0.331097 0.746046 0.883306
O O3 0.178809 0.590196 0.158717
O O4 0.088864 0.300593 0.240085
O O5 0.608466 0.150799 0.484367
O O6 0.215710 0.196960 0.926400
O O7 0.094322 0.045495 0.991920
O O8 0.168043 0.388669 0.426379
O O9 0.278448 0.054118 0.325374
O O10 0.500000 0.500000 0.000000
O O11 0.668720 0.173175 0.970475
O O12 0.084104 0.990975 0.648950
O O13 0.278938 0.694463 0.750098
O O14 0.000000 0.500000 0.000000
O O15 0.727214 0.352883 0.521603
O O16 0.625805 0.398942 0.519261
O O17 0.120352 0.458991 0.040428
#
# Coordination Sequence:
#
# PCOD8001667 Si02
#       8
#     2   2   2   2   2   2   2   2
#     4  12  24  41  64  96 133 167 209 270 319 372
#     4  11  21  34  58  86 129 163 208 264 339 364
#     4  11  24  47  72  97 131 171 206 251 310 382
#     4  11  23  41  69  99 127 165 219 258 305 374
#     4  10  20  34  51  90 126 162 209 276 323 375
#     4  11  25  41  63  94 132 165 209 259 322 381
#     4  11  19  33  60  87 119 157 220 268 313 363
#     4  11  21  37  62  89 122 162 216 266 311 361
#
# _framework density 22.374934
#
# number of rings (size 3 to 8) (size 9 to 14) (size 15 to 20)
#    0.000    1.000    1.250    9.375    1.750    0.000 
#    0.000    3.750    0.000   15.000    0.000    0.000 
#    0.000    0.000    0.000    0.000    0.000    0.000 
#
# Total GULP energy -198330.133193 kJ/mol
# GULP energy per Si atom -12395.633325 kJ/mol
# Density = 2.232401 g / cm^3
# Si number density = 22.374934 Si / 1000 Ang^3
#
#
#
# Elastic Constant Matrix: (Units=GPa)
#
#
# Indices 1 2 3 4 5 6 
#
# 1 61.7778 27.7721 34.5405 -4.5415 15.6140 0.2742
# 2 27.7721 76.3134 41.5549 -13.1695 14.6551 -4.5205
# 3 34.5405 41.5549 153.6139 -7.0342 18.9838 -6.6797
# 4 -4.5415 -13.1695 -7.0342 39.4085 -4.9781 6.1545
# 5 15.6140 14.6551 18.9838 -4.9781 49.2525 4.1915
# 6 0.2742 -4.5205 -6.6797 6.1545 4.1915 22.9224
#
#
#
# Elastic Compliance Matrix: (Units=1/GPa)
#
#
# Indices 1 2 3 4 5 6 
#
# 1 0.021258 -0.005544 -0.002871 -0.000183 -0.003880 -0.001426
# 2 -0.005544 0.018076 -0.003094 0.004267 -0.002166 0.001980
# 3 -0.002871 -0.003094 0.008266 -0.000440 -0.001591 0.002242
# 4 -0.000183 0.004267 -0.000440 0.028145 0.002423 -0.007285
# 5 -0.003880 -0.002166 -0.001591 0.002423 0.023529 -0.005797
# 6 -0.001426 0.001980 0.002242 -0.007285 -0.005797 0.047702
#
#
# Mechanical properties :
#
#
# Convention : Reuss Voigt Hill
#
# Bulk Modulus (GPa) = 40.67998 55.49335 48.08666
# Shear Modulus (GPa) = 28.06013 34.83917 31.44965
#
# Velocity S-wave (km/s) = 3.54515 3.95024 3.75317
# Velocity P-wave (km/s) = 5.91422 6.75732 6.34978
#
# Compressibility (1/GPa) = 0.02458212
#
# Stress axis : x y z
#
# Youngs Moduli (GPa) = 47.04092 55.32309 120.97297
#
# Poissons Ratio (x) = 0.30670 0.34733
# Poissons Ratio (y) = 0.26078 0.37430
# Poissons Ratio (z) = 0.13506 0.17118
#
# Static dielectric constant tensor:
#      x y z
#    x 4.056990 -0.257030 0.061750 
#    y -0.257030 3.800660 0.089290 
#    z 0.061750 0.089290 4.344680 
# 
# 
# High freq. dielectric constant tensor:
#      x y z
#    x 1.863040 -0.014580 0.006650 
#    y -0.014580 1.854790 0.003920 
#    z 0.006650 0.003920 1.911300 
# 
# From -- ./inp_files/621131.got.cif
#   From: 2010.06.25/outbox.cif.g09.slc.cpg/sg2_311_cif.got.tgz:621131.got - 2010.06.27 13:26:56.
