data_PCOD8001398
_publ_section_title
;
Structure prediction by ZEFSAII (Michael W. Deem and Ramdas Pophale) SiO2 
 PCOD8001398
Probable space group: P -1
;
_chemical_formula_sum "Si O2"
_cell_formula_units_Z 14
_cell_length_a 16.680891
_cell_length_b 14.327604
_cell_length_c 16.162324
_cell_angle_alpha 44.871565
_cell_angle_beta 17.453955
_cell_angle_gamma 38.347056
_cell_volume 702.463278
_symmetry_space_group_name_H-M "P -1"
_symmetry_group_IT_number 2
_symmetry_cell_setting 'triclinic'
loop_
_space_group_symop_operation_xyz
x,y,z
-x,-y,-z
loop_
_atom_site_type_symbol
_atom_site_label
_atom_site_fract_x
_atom_site_fract_y
_atom_site_fract_z
Si Si1 0.718156 0.657711 0.144920
Si Si2 0.321805 0.389594 0.472894
Si Si3 0.255246 0.526840 0.911170
Si Si4 0.758224 0.061111 0.031706
Si Si5 0.647440 0.594686 0.762629
Si Si6 0.623498 0.044191 0.430352
Si Si7 0.924450 0.220017 0.207479
O O1 0.658713 0.627950 0.127436
O O2 0.414848 0.705189 0.466988
O O3 0.000000 0.500000 0.000000
O O4 0.829409 0.781969 0.966735
O O5 0.430298 0.496846 0.342954
O O6 0.375068 0.382279 0.327680
O O7 0.531003 0.220044 0.410987
O O8 0.965130 0.454440 0.806486
O O9 0.090258 0.678816 0.920778
O O10 0.531423 0.239423 0.120344
O O11 0.541075 0.991536 0.310927
O O12 0.999939 0.052537 0.869981
O O13 0.962255 0.955915 0.819561
O O14 0.000000 0.500000 0.500000
O O15 0.500000 0.500000 0.000000
O O16 0.500000 0.000000 0.500000
#
# Coordination Sequence:
#
# PCOD8001398 Si02
#       7
#     2   2   2   2   2   2   2
#     4  10  20  32  51  83 133 164 182 224 287 372
#     4  12  22  37  62  86 121 157 198 243 296 359
#     4  11  20  34  55  91 122 161 191 229 295 362
#     4  12  24  38  63  87 122 160 200 243 297 363
#     4  12  28  46  60  84 118 162 211 254 297 351
#     4  12  22  36  58  92 122 153 193 244 306 359
#     4  11  19  34  54  88 124 161 190 228 295 362
#
# _framework density 19.929867000000002
#
# number of rings (size 3 to 8) (size 9 to 14) (size 15 to 20)
#    0.000    0.571    4.286    7.286    2.000    0.000 
#    0.000    0.000    0.000    0.000    0.000   20.000 
#    0.000    0.000    0.000    0.000    0.000    0.000 
#
# Total GULP energy -173573.949124 kJ/mol
# GULP energy per Si atom -12398.139223 kJ/mol
# Density = 1.988451 g / cm^3
# Si number density = 19.929867 Si / 1000 Ang^3
#
#
#
# Elastic Constant Matrix: (Units=GPa)
#
#
# Indices 1 2 3 4 5 6 
#
# 1 66.1718 50.0709 36.7950 1.9835 -3.4431 30.3627
# 2 50.0709 104.6006 60.5659 4.7093 3.1384 14.5175
# 3 36.7950 60.5659 144.7056 -9.9104 -1.1325 5.1497
# 4 1.9835 4.7093 -9.9104 30.6411 5.6993 2.2667
# 5 -3.4431 3.1384 -1.1325 5.6993 45.2745 -4.7495
# 6 30.3627 14.5175 5.1497 2.2667 -4.7495 32.9548
#
#
#
# Elastic Compliance Matrix: (Units=1/GPa)
#
#
# Indices 1 2 3 4 5 6 
#
# 1 0.042538 -0.013605 -0.003936 0.000354 0.000624 -0.032518
# 2 -0.013605 0.018207 -0.004602 -0.003533 -0.001414 0.005273
# 3 -0.003936 -0.004602 0.009966 0.003865 0.000187 0.003857
# 4 0.000354 -0.003533 0.003865 0.035394 -0.004342 -0.002434
# 5 0.000624 -0.001414 0.000187 -0.004342 0.023168 0.003657
# 6 -0.032518 0.005273 0.003857 -0.002434 0.003657 0.058074
#
#
# Mechanical properties :
#
#
# Convention : Reuss Voigt Hill
#
# Bulk Modulus (GPa) = 37.84090 67.81572 52.82831
# Shear Modulus (GPa) = 20.79518 32.97716 26.88617
#
# Velocity S-wave (km/s) = 3.23370 4.07216 3.67691
# Velocity P-wave (km/s) = 5.74201 7.49741 6.67764
#
# Compressibility (1/GPa) = 0.02642643
#
# Stress axis : x y z
#
# Youngs Moduli (GPa) = 23.50842 54.92425 100.33869
#
# Poissons Ratio (x) = 0.74725 0.39490
# Poissons Ratio (y) = 0.31983 0.46172
# Poissons Ratio (z) = 0.09252 0.25274
#
# Static dielectric constant tensor:
#      x y z
#    x 3.755420 0.484120 -0.016380 
#    y 0.484120 3.571140 -0.153760 
#    z -0.016380 -0.153760 3.876010 
# 
# 
# High freq. dielectric constant tensor:
#      x y z
#    x 1.765530 0.045460 -0.003040 
#    y 0.045460 1.737580 -0.010870 
#    z -0.003040 -0.010870 1.805170 
# 
# From -- ./inp_files/433895.got.cif
#   From: 2010.06.25/outbox.cif.g09.slc.cpg/sg2_217_cif.got.tgz:433895.got - 2010.06.27 13:26:56.
