data_PCOD8001899
_publ_section_title
;
Structure prediction by ZEFSAII (Michael W. Deem and Ramdas Pophale) SiO2 
 PCOD8001899
Probable space group: P -1
;
_chemical_formula_sum "Si O2"
_cell_formula_units_Z 14
_cell_length_a 15.225329
_cell_length_b 15.728279
_cell_length_c 9.071192
_cell_angle_alpha 96.812638
_cell_angle_beta 118.163182
_cell_angle_gamma 29.106300
_cell_volume 678.673929
_symmetry_space_group_name_H-M "P -1"
_symmetry_group_IT_number 2
_symmetry_cell_setting 'triclinic'
loop_
_space_group_symop_operation_xyz
x,y,z
-x,-y,-z
loop_
_atom_site_type_symbol
_atom_site_label
_atom_site_fract_x
_atom_site_fract_y
_atom_site_fract_z
Si Si1 0.802725 0.444055 0.091009
Si Si2 0.199445 0.419752 0.125557
Si Si3 0.965946 0.294034 0.745687
Si Si4 0.823964 0.890520 0.429803
Si Si5 0.005940 0.135755 0.991194
Si Si6 0.615580 0.302012 0.641430
Si Si7 0.228957 0.878982 0.596610
O O1 0.940107 0.350133 0.340193
O O2 0.879987 0.465262 0.061080
O O3 0.468104 0.699663 0.874355
O O4 0.938556 0.247087 0.101618
O O5 0.151826 0.522050 0.245664
O O6 0.517402 0.129591 0.309759
O O7 0.000000 0.500000 0.000000
O O8 0.705082 0.447064 0.512601
O O9 0.172718 0.148897 0.743372
O O10 0.119934 0.109369 0.949743
O O11 0.921730 0.910217 0.505321
O O12 0.727168 0.309302 0.750936
O O13 0.230182 0.885535 0.162315
O O14 0.633941 0.260812 0.476130
O O15 0.000000 0.000000 0.500000
#
# Coordination Sequence:
#
# PCOD8001899 Si02
#       7
#     2   2   2   2   2   2   2
#     4  10  21  40  60  86 125 162 201 248 302 352
#     4  10  23  45  66  88 119 152 202 261 307 363
#     4  11  22  39  62  85 122 158 193 250 303 355
#     4  11  23  40  61  91 123 157 204 247 301 362
#     4  10  20  34  59  83 120 168 202 236 296 351
#     4  11  20  35  55  86 120 161 207 241 285 353
#     4  11  22  35  55  88 127 163 206 246 282 349
#
# _framework density 20.628464000000001
#
# number of rings (size 3 to 8) (size 9 to 14) (size 15 to 20)
#    0.000    1.429    5.714    1.286    2.000    6.286 
#    0.000    0.714    0.000    0.000    0.000    0.000 
#    0.000    0.000    0.000    0.000    0.000    0.000 
#
# Total GULP energy -173547.953442 kJ/mol
# GULP energy per Si atom -12396.282389 kJ/mol
# Density = 2.058151 g / cm^3
# Si number density = 20.628464 Si / 1000 Ang^3
#
#
#
# Elastic Constant Matrix: (Units=GPa)
#
#
# Indices 1 2 3 4 5 6 
#
# 1 117.5278 39.3255 51.9863 -5.4052 16.7954 -3.8294
# 2 39.3255 76.0071 26.7411 2.9706 -4.2349 -14.1818
# 3 51.9863 26.7411 91.3419 -4.2957 -10.9243 -7.7109
# 4 -5.4052 2.9706 -4.2957 24.6994 -1.3409 -3.3652
# 5 16.7954 -4.2349 -10.9243 -1.3409 31.5729 -0.9833
# 6 -3.8294 -14.1818 -7.7109 -3.3652 -0.9833 23.3124
#
#
#
# Elastic Compliance Matrix: (Units=1/GPa)
#
#
# Indices 1 2 3 4 5 6 
#
# 1 0.016902 -0.007156 -0.009474 0.001500 -0.013323 -0.005056
# 2 -0.007156 0.019270 0.000016 -0.002086 0.006636 0.010531
# 3 -0.009474 0.000016 0.018296 0.002468 0.011644 0.005352
# 4 0.001500 -0.002086 0.002468 0.042407 0.001764 0.005990
# 5 -0.013323 0.006636 0.011644 0.001764 0.043997 0.007810
# 6 -0.005056 0.010531 0.005352 0.005990 0.007810 0.051436
#
#
# Mechanical properties :
#
#
# Convention : Reuss Voigt Hill
#
# Bulk Modulus (GPa) = 47.08309 57.88694 52.48501
# Shear Modulus (GPa) = 21.49465 27.03853 24.26659
#
# Velocity S-wave (km/s) = 3.23149 3.62434 3.43354
# Velocity P-wave (km/s) = 6.06607 6.75552 6.42006
#
# Compressibility (1/GPa) = 0.02123905
#
# Stress axis : x y z
#
# Youngs Moduli (GPa) = 59.16473 51.89485 54.65707
#
# Poissons Ratio (x) = 0.37136 0.51784
# Poissons Ratio (y) = 0.42338 -0.00087
# Poissons Ratio (z) = 0.56054 -0.00083
#
# Static dielectric constant tensor:
#      x y z
#    x 3.686670 -0.012410 -0.112390 
#    y -0.012410 3.704830 -0.025450 
#    z -0.112390 -0.025450 3.721450 
# 
# 
# High freq. dielectric constant tensor:
#      x y z
#    x 1.794590 0.005800 -0.019550 
#    y 0.005800 1.801850 -0.006540 
#    z -0.019550 -0.006540 1.800060 
# 
# From -- ./inp_files/215596.got.cif
#   From: 2010.06.25/outbox.cif.g09.slc.cpg/sg2_108_cif.got.tgz:215596.got - 2010.06.27 13:26:56.
