data_PCOD8001807
_publ_section_title
;
Structure prediction by ZEFSAII (Michael W. Deem and Ramdas Pophale) SiO2 
 PCOD8001807
Probable space group: P -1
;
_chemical_formula_sum "Si O2"
_cell_formula_units_Z 16
_cell_length_a 12.285278
_cell_length_b 11.514192
_cell_length_c 8.571372
_cell_angle_alpha 70.171171
_cell_angle_beta 120.572361
_cell_angle_gamma 128.411163
_cell_volume 817.500078
_symmetry_space_group_name_H-M "P -1"
_symmetry_group_IT_number 2
_symmetry_cell_setting 'triclinic'
loop_
_space_group_symop_operation_xyz
x,y,z
-x,-y,-z
loop_
_atom_site_type_symbol
_atom_site_label
_atom_site_fract_x
_atom_site_fract_y
_atom_site_fract_z
Si Si1 0.062507 0.531810 0.269869
Si Si2 0.036053 0.938087 0.704141
Si Si3 0.894533 0.177164 0.746406
Si Si4 0.767382 0.448463 0.900923
Si Si5 0.428175 0.844009 0.933813
Si Si6 0.185899 0.261221 0.108629
Si Si7 0.875456 0.220990 0.379087
Si Si8 0.288615 0.102943 0.057360
O O1 0.129715 0.688390 0.331569
O O2 0.198600 0.547158 0.259688
O O3 0.003553 0.397307 0.410503
O O4 0.919803 0.493699 0.079568
O O5 0.090799 0.833526 0.731847
O O6 0.886331 0.842122 0.744387
O O7 0.000000 0.000000 0.500000
O O8 0.172128 0.068212 0.847023
O O9 0.885140 0.135671 0.575297
O O10 0.763675 0.043200 0.813319
O O11 0.055046 0.221315 0.908141
O O12 0.723395 0.566367 0.855071
O O13 0.629279 0.284130 0.920056
O O14 0.292163 0.812782 0.737304
O O15 0.546341 0.836138 0.915411
O O16 0.500000 0.000000 0.000000
O O17 0.299515 0.227661 0.122115
#
# Coordination Sequence:
#
# PCOD8001807 Si02
#       8
#     2   2   2   2   2   2   2   2
#     4   9  17  32  56  83 115 136 183 235 278 320
#     4  11  20  35  59  85 109 142 188 234 279 325
#     4  10  20  34  56  89 114 138 182 237 281 320
#     4   9  18  33  57  81 107 152 184 226 275 326
#     4  11  22  37  56  82 113 152 189 219 273 341
#     4  10  20  37  57  83 113 144 186 233 281 321
#     4  11  20  34  57  88 111 144 183 228 283 327
#     4  11  22  37  54  81 118 150 181 226 276 332
#
# _framework density 19.571861999999999
#
# number of rings (size 3 to 8) (size 9 to 14) (size 15 to 20)
#    0.000    1.750    2.500    4.125    3.500    1.000 
#    0.000    0.000    0.000    0.750    0.000    0.000 
#    0.000    0.000    0.000    0.000    0.000    0.000 
#
# Total GULP energy -198404.271083 kJ/mol
# GULP energy per Si atom -12400.266943 kJ/mol
# Density = 1.952732 g / cm^3
# Si number density = 19.571862 Si / 1000 Ang^3
#
#
#
# Elastic Constant Matrix: (Units=GPa)
#
#
# Indices 1 2 3 4 5 6 
#
# 1 150.8020 58.0671 26.5382 -5.5654 -14.2963 -5.0820
# 2 58.0671 115.0529 26.2005 -11.7776 -3.8175 -3.8854
# 3 26.5382 26.2005 84.3579 -21.0235 -17.3592 8.0728
# 4 -5.5654 -11.7776 -21.0235 20.1223 -2.7782 -5.4705
# 5 -14.2963 -3.8175 -17.3592 -2.7782 21.0262 -1.6638
# 6 -5.0820 -3.8854 8.0728 -5.4705 -1.6638 33.7831
#
#
#
# Elastic Compliance Matrix: (Units=1/GPa)
#
#
# Indices 1 2 3 4 5 6 
#
# 1 0.008829 -0.004077 -0.000412 0.000691 0.005118 0.001322
# 2 -0.004077 0.011578 -0.001759 0.004081 -0.001446 0.001728
# 3 -0.000412 -0.001759 0.023938 0.026855 0.022671 -0.000519
# 4 0.000691 0.004081 0.026855 0.088047 0.035822 0.010178
# 5 0.005118 -0.001446 0.022671 0.035822 0.074596 0.004661
# 6 0.001322 0.001728 -0.000519 0.010178 0.004661 0.032000
#
#
# Mechanical properties :
#
#
# Convention : Reuss Voigt Hill
#
# Bulk Modulus (GPa) = 31.39920 63.53603 47.46761
# Shear Modulus (GPa) = 19.07658 30.94678 25.01168
#
# Velocity S-wave (km/s) = 3.12540 3.98073 3.57871
# Velocity P-wave (km/s) = 5.39463 7.32541 6.43287
#
# Compressibility (1/GPa) = 0.03184795
#
# Stress axis : x y z
#
# Youngs Moduli (GPa) = 113.26530 86.37058 41.77411
#
# Poissons Ratio (x) = 0.35212 0.01722
# Poissons Ratio (y) = 0.46176 0.07350
# Poissons Ratio (z) = 0.04670 0.15196
#
# Static dielectric constant tensor:
#      x y z
#    x 3.649220 -0.218380 -0.223980 
#    y -0.218380 3.703610 -0.164710 
#    z -0.223980 -0.164710 3.262860 
# 
# 
# High freq. dielectric constant tensor:
#      x y z
#    x 1.766210 -0.018150 -0.024630 
#    y -0.018150 1.761040 -0.019480 
#    z -0.024630 -0.019480 1.737720 
# 
# From -- ./inp_files/257401.got.cif
#   From: 2010.06.25/outbox.cif.g09.slc.cpg/sg2_129_cif.got.tgz:257401.got - 2010.06.27 13:26:56.
