data_PCOD8001164
_publ_section_title
;
Structure prediction by ZEFSAII (Michael W. Deem and Ramdas Pophale) SiO2 
 PCOD8001164
Probable space group: P -1
;
_chemical_formula_sum "Si O2"
_cell_formula_units_Z 14
_cell_length_a 6.978309
_cell_length_b 15.824454
_cell_length_c 14.858365
_cell_angle_alpha 153.915054
_cell_angle_beta 127.903432
_cell_angle_gamma 66.230086
_cell_volume 514.331440
_symmetry_space_group_name_H-M "P -1"
_symmetry_group_IT_number 2
_symmetry_cell_setting 'triclinic'
loop_
_space_group_symop_operation_xyz
x,y,z
-x,-y,-z
loop_
_atom_site_type_symbol
_atom_site_label
_atom_site_fract_x
_atom_site_fract_y
_atom_site_fract_z
Si Si1 0.274300 0.493303 0.208040
Si Si2 0.466377 0.909934 0.564747
Si Si3 0.223494 0.324525 0.667858
Si Si4 0.845343 0.642139 0.596460
Si Si5 0.285361 0.255393 0.813071
Si Si6 0.982394 0.743865 0.928331
Si Si7 0.811382 0.078293 0.182344
O O1 0.305299 0.727247 0.414775
O O2 0.562883 0.517172 0.346755
O O3 0.061389 0.420739 0.159747
O O4 0.165343 0.322829 0.931466
O O5 0.595805 0.807211 0.430106
O O6 0.259770 0.011211 0.571611
O O7 0.707097 0.117838 0.877023
O O8 0.132576 0.277786 0.700725
O O9 0.964048 0.279799 0.485587
O O10 0.403305 0.574728 0.943503
O O11 0.801825 0.658121 0.705017
O O12 0.000000 0.500000 0.500000
O O13 0.025575 0.866124 0.812450
O O14 0.856097 0.898085 0.078367
O O15 0.500000 0.000000 0.000000
#
# Coordination Sequence:
#
# PCOD8001164 Si02
#       7
#     2   2   2   2   2   2   2
#     4  11  23  43  64 104 142 180 235 286 340 421
#     4  10  21  41  67 101 141 178 237 284 348 414
#     4   9  20  40  71 104 139 179 233 292 342 417
#     4  12  23  43  65  97 138 183 226 288 348 410
#     4  10  19  41  73 100 135 187 230 285 355 407
#     4  11  24  43  65  97 145 178 229 291 341 418
#     4  11  23  43  68 103 139 182 230 282 355 414
#
# _framework density 27.219801
#
# number of rings (size 3 to 8) (size 9 to 14) (size 15 to 20)
#    0.000    1.429    4.286    3.000    0.000    0.000 
#    2.571    2.857    0.000   23.143    0.000    0.000 
#    0.000    0.000    0.000    0.000    0.000    0.000 
#
# Total GULP energy -173468.937607 kJ/mol
# GULP energy per Si atom -12390.638400 kJ/mol
# Density = 2.715785 g / cm^3
# Si number density = 27.219801 Si / 1000 Ang^3
#
#
#
# Elastic Constant Matrix: (Units=GPa)
#
#
# Indices 1 2 3 4 5 6 
#
# 1 81.8243 35.7950 31.4816 0.1242 -1.2964 22.2361
# 2 35.7950 152.7489 65.5026 7.6334 -6.1739 46.9165
# 3 31.4816 65.5026 103.1567 7.5696 3.6251 27.0012
# 4 0.1242 7.6334 7.5696 56.2540 -0.2771 -6.4486
# 5 -1.2964 -6.1739 3.6251 -0.2771 29.6090 -1.5326
# 6 22.2361 46.9165 27.0012 -6.4486 -1.5326 51.3011
#
#
#
# Elastic Compliance Matrix: (Units=1/GPa)
#
#
# Indices 1 2 3 4 5 6 
#
# 1 0.014860 -0.001001 -0.002879 0.000036 0.000588 -0.003988
# 2 -0.001001 0.011395 -0.004918 -0.001734 0.002528 -0.007542
# 3 -0.002879 -0.004918 0.014481 -0.001538 -0.003051 -0.002161
# 4 0.000036 -0.001734 -0.001538 0.018764 0.000249 0.004746
# 5 0.000588 0.002528 -0.003051 0.000249 0.034708 0.000107
# 6 -0.003988 -0.007542 -0.002161 0.004746 0.000107 0.029856
#
#
# Mechanical properties :
#
#
# Convention : Reuss Voigt Hill
#
# Bulk Modulus (GPa) = 43.21322 67.03204 55.12263
# Shear Modulus (GPa) = 33.47334 41.09620 37.28477
#
# Velocity S-wave (km/s) = 3.51057 3.88982 3.70505
# Velocity P-wave (km/s) = 5.68703 6.69731 6.21274
#
# Compressibility (1/GPa) = 0.02314106
#
# Stress axis : x y z
#
# Youngs Moduli (GPa) = 67.29543 87.75441 69.05598
#
# Poissons Ratio (x) = 0.08782 0.19881
# Poissons Ratio (y) = 0.06734 0.33962
# Poissons Ratio (z) = 0.19374 0.43158
#
# Static dielectric constant tensor:
#      x y z
#    x 4.322740 0.107750 0.664340 
#    y 0.107750 5.077900 0.282050 
#    z 0.664340 0.282050 3.505000 
# 
# 
# High freq. dielectric constant tensor:
#      x y z
#    x 2.086330 -0.006620 0.003110 
#    y -0.006620 2.105830 0.008940 
#    z 0.003110 0.008940 2.107200 
# 
# From -- ./inp_files/505974.got.cif
#   From: 2010.06.25/outbox.cif.g09.slc.cpg/sg2_253_cif.got.tgz:505974.got - 2010.06.27 13:26:56.
