data_PCOD8001336
_publ_section_title
;
Structure prediction by ZEFSAII (Michael W. Deem and Ramdas Pophale) SiO2 
 PCOD8001336
Probable space group: P -1
;
_chemical_formula_sum "Si O2"
_cell_formula_units_Z 16
_cell_length_a 11.671238
_cell_length_b 10.673850
_cell_length_c 16.898609
_cell_angle_alpha 126.960138
_cell_angle_beta 35.298230
_cell_angle_gamma 103.769934
_cell_volume 813.506150
_symmetry_space_group_name_H-M "P -1"
_symmetry_group_IT_number 2
_symmetry_cell_setting 'triclinic'
loop_
_space_group_symop_operation_xyz
x,y,z
-x,-y,-z
loop_
_atom_site_type_symbol
_atom_site_label
_atom_site_fract_x
_atom_site_fract_y
_atom_site_fract_z
Si Si1 0.065482 0.548092 0.148490
Si Si2 0.477596 0.328643 0.297017
Si Si3 0.805099 0.210457 0.214017
Si Si4 0.741943 0.782099 0.211344
Si Si5 0.834211 0.239010 0.942620
Si Si6 0.978109 0.617087 0.748303
Si Si7 0.672395 0.982957 0.963992
Si Si8 0.451959 0.198885 0.511350
O O1 0.164162 0.674319 0.110722
O O2 0.143915 0.473290 0.166710
O O3 0.780138 0.676587 0.363719
O O4 0.154209 0.381453 0.972453
O O5 0.616599 0.323263 0.294565
O O6 0.198430 0.468748 0.514736
O O7 0.586081 0.383072 0.183179
O O8 0.527210 0.123110 0.172205
O O9 0.945057 0.306033 0.192676
O O10 0.660383 0.226884 0.380435
O O11 0.000000 0.000000 0.000000
O O12 0.611423 0.741506 0.338817
O O13 0.948370 0.796899 0.140032
O O14 0.548099 0.981163 0.357775
O O15 0.850474 0.040849 0.849822
O O16 0.802843 0.774304 0.845442
O O17 0.500000 0.000000 0.000000
#
# Coordination Sequence:
#
# PCOD8001336 Si02
#       8
#     2   2   2   2   2   2   2   2
#     4  11  22  35  56  90 127 153 195 239 301 363
#     4  10  22  37  61  88 119 155 203 241 297 366
#     4  12  20  34  56  92 132 159 194 240 304 365
#     4  10  20  32  53  83 128 166 192 224 299 368
#     4   9  20  40  56  82 121 155 197 248 284 355
#     4  12  23  35  65  91 121 158 197 248 308 355
#     4  10  24  45  65  83 114 160 210 258 298 347
#     4  10  20  31  48  80 126 168 189 232 278 363
#
# _framework density 19.667950000000001
#
# number of rings (size 3 to 8) (size 9 to 14) (size 15 to 20)
#    0.750    0.750    2.500    4.875    3.500    0.500 
#    0.000    0.625    0.000    0.750    0.000    0.000 
#    0.000    0.000    0.000    0.000    0.000    0.000 
#
# Total GULP energy -198254.509726 kJ/mol
# GULP energy per Si atom -12390.906858 kJ/mol
# Density = 1.962319 g / cm^3
# Si number density = 19.667950 Si / 1000 Ang^3
#
#
#
# Elastic Constant Matrix: (Units=GPa)
#
#
# Indices 1 2 3 4 5 6 
#
# 1 63.4559 23.9884 17.7021 1.1814 -11.2095 -14.9512
# 2 23.9884 125.9821 44.9503 -14.6146 -10.1619 -32.7891
# 3 17.7021 44.9503 116.1491 -4.4005 -7.8012 -15.9949
# 4 1.1814 -14.6146 -4.4005 38.2667 -9.5203 -0.2413
# 5 -11.2095 -10.1619 -7.8012 -9.5203 13.1426 6.8614
# 6 -14.9512 -32.7891 -15.9949 -0.2413 6.8614 25.0774
#
#
#
# Elastic Compliance Matrix: (Units=1/GPa)
#
#
# Indices 1 2 3 4 5 6 
#
# 1 0.020401 -0.000050 -0.000939 0.003064 0.015173 0.007377
# 2 -0.000050 0.014119 -0.002706 0.006744 0.006298 0.015047
# 3 -0.000939 -0.002706 0.010263 0.000940 0.003030 0.001628
# 4 0.003064 0.006744 0.000940 0.037242 0.034189 0.002249
# 5 0.015173 0.006298 0.003030 0.034189 0.128635 -0.015654
# 6 0.007377 0.015047 0.001628 0.002249 -0.015654 0.069292
#
#
# Mechanical properties :
#
#
# Convention : Reuss Voigt Hill
#
# Bulk Modulus (GPa) = 26.74259 53.20763 39.97511
# Shear Modulus (GPa) = 16.67736 29.89379 23.28557
#
# Velocity S-wave (km/s) = 2.91511 3.90285 3.44457
# Velocity P-wave (km/s) = 4.99570 6.88632 6.01575
#
# Compressibility (1/GPa) = 0.03739354
#
# Stress axis : x y z
#
# Youngs Moduli (GPa) = 49.01672 70.82475 97.43492
#
# Poissons Ratio (x) = 0.00357 0.09147
# Poissons Ratio (y) = 0.00247 0.26365
# Poissons Ratio (z) = 0.04602 0.19165
#
# Static dielectric constant tensor:
#      x y z
#    x 3.027920 -0.209540 0.008550 
#    y -0.209540 3.964510 -0.003750 
#    z 0.008550 -0.003750 3.781100 
# 
# 
# High freq. dielectric constant tensor:
#      x y z
#    x 1.700040 -0.022200 0.002850 
#    y -0.022200 1.780310 -0.000400 
#    z 0.002850 -0.000400 1.779300 
# 
# From -- ./inp_files/568809.got.cif
#   From: 2010.06.25/outbox.cif.g09.slc.cpg/sg2_285_cif.got.tgz:568809.got - 2010.06.27 13:26:56.
