data_PCOD8001530
_publ_section_title
;
Structure prediction by ZEFSAII (Michael W. Deem and Ramdas Pophale) SiO2 
 PCOD8001530
Probable space group: P -1
;
_chemical_formula_sum "Si O2"
_cell_formula_units_Z 16
_cell_length_a 9.709611
_cell_length_b 14.518846
_cell_length_c 14.532995
_cell_angle_alpha 108.008981
_cell_angle_beta 122.315232
_cell_angle_gamma 121.787040
_cell_volume 837.345708
_symmetry_space_group_name_H-M "P -1"
_symmetry_group_IT_number 2
_symmetry_cell_setting 'triclinic'
loop_
_space_group_symop_operation_xyz
x,y,z
-x,-y,-z
loop_
_atom_site_type_symbol
_atom_site_label
_atom_site_fract_x
_atom_site_fract_y
_atom_site_fract_z
Si Si1 0.760560 0.260773 0.691485
Si Si2 0.741119 0.371181 0.121017
Si Si3 0.258862 0.177130 0.035398
Si Si4 0.439162 0.270382 0.656484
Si Si5 0.256885 0.475986 0.326337
Si Si6 0.765012 0.825662 0.251724
Si Si7 0.905032 0.128699 0.753975
Si Si8 0.756936 0.755911 0.749342
O O1 0.692026 0.311363 0.755116
O O2 0.875594 0.229144 0.784106
O O3 0.033669 0.425755 0.767280
O O4 0.449103 0.089177 0.463673
O O5 0.597560 0.328265 0.154986
O O6 0.927028 0.365101 0.184581
O O7 0.451848 0.213063 0.897107
O O8 0.355691 0.264001 0.197465
O O9 0.038811 0.147592 0.900073
O O10 0.065496 0.977111 0.901049
O O11 0.545956 0.404253 0.660818
O O12 0.431419 0.308632 0.769070
O O13 0.079894 0.050201 0.446503
O O14 0.472828 0.623415 0.533732
O O15 0.154128 0.311823 0.240151
O O16 0.852677 0.772328 0.212344
#
# Coordination Sequence:
#
# PCOD8001530 Si02
#       8
#     2   2   2   2   2   2   2   2
#     4   9  18  31  51  78 106 137 167 204 260 321
#     4  10  20  33  54  80 106 131 170 222 266 310
#     4  10  21  37  56  77 105 139 178 222 262 304
#     4   9  18  34  52  73 108 140 167 206 258 315
#     4  10  21  37  56  77 105 139 178 222 262 304
#     4   9  18  31  51  78 106 137 167 204 260 321
#     4   9  18  34  52  73 108 140 167 206 258 315
#     4  10  22  39  56  74 100 143 186 218 262 308
#
# _framework density 19.107997000000001
#
# number of rings (size 3 to 8) (size 9 to 14) (size 15 to 20)
#    0.000    2.500    0.000    3.000    0.000    8.000 
#    0.000    0.000    0.000    3.000    0.000    0.000 
#    0.000    0.000    0.000    0.000    0.000    0.000 
#
# Total GULP energy -198310.842277 kJ/mol
# GULP energy per Si atom -12394.427642 kJ/mol
# Density = 1.906451 g / cm^3
# Si number density = 19.107997 Si / 1000 Ang^3
#
#
#
# Elastic Constant Matrix: (Units=GPa)
#
#
# Indices 1 2 3 4 5 6 
#
# 1 82.7991 55.3778 39.9728 0.0245 3.7052 11.9921
# 2 55.3778 107.1330 24.6563 -0.2706 2.3272 9.7310
# 3 39.9728 24.6563 40.9289 0.7047 2.3123 11.2626
# 4 0.0245 -0.2706 0.7047 25.0043 4.1241 -0.3023
# 5 3.7052 2.3272 2.3123 4.1241 31.5524 -0.2262
# 6 11.9921 9.7310 11.2626 -0.3023 -0.2262 40.5851
#
#
#
# Elastic Compliance Matrix: (Units=1/GPa)
#
#
# Indices 1 2 3 4 5 6 
#
# 1 0.030220 -0.010232 -0.023292 0.000711 -0.001180 -0.000014
# 2 -0.010232 0.014335 0.001590 0.000109 0.000007 -0.000854
# 3 -0.023292 0.001590 0.048184 -0.001270 -0.000797 -0.006884
# 4 0.000711 0.000109 -0.001270 0.040915 -0.005343 0.000391
# 5 -0.001180 0.000007 -0.000797 -0.005343 0.032593 0.000710
# 6 -0.000014 -0.000854 -0.006884 0.000391 0.000710 0.026766
#
#
# Mechanical properties :
#
#
# Convention : Reuss Voigt Hill
#
# Bulk Modulus (GPa) = 34.63681 52.31942 43.47811
# Shear Modulus (GPa) = 18.76151 26.81863 22.79007
#
# Velocity S-wave (km/s) = 3.13687 3.75044 3.45729
# Velocity P-wave (km/s) = 5.59341 6.79667 6.22418
#
# Compressibility (1/GPa) = 0.02887102
#
# Stress axis : x y z
#
# Youngs Moduli (GPa) = 33.09116 69.76054 20.75391
#
# Poissons Ratio (x) = 0.71376 0.48339
# Poissons Ratio (y) = 0.33857 -0.03299
# Poissons Ratio (z) = 0.77075 -0.11090
#
# Static dielectric constant tensor:
#      x y z
#    x 3.638960 0.120770 0.078600 
#    y 0.120770 3.594590 -0.064070 
#    z 0.078600 -0.064070 3.503090 
# 
# 
# High freq. dielectric constant tensor:
#      x y z
#    x 1.740650 0.005410 0.008080 
#    y 0.005410 1.743130 -0.000600 
#    z 0.008080 -0.000600 1.743950 
# 
# From -- ./inp_files/495040.got.cif
#   From: 2010.06.25/outbox.cif.g09.slc.cpg/sg2_248_cif.got.tgz:495040.got - 2010.06.27 13:26:56.
