data_PCOD8001949
_publ_section_title
;
Structure prediction by ZEFSAII (Michael W. Deem and Ramdas Pophale) SiO2 
 PCOD8001949
Probable space group: P -1
;
_chemical_formula_sum "Si O2"
_cell_formula_units_Z 16
_cell_length_a 12.831677
_cell_length_b 11.719994
_cell_length_c 18.586087
_cell_angle_alpha 54.073606
_cell_angle_beta 27.174893
_cell_angle_gamma 73.309511
_cell_volume 798.704183
_symmetry_space_group_name_H-M "P -1"
_symmetry_group_IT_number 2
_symmetry_cell_setting 'triclinic'
loop_
_space_group_symop_operation_xyz
x,y,z
-x,-y,-z
loop_
_atom_site_type_symbol
_atom_site_label
_atom_site_fract_x
_atom_site_fract_y
_atom_site_fract_z
Si Si1 0.678907 0.188301 0.003439
Si Si2 0.996268 0.168449 0.190252
Si Si3 0.067834 0.908145 0.434111
Si Si4 0.281611 0.702827 0.768154
Si Si5 0.654808 0.482355 0.686412
Si Si6 0.878401 0.824178 0.336624
Si Si7 0.383653 0.109109 0.365140
Si Si8 0.062899 0.453221 0.362477
O O1 0.555741 0.125411 0.182968
O O2 0.422575 0.056150 0.150101
O O3 0.803986 0.394230 0.837592
O O4 0.935941 0.172510 0.843313
O O5 0.796434 0.168455 0.253698
O O6 0.049892 0.027420 0.186535
O O7 0.805965 0.094077 0.408980
O O8 0.305505 0.369912 0.933800
O O9 0.858711 0.862487 0.511870
O O10 0.991429 0.719869 0.576576
O O11 0.000000 0.000000 0.500000
O O12 0.554309 0.747412 0.536971
O O13 0.381598 0.739282 0.777016
O O14 0.000000 0.500000 0.000000
O O15 0.838979 0.692316 0.472501
O O16 0.706361 0.466342 0.743631
O O17 0.757342 0.394226 0.604377
#
# Coordination Sequence:
#
# PCOD8001949 Si02
#       8
#     2   2   2   2   2   2   2   2
#     4  10  22  40  59  88 127 154 191 240 299 356
#     4  11  21  38  63  83 116 152 200 248 297 337
#     4  10  21  37  56  85 123 158 193 228 289 360
#     4  11  22  41  62  86 113 150 207 249 291 345
#     4  10  20  34  60  91 115 159 198 243 290 349
#     4  10  20  38  62  87 119 153 196 248 290 348
#     4  10  22  39  58  88 118 154 197 241 292 351
#     4  10  20  35  58  88 124 155 197 238 295 347
#
# _framework density 20.032447999999999
#
# number of rings (size 3 to 8) (size 9 to 14) (size 15 to 20)
#    0.000    1.750    1.250    4.500    0.000    2.000 
#    4.500   10.000    0.000    0.000    0.000    0.000 
#    0.000    0.000    0.000    0.000    0.000    0.000 
#
# Total GULP energy -198270.335651 kJ/mol
# GULP energy per Si atom -12391.895978 kJ/mol
# Density = 1.998685 g / cm^3
# Si number density = 20.032448 Si / 1000 Ang^3
#
#
#
# Elastic Constant Matrix: (Units=GPa)
#
#
# Indices 1 2 3 4 5 6 
#
# 1 100.5427 43.7512 49.4269 9.6087 -5.6520 -4.4899
# 2 43.7512 130.1787 49.6832 5.0453 9.3875 -6.9274
# 3 49.4269 49.6832 119.5769 8.9727 -9.0105 9.1598
# 4 9.6087 5.0453 8.9727 32.4602 -7.0386 0.4584
# 5 -5.6520 9.3875 -9.0105 -7.0386 30.2809 2.6351
# 6 -4.4899 -6.9274 9.1598 0.4584 2.6351 25.3685
#
#
#
# Elastic Compliance Matrix: (Units=1/GPa)
#
#
# Indices 1 2 3 4 5 6 
#
# 1 0.013801 -0.002734 -0.004558 -0.002169 0.001280 0.003248
# 2 -0.002734 0.010857 -0.004084 -0.001057 -0.005735 0.004570
# 3 -0.004558 -0.004084 0.012876 -0.000444 0.004758 -0.007057
# 4 -0.002169 -0.001057 -0.000444 0.033439 0.007731 -0.001919
# 5 0.001280 -0.005735 0.004758 0.007731 0.038883 -0.007236
# 6 0.003248 0.004570 -0.007057 -0.001919 -0.007236 0.044576
#
#
# Mechanical properties :
#
#
# Convention : Reuss Voigt Hill
#
# Bulk Modulus (GPa) = 67.65004 70.66900 69.15952
# Shear Modulus (GPa) = 27.45566 31.45105 29.45336
#
# Velocity S-wave (km/s) = 3.70612 3.96663 3.83859
# Velocity P-wave (km/s) = 7.22200 7.50551 7.36512
#
# Compressibility (1/GPa) = 0.01478196
#
# Stress axis : x y z
#
# Youngs Moduli (GPa) = 72.45951 92.10729 77.66355
#
# Poissons Ratio (x) = 0.25183 0.35400
# Poissons Ratio (y) = 0.19811 0.31715
# Poissons Ratio (z) = 0.33028 0.37614
#
# Static dielectric constant tensor:
#      x y z
#    x 3.655500 -0.342080 -0.213750 
#    y -0.342080 3.717910 0.062670 
#    z -0.213750 0.062670 3.759530 
# 
# 
# High freq. dielectric constant tensor:
#      x y z
#    x 1.758890 -0.018740 -0.011710 
#    y -0.018740 1.785680 -0.005100 
#    z -0.011710 -0.005100 1.789710 
# 
# From -- ./inp_files/464675.got.cif
#   From: 2010.06.25/outbox.cif.g09.slc.cpg/sg2_233_cif.got.tgz:464675.got - 2010.06.27 13:26:56.
