data_PCOD8001026
_publ_section_title
;
Structure prediction by ZEFSAII (Michael W. Deem and Ramdas Pophale) SiO2 
 PCOD8001026
Probable space group: P -1
;
_chemical_formula_sum "Si O2"
_cell_formula_units_Z 16
_cell_length_a 8.837595
_cell_length_b 9.490277
_cell_length_c 17.431799
_cell_angle_alpha 86.062981
_cell_angle_beta 33.068790
_cell_angle_gamma 90.569421
_cell_volume 789.727691
_symmetry_space_group_name_H-M "P -1"
_symmetry_group_IT_number 2
_symmetry_cell_setting 'triclinic'
loop_
_space_group_symop_operation_xyz
x,y,z
-x,-y,-z
loop_
_atom_site_type_symbol
_atom_site_label
_atom_site_fract_x
_atom_site_fract_y
_atom_site_fract_z
Si Si1 0.611934 0.691953 0.112386
Si Si2 0.991734 0.494819 0.134438
Si Si3 0.755299 0.952738 0.941042
Si Si4 0.762036 0.412513 0.389325
Si Si5 0.665442 0.116687 0.371011
Si Si6 0.856222 0.544631 0.633345
Si Si7 0.052153 0.795573 0.034577
Si Si8 0.444225 0.729817 0.737609
O O1 0.321306 0.599474 0.255882
O O2 0.740138 0.770375 0.132427
O O3 0.796073 0.579385 0.003437
O O4 0.594010 0.812065 0.052536
O O5 0.075280 0.661901 0.083994
O O6 0.995501 0.470621 0.224852
O O7 0.691015 0.424472 0.232489
O O8 0.018057 0.917815 0.779134
O O9 0.883337 0.063539 0.947455
O O10 0.500000 0.000000 0.000000
O O11 0.500000 0.500000 0.500000
O O12 0.657518 0.250925 0.422781
O O13 0.903967 0.410439 0.410352
O O14 0.509890 0.153845 0.355717
O O15 0.500000 0.000000 0.500000
O O16 0.712340 0.687080 0.670232
O O17 0.000000 0.500000 0.500000
O O18 0.259363 0.803423 0.874156
#
# Coordination Sequence:
#
# PCOD8001026 Si02
#       8
#     2   2   2   2   2   2   2   2
#     4  11  22  43  67  98 132 175 223 288 335 395
#     4  10  19  40  71  95 128 169 224 273 340 388
#     4  12  28  41  65 102 143 180 232 278 334 421
#     4  11  26  44  69  99 136 181 225 275 350 406
#     4  11  26  48  68  94 144 186 224 275 351 412
#     4  12  25  40  70 104 132 166 234 290 333 406
#     4  11  21  40  72  98 129 174 223 274 347 389
#     4  10  20  43  68  99 127 170 228 280 331 400
#
# _framework density 20.260148000000001
#
# number of rings (size 3 to 8) (size 9 to 14) (size 15 to 20)
#    0.000    1.000    6.250    2.625    5.250    1.500 
#    0.000    0.625    0.000    0.000    0.000    0.000 
#    0.000    0.000    0.000    0.000    0.000    0.000 
#
# Total GULP energy -198247.506441 kJ/mol
# GULP energy per Si atom -12390.469153 kJ/mol
# Density = 2.021404 g / cm^3
# Si number density = 20.260148 Si / 1000 Ang^3
#
#
#
# Elastic Constant Matrix: (Units=GPa)
#
#
# Indices 1 2 3 4 5 6 
#
# 1 114.9339 30.1374 44.3894 1.6629 -0.0508 -13.5935
# 2 30.1374 110.5557 56.4872 -12.4608 4.0528 -17.3730
# 3 44.3894 56.4872 92.8765 -9.2256 12.3091 -6.9649
# 4 1.6629 -12.4608 -9.2256 35.2924 -12.0670 15.9243
# 5 -0.0508 4.0528 12.3091 -12.0670 32.7036 5.5221
# 6 -13.5935 -17.3730 -6.9649 15.9243 5.5221 36.1409
#
#
#
# Elastic Compliance Matrix: (Units=1/GPa)
#
#
# Indices 1 2 3 4 5 6 
#
# 1 0.011523 0.000018 -0.005502 -0.004574 -0.000509 0.005376
# 2 0.000018 0.014048 -0.008236 0.001103 0.001000 0.004534
# 3 -0.005502 -0.008236 0.019084 0.001572 -0.005211 -0.002247
# 4 -0.004574 0.001103 0.001572 0.048037 0.021261 -0.025302
# 5 -0.000509 0.001000 -0.005211 0.021261 0.043073 -0.016664
# 6 0.005376 0.004534 -0.002247 -0.025302 -0.016664 0.045133
#
#
# Mechanical properties :
#
#
# Convention : Reuss Voigt Hill
#
# Bulk Modulus (GPa) = 58.08742 64.48825 61.28783
# Shear Modulus (GPa) = 23.35630 33.31752 28.33691
#
# Velocity S-wave (km/s) = 3.39900 4.05962 3.74391
# Velocity P-wave (km/s) = 6.64359 7.33984 7.00038
#
# Compressibility (1/GPa) = 0.01721543
#
# Stress axis : x y z
#
# Youngs Moduli (GPa) = 86.78602 71.18241 52.40056
#
# Poissons Ratio (x) = -0.00127 0.28829
# Poissons Ratio (y) = -0.00155 0.43156
# Poissons Ratio (z) = 0.47747 0.58624
#
# Static dielectric constant tensor:
#      x y z
#    x 3.746750 -0.050870 0.193500 
#    y -0.050870 3.592440 0.129730 
#    z 0.193500 0.129730 3.521010 
# 
# 
# High freq. dielectric constant tensor:
#      x y z
#    x 1.796730 -0.010960 0.019240 
#    y -0.010960 1.797800 0.003110 
#    z 0.019240 0.003110 1.785380 
# 
# From -- ./inp_files/186720.got.cif
#   From: 2010.06.25/outbox.cif.g09.slc.cpg/sg2_94_cif.got.tgz:186720.got - 2010.06.27 13:26:56.
