data_PCOD8001714
_publ_section_title
;
Structure prediction by ZEFSAII (Michael W. Deem and Ramdas Pophale) SiO2 
 PCOD8001714
Probable space group: P -1
;
_chemical_formula_sum "Si O2"
_cell_formula_units_Z 16
_cell_length_a 21.898803
_cell_length_b 22.772302
_cell_length_c 11.816475
_cell_angle_alpha 36.494667
_cell_angle_beta 152.414649
_cell_angle_gamma 161.923470
_cell_volume 815.461860
_symmetry_space_group_name_H-M "P -1"
_symmetry_group_IT_number 2
_symmetry_cell_setting 'triclinic'
loop_
_space_group_symop_operation_xyz
x,y,z
-x,-y,-z
loop_
_atom_site_type_symbol
_atom_site_label
_atom_site_fract_x
_atom_site_fract_y
_atom_site_fract_z
Si Si1 0.579917 0.784444 0.636154
Si Si2 0.585656 0.403057 0.752062
Si Si3 0.852061 0.006083 0.264250
Si Si4 0.528176 0.972136 0.210323
Si Si5 0.103373 0.181432 0.980938
Si Si6 0.994790 0.274253 0.227163
Si Si7 0.900348 0.652488 0.446904
Si Si8 0.834646 0.709966 0.842214
O O1 0.508211 0.840419 0.370635
O O2 0.316284 0.570399 0.592440
O O3 0.694461 0.779804 0.740182
O O4 0.804893 0.947657 0.847140
O O5 0.450348 0.211158 0.861496
O O6 0.724914 0.534047 0.891616
O O7 0.366810 0.335787 0.452459
O O8 0.792271 0.521502 0.806051
O O9 0.994966 0.162020 0.355995
O O10 0.000000 0.000000 0.500000
O O11 0.885923 0.088059 0.074838
O O12 0.287262 0.859409 0.061576
O O13 0.818251 0.191336 0.392266
O O14 0.500000 0.000000 0.000000
O O15 0.183522 0.296338 0.823066
O O16 0.128326 0.267401 0.997723
O O17 0.063972 0.315827 0.408524
#
# Coordination Sequence:
#
# PCOD8001714 Si02
#       8
#     2   2   2   2   2   2   2   2
#     4  10  21  35  52  79 110 149 185 211 266 327
#     4   9  18  32  53  78 104 138 175 216 272 322
#     4   9  19  32  51  78 104 135 175 221 271 315
#     4   9  21  36  51  77 111 144 183 227 262 313
#     4  10  21  35  54  82 116 143 176 224 265 321
#     4  10  20  34  54  80 111 139 174 226 270 315
#     4  10  21  36  55  82 113 146 181 217 267 326
#     4   9  18  33  51  79 110 134 170 222 270 317
#
# _framework density 19.620781999999998
#
# number of rings (size 3 to 8) (size 9 to 14) (size 15 to 20)
#    0.000    2.500    0.000    1.875    0.000   15.000 
#    0.000    0.000    0.000   12.000    0.000   14.000 
#    0.000    0.000    0.000    0.000    0.000    0.000 
#
# Total GULP energy -198249.768028 kJ/mol
# GULP energy per Si atom -12390.610502 kJ/mol
# Density = 1.957612 g / cm^3
# Si number density = 19.620782 Si / 1000 Ang^3
#
#
#
# Elastic Constant Matrix: (Units=GPa)
#
#
# Indices 1 2 3 4 5 6 
#
# 1 89.4867 36.0128 28.6286 9.3240 -8.6936 12.2446
# 2 36.0128 156.8994 40.1538 15.0293 1.3084 26.1994
# 3 28.6286 40.1538 68.9958 -3.3703 7.0741 4.6332
# 4 9.3240 15.0293 -3.3703 23.4895 -0.9664 5.2331
# 5 -8.6936 1.3084 7.0741 -0.9664 23.8316 8.5063
# 6 12.2446 26.1994 4.6332 5.2331 8.5063 29.4073
#
#
#
# Elastic Compliance Matrix: (Units=1/GPa)
#
#
# Indices 1 2 3 4 5 6 
#
# 1 0.016264 -0.000112 -0.007526 -0.005325 0.010680 -0.007628
# 2 -0.000112 0.009590 -0.005634 -0.005015 0.003679 -0.007781
# 3 -0.007526 -0.005634 0.021967 0.007855 -0.010944 0.006460
# 4 -0.005325 -0.005015 0.007855 0.049687 -0.000861 -0.003145
# 5 0.010680 0.003679 -0.010944 -0.000861 0.056823 -0.022283
# 6 -0.007628 -0.007781 0.006460 -0.003145 -0.022283 0.050101
#
#
# Mechanical properties :
#
#
# Convention : Reuss Voigt Hill
#
# Bulk Modulus (GPa) = 47.00045 58.33026 52.66535
# Shear Modulus (GPa) = 21.00222 29.38478 25.19350
#
# Velocity S-wave (km/s) = 3.27526 3.87413 3.58721
# Velocity P-wave (km/s) = 6.18947 7.05728 6.63757
#
# Compressibility (1/GPa) = 0.02127639
#
# Stress axis : x y z
#
# Youngs Moduli (GPa) = 61.48611 104.27195 45.52184
#
# Poissons Ratio (x) = 0.01170 0.34260
# Poissons Ratio (y) = 0.00690 0.25649
# Poissons Ratio (z) = 0.46274 0.58751
#
# Static dielectric constant tensor:
#      x y z
#    x 3.682940 0.360200 0.393190 
#    y 0.360200 4.194500 0.333990 
#    z 0.393190 0.333990 3.768740 
# 
# 
# High freq. dielectric constant tensor:
#      x y z
#    x 1.743510 0.013480 0.007300 
#    y 0.013480 1.785600 0.011490 
#    z 0.007300 0.011490 1.729400 
# 
# From -- ./inp_files/431771.got.cif
#   From: 2010.06.25/outbox.cif.g09.slc.cpg/sg2_216_cif.got.tgz:431771.got - 2010.06.27 13:26:56.
