data_PCOD8001601
_publ_section_title
;
Structure prediction by ZEFSAII (Michael W. Deem and Ramdas Pophale) SiO2 
 PCOD8001601
Probable space group: P -1
;
_chemical_formula_sum "Si O2"
_cell_formula_units_Z 12
_cell_length_a 17.212754
_cell_length_b 7.569232
_cell_length_c 10.988211
_cell_angle_alpha 128.132563
_cell_angle_beta 41.992167
_cell_angle_gamma 143.236766
_cell_volume 572.380608
_symmetry_space_group_name_H-M "P -1"
_symmetry_group_IT_number 2
_symmetry_cell_setting 'triclinic'
loop_
_space_group_symop_operation_xyz
x,y,z
-x,-y,-z
loop_
_atom_site_type_symbol
_atom_site_label
_atom_site_fract_x
_atom_site_fract_y
_atom_site_fract_z
Si Si1 0.240817 0.137655 0.146466
Si Si2 0.308711 0.234391 0.370468
Si Si3 0.920314 0.715471 0.247428
Si Si4 0.919203 0.240432 0.154942
Si Si5 0.651922 0.608010 0.128912
Si Si6 0.799735 0.322888 0.855986
O O1 0.696997 0.668028 0.719428
O O2 0.344797 0.322074 0.987886
O O3 0.236340 0.860017 0.054021
O O4 0.067452 0.003894 0.268506
O O5 0.216793 0.278335 0.587422
O O6 0.481852 0.438013 0.303228
O O7 0.232333 0.888044 0.309094
O O8 0.864915 0.415653 0.247449
O O9 0.966589 0.734715 0.062773
O O10 0.019847 0.378150 0.221016
O O11 0.767749 0.899064 0.200735
O O12 0.687570 0.390633 0.005406
#
# Coordination Sequence:
#
# PCOD8001601 Si02
#       6
#     2   2   2   2   2   2
#     4   8  19  33  56  77 102 144 170 214 261 309
#     4  10  20  33  58  81 107 136 179 223 259 307
#     4   9  17  36  57  78 104 145 178 211 266 317
#     4   9  19  34  57  75 106 145 176 212 265 319
#     4  11  19  35  56  83 107 137 177 219 265 312
#     4   9  20  35  57  78 105 144 177 211 264 320
#
# _framework density 20.965070000000001
#
# number of rings (size 3 to 8) (size 9 to 14) (size 15 to 20)
#    1.000    1.667    0.000    3.000    0.000    0.667 
#    0.000    4.167    3.667    0.000    0.000    0.000 
#    0.000    0.000    0.000    0.000    0.000    0.000 
#
# Total GULP energy -148699.239009 kJ/mol
# GULP energy per Si atom -12391.603251 kJ/mol
# Density = 2.091735 g / cm^3
# Si number density = 20.965070 Si / 1000 Ang^3
#
#
#
# Elastic Constant Matrix: (Units=GPa)
#
#
# Indices 1 2 3 4 5 6 
#
# 1 39.9369 28.9375 21.9847 -1.2842 -15.6133 6.1255
# 2 28.9375 108.7972 71.6541 2.7726 -20.5414 26.5283
# 3 21.9847 71.6541 126.0476 6.7690 -38.7818 15.4535
# 4 -1.2842 2.7726 6.7690 15.7211 -2.1613 -5.7090
# 5 -15.6133 -20.5414 -38.7818 -2.1613 26.1118 1.2682
# 6 6.1255 26.5283 15.4535 -5.7090 1.2682 25.6134
#
#
#
# Elastic Compliance Matrix: (Units=1/GPa)
#
#
# Indices 1 2 3 4 5 6 
#
# 1 0.039135 -0.008651 0.007017 0.003604 0.027568 -0.005195
# 2 -0.008651 0.020865 -0.008291 -0.006744 -0.000855 -0.016000
# 3 0.007017 -0.008291 0.022559 -0.006961 0.031079 -0.009792
# 4 0.003604 -0.006744 -0.006961 0.077064 -0.008467 0.027919
# 5 0.027568 -0.000855 0.031079 -0.008467 0.101090 -0.031352
# 6 -0.005195 -0.016000 -0.009792 0.027919 -0.031352 0.070539
#
#
# Mechanical properties :
#
#
# Convention : Reuss Voigt Hill
#
# Bulk Modulus (GPa) = 15.94641 57.77048 36.85844
# Shear Modulus (GPa) = 13.44065 23.63629 18.53847
#
# Velocity S-wave (km/s) = 2.53474 3.36134 2.97687
# Velocity P-wave (km/s) = 4.02358 6.53301 5.42538
#
# Compressibility (1/GPa) = 0.06271006
#
# Stress axis : x y z
#
# Youngs Moduli (GPa) = 25.55231 47.92766 44.32723
#
# Poissons Ratio (x) = 0.41462 -0.31106
# Poissons Ratio (y) = 0.22105 0.36753
# Poissons Ratio (z) = -0.17931 0.39738
#
# Static dielectric constant tensor:
#      x y z
#    x 3.603190 0.170750 -0.139470 
#    y 0.170750 3.794880 0.140830 
#    z -0.139470 0.140830 3.295630 
# 
# 
# High freq. dielectric constant tensor:
#      x y z
#    x 1.809070 0.014530 -0.021440 
#    y 0.014530 1.817300 0.011480 
#    z -0.021440 0.011480 1.783170 
# 
# From -- ./inp_files/165417.got.cif
#   From: 2010.06.25/outbox.cif.g09.slc.cpg/sg2_83_cif.got.tgz:165417.got - 2010.06.27 13:26:56.
