data_PCOD8001500
_publ_section_title
;
Structure prediction by ZEFSAII (Michael W. Deem and Ramdas Pophale) SiO2 
 PCOD8001500
Probable space group: P -1
;
_chemical_formula_sum "Si O2"
_cell_formula_units_Z 14
_cell_length_a 15.181923
_cell_length_b 12.542800
_cell_length_c 15.137227
_cell_angle_alpha 53.104629
_cell_angle_beta 19.148821
_cell_angle_gamma 57.811720
_cell_volume 749.622894
_symmetry_space_group_name_H-M "P -1"
_symmetry_group_IT_number 2
_symmetry_cell_setting 'triclinic'
loop_
_space_group_symop_operation_xyz
x,y,z
-x,-y,-z
loop_
_atom_site_type_symbol
_atom_site_label
_atom_site_fract_x
_atom_site_fract_y
_atom_site_fract_z
Si Si1 0.795926 0.367351 0.264649
Si Si2 0.786744 0.165572 0.094867
Si Si3 0.790165 0.959971 0.345245
Si Si4 0.268621 0.568198 0.895741
Si Si5 0.012322 0.908077 0.730921
Si Si6 0.442521 0.904717 0.184585
Si Si7 0.691571 0.395543 0.535807
O O1 0.590424 0.382388 0.534421
O O2 0.953783 0.241710 0.197043
O O3 0.659707 0.352280 0.304650
O O4 0.000000 0.500000 0.000000
O O5 0.527233 0.093475 0.324470
O O6 0.833330 0.096014 0.178987
O O7 0.753910 0.321598 0.062482
O O8 0.050204 0.154759 0.791168
O O9 0.902661 0.988719 0.322056
O O10 0.004494 0.458376 0.204431
O O11 0.522453 0.486763 0.710825
O O12 0.200283 0.953751 0.446165
O O13 0.701809 0.911949 0.998823
O O14 0.347767 0.754167 0.312166
O O15 0.500000 0.000000 0.000000
#
# Coordination Sequence:
#
# PCOD8001500 Si02
#       7
#     2   2   2   2   2   2   2
#     4   9  18  31  47  76 110 143 170 204 250 328
#     4  10  20  33  52  76 114 146 182 215 249 306
#     4  10  20  35  50  79 108 148 184 215 252 313
#     4  11  19  33  51  79 110 149 171 210 264 312
#     4  11  21  36  57  79 109 145 177 220 272 320
#     4  11  23  39  57  81 106 137 182 234 273 318
#     4  10  21  33  51  77 107 140 183 212 264 331
#
# _framework density 18.676058000000001
#
# number of rings (size 3 to 8) (size 9 to 14) (size 15 to 20)
#    0.000    1.714    1.429    5.143    0.000    3.429 
#    0.000    0.000    0.000    0.000    0.000   20.000 
#    0.000    0.000    0.000    0.000    0.000    0.000 
#
# Total GULP energy -173558.047113 kJ/mol
# GULP energy per Si atom -12397.003365 kJ/mol
# Density = 1.863355 g / cm^3
# Si number density = 18.676058 Si / 1000 Ang^3
#
#
#
# Elastic Constant Matrix: (Units=GPa)
#
#
# Indices 1 2 3 4 5 6 
#
# 1 45.7267 27.4922 5.4143 -10.8967 2.3324 7.0550
# 2 27.4922 94.6172 23.1339 -0.9066 18.1156 11.8492
# 3 5.4143 23.1339 74.5186 3.4679 3.8638 -2.8381
# 4 -10.8967 -0.9066 3.4679 34.2841 -3.6836 7.5052
# 5 2.3324 18.1156 3.8638 -3.6836 23.1552 0.1218
# 6 7.0550 11.8492 -2.8381 7.5052 0.1218 23.4129
#
#
#
# Elastic Compliance Matrix: (Units=1/GPa)
#
#
# Indices 1 2 3 4 5 6 
#
# 1 0.031295 -0.008766 -0.000781 0.012415 0.005859 -0.009099
# 2 -0.008766 0.017186 -0.004204 -0.001922 -0.012136 -0.005887
# 3 -0.000781 -0.004204 0.015098 -0.002975 0.000348 0.005145
# 4 0.012415 -0.001922 -0.002975 0.037411 0.006780 -0.015157
# 5 0.005859 -0.012136 0.000348 0.006780 0.053101 0.001969
# 6 -0.009099 -0.005887 0.005145 -0.015157 0.001969 0.053905
#
#
# Mechanical properties :
#
#
# Convention : Reuss Voigt Hill
#
# Bulk Modulus (GPa) = 27.71738 36.32703 32.02221
# Shear Modulus (GPa) = 20.20018 26.75858 23.47938
#
# Velocity S-wave (km/s) = 3.29235 3.78931 3.54954
# Velocity P-wave (km/s) = 5.41536 6.21599 5.82943
#
# Compressibility (1/GPa) = 0.03607844
#
# Stress axis : x y z
#
# Youngs Moduli (GPa) = 31.95377 58.18643 66.23533
#
# Poissons Ratio (x) = 0.51004 0.05171
# Poissons Ratio (y) = 0.28010 0.27845
# Poissons Ratio (z) = 0.02494 0.24462
#
# Static dielectric constant tensor:
#      x y z
#    x 3.260240 0.106490 0.090400 
#    y 0.106490 3.433650 0.062440 
#    z 0.090400 0.062440 3.517250 
# 
# 
# High freq. dielectric constant tensor:
#      x y z
#    x 1.684770 0.020850 -0.005320 
#    y 0.020850 1.721060 0.011550 
#    z -0.005320 0.011550 1.734720 
# 
# From -- ./inp_files/64559.got.cif
#   From: 2010.06.25/outbox.cif.g09.slc.cpg/sg2_33_cif.got.tgz:64559.got - 2010.06.27 13:26:56.
