data_PCOD8001558
_publ_section_title
;
Structure prediction by ZEFSAII (Michael W. Deem and Ramdas Pophale) SiO2 
 PCOD8001558
Probable space group: P -1
;
_chemical_formula_sum "Si O2"
_cell_formula_units_Z 16
_cell_length_a 11.794021
_cell_length_b 7.476364
_cell_length_c 19.533865
_cell_angle_alpha 148.302306
_cell_angle_beta 136.608998
_cell_angle_gamma 60.491866
_cell_volume 582.789099
_symmetry_space_group_name_H-M "P -1"
_symmetry_group_IT_number 2
_symmetry_cell_setting 'triclinic'
loop_
_space_group_symop_operation_xyz
x,y,z
-x,-y,-z
loop_
_atom_site_type_symbol
_atom_site_label
_atom_site_fract_x
_atom_site_fract_y
_atom_site_fract_z
Si Si1 0.555298 0.118718 0.693700
Si Si2 0.493116 0.407009 0.352045
Si Si3 0.728272 0.616305 0.389319
Si Si4 0.147948 0.669814 0.006882
Si Si5 0.198056 0.779254 0.538277
Si Si6 0.889314 0.133178 0.228298
Si Si7 0.961755 0.741315 0.301943
Si Si8 0.806307 0.796452 0.944709
O O1 0.388331 0.252500 0.675930
O O2 0.700018 0.399968 0.800008
O O3 0.481821 0.734390 0.498630
O O4 0.659667 0.078972 0.797210
O O5 0.615351 0.545603 0.384791
O O6 0.597459 0.183372 0.367132
O O7 0.297213 0.166397 0.159667
O O8 0.750177 0.248633 0.250192
O O9 0.922050 0.920472 0.585073
O O10 0.132818 0.625776 0.902548
O O11 0.001366 0.815984 0.018177
O O12 0.115251 0.262715 0.884626
O O13 0.107098 0.678631 0.392892
O O14 0.085068 0.431425 0.422093
O O15 0.182734 0.147137 0.682751
O O16 0.824095 0.110286 0.111694
#
# Coordination Sequence:
#
# PCOD8001558 Si02
#       8
#     2   2   2   2   2   2   2   2
#     4  10  20  33  55  83 111 137 173 224 265 308
#     4  11  20  35  57  80 107 141 179 216 263 316
#     4  10  20  35  56  81 108 139 177 219 264 315
#     4  11  20  35  57  80 107 141 179 216 263 316
#     4  10  21  37  56  79 108 140 176 219 264 313
#     4  10  20  35  56  81 108 139 177 219 264 315
#     4  10  21  37  56  79 108 140 176 219 264 313
#     4  10  20  33  55  83 111 137 173 224 265 308
#
# _framework density 27.454187000000001
#
# number of rings (size 3 to 8) (size 9 to 14) (size 15 to 20)
#    0.000    1.750    0.000    7.500    0.000    7.500 
#    0.000    6.250    0.000    4.500    0.000    0.000 
#    0.000    0.000    0.000    0.000    0.000    0.000 
#
# Total GULP energy -198436.910894 kJ/mol
# GULP energy per Si atom -12402.306931 kJ/mol
# Density = 2.739170 g / cm^3
# Si number density = 27.454187 Si / 1000 Ang^3
#
#
#
# Elastic Constant Matrix: (Units=GPa)
#
#
# Indices 1 2 3 4 5 6 
#
# 1 97.5115 30.3179 73.9068 -3.6140 -9.9227 -28.8790
# 2 30.3179 125.7695 60.1860 -16.9945 -10.5305 -31.1804
# 3 73.9068 60.1860 183.2599 -16.1999 2.8491 -32.1034
# 4 -3.6140 -16.9945 -16.1999 40.0391 4.8322 -4.1859
# 5 -9.9227 -10.5305 2.8491 4.8322 46.9606 -5.7293
# 6 -28.8790 -31.1804 -32.1034 -4.1859 -5.7293 33.7900
#
#
#
# Elastic Compliance Matrix: (Units=1/GPa)
#
#
# Indices 1 2 3 4 5 6 
#
# 1 0.018839 0.002441 -0.005979 0.000988 0.006484 0.013895
# 2 0.002441 0.012949 -0.002528 0.005507 0.004604 0.013096
# 3 -0.005979 -0.002528 0.009160 0.002516 -0.002505 0.001148
# 4 0.000988 0.005507 0.002516 0.029706 -0.000309 0.011944
# 5 0.006484 0.004604 -0.002505 -0.000309 0.025304 0.011663
# 6 0.013895 0.013096 0.001148 0.011944 0.011663 0.058103
#
#
# Mechanical properties :
#
#
# Convention : Reuss Voigt Hill
#
# Bulk Modulus (GPa) = 34.70076 81.70690 58.20383
# Shear Modulus (GPa) = 28.44176 40.29995 34.37086
#
# Velocity S-wave (km/s) = 3.22214 3.83547 3.54211
# Velocity P-wave (km/s) = 5.14878 7.03138 6.16239
#
# Compressibility (1/GPa) = 0.02881782
#
# Stress axis : x y z
#
# Youngs Moduli (GPa) = 53.08029 77.22866 109.16471
#
# Poissons Ratio (x) = -0.18851 0.65266
# Poissons Ratio (y) = -0.12956 0.27591
# Poissons Ratio (z) = 0.31735 0.19520
#
# Static dielectric constant tensor:
#      x y z
#    x 5.262650 0.629260 -0.021210 
#    y 0.629260 5.887690 -0.632490 
#    z -0.021210 -0.632490 5.568150 
# 
# 
# High freq. dielectric constant tensor:
#      x y z
#    x 2.131270 0.033590 0.011150 
#    y 0.033590 2.138140 -0.007650 
#    z 0.011150 -0.007650 2.122810 
# 
# From -- ./inp_files/347708.got.cif
#   From: 2010.06.25/outbox.cif.g09.slc.cpg/sg2_174_cif.got.tgz:347708.got - 2010.06.27 13:26:56.
