data_PCOD8001638
_publ_section_title
;
Structure prediction by ZEFSAII (Michael W. Deem and Ramdas Pophale) SiO2 
 PCOD8001638
Probable space group: P -1
;
_chemical_formula_sum "Si O2"
_cell_formula_units_Z 16
_cell_length_a 12.711801
_cell_length_b 11.588597
_cell_length_c 16.520573
_cell_angle_alpha 117.373590
_cell_angle_beta 25.927321
_cell_angle_gamma 128.779636
_cell_volume 790.348931
_symmetry_space_group_name_H-M "P -1"
_symmetry_group_IT_number 2
_symmetry_cell_setting 'triclinic'
loop_
_space_group_symop_operation_xyz
x,y,z
-x,-y,-z
loop_
_atom_site_type_symbol
_atom_site_label
_atom_site_fract_x
_atom_site_fract_y
_atom_site_fract_z
Si Si1 0.304072 0.416801 0.031250
Si Si2 0.520233 0.840857 0.784117
Si Si3 0.397778 0.222922 0.791804
Si Si4 0.750345 0.158347 0.419062
Si Si5 0.832023 0.067639 0.036910
Si Si6 0.002388 0.846770 0.365848
Si Si7 0.302560 0.694859 0.054189
Si Si8 0.081346 0.042920 0.225661
O O1 0.235014 0.526173 0.064707
O O2 0.997163 0.263168 0.216782
O O3 0.500000 0.500000 0.000000
O O4 0.486848 0.371308 0.833984
O O5 0.328121 0.845532 0.847200
O O6 0.717707 0.781616 0.595752
O O7 0.716867 0.015129 0.738702
O O8 0.318758 0.722677 0.955513
O O9 0.632447 0.257635 0.571701
O O10 0.374475 0.087608 0.819385
O O11 0.103143 0.181703 0.941173
O O12 0.888988 0.115540 0.382037
O O13 0.500000 0.000000 0.500000
O O14 0.942280 0.028315 0.868302
O O15 0.047813 0.707904 0.272084
O O16 0.952395 0.906760 0.336072
O O17 0.595116 0.824091 0.935585
#
# Coordination Sequence:
#
# PCOD8001638 Si02
#       8
#     2   2   2   2   2   2   2   2
#     4  12  26  45  61  91 135 174 205 262 321 376
#     4  10  20  35  61  93 121 160 212 263 310 373
#     4  11  24  38  63  93 124 170 213 256 318 381
#     4  12  23  41  68  96 125 165 216 263 310 379
#     4  11  18  39  64  90 129 159 207 272 318 360
#     4  10  20  33  61  95 120 160 213 261 310 370
#     4  11  21  39  60  87 131 168 204 253 323 372
#     4  11  18  38  64  93 125 162 206 271 315 360
#
# _framework density 20.244223000000002
#
# number of rings (size 3 to 8) (size 9 to 14) (size 15 to 20)
#    0.000    1.000    6.250    2.250    0.000    1.500 
#    0.000    0.625    0.000    3.750    0.000    0.000 
#    0.000    0.000    0.000    0.000    0.000    0.000 
#
# Total GULP energy -198428.435304 kJ/mol
# GULP energy per Si atom -12401.777206 kJ/mol
# Density = 2.019815 g / cm^3
# Si number density = 20.244223 Si / 1000 Ang^3
#
#
#
# Elastic Constant Matrix: (Units=GPa)
#
#
# Indices 1 2 3 4 5 6 
#
# 1 111.9726 33.2842 28.2293 6.6483 -7.5244 -15.8810
# 2 33.2842 78.7582 44.6461 14.7219 -7.7203 -7.9541
# 3 28.2293 44.6461 113.2588 26.7425 -2.1794 -4.5326
# 4 6.6483 14.7219 26.7425 28.4337 -4.8615 -0.1399
# 5 -7.5244 -7.7203 -2.1794 -4.8615 25.3906 14.5811
# 6 -15.8810 -7.9541 -4.5326 -0.1399 14.5811 31.1888
#
#
#
# Elastic Compliance Matrix: (Units=1/GPa)
#
#
# Indices 1 2 3 4 5 6 
#
# 1 0.010911 -0.003567 -0.001220 0.000360 -0.000621 0.004760
# 2 -0.003567 0.018247 -0.005548 -0.002853 0.003157 0.000542
# 3 -0.001220 -0.005548 0.013784 -0.010458 -0.003857 0.001724
# 4 0.000360 -0.002853 -0.010458 0.048388 0.011848 -0.007386
# 5 -0.000621 0.003157 -0.003857 0.011848 0.057563 -0.026930
# 6 0.004760 0.000542 0.001724 -0.007386 -0.026930 0.047432
#
#
# Mechanical properties :
#
#
# Convention : Reuss Voigt Hill
#
# Bulk Modulus (GPa) = 44.89722 57.36764 51.13243
# Shear Modulus (GPa) = 22.27981 30.19127 26.23554
#
# Velocity S-wave (km/s) = 3.32105 3.86599 3.60384
# Velocity P-wave (km/s) = 6.07716 6.95177 6.52913
#
# Compressibility (1/GPa) = 0.02227309
#
# Stress axis : x y z
#
# Youngs Moduli (GPa) = 91.65368 54.80368 72.54625
#
# Poissons Ratio (x) = 0.19548 0.08850
# Poissons Ratio (y) = 0.32692 0.40246
# Poissons Ratio (z) = 0.11181 0.30403
#
# Static dielectric constant tensor:
#      x y z
#    x 3.959780 -0.151860 0.065630 
#    y -0.151860 3.387910 0.216980 
#    z 0.065630 0.216980 3.814680 
# 
# 
# High freq. dielectric constant tensor:
#      x y z
#    x 1.804410 -0.009340 0.002090 
#    y -0.009340 1.755420 0.024450 
#    z 0.002090 0.024450 1.795540 
# 
# From -- ./inp_files/457424.got.cif
#   From: 2010.06.25/outbox.cif.g09.slc.cpg/sg2_229_cif.got.tgz:457424.got - 2010.06.27 13:26:56.
