data_PCOD8001518
_publ_section_title
;
Structure prediction by ZEFSAII (Michael W. Deem and Ramdas Pophale) SiO2 
 PCOD8001518
Probable space group: P -1
;
_chemical_formula_sum "Si O2"
_cell_formula_units_Z 16
_cell_length_a 19.232940
_cell_length_b 17.426519
_cell_length_c 5.077869
_cell_angle_alpha 116.241043
_cell_angle_beta 78.213314
_cell_angle_gamma 145.776405
_cell_volume 813.466967
_symmetry_space_group_name_H-M "P -1"
_symmetry_group_IT_number 2
_symmetry_cell_setting 'triclinic'
loop_
_space_group_symop_operation_xyz
x,y,z
-x,-y,-z
loop_
_atom_site_type_symbol
_atom_site_label
_atom_site_fract_x
_atom_site_fract_y
_atom_site_fract_z
Si Si1 0.351583 0.360392 0.815073
Si Si2 0.279121 0.389453 0.402677
Si Si3 0.166809 0.020401 0.395920
Si Si4 0.703722 0.027374 0.879927
Si Si5 0.601347 0.314555 0.392740
Si Si6 0.010344 0.909282 0.851851
Si Si7 0.371618 0.759272 0.239139
Si Si8 0.322451 0.897889 0.484694
O O1 0.657642 0.584117 0.339850
O O2 0.289812 0.207795 0.542282
O O3 0.500000 0.500000 0.000000
O O4 0.272192 0.312819 0.057955
O O5 0.368129 0.555960 0.482107
O O6 0.131556 0.272240 0.387750
O O7 0.210046 0.967807 0.234135
O O8 0.113357 0.976838 0.665998
O O9 0.052283 0.924736 0.134713
O O10 0.735526 0.129350 0.787427
O O11 0.553543 0.849065 0.728782
O O12 0.743403 0.111971 0.251166
O O13 0.662930 0.342925 0.659936
O O14 0.667306 0.323624 0.130218
O O15 0.000000 0.000000 0.000000
O O16 0.290665 0.765317 0.348625
O O17 0.523394 0.933822 0.382643
#
# Coordination Sequence:
#
# PCOD8001518 Si02
#       8
#     2   2   2   2   2   2   2   2
#     4  12  24  38  58  83 115 148 182 224 291 352
#     4  12  24  39  58  82 112 151 191 235 279 321
#     4  12  23  39  59  83 110 151 192 237 285 320
#     4  10  20  33  53  83 117 141 179 231 280 338
#     4  10  20  34  53  83 117 143 179 229 280 336
#     4  12  23  42  61  78 106 151 205 245 266 321
#     4   9  17  31  53  80 114 149 178 214 275 345
#     4   9  17  31  52  81 114 148 177 216 276 342
#
# _framework density 19.668899
#
# number of rings (size 3 to 8) (size 9 to 14) (size 15 to 20)
#    0.000    1.250    2.500    4.500    0.000    6.000 
#    0.000    0.000    0.000    0.000    0.000   17.500 
#    0.000    0.000    0.000    0.000    0.000    0.000 
#
# Total GULP energy -198436.549945 kJ/mol
# GULP energy per Si atom -12402.284372 kJ/mol
# Density = 1.962413 g / cm^3
# Si number density = 19.668899 Si / 1000 Ang^3
#
#
#
# Elastic Constant Matrix: (Units=GPa)
#
#
# Indices 1 2 3 4 5 6 
#
# 1 108.1704 31.2092 36.8145 -7.0814 -1.1629 -2.7854
# 2 31.2092 55.8699 23.3742 -13.3825 9.0066 -1.6247
# 3 36.8145 23.3742 85.2954 -25.1223 4.6806 3.5081
# 4 -7.0814 -13.3825 -25.1223 32.8762 6.2600 3.7820
# 5 -1.1629 9.0066 4.6806 6.2600 40.2626 -12.2883
# 6 -2.7854 -1.6247 3.5081 3.7820 -12.2883 23.7268
#
#
#
# Elastic Compliance Matrix: (Units=1/GPa)
#
#
# Indices 1 2 3 4 5 6 
#
# 1 0.013168 -0.007021 -0.006208 -0.006478 0.005464 0.005845
# 2 -0.007021 0.025943 0.000129 0.011663 -0.009641 -0.005919
# 3 -0.006208 0.000129 0.020332 0.017135 -0.008560 -0.010891
# 4 -0.006478 0.011663 0.017135 0.052980 -0.019437 -0.021006
# 5 0.005464 -0.009641 -0.008560 -0.019437 0.038595 0.024334
# 6 0.005845 -0.005919 -0.010891 -0.021006 0.024334 0.059988
#
#
# Mechanical properties :
#
#
# Convention : Reuss Voigt Hill
#
# Bulk Modulus (GPa) = 30.08175 48.01461 39.04818
# Shear Modulus (GPa) = 20.13785 29.90232 25.02009
#
# Velocity S-wave (km/s) = 3.20323 3.90331 3.57047
# Velocity P-wave (km/s) = 5.38592 6.69170 6.07400
#
# Compressibility (1/GPa) = 0.03324275
#
# Stress axis : x y z
#
# Youngs Moduli (GPa) = 75.93963 38.54666 49.18249
#
# Poissons Ratio (x) = 0.27065 0.30531
# Poissons Ratio (y) = 0.53319 -0.00633
# Poissons Ratio (z) = 0.47142 -0.00496
#
# Static dielectric constant tensor:
#      x y z
#    x 3.185420 -0.472230 -0.232800 
#    y -0.472230 3.168050 -0.433250 
#    z -0.232800 -0.433250 3.632300 
# 
# 
# High freq. dielectric constant tensor:
#      x y z
#    x 1.770230 -0.014300 -0.001710 
#    y -0.014300 1.740640 -0.024780 
#    z -0.001710 -0.024780 1.773890 
# 
# From -- ./inp_files/111531.got.cif
#   From: 2010.06.25/outbox.cif.g09.slc.cpg/sg2_56_cif.got.tgz:111531.got - 2010.06.27 13:26:56.
