data_PCOD8001805
_publ_section_title
;
Structure prediction by ZEFSAII (Michael W. Deem and Ramdas Pophale) SiO2 
 PCOD8001805
Probable space group: P -1
;
_chemical_formula_sum "Si O2"
_cell_formula_units_Z 12
_cell_length_a 12.921350
_cell_length_b 9.914890
_cell_length_c 8.453602
_cell_angle_alpha 72.438170
_cell_angle_beta 100.873415
_cell_angle_gamma 143.137880
_cell_volume 616.772482
_symmetry_space_group_name_H-M "P -1"
_symmetry_group_IT_number 2
_symmetry_cell_setting 'triclinic'
loop_
_space_group_symop_operation_xyz
x,y,z
-x,-y,-z
loop_
_atom_site_type_symbol
_atom_site_label
_atom_site_fract_x
_atom_site_fract_y
_atom_site_fract_z
Si Si1 0.305947 0.650503 0.980961
Si Si2 0.546133 0.608046 0.643958
Si Si3 0.143772 0.188537 0.176401
Si Si4 0.219177 0.141518 0.882319
Si Si5 0.513871 0.882020 0.661566
Si Si6 0.688079 0.063559 0.965408
O O1 0.180982 0.392678 0.086904
O O2 0.223334 0.708117 0.003260
O O3 0.336848 0.683938 0.786494
O O4 0.492291 0.832221 0.057602
O O5 0.500000 0.500000 0.500000
O O6 0.741027 0.757720 0.672466
O O7 0.408890 0.397827 0.801643
O O8 0.539857 0.771097 0.599025
O O9 0.192042 0.151751 0.050779
O O10 0.936687 0.958606 0.234370
O O11 0.202979 0.954904 0.940722
O O12 0.500000 0.000000 0.500000
O O13 0.675125 0.067745 0.767293
#
# Coordination Sequence:
#
# PCOD8001805 Si02
#       6
#     2   2   2   2   2   2
#     4   9  18  34  60  83 114 146 196 234 287 333
#     4  12  24  37  62  86 121 155 188 238 295 343
#     4  11  21  39  64  86 112 152 200 245 284 335
#     4  11  21  39  64  86 112 152 200 245 284 335
#     4  10  20  34  56  88 115 152 193 225 290 356
#     4   9  18  34  60  83 114 146 196 234 287 333
#
# _framework density 19.456119999999999
#
# number of rings (size 3 to 8) (size 9 to 14) (size 15 to 20)
#    1.000    0.667    5.000    0.500    4.667    1.333 
#    0.000    0.000    0.000    2.000    0.000    0.000 
#    0.000    0.000    0.000    0.000    0.000    0.000 
#
# Total GULP energy -148677.284114 kJ/mol
# GULP energy per Si atom -12389.773676 kJ/mol
# Density = 1.941184 g / cm^3
# Si number density = 19.456120 Si / 1000 Ang^3
#
#
#
# Elastic Constant Matrix: (Units=GPa)
#
#
# Indices 1 2 3 4 5 6 
#
# 1 115.1101 46.8934 33.9337 16.4150 18.2251 -26.6961
# 2 46.8934 53.5616 9.9011 8.5844 7.3589 -12.3887
# 3 33.9337 9.9011 52.2184 11.3632 16.2058 -4.8167
# 4 16.4150 8.5844 11.3632 27.2552 -5.2295 5.8632
# 5 18.2251 7.3589 16.2058 -5.2295 28.7390 5.9436
# 6 -26.6961 -12.3887 -4.8167 5.8632 5.9436 49.4564
#
#
#
# Elastic Compliance Matrix: (Units=1/GPa)
#
#
# Indices 1 2 3 4 5 6 
#
# 1 0.020542 -0.011130 -0.003730 -0.012050 -0.012514 0.010869
# 2 -0.011130 0.030086 0.004937 -0.006594 -0.005339 0.003433
# 3 -0.003730 0.004937 0.032071 -0.018402 -0.021811 0.007150
# 4 -0.012050 -0.006594 -0.018402 0.065378 0.036163 -0.022045
# 5 -0.012514 -0.005339 -0.021811 0.036163 0.067660 -0.022635
# 6 0.010869 0.003433 0.007150 -0.022045 -0.022635 0.032977
#
#
# Mechanical properties :
#
#
# Convention : Reuss Voigt Hill
#
# Bulk Modulus (GPa) = 15.91031 44.70518 30.30775
# Shear Modulus (GPa) = 17.27054 29.76758 23.51906
#
# Velocity S-wave (km/s) = 2.98261 3.91575 3.48059
# Velocity P-wave (km/s) = 4.47845 6.59329 5.63595
#
# Compressibility (1/GPa) = 0.06285234
#
# Stress axis : x y z
#
# Youngs Moduli (GPa) = 48.68191 33.23772 31.18081
#
# Poissons Ratio (x) = 0.36994 0.11630
# Poissons Ratio (y) = 0.54183 -0.15393
# Poissons Ratio (z) = 0.18158 -0.16408
#
# Static dielectric constant tensor:
#      x y z
#    x 3.772960 -0.167700 -0.024850 
#    y -0.167700 3.507080 0.213630 
#    z -0.024850 0.213630 3.117010 
# 
# 
# High freq. dielectric constant tensor:
#      x y z
#    x 1.770230 -0.021570 0.004010 
#    y -0.021570 1.749030 0.010950 
#    z 0.004010 0.010950 1.719500 
# 
# From -- ./inp_files/237802.got.cif
#   From: 2010.06.25/outbox.cif.g09.slc.cpg/sg2_119_cif.got.tgz:237802.got - 2010.06.27 13:26:56.
