data_PCOD8001827
_publ_section_title
;
Structure prediction by ZEFSAII (Michael W. Deem and Ramdas Pophale) SiO2 
 PCOD8001827
Probable space group: P -1
;
_chemical_formula_sum "Si O2"
_cell_formula_units_Z 16
_cell_length_a 11.156425
_cell_length_b 9.017944
_cell_length_c 11.374239
_cell_angle_alpha 90.723501
_cell_angle_beta 91.703997
_cell_angle_gamma 41.350829
_cell_volume 755.612661
_symmetry_space_group_name_H-M "P -1"
_symmetry_group_IT_number 2
_symmetry_cell_setting 'triclinic'
loop_
_space_group_symop_operation_xyz
x,y,z
-x,-y,-z
loop_
_atom_site_type_symbol
_atom_site_label
_atom_site_fract_x
_atom_site_fract_y
_atom_site_fract_z
Si Si1 0.474821 0.350645 0.488739
Si Si2 0.052415 0.301227 0.062897
Si Si3 0.686940 0.464206 0.027158
Si Si4 0.649675 0.559395 0.281820
Si Si5 0.775312 0.117537 0.327067
Si Si6 0.015241 0.572129 0.681296
Si Si7 0.059785 0.663009 0.438159
Si Si8 0.675143 0.145961 0.065070
O O1 0.500000 0.500000 0.500000
O O2 0.506167 0.260503 0.623283
O O3 0.625788 0.160622 0.397656
O O4 0.275705 0.483556 0.443564
O O5 0.886324 0.345045 0.032938
O O6 0.096906 0.278417 0.203100
O O7 0.000000 0.500000 0.000000
O O8 0.234738 0.069388 0.007940
O O9 0.580655 0.584642 0.150700
O O10 0.710580 0.268339 0.999761
O O11 0.545804 0.670427 0.932921
O O12 0.758022 0.312266 0.333190
O O13 0.776566 0.586434 0.279361
O O14 0.762014 0.068351 0.194941
O O15 0.970443 0.895077 0.385517
O O16 0.972070 0.708045 0.564069
O O17 0.986946 0.425916 0.654061
#
# Coordination Sequence:
#
# PCOD8001827 Si02
#       8
#     2   2   2   2   2   2   2   2
#     4   9  19  34  55  84 108 134 179 225 270 324
#     4  11  22  37  58  84 113 148 192 234 277 333
#     4   9  20  39  58  80 115 149 186 238 280 326
#     4   8  17  36  56  80 112 142 183 230 273 328
#     4  10  20  34  57  85 109 143 186 226 273 328
#     4   9  20  37  55  80 112 148 183 221 279 336
#     4  10  20  38  58  78 114 147 176 228 278 326
#     4  10  21  37  58  84 113 151 191 228 280 332
#
# _framework density 21.174869999999999
#
# number of rings (size 3 to 8) (size 9 to 14) (size 15 to 20)
#    0.000    2.500    0.000    1.125    0.000    8.000 
#    0.000   18.125    0.000    0.000    0.000    0.000 
#    0.000    0.000    0.000    0.000    0.000    0.000 
#
# Total GULP energy -198218.062220 kJ/mol
# GULP energy per Si atom -12388.628889 kJ/mol
# Density = 2.112668 g / cm^3
# Si number density = 21.174870 Si / 1000 Ang^3
#
#
#
# Elastic Constant Matrix: (Units=GPa)
#
#
# Indices 1 2 3 4 5 6 
#
# 1 72.3612 11.1401 5.3279 7.2346 9.7180 10.0388
# 2 11.1401 71.1723 18.7991 1.9884 2.3030 2.3233
# 3 5.3279 18.7991 76.0022 14.0904 2.1454 4.1051
# 4 7.2346 1.9884 14.0904 34.7514 -3.5167 1.9736
# 5 9.7180 2.3030 2.1454 -3.5167 28.4896 3.9542
# 6 10.0388 2.3233 4.1051 1.9736 3.9542 21.1973
#
#
#
# Elastic Compliance Matrix: (Units=1/GPa)
#
#
# Indices 1 2 3 4 5 6 
#
# 1 0.015990 -0.002189 0.000556 -0.003573 -0.004901 -0.006194
# 2 -0.002189 0.015383 -0.003860 0.001134 -0.000067 0.000005
# 3 0.000556 -0.003860 0.015366 -0.006168 -0.001524 -0.001957
# 4 -0.003573 0.001134 -0.006168 0.032621 0.005807 -0.001358
# 5 -0.004901 -0.000067 -0.001524 0.005807 0.038312 -0.005064
# 6 -0.006194 0.000005 -0.001957 -0.001358 -0.005064 0.051559
#
#
# Mechanical properties :
#
#
# Convention : Reuss Voigt Hill
#
# Bulk Modulus (GPa) = 27.97023 32.23000 30.10011
# Shear Modulus (GPa) = 26.02346 29.17221 27.59784
#
# Velocity S-wave (km/s) = 3.50948 3.71574 3.61408
# Velocity P-wave (km/s) = 5.44608 5.80197 5.62684
#
# Compressibility (1/GPa) = 0.03575230
#
# Stress axis : x y z
#
# Youngs Moduli (GPa) = 62.53781 65.00703 65.08032
#
# Poissons Ratio (x) = 0.14231 -0.03617
# Poissons Ratio (y) = 0.13690 0.25121
# Poissons Ratio (z) = -0.03476 0.25093
#
# Static dielectric constant tensor:
#      x y z
#    x 3.961950 -0.068170 -0.121490 
#    y -0.068170 3.486960 0.206430 
#    z -0.121490 0.206430 4.351950 
# 
# 
# High freq. dielectric constant tensor:
#      x y z
#    x 1.828190 0.004510 0.008090 
#    y 0.004510 1.792210 0.006430 
#    z 0.008090 0.006430 1.846840 
# 
# From -- ./inp_files/417364.got.cif
#   From: 2010.06.25/outbox.cif.g09.slc.cpg/sg2_209_cif.got.tgz:417364.got - 2010.06.27 13:26:56.
