data_PCOD8001563
_publ_section_title
;
Structure prediction by ZEFSAII (Michael W. Deem and Ramdas Pophale) SiO2 
 PCOD8001563
Probable space group: P -1
;
_chemical_formula_sum "Si O2"
_cell_formula_units_Z 16
_cell_length_a 9.033331
_cell_length_b 11.780394
_cell_length_c 17.293794
_cell_angle_alpha 53.377697
_cell_angle_beta 145.005828
_cell_angle_gamma 112.485473
_cell_volume 824.192928
_symmetry_space_group_name_H-M "P -1"
_symmetry_group_IT_number 2
_symmetry_cell_setting 'triclinic'
loop_
_space_group_symop_operation_xyz
x,y,z
-x,-y,-z
loop_
_atom_site_type_symbol
_atom_site_label
_atom_site_fract_x
_atom_site_fract_y
_atom_site_fract_z
Si Si1 0.414404 0.540435 0.361382
Si Si2 0.734188 0.171375 0.032019
Si Si3 0.903795 0.897159 0.919390
Si Si4 0.211221 0.594584 0.559342
Si Si5 0.419170 0.873565 0.229667
Si Si6 0.819620 0.614079 0.073643
Si Si7 0.517697 0.541453 0.115172
Si Si8 0.224221 0.123837 0.745267
O O1 0.500000 0.500000 0.500000
O O2 0.587340 0.440282 0.411690
O O3 0.439674 0.704410 0.301807
O O4 0.118543 0.521397 0.228415
O O5 0.999819 0.170131 0.095647
O O6 0.806627 0.026735 0.172206
O O7 0.697450 0.315438 0.008977
O O8 0.456380 0.185645 0.861411
O O9 0.654897 0.041996 0.753645
O O10 0.811803 0.781441 0.983034
O O11 0.164611 0.950842 0.037541
O O12 0.354934 0.558057 0.717885
O O13 0.000000 0.500000 0.500000
O O14 0.059896 0.763403 0.418940
O O15 0.687604 0.903922 0.295627
O O16 0.736421 0.595391 0.134674
O O17 0.626396 0.558689 0.955640
#
# Coordination Sequence:
#
# PCOD8001563 Si02
#       8
#     2   2   2   2   2   2   2   2
#     4  11  23  35  58  89 120 151 188 241 293 341
#     4  10  20  33  58  84 114 157 191 235 287 350
#     4   9  18  33  54  83 112 143 193 236 286 338
#     4  12  21  37  59  90 121 152 194 242 293 339
#     4   9  17  32  51  80 116 146 180 234 286 338
#     4  10  23  39  60  86 112 156 199 237 291 348
#     4  11  22  40  63  82 116 157 200 240 285 353
#     4  10  20  33  55  87 118 150 190 235 290 347
#
# _framework density 19.412929999999999
#
# number of rings (size 3 to 8) (size 9 to 14) (size 15 to 20)
#    0.000    1.750    2.500    3.000    1.750    4.000 
#    0.000    0.000    2.750    3.750    0.000    0.000 
#    0.000    0.000    0.000    0.000    0.000    0.000 
#
# Total GULP energy -198254.648846 kJ/mol
# GULP energy per Si atom -12390.915553 kJ/mol
# Density = 1.936875 g / cm^3
# Si number density = 19.412930 Si / 1000 Ang^3
#
#
#
# Elastic Constant Matrix: (Units=GPa)
#
#
# Indices 1 2 3 4 5 6 
#
# 1 168.9830 36.3173 61.1849 -18.9644 18.8905 -7.8349
# 2 36.3173 57.0675 33.7083 -18.3381 6.4816 -3.4416
# 3 61.1849 33.7083 97.7130 -23.5378 4.5828 -5.7491
# 4 -18.9644 -18.3381 -23.5378 32.3698 -8.5212 6.4158
# 5 18.8905 6.4816 4.5828 -8.5212 35.6150 -7.7072
# 6 -7.8349 -3.4416 -5.7491 6.4158 -7.7072 32.2533
#
#
#
# Elastic Compliance Matrix: (Units=1/GPa)
#
#
# Indices 1 2 3 4 5 6 
#
# 1 0.008370 -0.002568 -0.004339 -0.000688 -0.003517 0.000282
# 2 -0.002568 0.024956 -0.004819 0.009139 -0.000539 -0.000767
# 3 -0.004339 -0.004819 0.016244 0.007195 0.002939 0.000598
# 4 -0.000688 0.009139 0.007195 0.043761 0.007187 -0.004897
# 5 -0.003517 -0.000539 0.002939 0.007187 0.032680 0.005992
# 6 0.000282 -0.000767 0.000598 -0.004897 0.005992 0.033504
#
#
# Mechanical properties :
#
#
# Convention : Reuss Voigt Hill
#
# Bulk Modulus (GPa) = 38.29019 65.13163 51.71091
# Shear Modulus (GPa) = 26.08603 32.88449 29.48526
#
# Velocity S-wave (km/s) = 3.66969 4.12022 3.90147
# Velocity P-wave (km/s) = 6.14186 7.50057 6.85496
#
# Compressibility (1/GPa) = 0.02611635
#
# Stress axis : x y z
#
# Youngs Moduli (GPa) = 119.47608 40.07085 61.56048
#
# Poissons Ratio (x) = 0.10291 0.26713
# Poissons Ratio (y) = 0.30683 0.29668
# Poissons Ratio (z) = 0.51844 0.19311
#
# Static dielectric constant tensor:
#      x y z
#    x 4.154430 -0.123520 0.318310 
#    y -0.123520 3.337710 -0.348360 
#    z 0.318310 -0.348360 3.706360 
# 
# 
# High freq. dielectric constant tensor:
#      x y z
#    x 1.781520 -0.000970 0.014400 
#    y -0.000970 1.736690 -0.029490 
#    z 0.014400 -0.029490 1.729510 
# 
# From -- ./inp_files/389808.got.cif
#   From: 2010.06.25/outbox.cif.g09.slc.cpg/sg2_195_cif.got.tgz:389808.got - 2010.06.27 13:26:56.
