data_PCOD8001222
_publ_section_title
;
Structure prediction by ZEFSAII (Michael W. Deem and Ramdas Pophale) SiO2 
 PCOD8001222
Probable space group: P -1
;
_chemical_formula_sum "Si O2"
_cell_formula_units_Z 10
_cell_length_a 6.490686
_cell_length_b 13.109822
_cell_length_c 11.025315
_cell_angle_alpha 32.901177
_cell_angle_beta 59.152534
_cell_angle_gamma 50.378312
_cell_volume 391.955496
_symmetry_space_group_name_H-M "P -1"
_symmetry_group_IT_number 2
_symmetry_cell_setting 'triclinic'
loop_
_space_group_symop_operation_xyz
x,y,z
-x,-y,-z
loop_
_atom_site_type_symbol
_atom_site_label
_atom_site_fract_x
_atom_site_fract_y
_atom_site_fract_z
Si Si1 0.618243 0.258284 0.375294
Si Si2 0.063084 0.327714 0.551677
Si Si3 0.256615 0.971827 0.039149
Si Si4 0.681256 0.563332 0.234780
Si Si5 0.962697 0.859244 0.824517
O O1 0.307187 0.314321 0.407919
O O2 0.660623 0.442683 0.243477
O O3 0.737133 0.234819 0.226907
O O4 0.759041 0.039213 0.620392
O O5 0.000000 0.500000 0.500000
O O6 0.811284 0.393540 0.472516
O O7 0.126690 0.109424 0.819691
O O8 0.381156 0.729555 0.201018
O O9 0.500000 0.000000 0.000000
O O10 0.032186 0.042778 0.142391
O O11 0.867372 0.677690 0.039205
#
# Coordination Sequence:
#
# PCOD8001222 Si02
#       5
#     2   2   2   2   2
#     4  11  24  42  71  94 131 179 211 263 339 377
#     4  12  22  42  70  97 129 172 221 267 318 392
#     4  10  19  42  68  89 138 164 208 284 308 368
#     4  11  23  44  70  96 130 171 221 268 317 389
#     4  10  21  44  66  94 139 167 209 281 317 379
#
# _framework density 25.513100000000001
#
# number of rings (size 3 to 8) (size 9 to 14) (size 15 to 20)
#    0.000    1.200    8.000    0.600    0.000    4.000 
#    3.600    6.000    0.000    0.000    0.000    0.000 
#    0.000    0.000    0.000    0.000    0.000    0.000 
#
# Total GULP energy -124009.510055 kJ/mol
# GULP energy per Si atom -12400.951005 kJ/mol
# Density = 2.545503 g / cm^3
# Si number density = 25.513100 Si / 1000 Ang^3
#
#
#
# Elastic Constant Matrix: (Units=GPa)
#
#
# Indices 1 2 3 4 5 6 
#
# 1 75.4409 56.9809 44.6208 -1.3937 23.4823 -6.6080
# 2 56.9809 219.1992 73.4097 23.8766 10.1331 -14.3308
# 3 44.6208 73.4097 148.0625 5.4634 -1.6087 -11.6302
# 4 -1.3937 23.8766 5.4634 46.2188 -5.6020 1.2338
# 5 23.4823 10.1331 -1.6087 -5.6020 40.4346 1.8211
# 6 -6.6080 -14.3308 -11.6302 1.2338 1.8211 32.7373
#
#
#
# Elastic Compliance Matrix: (Units=1/GPa)
#
#
# Indices 1 2 3 4 5 6 
#
# 1 0.023337 -0.003804 -0.005203 0.001701 -0.012654 0.001837
# 2 -0.003804 0.006668 -0.001909 -0.003386 -0.000079 0.001605
# 3 -0.005203 -0.001909 0.009402 0.000150 0.003839 0.001235
# 4 0.001701 -0.003386 0.000150 0.023873 0.003272 -0.002167
# 5 -0.012654 -0.000079 0.003839 0.003272 0.032849 -0.003175
# 6 0.001837 0.001605 0.001235 -0.002167 -0.003175 0.032316
#
#
# Mechanical properties :
#
#
# Convention : Reuss Voigt Hill
#
# Bulk Modulus (GPa) = 56.90321 88.08059 72.49190
# Shear Modulus (GPa) = 32.02345 41.72422 36.87383
#
# Velocity S-wave (km/s) = 3.54669 4.04840 3.80582
# Velocity P-wave (km/s) = 6.25492 7.51341 6.91286
#
# Compressibility (1/GPa) = 0.01757370
#
# Stress axis : x y z
#
# Youngs Moduli (GPa) = 42.85024 149.97427 106.36484
#
# Poissons Ratio (x) = 0.57056 0.55339
# Poissons Ratio (y) = 0.16302 0.20308
# Poissons Ratio (z) = 0.22294 0.28634
#
# Static dielectric constant tensor:
#      x y z
#    x 4.708520 -0.200870 0.115570 
#    y -0.200870 5.415650 0.025740 
#    z 0.115570 0.025740 5.059310 
# 
# 
# High freq. dielectric constant tensor:
#      x y z
#    x 2.015910 -0.011420 -0.010170 
#    y -0.011420 2.033860 -0.004350 
#    z -0.010170 -0.004350 2.042040 
# 
# From -- ./inp_files/398014.got.cif
#   From: 2010.06.25/outbox.cif.g09.slc.cpg/sg2_200_cif.got.tgz:398014.got - 2010.06.27 13:26:56.
