data_PCOD8001752
_publ_section_title
;
Structure prediction by ZEFSAII (Michael W. Deem and Ramdas Pophale) SiO2 
 PCOD8001752
Probable space group: P -1
;
_chemical_formula_sum "Si O2"
_cell_formula_units_Z 16
_cell_length_a 9.044957
_cell_length_b 18.624326
_cell_length_c 14.314867
_cell_angle_alpha 151.143690
_cell_angle_beta 109.000192
_cell_angle_gamma 51.865473
_cell_volume 753.982055
_symmetry_space_group_name_H-M "P -1"
_symmetry_group_IT_number 2
_symmetry_cell_setting 'triclinic'
loop_
_space_group_symop_operation_xyz
x,y,z
-x,-y,-z
loop_
_atom_site_type_symbol
_atom_site_label
_atom_site_fract_x
_atom_site_fract_y
_atom_site_fract_z
Si Si1 0.848734 0.407470 0.673125
Si Si2 0.626551 0.800721 0.731220
Si Si3 0.262699 0.253850 0.671651
Si Si4 0.786790 0.872168 0.100825
Si Si5 0.638234 0.799182 0.165953
Si Si6 0.620583 0.262519 0.736344
Si Si7 0.100426 0.507934 0.411187
Si Si8 0.971456 0.033441 0.382055
O O1 0.030218 0.412861 0.745741
O O2 0.916613 0.199133 0.484300
O O3 0.825581 0.424293 0.575272
O O4 0.625977 0.636937 0.937973
O O5 0.726832 0.596023 0.582873
O O6 0.843256 0.724684 0.636550
O O7 0.438049 0.888583 0.715628
O O8 0.500000 0.000000 0.000000
O O9 0.201392 0.297670 0.819271
O O10 0.420804 0.281295 0.706170
O O11 0.385809 0.013975 0.394779
O O12 0.722294 0.858334 0.173978
O O13 0.883471 0.673294 0.829346
O O14 0.978814 0.867648 0.143619
O O15 0.761956 0.176303 0.572867
O O16 0.788743 0.101257 0.672070
O O17 0.500000 0.500000 0.000000
#
# Coordination Sequence:
#
# PCOD8001752 Si02
#       8
#     2   2   2   2   2   2   2   2
#     4  11  23  36  59  83 117 153 195 240 283 342
#     4   9  18  37  62  91 111 140 188 242 286 346
#     4  11  21  35  56  79 111 159 204 236 281 336
#     4  10  20  35  59  83 117 151 191 240 287 342
#     4  10  20  34  55  82 110 153 198 240 277 332
#     4  11  25  37  55  79 119 162 201 242 287 332
#     4   9  20  36  62  88 111 146 194 232 291 348
#     4  11  24  39  52  86 121 152 196 245 287 335
#
# _framework density 21.220663999999999
#
# number of rings (size 3 to 8) (size 9 to 14) (size 15 to 20)
#    0.000    1.750    1.250    3.375    5.250    0.000 
#    0.000    0.625    0.000    6.750    0.000    0.000 
#    0.000    0.000    0.000    0.000    0.000    0.000 
#
# Total GULP energy -198282.306882 kJ/mol
# GULP energy per Si atom -12392.644180 kJ/mol
# Density = 2.117237 g / cm^3
# Si number density = 21.220664 Si / 1000 Ang^3
#
#
#
# Elastic Constant Matrix: (Units=GPa)
#
#
# Indices 1 2 3 4 5 6 
#
# 1 68.4421 29.3378 17.9039 4.4677 9.1272 9.8022
# 2 29.3378 94.8047 14.0748 13.2280 -7.3879 28.1866
# 3 17.9039 14.0748 85.2200 -0.1128 -2.0479 17.3597
# 4 4.4677 13.2280 -0.1128 22.4963 8.8124 -1.2633
# 5 9.1272 -7.3879 -2.0479 8.8124 28.3192 3.5367
# 6 9.8022 28.1866 17.3597 -1.2633 3.5367 33.7248
#
#
#
# Elastic Compliance Matrix: (Units=1/GPa)
#
#
# Indices 1 2 3 4 5 6 
#
# 1 0.019837 -0.008774 -0.004017 0.005974 -0.011464 0.005061
# 2 -0.008774 0.023315 0.002667 -0.020181 0.018000 -0.020953
# 3 -0.004017 0.002667 0.014084 -0.003212 0.005128 -0.008969
# 4 0.005974 -0.020181 -0.003212 0.068793 -0.031662 0.022682
# 5 -0.011464 0.018000 0.005128 -0.031662 0.056608 -0.021474
# 6 0.005061 -0.020953 -0.008969 0.022682 -0.021474 0.053411
#
#
# Mechanical properties :
#
#
# Convention : Reuss Voigt Hill
#
# Bulk Modulus (GPa) = 27.03640 41.23330 34.13485
# Shear Modulus (GPa) = 18.61333 29.38476 23.99904
#
# Velocity S-wave (km/s) = 2.96485 3.72522 3.36658
# Velocity P-wave (km/s) = 4.94861 6.16246 5.58859
#
# Compressibility (1/GPa) = 0.03698718
#
# Stress axis : x y z
#
# Youngs Moduli (GPa) = 50.41207 42.89029 71.00336
#
# Poissons Ratio (x) = 0.37631 0.28522
# Poissons Ratio (y) = 0.44231 -0.18934
# Poissons Ratio (z) = 0.20250 -0.11437
#
# Static dielectric constant tensor:
#      x y z
#    x 3.480150 0.017340 -0.150280 
#    y 0.017340 4.473080 0.223380 
#    z -0.150280 0.223380 4.132890 
# 
# 
# High freq. dielectric constant tensor:
#      x y z
#    x 1.793450 0.018010 -0.020000 
#    y 0.018010 1.842000 0.011520 
#    z -0.020000 0.011520 1.843100 
# 
# From -- ./inp_files/507343.got.cif
#   From: 2010.06.25/outbox.cif.g09.slc.cpg/sg2_254_cif.got.tgz:507343.got - 2010.06.27 13:26:56.
