data_PCOD8001372
_publ_section_title
;
Structure prediction by ZEFSAII (Michael W. Deem and Ramdas Pophale) SiO2 
 PCOD8001372
Probable space group: P -1
;
_chemical_formula_sum "Si O2"
_cell_formula_units_Z 16
_cell_length_a 28.742610
_cell_length_b 16.357543
_cell_length_c 28.564901
_cell_angle_alpha 22.368999
_cell_angle_beta 10.085227
_cell_angle_gamma 21.706505
_cell_volume 859.340513
_symmetry_space_group_name_H-M "P -1"
_symmetry_group_IT_number 2
_symmetry_cell_setting 'triclinic'
loop_
_space_group_symop_operation_xyz
x,y,z
-x,-y,-z
loop_
_atom_site_type_symbol
_atom_site_label
_atom_site_fract_x
_atom_site_fract_y
_atom_site_fract_z
Si Si1 0.300416 0.246385 0.572529
Si Si2 0.761568 0.887341 0.197327
Si Si3 0.098268 0.894575 0.256526
Si Si4 0.763432 0.104324 0.342268
Si Si5 0.720019 0.344377 0.044679
Si Si6 0.665182 0.661661 0.847961
Si Si7 0.799826 0.348351 0.272352
Si Si8 0.111366 0.672247 0.269462
O O1 0.232773 0.285909 0.673818
O O2 0.018173 0.265708 0.814665
O O3 0.500000 0.000000 0.500000
O O4 0.471600 0.409630 0.295016
O O5 0.553461 0.851483 0.382470
O O6 0.066495 0.830901 0.903314
O O7 0.669412 0.144035 0.169780
O O8 0.211808 0.819597 0.130960
O O9 0.928695 0.744239 0.529320
O O10 0.381761 0.863812 0.020924
O O11 0.902938 0.146824 0.314376
O O12 0.792058 0.257331 0.276249
O O13 0.875275 0.840963 0.383082
O O14 0.704171 0.562278 0.913998
O O15 0.649796 0.465688 0.929533
O O16 0.500000 0.500000 0.500000
O O17 0.000000 0.500000 0.000000
O O18 0.000000 0.500000 0.500000
#
# Coordination Sequence:
#
# PCOD8001372 Si02
#       8
#     2   2   2   2   2   2   2   2
#     4  10  20  32  47  71 107 153 187 213 253 298
#     4  11  20  33  51  74 112 140 190 221 247 309
#     4  10  22  35  51  77 102 140 179 220 261 310
#     4  11  22  34  54  81 101 143 186 218 265 314
#     4  11  20  31  50  74 111 155 180 207 259 303
#     4  11  20  32  51  76 112 140 181 210 244 320
#     4  11  23  42  60  76 107 138 177 233 286 318
#     4   9  20  31  48  70 109 141 174 208 250 297
#
# _framework density 18.618928
#
# number of rings (size 3 to 8) (size 9 to 14) (size 15 to 20)
#    0.000    1.500    1.250    6.375    3.500    5.000 
#    0.000    0.000    0.000    0.000    0.000    0.000 
#    0.000   70.000    0.000    0.000    0.000    0.000 
#
# Total GULP energy -198318.186721 kJ/mol
# GULP energy per Si atom -12394.886670 kJ/mol
# Density = 1.857655 g / cm^3
# Si number density = 18.618928 Si / 1000 Ang^3
#
#
#
# Elastic Constant Matrix: (Units=GPa)
#
#
# Indices 1 2 3 4 5 6 
#
# 1 86.5615 40.3951 40.3810 -4.0840 6.3822 -23.9250
# 2 40.3951 81.5144 27.4971 4.9343 3.3701 -10.4177
# 3 40.3810 27.4971 106.8412 5.2614 3.3519 -12.3029
# 4 -4.0840 4.9343 5.2614 27.2852 -7.3928 0.2950
# 5 6.3822 3.3701 3.3519 -7.3928 42.5401 -0.6492
# 6 -23.9250 -10.4177 -12.3029 0.2950 -0.6492 24.8036
#
#
#
# Elastic Compliance Matrix: (Units=1/GPa)
#
#
# Indices 1 2 3 4 5 6 
#
# 1 0.021899 -0.007519 -0.004768 0.005065 -0.001197 0.015509
# 2 -0.007519 0.016600 -0.001308 -0.004084 -0.000808 -0.000902
# 3 -0.004768 -0.001308 0.011740 -0.002912 -0.000602 0.000694
# 4 0.005065 -0.004084 -0.002912 0.040552 0.006862 0.001423
# 5 -0.001197 -0.000808 -0.000602 0.006862 0.024972 -0.001220
# 6 0.015509 -0.000902 0.000694 0.001423 -0.001220 0.055193
#
#
# Mechanical properties :
#
#
# Convention : Reuss Voigt Hill
#
# Bulk Modulus (GPa) = 43.38234 54.60705 48.99470
# Shear Modulus (GPa) = 24.29184 30.03539 27.16361
#
# Velocity S-wave (km/s) = 3.61596 4.02078 3.82373
# Velocity P-wave (km/s) = 6.38626 7.13779 6.77245
#
# Compressibility (1/GPa) = 0.02305085
#
# Stress axis : x y z
#
# Youngs Moduli (GPa) = 45.66341 60.23927 85.17558
#
# Poissons Ratio (x) = 0.45294 0.40610
# Poissons Ratio (y) = 0.34335 0.11140
# Poissons Ratio (z) = 0.21771 0.07878
#
# Static dielectric constant tensor:
#      x y z
#    x 3.785080 -0.161280 0.376810 
#    y -0.161280 3.465480 -0.002680 
#    z 0.376810 -0.002680 3.599780 
# 
# 
# High freq. dielectric constant tensor:
#      x y z
#    x 1.713250 -0.035690 0.011350 
#    y -0.035690 1.685360 0.009810 
#    z 0.011350 0.009810 1.736450 
# 
# From -- ./inp_files/96891.got.cif
#   From: 2010.06.25/outbox.cif.g09.slc.cpg/sg2_49_cif.got.tgz:96891.got - 2010.06.27 13:26:56.
