data_PCOD8001980
_publ_section_title
;
Structure prediction by ZEFSAII (Michael W. Deem and Ramdas Pophale) SiO2 
 PCOD8001980
Probable space group: P -1
;
_chemical_formula_sum "Si O2"
_cell_formula_units_Z 16
_cell_length_a 14.875040
_cell_length_b 11.150306
_cell_length_c 7.640105
_cell_angle_alpha 60.318326
_cell_angle_beta 98.487580
_cell_angle_gamma 139.305010
_cell_volume 657.215296
_symmetry_space_group_name_H-M "P -1"
_symmetry_group_IT_number 2
_symmetry_cell_setting 'triclinic'
loop_
_space_group_symop_operation_xyz
x,y,z
-x,-y,-z
loop_
_atom_site_type_symbol
_atom_site_label
_atom_site_fract_x
_atom_site_fract_y
_atom_site_fract_z
Si Si1 0.457017 0.103148 0.869745
Si Si2 0.564958 0.933092 0.517688
Si Si3 0.138052 0.088388 0.851820
Si Si4 0.871761 0.230250 0.964022
Si Si5 0.083462 0.024831 0.347443
Si Si6 0.357240 0.408563 0.359225
Si Si7 0.105935 0.737514 0.637324
Si Si8 0.580944 0.513249 0.160375
O O1 0.436434 0.093403 0.667310
O O2 0.585373 0.364320 0.781837
O O3 0.297305 0.945987 0.026935
O O4 0.500000 0.000000 0.000000
O O5 0.450794 0.684582 0.747486
O O6 0.500000 0.000000 0.500000
O O7 0.734292 0.115391 0.506122
O O8 0.248666 0.235765 0.610691
O O9 0.239217 0.246625 0.938470
O O10 0.994169 0.016548 0.829432
O O11 0.077431 0.859610 0.019579
O O12 0.882957 0.249095 0.161372
O O13 0.980591 0.475394 0.729933
O O14 0.058618 0.830464 0.487118
O O15 0.260266 0.277699 0.242022
O O16 0.000000 0.000000 0.500000
O O17 0.494142 0.462626 0.350291
O O18 0.500000 0.500000 0.000000
#
# Coordination Sequence:
#
# PCOD8001980 Si02
#       8
#     2   2   2   2   2   2   2   2
#     4  11  24  37  68 106 134 171 230 290 340 403
#     4  11  25  45  66  95 139 186 227 279 344 405
#     4  11  21  40  68  99 127 170 223 281 334 403
#     4  10  20  34  62 100 135 163 217 285 337 395
#     4  10  20  34  67  99 129 167 212 280 343 393
#     4  11  20  41  70  97 129 170 228 280 337 392
#     4  10  20  38  60  98 138 172 214 276 348 401
#     4  12  25  43  68  94 134 180 226 282 332 400
#
# _framework density 24.345141999999999
#
# number of rings (size 3 to 8) (size 9 to 14) (size 15 to 20)
#    0.000    1.250    6.250    1.125    5.250    1.000 
#    0.000    0.625    0.000    2.250    0.000    0.000 
#    0.000    0.000    0.000    0.000    0.000    0.000 
#
# Total GULP energy -198419.069487 kJ/mol
# GULP energy per Si atom -12401.191843 kJ/mol
# Density = 2.428973 g / cm^3
# Si number density = 24.345142 Si / 1000 Ang^3
#
#
#
# Elastic Constant Matrix: (Units=GPa)
#
#
# Indices 1 2 3 4 5 6 
#
# 1 170.0832 58.8072 50.7105 -35.5619 42.4488 11.3259
# 2 58.8072 157.7880 70.7846 -37.9402 22.1507 12.7114
# 3 50.7105 70.7846 79.1279 -30.1175 43.2466 -2.2856
# 4 -35.5619 -37.9402 -30.1175 57.4053 -12.1159 12.0412
# 5 42.4488 22.1507 43.2466 -12.1159 49.3580 -9.5375
# 6 11.3259 12.7114 -2.2856 12.0412 -9.5375 43.4718
#
#
#
# Elastic Compliance Matrix: (Units=1/GPa)
#
#
# Indices 1 2 3 4 5 6 
#
# 1 0.009476 -0.001489 0.001963 0.005140 -0.008968 -0.005321
# 2 -0.001489 0.012946 -0.013941 0.002611 0.007716 -0.003161
# 3 0.001963 -0.013941 0.046311 0.009941 -0.034399 -0.004300
# 4 0.005140 0.002611 0.009941 0.027903 -0.009661 -0.011428
# 5 -0.008968 0.007716 -0.034399 -0.009661 0.054784 0.012967
# 6 -0.005321 -0.003161 -0.004300 -0.011428 0.012967 0.031099
#
#
# Mechanical properties :
#
#
# Convention : Reuss Voigt Hill
#
# Bulk Modulus (GPa) = 23.92414 85.28928 54.60671
# Shear Modulus (GPa) = 22.38264 45.16014 33.77139
#
# Velocity S-wave (km/s) = 3.03543 4.31164 3.72854
# Velocity P-wave (km/s) = 4.70463 7.73928 6.40429
#
# Compressibility (1/GPa) = 0.04179879
#
# Stress axis : x y z
#
# Youngs Moduli (GPa) = 105.52735 77.24411 21.59300
#
# Poissons Ratio (x) = 0.11500 -0.04238
# Poissons Ratio (y) = 0.15710 0.30103
# Poissons Ratio (z) = -0.20711 1.07688
#
# Static dielectric constant tensor:
#      x y z
#    x 4.752490 0.483170 -0.256720 
#    y 0.483170 5.156560 -0.197750 
#    z -0.256720 -0.197750 4.642890 
# 
# 
# High freq. dielectric constant tensor:
#      x y z
#    x 1.978180 0.009290 -0.005510 
#    y 0.009290 1.981350 -0.000150 
#    z -0.005510 -0.000150 1.973430 
# 
# From -- ./inp_files/306538.got.cif
#   From: 2010.06.25/outbox.cif.g09.slc.cpg/sg2_154_cif.got.tgz:306538.got - 2010.06.27 13:26:56.
