data_PCOD8001451
_publ_section_title
;
Structure prediction by ZEFSAII (Michael W. Deem and Ramdas Pophale) SiO2 
 PCOD8001451
Probable space group: P -1
;
_chemical_formula_sum "Si O2"
_cell_formula_units_Z 14
_cell_length_a 9.009351
_cell_length_b 13.759330
_cell_length_c 11.718444
_cell_angle_alpha 108.718787
_cell_angle_beta 128.851097
_cell_angle_gamma 112.670101
_cell_volume 649.269243
_symmetry_space_group_name_H-M "P -1"
_symmetry_group_IT_number 2
_symmetry_cell_setting 'triclinic'
loop_
_space_group_symop_operation_xyz
x,y,z
-x,-y,-z
loop_
_atom_site_type_symbol
_atom_site_label
_atom_site_fract_x
_atom_site_fract_y
_atom_site_fract_z
Si Si1 0.580594 0.887210 0.249356
Si Si2 0.665297 0.779022 0.842701
Si Si3 0.369470 0.057948 0.957382
Si Si4 0.704686 0.185387 0.699413
Si Si5 0.225554 0.250835 0.706899
Si Si6 0.391554 0.412825 0.079698
Si Si7 0.254544 0.134955 0.332885
O O1 0.289800 0.798572 0.153899
O O2 0.685104 0.822332 0.325889
O O3 0.503302 0.841643 0.062154
O O4 0.847926 0.089313 0.473844
O O5 0.500144 0.811456 0.829428
O O6 0.543314 0.624064 0.787931
O O7 0.604618 0.744981 0.664919
O O8 0.042446 0.948493 0.113092
O O9 0.500000 0.000000 0.000000
O O10 0.983150 0.894131 0.717544
O O11 0.544256 0.216993 0.576698
O O12 0.500000 0.000000 0.500000
O O13 0.061727 0.331879 0.887622
O O14 0.333054 0.385428 0.721853
O O15 0.389511 0.336608 0.941351
#
# Coordination Sequence:
#
# PCOD8001451 Si02
#       7
#     2   2   2   2   2   2   2
#     4  11  21  37  61  85 119 149 202 244 285 351
#     4   9  18  35  55  85 117 155 192 239 277 357
#     4  10  20  32  57  88 111 155 197 242 280 343
#     4  12  21  34  61  92 113 155 197 240 290 351
#     4  10  21  38  60  85 119 152 189 254 291 338
#     4  11  21  37  61  89 120 152 194 241 300 342
#     4   9  19  34  54  85 119 151 194 238 279 352
#
# _framework density 21.562702999999999
#
# number of rings (size 3 to 8) (size 9 to 14) (size 15 to 20)
#    0.857    0.857    4.286    1.714    4.000    0.571 
#    0.000    0.000    3.143    4.286    0.000    0.000 
#    0.000    0.000    0.000    0.000    0.000    0.286 
#
# Total GULP energy -173474.925204 kJ/mol
# GULP energy per Si atom -12391.066086 kJ/mol
# Density = 2.151363 g / cm^3
# Si number density = 21.562703 Si / 1000 Ang^3
#
#
#
# Elastic Constant Matrix: (Units=GPa)
#
#
# Indices 1 2 3 4 5 6 
#
# 1 110.1939 54.5107 19.4060 -9.5052 9.7628 4.1695
# 2 54.5107 156.4211 19.9441 1.4299 0.8469 6.1078
# 3 19.4060 19.9441 31.0978 9.8656 3.0617 -6.4118
# 4 -9.5052 1.4299 9.8656 32.3203 -3.0150 -4.1750
# 5 9.7628 0.8469 3.0617 -3.0150 17.6011 -11.5313
# 6 4.1695 6.1078 -6.4118 -4.1750 -11.5313 37.3969
#
#
#
# Elastic Compliance Matrix: (Units=1/GPa)
#
#
# Indices 1 2 3 4 5 6 
#
# 1 0.013521 -0.003549 -0.007926 0.005308 -0.007708 -0.004071
# 2 -0.003549 0.008076 -0.003181 -0.000449 0.001330 -0.001109
# 3 -0.007926 -0.003181 0.045599 -0.015320 -0.001361 0.007091
# 4 0.005308 -0.000449 -0.015320 0.038531 0.008898 0.003900
# 5 -0.007708 0.001330 -0.001361 0.008898 0.079833 0.026019
# 6 -0.004071 -0.001109 0.007091 0.003900 0.026019 0.037049
#
#
# Mechanical properties :
#
#
# Convention : Reuss Voigt Hill
#
# Bulk Modulus (GPa) = 26.39697 53.93714 40.16706
# Shear Modulus (GPa) = 18.89995 31.05377 24.97686
#
# Velocity S-wave (km/s) = 2.96380 3.79906 3.40713
# Velocity P-wave (km/s) = 4.89701 6.65674 5.84350
#
# Compressibility (1/GPa) = 0.03788313
#
# Stress axis : x y z
#
# Youngs Moduli (GPa) = 73.95746 123.82819 21.93024
#
# Poissons Ratio (x) = 0.43950 0.17381
# Poissons Ratio (y) = 0.26249 0.06977
# Poissons Ratio (z) = 0.58617 0.39395
#
# Static dielectric constant tensor:
#      x y z
#    x 3.966660 0.159720 0.038010 
#    y 0.159720 4.010730 -0.073200 
#    z 0.038010 -0.073200 3.315820 
# 
# 
# High freq. dielectric constant tensor:
#      x y z
#    x 1.853700 0.014290 -0.005620 
#    y 0.014290 1.851680 -0.007030 
#    z -0.005620 -0.007030 1.782240 
# 
# From -- ./inp_files/183222.got.cif
#   From: 2010.06.25/outbox.cif.g09.slc.cpg/sg2_92_cif.got.tgz:183222.got - 2010.06.27 13:26:56.
