data_PCOD8001529
_publ_section_title
;
Structure prediction by ZEFSAII (Michael W. Deem and Ramdas Pophale) SiO2 
 PCOD8001529
Probable space group: P -1
;
_chemical_formula_sum "Si O2"
_cell_formula_units_Z 16
_cell_length_a 11.083532
_cell_length_b 11.659385
_cell_length_c 14.718445
_cell_angle_alpha 43.375549
_cell_angle_beta 62.859798
_cell_angle_gamma 42.916634
_cell_volume 877.609214
_symmetry_space_group_name_H-M "P -1"
_symmetry_group_IT_number 2
_symmetry_cell_setting 'triclinic'
loop_
_space_group_symop_operation_xyz
x,y,z
-x,-y,-z
loop_
_atom_site_type_symbol
_atom_site_label
_atom_site_fract_x
_atom_site_fract_y
_atom_site_fract_z
Si Si1 0.440588 0.707720 0.342201
Si Si2 0.266674 0.671270 0.895347
Si Si3 0.926451 0.141878 0.684465
Si Si4 0.403801 0.510075 0.760401
Si Si5 0.315519 0.454719 0.353574
Si Si6 0.123011 0.009271 0.516924
Si Si7 0.427718 0.954228 0.366563
Si Si8 0.591858 0.658593 0.808104
O O1 0.500000 0.500000 0.500000
O O2 0.238628 0.840575 0.301024
O O3 0.575477 0.628567 0.254426
O O4 0.457751 0.857944 0.310741
O O5 0.319961 0.505973 0.885740
O O6 0.405480 0.713535 0.823396
O O7 0.277442 0.554213 0.049925
O O8 0.066588 0.905757 0.822145
O O9 0.873925 0.342386 0.651132
O O10 0.013328 0.158764 0.556150
O O11 0.599700 0.429599 0.755360
O O12 0.285073 0.763827 0.631729
O O13 0.426513 0.240002 0.502785
O O14 0.301180 0.389020 0.295281
O O15 0.219608 0.087289 0.389729
O O16 0.000000 0.000000 0.500000
O O17 0.457113 0.127667 0.250875
#
# Coordination Sequence:
#
# PCOD8001529 Si02
#       8
#     2   2   2   2   2   2   2   2
#     4  11  16  31  55  85 108 134 164 209 277 327
#     4   9  20  38  57  72  99 146 188 215 246 303
#     4  10  18  31  56  82 102 135 175 216 259 312
#     4   8  16  29  51  76 100 134 173 204 253 318
#     4   9  18  32  54  79 105 133 172 220 261 310
#     4  10  16  27  49  78 105 130 161 207 262 313
#     4  11  20  32  54  82 108 138 169 212 270 322
#     4  10  21  39  54  70 104 150 184 209 255 309
#
# _framework density 18.231349999999999
#
# number of rings (size 3 to 8) (size 9 to 14) (size 15 to 20)
#    0.000    2.250    5.000    1.125    0.000    0.500 
#    0.000    3.750    0.000    0.000    0.000    0.000 
#    0.000    0.000    0.000    0.000    0.000    0.000 
#
# Total GULP energy -198222.957220 kJ/mol
# GULP energy per Si atom -12388.934826 kJ/mol
# Density = 1.818985 g / cm^3
# Si number density = 18.231350 Si / 1000 Ang^3
#
#
#
# Elastic Constant Matrix: (Units=GPa)
#
#
# Indices 1 2 3 4 5 6 
#
# 1 64.1765 50.4951 45.8670 -2.5177 13.3354 16.4353
# 2 50.4951 130.2737 35.0743 -3.0225 0.9289 17.2430
# 3 45.8670 35.0743 65.7656 -9.3727 11.4485 3.2721
# 4 -2.5177 -3.0225 -9.3727 18.4564 -1.8027 4.0037
# 5 13.3354 0.9289 11.4485 -1.8027 22.0965 -6.1554
# 6 16.4353 17.2430 3.2721 4.0037 -6.1554 34.0161
#
#
#
# Elastic Compliance Matrix: (Units=1/GPa)
#
#
# Indices 1 2 3 4 5 6 
#
# 1 0.054062 -0.010614 -0.027556 -0.006016 -0.024469 -0.021809
# 2 -0.010614 0.011677 0.000314 0.001175 0.005877 0.000104
# 3 -0.027556 0.000314 0.035312 0.012529 0.001739 0.008598
# 4 -0.006016 0.001175 0.012529 0.061264 0.000408 -0.006031
# 5 -0.024469 0.005877 0.001739 0.000408 0.064567 0.020312
# 6 -0.021809 0.000104 0.008598 -0.006031 0.020312 0.043441
#
#
# Mechanical properties :
#
#
# Convention : Reuss Voigt Hill
#
# Bulk Modulus (GPa) = 39.46602 58.12095 48.79349
# Shear Modulus (GPa) = 14.10512 23.49911 18.80211
#
# Velocity S-wave (km/s) = 2.78452 3.59408 3.21488
# Velocity P-wave (km/s) = 5.65972 7.01228 6.37199
#
# Compressibility (1/GPa) = 0.02533825
#
# Stress axis : x y z
#
# Youngs Moduli (GPa) = 18.49745 85.63649 28.31924
#
# Poissons Ratio (x) = 0.90895 0.78037
# Poissons Ratio (y) = 0.19633 -0.00890
# Poissons Ratio (z) = 0.50972 -0.02690
#
# Static dielectric constant tensor:
#      x y z
#    x 3.288050 0.038730 0.211920 
#    y 0.038730 3.955510 0.366050 
#    z 0.211920 0.366050 3.114190 
# 
# 
# High freq. dielectric constant tensor:
#      x y z
#    x 1.685740 0.008820 0.030930 
#    y 0.008820 1.723620 0.011110 
#    z 0.030930 0.011110 1.670400 
# 
# From -- ./inp_files/186797.got.cif
#   From: 2010.06.25/outbox.cif.g09.slc.cpg/sg2_94_cif.got.tgz:186797.got - 2010.06.27 13:26:56.
