data_PCOD8001791
_publ_section_title
;
Structure prediction by ZEFSAII (Michael W. Deem and Ramdas Pophale) SiO2 
 PCOD8001791
Probable space group: P -1
;
_chemical_formula_sum "Si O2"
_cell_formula_units_Z 16
_cell_length_a 11.440072
_cell_length_b 12.919372
_cell_length_c 14.026663
_cell_angle_alpha 117.063019
_cell_angle_beta 29.780959
_cell_angle_gamma 124.014395
_cell_volume 851.152893
_symmetry_space_group_name_H-M "P -1"
_symmetry_group_IT_number 2
_symmetry_cell_setting 'triclinic'
loop_
_space_group_symop_operation_xyz
x,y,z
-x,-y,-z
loop_
_atom_site_type_symbol
_atom_site_label
_atom_site_fract_x
_atom_site_fract_y
_atom_site_fract_z
Si Si1 0.059560 0.262786 0.560208
Si Si2 0.676984 0.664388 0.853024
Si Si3 0.176816 0.855243 0.123153
Si Si4 0.593898 0.442021 0.320542
Si Si5 0.982943 0.662048 0.017972
Si Si6 0.718717 0.878538 0.788557
Si Si7 0.382123 0.379957 0.905353
Si Si8 0.874928 0.357283 0.559057
O O1 0.348242 0.359143 0.401601
O O2 0.084240 0.147266 0.434448
O O3 0.934945 0.223419 0.734722
O O4 0.895856 0.331085 0.647270
O O5 0.596841 0.774213 0.913833
O O6 0.500732 0.531383 0.875833
O O7 0.971760 0.713979 0.632925
O O8 0.696499 0.657781 0.947777
O O9 0.033736 0.779716 0.100551
O O10 0.132261 0.985587 0.213050
O O11 0.473324 0.882724 0.908806
O O12 0.500000 0.500000 0.500000
O O13 0.768691 0.545064 0.168814
O O14 0.760603 0.360826 0.199837
O O15 0.862976 0.684025 0.013168
O O16 0.585348 0.315262 0.712043
O O17 0.000000 0.500000 0.500000
#
# Coordination Sequence:
#
# PCOD8001791 Si02
#       8
#     2   2   2   2   2   2   2   2
#     4  11  20  37  59  84 113 147 192 231 278 337
#     4   9  19  35  56  79 106 145 190 231 275 322
#     4  11  22  36  57  83 112 154 186 235 282 328
#     4  11  22  35  55  82 118 149 174 225 293 339
#     4  11  23  36  53  86 120 145 184 228 287 347
#     4  10  21  38  58  80 113 147 199 235 270 329
#     4  10  20  34  56  83 110 144 181 232 282 337
#     4   9  18  32  53  80 107 138 182 229 269 323
#
# _framework density 18.798033
#
# number of rings (size 3 to 8) (size 9 to 14) (size 15 to 20)
#    0.000    1.750    2.500    3.375    1.750    4.000 
#    0.000    0.625    0.000    3.000    0.000    0.000 
#    0.000    0.000    0.000    0.000    0.000    0.000 
#
# Total GULP energy -198276.730153 kJ/mol
# GULP energy per Si atom -12392.295635 kJ/mol
# Density = 1.875525 g / cm^3
# Si number density = 18.798033 Si / 1000 Ang^3
#
#
#
# Elastic Constant Matrix: (Units=GPa)
#
#
# Indices 1 2 3 4 5 6 
#
# 1 93.1907 39.2698 11.5503 12.3175 -7.5331 9.3605
# 2 39.2698 85.4401 10.5792 10.7403 0.4713 8.4027
# 3 11.5503 10.5792 48.2877 8.2823 2.3315 8.0022
# 4 12.3175 10.7403 8.2823 23.6233 -0.2933 3.3685
# 5 -7.5331 0.4713 2.3315 -0.2933 33.7271 -0.1692
# 6 9.3605 8.4027 8.0022 3.3685 -0.1692 24.8657
#
#
#
# Elastic Compliance Matrix: (Units=1/GPa)
#
#
# Indices 1 2 3 4 5 6 
#
# 1 0.014342 -0.005702 -0.001231 -0.004056 0.003320 -0.002504
# 2 -0.005702 0.015076 -0.000944 -0.003253 -0.001458 -0.002214
# 3 -0.001231 -0.000944 0.023363 -0.006304 -0.001961 -0.005896
# 4 -0.004056 -0.003253 -0.006304 0.048406 -0.000013 -0.001903
# 5 0.003320 -0.001458 -0.001961 -0.000013 0.030548 0.000084
# 6 -0.002504 -0.002214 -0.005896 -0.001903 0.000084 0.044062
#
#
# Mechanical properties :
#
#
# Convention : Reuss Voigt Hill
#
# Bulk Modulus (GPa) = 27.00639 38.85745 32.93192
# Shear Modulus (GPa) = 24.52259 27.47783 26.00021
#
# Velocity S-wave (km/s) = 3.61575 3.82742 3.72309
# Velocity P-wave (km/s) = 5.64174 6.34414 6.00322
#
# Compressibility (1/GPa) = 0.03702827
#
# Stress axis : x y z
#
# Youngs Moduli (GPa) = 69.72597 66.32969 42.80187
#
# Poissons Ratio (x) = 0.37818 0.05269
# Poissons Ratio (y) = 0.39755 0.04040
# Poissons Ratio (z) = 0.08584 0.06261
#
# Static dielectric constant tensor:
#      x y z
#    x 3.531440 -0.146630 -0.227180 
#    y -0.146630 3.531430 0.243140 
#    z -0.227180 0.243140 3.902240 
# 
# 
# High freq. dielectric constant tensor:
#      x y z
#    x 1.721750 -0.011870 0.001060 
#    y -0.011870 1.705680 0.010590 
#    z 0.001060 0.010590 1.744440 
# 
# From -- ./inp_files/451796.got.cif
#   From: 2010.06.25/outbox.cif.g09.slc.cpg/sg2_226_cif.got.tgz:451796.got - 2010.06.27 13:26:56.
