data_PCOD8001051
_publ_section_title
;
Structure prediction by ZEFSAII (Michael W. Deem and Ramdas Pophale) SiO2 
 PCOD8001051
Probable space group: P -1
;
_chemical_formula_sum "Si O2"
_cell_formula_units_Z 14
_cell_length_a 19.051541
_cell_length_b 5.499700
_cell_length_c 11.034931
_cell_angle_alpha 55.784627
_cell_angle_beta 135.550602
_cell_angle_gamma 132.830186
_cell_volume 587.080076
_symmetry_space_group_name_H-M "P -1"
_symmetry_group_IT_number 2
_symmetry_cell_setting 'triclinic'
loop_
_space_group_symop_operation_xyz
x,y,z
-x,-y,-z
loop_
_atom_site_type_symbol
_atom_site_label
_atom_site_fract_x
_atom_site_fract_y
_atom_site_fract_z
Si Si1 0.144691 0.711067 0.343512
Si Si2 0.889320 0.395070 0.159742
Si Si3 0.299532 0.780848 0.852608
Si Si4 0.766434 0.199845 0.821466
Si Si5 0.228029 0.289939 0.690370
Si Si6 0.584575 0.489234 0.776960
Si Si7 0.350661 0.393585 0.456123
O O1 0.148275 0.786601 0.183242
O O2 0.160641 0.386515 0.480607
O O3 0.023472 0.651916 0.261945
O O4 0.245043 0.025282 0.447633
O O5 0.821210 0.478060 0.156650
O O6 0.864080 0.010718 0.254635
O O7 0.840833 0.427682 0.960059
O O8 0.302411 0.622882 0.770546
O O9 0.305949 0.150917 0.754805
O O10 0.403802 0.809546 0.057766
O O11 0.687947 0.340119 0.621846
O O12 0.678435 0.828165 0.863753
O O13 0.456360 0.427030 0.657484
O O14 0.611916 0.514891 0.662324
#
# Coordination Sequence:
#
# PCOD8001051 Si02
#       7
#     2   2   2   2   2   2   2
#     4  11  25  39  58 100 131 163 209 262 328 377
#     4  10  22  40  67  90 128 170 213 259 317 383
#     4  10  21  41  70  91 124 170 225 255 313 380
#     4  11  21  40  63  95 126 165 212 268 319 379
#     4  10  23  42  66  94 129 174 212 260 316 387
#     4  10  19  41  61  93 117 168 220 260 315 380
#     4  10  22  36  64  88 130 162 209 268 322 372
#
# _framework density 23.846834000000001
#
# number of rings (size 3 to 8) (size 9 to 14) (size 15 to 20)
#    0.857    0.857    2.857    1.286    2.000    2.286 
#    0.000    1.429    0.000    0.000    0.000    0.000 
#    0.000    0.000    0.000    0.000    0.000    0.000 
#
# Total GULP energy -173516.470345 kJ/mol
# GULP energy per Si atom -12394.033596 kJ/mol
# Density = 2.379256 g / cm^3
# Si number density = 23.846834 Si / 1000 Ang^3
#
#
#
# Elastic Constant Matrix: (Units=GPa)
#
#
# Indices 1 2 3 4 5 6 
#
# 1 51.3103 22.7168 5.5001 11.0529 6.6916 -14.8030
# 2 22.7168 58.9879 18.5988 9.3118 7.5402 -9.4192
# 3 5.5001 18.5988 92.4845 8.9010 22.1277 3.1945
# 4 11.0529 9.3118 8.9010 26.2508 -5.3129 5.4031
# 5 6.6916 7.5402 22.1277 -5.3129 28.5498 2.4056
# 6 -14.8030 -9.4192 3.1945 5.4031 2.4056 31.1832
#
#
#
# Elastic Compliance Matrix: (Units=1/GPa)
#
#
# Indices 1 2 3 4 5 6 
#
# 1 0.033110 -0.006189 0.004000 -0.019716 -0.014409 0.017966
# 2 -0.006189 0.022650 -0.002792 -0.006457 -0.004042 0.005620
# 3 0.004000 -0.002792 0.015270 -0.009129 -0.013915 0.002146
# 4 -0.019716 -0.006457 -0.009129 0.061998 0.026893 -0.023191
# 5 -0.014409 -0.004042 -0.013915 0.026893 0.056580 -0.015660
# 6 0.017966 0.005620 0.002146 -0.023191 -0.015660 0.047301
#
#
# Mechanical properties :
#
#
# Convention : Reuss Voigt Hill
#
# Bulk Modulus (GPa) = 16.37554 32.93491 24.65523
# Shear Modulus (GPa) = 18.71060 27.59456 23.15258
#
# Velocity S-wave (km/s) = 2.80414 3.40539 3.11929
# Velocity P-wave (km/s) = 4.16727 5.41325 4.83060
#
# Compressibility (1/GPa) = 0.06106667
#
# Stress axis : x y z
#
# Youngs Moduli (GPa) = 30.20232 44.15022 65.48751
#
# Poissons Ratio (x) = 0.27325 -0.26195
# Poissons Ratio (y) = 0.18693 0.18287
# Poissons Ratio (z) = -0.12081 0.12329
#
# Static dielectric constant tensor:
#      x y z
#    x 4.045760 0.030910 0.159820 
#    y 0.030910 3.945480 -0.215480 
#    z 0.159820 -0.215480 4.219590 
# 
# 
# High freq. dielectric constant tensor:
#      x y z
#    x 1.932550 -0.000840 0.002440 
#    y -0.000840 1.919310 -0.018390 
#    z 0.002440 -0.018390 1.951620 
# 
# From -- ./inp_files/95512.got.cif
#   From: 2010.06.25/outbox.cif.g09.slc.cpg/sg2_48_cif.got.tgz:95512.got - 2010.06.27 13:26:56.
