data_PCOD8001387
_publ_section_title
;
Structure prediction by ZEFSAII (Michael W. Deem and Ramdas Pophale) SiO2 
 PCOD8001387
Probable space group: P -1
;
_chemical_formula_sum "Si O2"
_cell_formula_units_Z 16
_cell_length_a 18.957497
_cell_length_b 9.596794
_cell_length_c 22.796162
_cell_angle_alpha 151.905436
_cell_angle_beta 26.149156
_cell_angle_gamma 148.128175
_cell_volume 827.232650
_symmetry_space_group_name_H-M "P -1"
_symmetry_group_IT_number 2
_symmetry_cell_setting 'triclinic'
loop_
_space_group_symop_operation_xyz
x,y,z
-x,-y,-z
loop_
_atom_site_type_symbol
_atom_site_label
_atom_site_fract_x
_atom_site_fract_y
_atom_site_fract_z
Si Si1 0.148806 0.486322 0.966573
Si Si2 0.402991 0.114001 0.666403
Si Si3 0.257010 0.480379 0.416476
Si Si4 0.454293 0.202471 0.383928
Si Si5 0.171030 0.962035 0.585386
Si Si6 0.796281 0.356480 0.143769
Si Si7 0.923345 0.092177 0.731600
Si Si8 0.763722 0.545389 0.439200
O O1 0.263384 0.259050 0.799549
O O2 0.191011 0.696976 0.954991
O O3 0.177792 0.705997 0.083271
O O4 0.953287 0.291374 0.036069
O O5 0.546820 0.364737 0.686883
O O6 0.500000 0.000000 0.500000
O O7 0.310199 0.810117 0.659850
O O8 0.146682 0.695351 0.553056
O O9 0.215815 0.434113 0.498659
O O10 0.207413 0.149212 0.300100
O O11 0.500000 0.500000 0.500000
O O12 0.625068 0.121330 0.208289
O O13 0.364096 0.265084 0.414798
O O14 0.326092 0.939026 0.419446
O O15 0.207698 0.291702 0.712188
O O16 0.007386 0.911083 0.648381
O O17 0.059821 0.319231 0.673200
#
# Coordination Sequence:
#
# PCOD8001387 Si02
#       8
#     2   2   2   2   2   2   2   2
#     4  10  20  32  50  78 111 144 177 222 276 323
#     4  10  20  34  54  76 100 134 183 226 263 314
#     4  11  20  34  57  80 110 146 182 222 266 318
#     4   9  16  31  55  81 105 132 174 225 268 310
#     4   9  18  33  56  81 104 138 186 224 259 314
#     4   9  16  31  54  79 108 140 178 223 270 317
#     4  10  22  36  52  80 115 147 178 219 271 324
#     4  10  20  35  56  82 109 141 184 226 264 313
#
# _framework density 19.341597
#
# number of rings (size 3 to 8) (size 9 to 14) (size 15 to 20)
#    0.000    2.250    0.000    6.000    0.000    1.000 
#    0.000    0.000    0.000    0.750    0.000    0.000 
#    0.000    0.000    0.000    0.000    0.000    0.000 
#
# Total GULP energy -198306.463765 kJ/mol
# GULP energy per Si atom -12394.153985 kJ/mol
# Density = 1.929757 g / cm^3
# Si number density = 19.341597 Si / 1000 Ang^3
#
#
#
# Elastic Constant Matrix: (Units=GPa)
#
#
# Indices 1 2 3 4 5 6 
#
# 1 102.9658 46.6834 42.5292 -3.8619 5.8514 -6.7716
# 2 46.6834 83.1398 37.7398 -4.4731 3.7016 14.5904
# 3 42.5292 37.7398 103.2801 -15.3621 -8.2419 6.4593
# 4 -3.8619 -4.4731 -15.3621 20.9998 1.1534 -2.7342
# 5 5.8514 3.7016 -8.2419 1.1534 32.1943 2.4560
# 6 -6.7716 14.5904 6.4593 -2.7342 2.4560 32.1316
#
#
#
# Elastic Compliance Matrix: (Units=1/GPa)
#
#
# Indices 1 2 3 4 5 6 
#
# 1 0.016069 -0.008302 -0.004523 -0.000840 -0.003726 0.008279
# 2 -0.008302 0.020045 -0.003503 -0.001096 -0.000877 -0.010174
# 3 -0.004523 -0.003503 0.014607 0.008592 0.004804 -0.001935
# 4 -0.000840 -0.001096 0.008592 0.053911 0.000306 0.003158
# 5 -0.003726 -0.000877 0.004804 0.000306 0.033354 -0.003876
# 6 0.008279 -0.010174 -0.001935 0.003158 -0.003876 0.038440
#
#
# Mechanical properties :
#
#
# Convention : Reuss Voigt Hill
#
# Bulk Modulus (GPa) = 55.35423 60.36560 57.85992
# Shear Modulus (GPa) = 23.24457 27.89406 25.56931
#
# Velocity S-wave (km/s) = 3.47045 3.80172 3.63986
# Velocity P-wave (km/s) = 6.68880 7.10977 6.90250
#
# Compressibility (1/GPa) = 0.01806547
#
# Stress axis : x y z
#
# Youngs Moduli (GPa) = 62.23252 49.88821 68.45803
#
# Poissons Ratio (x) = 0.41415 0.30966
# Poissons Ratio (y) = 0.51662 0.23980
# Poissons Ratio (z) = 0.28150 0.17475
#
# Static dielectric constant tensor:
#      x y z
#    x 3.665180 0.089810 -0.036770 
#    y 0.089810 3.726760 -0.392450 
#    z -0.036770 -0.392450 3.516870 
# 
# 
# High freq. dielectric constant tensor:
#      x y z
#    x 1.762350 -0.003510 -0.004030 
#    y -0.003510 1.734160 -0.026060 
#    z -0.004030 -0.026060 1.724860 
# 
# From -- ./inp_files/269552.got.cif
#   From: 2010.06.25/outbox.cif.g09.slc.cpg/sg2_135_cif.got.tgz:269552.got - 2010.06.27 13:26:56.
