data_PCOD8001068
_publ_section_title
;
Structure prediction by ZEFSAII (Michael W. Deem and Ramdas Pophale) SiO2 
 PCOD8001068
Probable space group: P -1
;
_chemical_formula_sum "Si O2"
_cell_formula_units_Z 16
_cell_length_a 13.932179
_cell_length_b 9.066547
_cell_length_c 25.963482
_cell_angle_alpha 37.547818
_cell_angle_beta 157.864450
_cell_angle_gamma 130.807495
_cell_volume 704.829117
_symmetry_space_group_name_H-M "P -1"
_symmetry_group_IT_number 2
_symmetry_cell_setting 'triclinic'
loop_
_space_group_symop_operation_xyz
x,y,z
-x,-y,-z
loop_
_atom_site_type_symbol
_atom_site_label
_atom_site_fract_x
_atom_site_fract_y
_atom_site_fract_z
Si Si1 0.149417 0.323868 0.888245
Si Si2 0.343179 0.605820 0.301168
Si Si3 0.810473 0.255941 0.396497
Si Si4 0.038435 0.880978 0.699366
Si Si5 0.265137 0.180099 0.797856
Si Si6 0.089323 0.814126 0.289369
Si Si7 0.412548 0.994914 0.729641
Si Si8 0.209665 0.209888 0.293577
O O1 0.162229 0.610161 0.804877
O O2 0.890003 0.315460 0.793602
O O3 0.129587 0.198930 0.857700
O O4 0.432484 0.157328 0.101434
O O5 0.609026 0.384640 0.518831
O O6 0.409858 0.854222 0.249463
O O7 0.235631 0.494170 0.227220
O O8 0.688609 0.556983 0.268427
O O9 0.116493 0.183766 0.547132
O O10 0.612643 0.211224 0.267427
O O11 0.808420 0.080848 0.493737
O O12 0.934653 0.795350 0.723104
O O13 0.248125 0.023602 0.780776
O O14 0.988226 0.262528 0.671317
O O15 0.500000 0.000000 0.000000
O O16 0.070580 0.118119 0.201192
O O17 0.500000 0.000000 0.500000
#
# Coordination Sequence:
#
# PCOD8001068 Si02
#       8
#     2   2   2   2   2   2   2   2
#     4  11  23  38  66  97 124 160 213 260 308 371
#     4  10  19  41  64  87 127 165 208 253 316 368
#     4  11  24  42  62  88 128 170 210 253 309 374
#     4  10  22  39  63  91 119 164 210 250 310 367
#     4  11  23  41  62  89 125 164 206 257 306 372
#     4  10  20  38  62  93 123 160 206 252 318 368
#     4  11  24  39  61  93 129 166 207 260 309 362
#     4   8  18  36  61  89 118 159 205 254 303 367
#
# _framework density 22.700538000000002
#
# number of rings (size 3 to 8) (size 9 to 14) (size 15 to 20)
#    0.000    1.750    1.250    2.625    3.500    2.500 
#    0.000    0.625    0.000    0.000    0.000    0.000 
#    0.000    0.000    0.000    0.000    0.000    0.000 
#
# Total GULP energy -198275.574262 kJ/mol
# GULP energy per Si atom -12392.223391 kJ/mol
# Density = 2.264887 g / cm^3
# Si number density = 22.700538 Si / 1000 Ang^3
#
#
#
# Elastic Constant Matrix: (Units=GPa)
#
#
# Indices 1 2 3 4 5 6 
#
# 1 35.9201 38.6539 7.6253 7.7230 -10.4908 -8.1589
# 2 38.6539 205.7764 42.9804 13.7785 -26.8960 -13.3393
# 3 7.6253 42.9804 72.1025 9.0177 -27.4357 -2.4830
# 4 7.7230 13.7785 9.0177 26.4524 -4.9104 -16.7125
# 5 -10.4908 -26.8960 -27.4357 -4.9104 33.4870 9.4821
# 6 -8.1589 -13.3393 -2.4830 -16.7125 9.4821 35.9539
#
#
#
# Elastic Compliance Matrix: (Units=1/GPa)
#
#
# Indices 1 2 3 4 5 6 
#
# 1 0.038071 -0.006301 0.003986 -0.006893 0.008825 0.001045
# 2 -0.006301 0.006838 -0.003061 -0.000138 0.000816 0.000617
# 3 0.003986 -0.003061 0.023232 -0.008872 0.018698 -0.007682
# 4 -0.006893 -0.000138 -0.008872 0.058528 -0.008677 0.027266
# 5 0.008825 0.000816 0.018698 -0.008677 0.051283 -0.013961
# 6 0.001045 0.000617 -0.007682 0.027266 -0.013961 0.044105
#
#
# Mechanical properties :
#
#
# Convention : Reuss Voigt Hill
#
# Bulk Modulus (GPa) = 17.42495 54.70201 36.06348
# Shear Modulus (GPa) = 19.84596 34.14794 26.99695
#
# Velocity S-wave (km/s) = 2.95998 3.88271 3.45231
# Velocity P-wave (km/s) = 4.40166 6.65208 5.64025
#
# Compressibility (1/GPa) = 0.05738897
#
# Stress axis : x y z
#
# Youngs Moduli (GPa) = 26.26670 146.23119 43.04340
#
# Poissons Ratio (x) = 0.92143 -0.17157
# Poissons Ratio (y) = 0.16551 0.13177
# Poissons Ratio (z) = -0.10470 0.44765
#
# Static dielectric constant tensor:
#      x y z
#    x 3.950990 -0.202070 0.079530 
#    y -0.202070 5.042730 0.242410 
#    z 0.079530 0.242410 3.837980 
# 
# 
# High freq. dielectric constant tensor:
#      x y z
#    x 1.874610 -0.009510 0.012970 
#    y -0.009510 1.925590 0.010180 
#    z 0.012970 0.010180 1.874480 
# 
# From -- ./inp_files/355246.got.cif
#   From: 2010.06.25/outbox.cif.g09.slc.cpg/sg2_178_cif.got.tgz:355246.got - 2010.06.27 13:26:56.
