data_PCOD8001432
_publ_section_title
;
Structure prediction by ZEFSAII (Michael W. Deem and Ramdas Pophale) SiO2 
 PCOD8001432
Probable space group: P -1
;
_chemical_formula_sum "Si O2"
_cell_formula_units_Z 16
_cell_length_a 13.795727
_cell_length_b 11.307203
_cell_length_c 17.253445
_cell_angle_alpha 69.784541
_cell_angle_beta 22.224015
_cell_angle_gamma 59.978994
_cell_volume 822.603832
_symmetry_space_group_name_H-M "P -1"
_symmetry_group_IT_number 2
_symmetry_cell_setting 'triclinic'
loop_
_space_group_symop_operation_xyz
x,y,z
-x,-y,-z
loop_
_atom_site_type_symbol
_atom_site_label
_atom_site_fract_x
_atom_site_fract_y
_atom_site_fract_z
Si Si1 0.295228 0.699581 0.148786
Si Si2 0.185142 0.019587 0.151474
Si Si3 0.061439 0.519413 0.302197
Si Si4 0.825967 0.921921 0.677251
Si Si5 0.272934 0.609957 0.357433
Si Si6 0.412610 0.716445 0.468437
Si Si7 0.747771 0.614194 0.104587
Si Si8 0.846202 0.480058 0.307169
O O1 0.180717 0.870321 0.195801
O O2 0.052732 0.672125 0.290396
O O3 0.352273 0.631326 0.207720
O O4 0.607996 0.613614 0.891880
O O5 0.172212 0.086631 0.229856
O O6 0.473879 0.001942 0.895418
O O7 0.871624 0.140001 0.317569
O O8 0.826090 0.511449 0.535906
O O9 0.994331 0.504448 0.266380
O O10 0.987765 0.759077 0.563590
O O11 0.000000 0.000000 0.500000
O O12 0.553982 0.555562 0.218160
O O13 0.538724 0.750695 0.286884
O O14 0.659621 0.641545 0.369700
O O15 0.356541 0.588218 0.506601
O O16 0.000000 0.500000 0.000000
O O17 0.909946 0.642369 0.905872
#
# Coordination Sequence:
#
# PCOD8001432 Si02
#       8
#     2   2   2   2   2   2   2   2
#     4  11  24  37  55  80 113 153 191 229 278 326
#     4  11  22  36  53  84 116 146 181 231 280 342
#     4  11  22  39  56  79 111 151 195 234 268 329
#     4  11  22  32  54  82 117 144 174 222 293 338
#     4  12  20  37  57  83 112 147 185 232 282 337
#     4  10  21  35  58  86 112 140 184 230 285 339
#     4  10  20  32  54  87 113 139 177 228 285 337
#     4  10  20  37  58  83 110 147 183 231 281 330
#
# _framework density 19.450431999999999
#
# number of rings (size 3 to 8) (size 9 to 14) (size 15 to 20)
#    0.000    1.250    6.250    0.375    3.500    0.000 
#    0.000    0.625    0.000    0.000    0.000    2.625 
#    0.000    0.000    0.000    0.000    0.000    0.000 
#
# Total GULP energy -198222.212573 kJ/mol
# GULP energy per Si atom -12388.888286 kJ/mol
# Density = 1.940616 g / cm^3
# Si number density = 19.450432 Si / 1000 Ang^3
#
#
#
# Elastic Constant Matrix: (Units=GPa)
#
#
# Indices 1 2 3 4 5 6 
#
# 1 63.0848 23.5123 16.6166 -4.8639 -8.3766 2.0169
# 2 23.5123 52.9002 27.8743 -6.6954 -7.1803 1.3096
# 3 16.6166 27.8743 105.5165 -4.7031 -9.0966 -7.6687
# 4 -4.8639 -6.6954 -4.7031 29.8993 -2.5945 0.5331
# 5 -8.3766 -7.1803 -9.0966 -2.5945 28.8475 -2.5820
# 6 2.0169 1.3096 -7.6687 0.5331 -2.5820 21.9837
#
#
#
# Elastic Compliance Matrix: (Units=1/GPa)
#
#
# Indices 1 2 3 4 5 6 
#
# 1 0.019510 -0.007523 -0.000790 0.001698 0.003586 -0.001238
# 2 -0.007523 0.026074 -0.005475 0.004035 0.002714 -0.002552
# 3 -0.000790 -0.005475 0.011641 0.000614 0.002558 0.004745
# 4 0.001698 0.004035 0.000614 0.035148 0.004810 -0.000469
# 5 0.003586 0.002714 0.002558 0.004810 0.038047 0.004754
# 6 -0.001238 -0.002552 0.004745 -0.000469 0.004754 0.047979
#
#
# Mechanical properties :
#
#
# Convention : Reuss Voigt Hill
#
# Bulk Modulus (GPa) = 33.72818 39.72311 36.72565
# Shear Modulus (GPa) = 23.16336 26.37930 24.77133
#
# Velocity S-wave (km/s) = 3.45467 3.68670 3.57257
# Velocity P-wave (km/s) = 5.76986 6.21204 5.99503
#
# Compressibility (1/GPa) = 0.02964879
#
# Stress axis : x y z
#
# Youngs Moduli (GPa) = 51.25485 38.35180 85.90505
#
# Poissons Ratio (x) = 0.28852 0.06788
# Poissons Ratio (y) = 0.38559 0.47034
# Poissons Ratio (z) = 0.04050 0.20998
#
# Static dielectric constant tensor:
#      x y z
#    x 3.487650 -0.029670 0.000150 
#    y -0.029670 3.367570 -0.123990 
#    z 0.000150 -0.123990 4.200360 
# 
# 
# High freq. dielectric constant tensor:
#      x y z
#    x 1.739870 -0.007670 -0.000210 
#    y -0.007670 1.720040 -0.013250 
#    z -0.000210 -0.013250 1.786290 
# 
# From -- ./inp_files/432960.got.cif
#   From: 2010.06.25/outbox.cif.g09.slc.cpg/sg2_217_cif.got.tgz:432960.got - 2010.06.27 13:26:56.
