data_PCOD8001756
_publ_section_title
;
Structure prediction by ZEFSAII (Michael W. Deem and Ramdas Pophale) SiO2 
 PCOD8001756
Probable space group: P -1
;
_chemical_formula_sum "Si O2"
_cell_formula_units_Z 16
_cell_length_a 9.873468
_cell_length_b 21.950772
_cell_length_c 12.086931
_cell_angle_alpha 48.337374
_cell_angle_beta 128.708364
_cell_angle_gamma 153.487717
_cell_volume 869.933157
_symmetry_space_group_name_H-M "P -1"
_symmetry_group_IT_number 2
_symmetry_cell_setting 'triclinic'
loop_
_space_group_symop_operation_xyz
x,y,z
-x,-y,-z
loop_
_atom_site_type_symbol
_atom_site_label
_atom_site_fract_x
_atom_site_fract_y
_atom_site_fract_z
Si Si1 0.733847 0.519426 0.066529
Si Si2 0.639386 0.042941 0.687924
Si Si3 0.161741 0.476621 0.128109
Si Si4 0.266171 0.967548 0.779170
Si Si5 0.832084 0.763662 0.109713
Si Si6 0.170575 0.778021 0.114025
Si Si7 0.316430 0.805566 0.645032
Si Si8 0.673252 0.791276 0.780521
O O1 0.585544 0.373942 0.185158
O O2 0.030627 0.643226 0.147811
O O3 0.500000 0.500000 0.000000
O O4 0.834898 0.569518 0.930840
O O5 0.777350 0.157586 0.528814
O O6 0.911898 0.114243 0.817592
O O7 0.379745 0.991636 0.684853
O O8 0.494195 0.908259 0.718462
O O9 0.505837 0.624065 0.169736
O O10 0.990175 0.357285 0.276025
O O11 0.000000 0.500000 0.000000
O O12 0.945696 0.892060 0.707711
O O13 0.513382 0.119514 0.786202
O O14 0.228863 0.866949 0.941936
O O15 0.927619 0.717582 0.151963
O O16 0.805394 0.824675 0.930625
O O17 0.531382 0.825999 0.663710
#
# Coordination Sequence:
#
# PCOD8001756 Si02
#       8
#     2   2   2   2   2   2   2   2
#     4  11  17  31  55  85 104 136 175 231 267 318
#     4  10  23  38  57  75 111 154 183 214 268 337
#     4  11  20  35  56  83 112 140 177 230 275 310
#     4   9  17  33  54  78 103 145 175 224 266 312
#     4   9  18  36  56  84 105 140 182 229 268 314
#     4   9  16  29  54  83 108 127 184 223 268 314
#     4  11  23  39  52  81 114 147 183 217 272 332
#     4  10  20  34  55  84 111 131 183 234 266 310
#
# _framework density 18.392218
#
# number of rings (size 3 to 8) (size 9 to 14) (size 15 to 20)
#    0.000    2.000    6.250    1.500    0.000    1.500 
#    2.250    0.000    0.000    3.000    0.000    0.000 
#    0.000    0.000    0.000    0.000    0.000    0.000 
#
# Total GULP energy -198364.875258 kJ/mol
# GULP energy per Si atom -12397.804704 kJ/mol
# Density = 1.835036 g / cm^3
# Si number density = 18.392218 Si / 1000 Ang^3
#
#
#
# Elastic Constant Matrix: (Units=GPa)
#
#
# Indices 1 2 3 4 5 6 
#
# 1 84.2040 34.0507 6.8850 -3.5014 -5.6843 4.7208
# 2 34.0507 101.8917 21.0016 1.6887 -5.0822 1.8881
# 3 6.8850 21.0016 32.7055 -6.6388 -1.4084 -1.2912
# 4 -3.5014 1.6887 -6.6388 21.2431 1.6978 -10.0998
# 5 -5.6843 -5.0822 -1.4084 1.6978 19.4413 -1.8480
# 6 4.7208 1.8881 -1.2912 -10.0998 -1.8480 37.6822
#
#
#
# Elastic Compliance Matrix: (Units=1/GPa)
#
#
# Indices 1 2 3 4 5 6 
#
# 1 0.014049 -0.004716 0.000626 0.002317 0.002646 -0.000751
# 2 -0.004716 0.013407 -0.008739 -0.005567 0.001809 -0.001784
# 3 0.000626 -0.008739 0.039541 0.016014 -0.000065 0.006003
# 4 0.002317 -0.005567 0.016014 0.061140 -0.003364 0.016760
# 5 0.002646 0.001809 -0.000065 -0.003364 0.053094 0.001278
# 6 -0.000751 -0.001784 0.006003 0.016760 0.001278 0.031482
#
#
# Mechanical properties :
#
#
# Convention : Reuss Voigt Hill
#
# Bulk Modulus (GPa) = 24.19091 38.07509 31.13300
# Shear Modulus (GPa) = 19.82932 26.13094 22.98013
#
# Velocity S-wave (km/s) = 3.28706 3.77339 3.53859
# Velocity P-wave (km/s) = 5.25240 6.30328 5.80168
#
# Compressibility (1/GPa) = 0.04133784
#
# Stress axis : x y z
#
# Youngs Moduli (GPa) = 71.17866 74.58601 25.29031
#
# Poissons Ratio (x) = 0.35178 -0.01583
# Poissons Ratio (y) = 0.33571 0.22101
# Poissons Ratio (z) = -0.04454 0.65181
#
# Static dielectric constant tensor:
#      x y z
#    x 3.583250 0.101700 -0.207280 
#    y 0.101700 3.766420 0.013430 
#    z -0.207280 0.013430 2.987460 
# 
# 
# High freq. dielectric constant tensor:
#      x y z
#    x 1.717250 0.007400 -0.012220 
#    y 0.007400 1.722860 -0.002010 
#    z -0.012220 -0.002010 1.667270 
# 
# From -- ./inp_files/404794.got.cif
#   From: 2010.06.25/outbox.cif.g09.slc.cpg/sg2_203_cif.got.tgz:404794.got - 2010.06.27 13:26:56.
