data_PCOD8001740
_publ_section_title
;
Structure prediction by ZEFSAII (Michael W. Deem and Ramdas Pophale) SiO2 
 PCOD8001740
Probable space group: P -1
;
_chemical_formula_sum "Si O2"
_cell_formula_units_Z 16
_cell_length_a 16.006811
_cell_length_b 15.594179
_cell_length_c 8.833383
_cell_angle_alpha 98.508717
_cell_angle_beta 97.831644
_cell_angle_gamma 154.350726
_cell_volume 733.149892
_symmetry_space_group_name_H-M "P -1"
_symmetry_group_IT_number 2
_symmetry_cell_setting 'triclinic'
loop_
_space_group_symop_operation_xyz
x,y,z
-x,-y,-z
loop_
_atom_site_type_symbol
_atom_site_label
_atom_site_fract_x
_atom_site_fract_y
_atom_site_fract_z
Si Si1 0.808673 0.292968 0.266207
Si Si2 0.720522 0.830443 0.933478
Si Si3 0.185541 0.343482 0.675231
Si Si4 0.393427 0.015852 0.629370
Si Si5 0.792950 0.702085 0.001090
Si Si6 0.312507 0.132939 0.738783
Si Si7 0.072596 0.486096 0.107856
Si Si8 0.910382 0.558843 0.214362
O O1 0.591350 0.033041 0.232836
O O2 0.729421 0.305877 0.164718
O O3 0.000000 0.500000 0.500000
O O4 0.898076 0.309391 0.164991
O O5 0.450339 0.580248 0.717905
O O6 0.758160 0.768498 0.974981
O O7 0.707052 0.878419 0.089153
O O8 0.951133 0.085637 0.955157
O O9 0.177095 0.437219 0.732925
O O10 0.179226 0.280458 0.808417
O O11 0.948961 0.085525 0.450893
O O12 0.183620 0.791722 0.395909
O O13 0.355317 0.075617 0.694218
O O14 0.656846 0.254194 0.678168
O O15 0.548269 0.414947 0.805424
O O16 0.077243 0.416080 0.959209
O O17 0.000000 0.500000 0.000000
#
# Coordination Sequence:
#
# PCOD8001740 Si02
#       8
#     2   2   2   2   2   2   2   2
#     4   9  20  37  55  79 110 146 188 228 271 327
#     4  10  22  39  60  84 115 151 189 231 285 348
#     4  10  20  38  60  85 115 151 191 236 284 339
#     4  10  21  38  56  79 114 148 184 237 282 327
#     4  10  22  39  58  86 118 149 186 235 286 343
#     4  10  21  37  60  86 117 151 189 236 289 336
#     4  10  20  34  55  78 104 144 188 230 279 331
#     4   9  20  37  55  81 112 145 190 234 279 331
#
# _framework density 21.823643000000001
#
# number of rings (size 3 to 8) (size 9 to 14) (size 15 to 20)
#    0.000    2.250    0.000    3.000    0.000   11.500 
#    0.000   13.750    0.000    0.000    0.000    0.000 
#    0.000    0.000    0.000    0.000    0.000    0.000 
#
# Total GULP energy -198217.234809 kJ/mol
# GULP energy per Si atom -12388.577176 kJ/mol
# Density = 2.177397 g / cm^3
# Si number density = 21.823643 Si / 1000 Ang^3
#
#
#
# Elastic Constant Matrix: (Units=GPa)
#
#
# Indices 1 2 3 4 5 6 
#
# 1 42.2860 10.8107 5.2672 10.2489 9.5051 5.3332
# 2 10.8107 87.8700 36.5610 20.4768 -7.3160 18.5440
# 3 5.2672 36.5610 70.9893 -2.5369 57.3741 4.9820
# 4 10.2489 20.4768 -2.5369 15.9854 47.2954 2.8959
# 5 9.5051 -7.3160 57.3741 47.2954 -33.5084 12.5966
# 6 5.3332 18.5440 4.9820 2.8959 12.5966 33.4852
#
#
#
# Elastic Compliance Matrix: (Units=1/GPa)
#
#
# Indices 1 2 3 4 5 6 
#
# 1 0.026573 -0.001573 0.000629 -0.007527 -0.002383 -0.001908
# 2 -0.001573 0.012369 -0.001565 0.001538 -0.005343 -0.004490
# 3 0.000629 -0.001565 0.010912 -0.009903 0.004579 -0.001723
# 4 -0.007527 0.001538 -0.009903 0.024791 0.013530 -0.005413
# 5 -0.002383 -0.005343 0.004579 0.013530 -0.001626 0.002099
# 6 -0.001908 -0.004490 -0.001723 -0.005413 0.002099 0.032589
#
#
# Mechanical properties :
#
#
# Convention : Reuss Voigt Hill
#
# Bulk Modulus (GPa) = 22.30327 34.04704 28.17515
# Shear Modulus (GPa) = 39.81790 13.09287 26.45539
#
# Velocity S-wave (km/s) = 4.27609 2.45202 3.48549
# Velocity P-wave (km/s) = 5.88403 4.86327 5.39784
#
# Compressibility (1/GPa) = 0.04483647
#
# Stress axis : x y z
#
# Youngs Moduli (GPa) = 37.63260 80.84507 91.64119
#
# Poissons Ratio (x) = 0.12715 -0.05765
# Poissons Ratio (y) = 0.05919 0.14343
# Poissons Ratio (z) = -0.02367 0.12653
#
# Static dielectric constant tensor:
#      x y z
#    x 4.007130 0.194120 0.010690 
#    y 0.194120 4.278960 0.097990 
#    z 0.010690 0.097990 4.460650 
# 
# 
# High freq. dielectric constant tensor:
#      x y z
#    x 1.861020 0.007020 0.006790 
#    y 0.007020 1.846030 0.011820 
#    z 0.006790 0.011820 1.863750 
# 
# From -- ./inp_files/315474.got.cif
#   From: 2010.06.25/outbox.cif.g09.slc.cpg/sg2_158_cif.got.tgz:315474.got - 2010.06.27 13:26:56.
