data_PCOD8001085
_publ_section_title
;
Structure prediction by ZEFSAII (Michael W. Deem and Ramdas Pophale) SiO2 
 PCOD8001085
Probable space group: P -1
;
_chemical_formula_sum "Si O2"
_cell_formula_units_Z 16
_cell_length_a 9.187000
_cell_length_b 12.195181
_cell_length_c 12.582509
_cell_angle_alpha 92.307037
_cell_angle_beta 130.792180
_cell_angle_gamma 118.071795
_cell_volume 804.104062
_symmetry_space_group_name_H-M "P -1"
_symmetry_group_IT_number 2
_symmetry_cell_setting 'triclinic'
loop_
_space_group_symop_operation_xyz
x,y,z
-x,-y,-z
loop_
_atom_site_type_symbol
_atom_site_label
_atom_site_fract_x
_atom_site_fract_y
_atom_site_fract_z
Si Si1 0.269952 0.641343 0.595600
Si Si2 0.938989 0.140613 0.033038
Si Si3 0.614780 0.652901 0.110766
Si Si4 0.397250 0.430076 0.335049
Si Si5 0.305825 0.164843 0.041350
Si Si6 0.173961 0.812499 0.415519
Si Si7 0.695429 0.396080 0.842030
Si Si8 0.606319 0.131562 0.705300
O O1 0.417023 0.592229 0.620789
O O2 0.415947 0.745705 0.770792
O O3 0.260227 0.729616 0.503251
O O4 0.000000 0.500000 0.500000
O O5 0.722965 0.127469 0.868959
O O6 0.813398 0.999924 0.040564
O O7 0.104735 0.278065 0.196880
O O8 0.125782 0.163814 0.034082
O O9 0.414206 0.633747 0.093098
O O10 0.878515 0.722109 0.298395
O O11 0.500000 0.500000 0.000000
O O12 0.674574 0.766673 0.056992
O O13 0.500000 0.500000 0.500000
O O14 0.399097 0.532961 0.261646
O O15 0.209117 0.819686 0.305335
O O16 0.334501 0.973468 0.546994
O O17 0.572533 0.248038 0.714408
O O18 0.000000 0.500000 0.000000
#
# Coordination Sequence:
#
# PCOD8001085 Si02
#       8
#     2   2   2   2   2   2   2   2
#     4  11  22  40  61  93 129 161 209 271 315 379
#     4  10  19  41  65  92 130 164 214 265 316 382
#     4  12  24  42  65  98 131 172 220 266 321 384
#     4  11  24  41  65  94 124 168 213 263 323 381
#     4  10  21  37  67  93 124 170 214 262 320 375
#     4  11  23  40  70  97 125 170 220 264 322 389
#     4  12  25  43  67  93 134 174 215 269 327 384
#     4  11  22  41  67  96 129 169 217 266 321 388
#
# _framework density 19.897922999999999
#
# number of rings (size 3 to 8) (size 9 to 14) (size 15 to 20)
#    0.000    1.000    3.750    4.500    0.000    2.500 
#    0.000    1.875    0.000    0.000    0.000    0.000 
#    0.000    0.000    0.000    0.000    0.000    0.000 
#
# Total GULP energy -198440.842073 kJ/mol
# GULP energy per Si atom -12402.552630 kJ/mol
# Density = 1.985263 g / cm^3
# Si number density = 19.897923 Si / 1000 Ang^3
#
#
#
# Elastic Constant Matrix: (Units=GPa)
#
#
# Indices 1 2 3 4 5 6 
#
# 1 89.5167 48.9089 47.2667 15.8525 4.7781 -5.2474
# 2 48.9089 168.4449 66.8684 4.6479 -4.0365 -9.6352
# 3 47.2667 66.8684 134.4238 12.7524 2.0496 -9.8800
# 4 15.8525 4.6479 12.7524 46.9992 -5.2598 0.3260
# 5 4.7781 -4.0365 2.0496 -5.2598 33.7765 3.4547
# 6 -5.2474 -9.6352 -9.8800 0.3260 3.4547 25.1534
#
#
#
# Elastic Compliance Matrix: (Units=1/GPa)
#
#
# Indices 1 2 3 4 5 6 
#
# 1 0.015689 -0.003079 -0.003425 -0.004424 -0.003196 0.001244
# 2 -0.003079 0.008090 -0.003009 0.001235 0.001672 0.001029
# 3 -0.003425 -0.003009 0.010476 -0.001517 -0.000993 0.002404
# 4 -0.004424 0.001235 -0.001517 0.023604 0.004746 -0.002004
# 5 -0.003196 0.001672 -0.000993 0.004746 0.031550 -0.004811
# 6 0.001244 0.001029 0.002404 -0.002004 -0.004811 0.042041
#
#
# Mechanical properties :
#
#
# Convention : Reuss Voigt Hill
#
# Bulk Modulus (GPa) = 65.66287 79.83036 72.74662
# Shear Modulus (GPa) = 32.14382 36.47523 34.30953
#
# Velocity S-wave (km/s) = 4.02361 4.28614 4.15695
# Velocity P-wave (km/s) = 7.39306 8.04374 7.72525
#
# Compressibility (1/GPa) = 0.01522931
#
# Stress axis : x y z
#
# Youngs Moduli (GPa) = 63.73942 123.61147 95.45739
#
# Poissons Ratio (x) = 0.38060 0.32695
# Poissons Ratio (y) = 0.19625 0.28719
# Poissons Ratio (z) = 0.21831 0.37190
#
# Static dielectric constant tensor:
#      x y z
#    x 3.389890 -0.042560 0.025670 
#    y -0.042560 3.936110 0.136370 
#    z 0.025670 0.136370 3.958740 
# 
# 
# High freq. dielectric constant tensor:
#      x y z
#    x 1.751550 -0.005770 0.008120 
#    y -0.005770 1.798620 0.003180 
#    z 0.008120 0.003180 1.791560 
# 
# From -- ./inp_files/244432.got.cif
#   From: 2010.06.25/outbox.cif.g09.slc.cpg/sg2_123_cif.got.tgz:244432.got - 2010.06.27 13:26:56.
