data_PCOD8001953
_publ_section_title
;
Structure prediction by ZEFSAII (Michael W. Deem and Ramdas Pophale) SiO2 
 PCOD8001953
Probable space group: P -1
;
_chemical_formula_sum "Si O2"
_cell_formula_units_Z 16
_cell_length_a 11.279682
_cell_length_b 6.611811
_cell_length_c 14.253272
_cell_angle_alpha 61.131569
_cell_angle_beta 112.118508
_cell_angle_gamma 123.165228
_cell_volume 770.036813
_symmetry_space_group_name_H-M "P -1"
_symmetry_group_IT_number 2
_symmetry_cell_setting 'triclinic'
loop_
_space_group_symop_operation_xyz
x,y,z
-x,-y,-z
loop_
_atom_site_type_symbol
_atom_site_label
_atom_site_fract_x
_atom_site_fract_y
_atom_site_fract_z
Si Si1 0.877958 0.173941 0.402345
Si Si2 0.016254 0.115421 0.628186
Si Si3 0.533656 0.945657 0.710395
Si Si4 0.404404 0.772342 0.146910
Si Si5 0.255630 0.198284 0.272632
Si Si6 0.247022 0.457418 0.750748
Si Si7 0.406148 0.214574 0.505241
Si Si8 0.596348 0.739334 0.043986
O O1 0.961444 0.271501 0.505380
O O2 0.848933 0.393391 0.292291
O O3 0.730329 0.921363 0.435825
O O4 0.981939 0.120798 0.376066
O O5 0.175865 0.288178 0.675114
O O6 0.909234 0.992855 0.711741
O O7 0.686091 0.932885 0.760051
O O8 0.412511 0.651080 0.740609
O O9 0.520540 0.112133 0.756806
O O10 0.506770 0.070474 0.579499
O O11 0.274043 0.483281 0.186322
O O12 0.513858 0.745328 0.112988
O O13 0.349688 0.979525 0.050069
O O14 0.357788 0.217033 0.385147
O O15 0.258314 0.284640 0.879217
O O16 0.500000 0.500000 0.500000
O O17 0.500000 0.500000 0.000000
#
# Coordination Sequence:
#
# PCOD8001953 Si02
#       8
#     2   2   2   2   2   2   2   2
#     4   9  22  40  59  88 128 167 211 244 306 372
#     4  10  23  41  59  89 128 171 204 247 306 379
#     4  11  22  37  62  94 122 160 208 259 308 369
#     4  11  22  39  65  90 127 156 203 263 320 360
#     4  11  22  40  58  91 128 167 201 256 311 367
#     4  11  22  37  65  89 119 160 206 256 305 367
#     4  10  20  34  60  93 124 161 205 256 308 366
#     4  11  23  40  64  99 121 156 207 270 319 360
#
# _framework density 20.778224999999999
#
# number of rings (size 3 to 8) (size 9 to 14) (size 15 to 20)
#    0.000    1.500    3.750    0.750    5.250    1.000 
#    2.250    0.625    0.000    3.750    0.000    0.000 
#    0.000    0.000    0.000    0.000    0.000    0.000 
#
# Total GULP energy -198235.801180 kJ/mol
# GULP energy per Si atom -12389.737574 kJ/mol
# Density = 2.073093 g / cm^3
# Si number density = 20.778225 Si / 1000 Ang^3
#
#
#
# Elastic Constant Matrix: (Units=GPa)
#
#
# Indices 1 2 3 4 5 6 
#
# 1 83.8996 34.4421 37.1863 -2.5418 3.9992 -12.0442
# 2 34.4421 80.1216 24.3580 9.5785 0.3614 -15.6842
# 3 37.1863 24.3580 93.4263 -0.9700 23.1677 -18.2241
# 4 -2.5418 9.5785 -0.9700 35.5921 -8.0630 11.5628
# 5 3.9992 0.3614 23.1677 -8.0630 37.6666 -1.7611
# 6 -12.0442 -15.6842 -18.2241 11.5628 -1.7611 21.6975
#
#
#
# Elastic Compliance Matrix: (Units=1/GPa)
#
#
# Indices 1 2 3 4 5 6 
#
# 1 0.016937 -0.006383 -0.006224 0.004205 0.002877 -0.002448
# 2 -0.006383 0.019855 0.001301 -0.012145 -0.002061 0.018206
# 3 -0.006224 0.001301 0.019102 -0.008585 -0.012138 0.017119
# 4 0.004205 -0.012145 -0.008585 0.046565 0.013170 -0.037403
# 5 0.002877 -0.002061 -0.012138 0.013170 0.035885 -0.014194
# 6 -0.002448 0.018206 0.017119 -0.037403 -0.014194 0.091049
#
#
# Mechanical properties :
#
#
# Convention : Reuss Voigt Hill
#
# Bulk Modulus (GPa) = 30.04790 49.93557 39.99173
# Shear Modulus (GPa) = 19.00411 29.75532 24.37972
#
# Velocity S-wave (km/s) = 3.02754 3.78834 3.42911
# Velocity P-wave (km/s) = 5.16856 6.57421 5.91330
#
# Compressibility (1/GPa) = 0.03328020
#
# Stress axis : x y z
#
# Youngs Moduli (GPa) = 59.04182 50.36542 52.34966
#
# Poissons Ratio (x) = 0.32150 0.32585
# Poissons Ratio (y) = 0.37688 -0.06809
# Poissons Ratio (z) = 0.36750 -0.06551
#
# Static dielectric constant tensor:
#      x y z
#    x 3.505740 -0.202330 -0.366060 
#    y -0.202330 3.811280 -0.018710 
#    z -0.366060 -0.018710 2.569010 
# 
# 
# High freq. dielectric constant tensor:
#      x y z
#    x 1.789170 -0.020370 0.009990 
#    y -0.020370 1.815990 -0.010640 
#    z 0.009990 -0.010640 1.813240 
# 
# From -- ./inp_files/94400.got.cif
#   From: 2010.06.25/outbox.cif.g09.slc.cpg/sg2_48_cif.got.tgz:94400.got - 2010.06.27 13:26:56.
