data_PCOD8001429
_publ_section_title
;
Structure prediction by ZEFSAII (Michael W. Deem and Ramdas Pophale) SiO2 
 PCOD8001429
Probable space group: P -1
;
_chemical_formula_sum "Si O2"
_cell_formula_units_Z 14
_cell_length_a 13.952660
_cell_length_b 13.381249
_cell_length_c 11.376380
_cell_angle_alpha 60.378061
_cell_angle_beta 117.521168
_cell_angle_gamma 157.481986
_cell_volume 707.034323
_symmetry_space_group_name_H-M "P -1"
_symmetry_group_IT_number 2
_symmetry_cell_setting 'triclinic'
loop_
_space_group_symop_operation_xyz
x,y,z
-x,-y,-z
loop_
_atom_site_type_symbol
_atom_site_label
_atom_site_fract_x
_atom_site_fract_y
_atom_site_fract_z
Si Si1 0.338970 0.023588 0.117368
Si Si2 0.528492 0.528891 0.858670
Si Si3 0.474388 0.212309 0.333507
Si Si4 0.957626 0.046312 0.056525
Si Si5 0.670720 0.266601 0.981220
Si Si6 0.013445 0.390994 0.508302
Si Si7 0.923551 0.459016 0.791258
O O1 0.268696 0.821756 0.202892
O O2 0.511128 0.217044 0.214595
O O3 0.098951 0.878339 0.064172
O O4 0.500590 0.200776 0.985956
O O5 0.547818 0.672944 0.730312
O O6 0.785270 0.707427 0.865669
O O7 0.281726 0.227590 0.843741
O O8 0.500000 0.500000 0.000000
O O9 0.717274 0.405004 0.429721
O O10 0.216370 0.908495 0.408077
O O11 0.000000 0.000000 0.000000
O O12 0.813072 0.439823 0.840863
O O13 0.853787 0.399052 0.109178
O O14 0.500000 0.000000 0.000000
O O15 0.987405 0.377705 0.360896
O O16 0.000000 0.500000 0.500000
#
# Coordination Sequence:
#
# PCOD8001429 Si02
#       7
#     2   2   2   2   2   2   2
#     4  11  21  33  60  85 122 147 196 235 298 339
#     4  10  20  35  53  78 120 148 193 232 288 336
#     4  12  24  36  56  87 123 159 187 228 291 357
#     4  10  20  32  54  84 115 149 181 246 287 340
#     4   9  21  38  59  81 112 153 197 251 279 331
#     4  12  25  36  56  85 122 162 189 226 288 357
#     4  10  22  39  57  82 122 151 201 234 285 345
#
# _framework density 19.801019
#
# number of rings (size 3 to 8) (size 9 to 14) (size 15 to 20)
#    0.000    1.429    4.286    2.143    8.000    0.000 
#    0.000    0.000    0.000    0.000    0.000    6.000 
#    0.000    0.000    0.000    0.000    0.000    0.000 
#
# Total GULP energy -173465.900069 kJ/mol
# GULP energy per Si atom -12390.421433 kJ/mol
# Density = 1.975595 g / cm^3
# Si number density = 19.801019 Si / 1000 Ang^3
#
#
#
# Elastic Constant Matrix: (Units=GPa)
#
#
# Indices 1 2 3 4 5 6 
#
# 1 67.9874 11.6326 40.1208 -2.0694 -9.4604 21.6858
# 2 11.6326 122.2542 27.5156 -7.8150 0.1951 16.6856
# 3 40.1208 27.5156 98.0233 -6.3606 -3.5958 7.6247
# 4 -2.0694 -7.8150 -6.3606 30.8884 -3.4261 5.3228
# 5 -9.4604 0.1951 -3.5958 -3.4261 28.3106 -0.4681
# 6 21.6858 16.6856 7.6247 5.3228 -0.4681 28.2183
#
#
#
# Elastic Compliance Matrix: (Units=1/GPa)
#
#
# Indices 1 2 3 4 5 6 
#
# 1 0.028419 0.002841 -0.010098 0.005211 0.008467 -0.021634
# 2 0.002841 0.009895 -0.003074 0.003501 0.000785 -0.007851
# 3 -0.010098 -0.003074 0.014755 0.000493 -0.001329 0.005476
# 4 0.005211 0.003501 0.000493 0.036619 0.005996 -0.013016
# 5 0.008467 0.000785 -0.001329 0.005996 0.038586 -0.007103
# 6 -0.021634 -0.007851 0.005476 -0.013016 -0.007103 0.057564
#
#
# Mechanical properties :
#
#
# Convention : Reuss Voigt Hill
#
# Bulk Modulus (GPa) = 30.85712 49.64475 40.25093
# Shear Modulus (GPa) = 23.00958 31.41652 27.21305
#
# Velocity S-wave (km/s) = 3.41257 3.98755 3.71121
# Velocity P-wave (km/s) = 5.58076 6.80639 6.22382
#
# Compressibility (1/GPa) = 0.03240743
#
# Stress axis : x y z
#
# Youngs Moduli (GPa) = 35.18820 101.05850 67.77479
#
# Poissons Ratio (x) = -0.28709 0.68437
# Poissons Ratio (y) = -0.09996 0.20832
# Poissons Ratio (z) = 0.35532 0.31063
#
# Static dielectric constant tensor:
#      x y z
#    x 3.802830 0.138280 -0.153250 
#    y 0.138280 3.589460 -0.095390 
#    z -0.153250 -0.095390 3.564530 
# 
# 
# High freq. dielectric constant tensor:
#      x y z
#    x 1.753160 0.017910 0.011830 
#    y 0.017910 1.796720 -0.001270 
#    z 0.011830 -0.001270 1.737610 
# 
# From -- ./inp_files/65517.got.cif
#   From: 2010.06.25/outbox.cif.g09.slc.cpg/sg2_33_cif.got.tgz:65517.got - 2010.06.27 13:26:56.
