data_PCOD8001867
_publ_section_title
;
Structure prediction by ZEFSAII (Michael W. Deem and Ramdas Pophale) SiO2 
 PCOD8001867
Probable space group: P -1
;
_chemical_formula_sum "Si O2"
_cell_formula_units_Z 14
_cell_length_a 12.759903
_cell_length_b 8.085219
_cell_length_c 11.974990
_cell_angle_alpha 130.238360
_cell_angle_beta 59.598276
_cell_angle_gamma 131.164563
_cell_volume 702.902721
_symmetry_space_group_name_H-M "P -1"
_symmetry_group_IT_number 2
_symmetry_cell_setting 'triclinic'
loop_
_space_group_symop_operation_xyz
x,y,z
-x,-y,-z
loop_
_atom_site_type_symbol
_atom_site_label
_atom_site_fract_x
_atom_site_fract_y
_atom_site_fract_z
Si Si1 0.679594 0.971417 0.688978
Si Si2 0.356243 0.220171 0.138959
Si Si3 0.624762 0.455246 0.477148
Si Si4 0.836452 0.606409 0.609871
Si Si5 0.844082 0.119214 0.454679
Si Si6 0.584413 0.734802 0.305735
Si Si7 0.572942 0.992242 0.200226
O O1 0.707515 0.973658 0.807040
O O2 0.588493 0.677371 0.562186
O O3 0.819165 0.104406 0.595887
O O4 0.592285 0.114573 0.779856
O O5 0.255381 0.339113 0.225932
O O6 0.516441 0.441511 0.177956
O O7 0.353696 0.073127 0.966608
O O8 0.778141 0.619075 0.524441
O O9 0.519997 0.258051 0.541513
O O10 0.641793 0.295923 0.299320
O O11 0.816498 0.333668 0.516820
O O12 0.998777 0.820599 0.626725
O O13 0.739059 0.859175 0.333198
O O14 0.596311 0.891433 0.258563
#
# Coordination Sequence:
#
# PCOD8001867 Si02
#       7
#     2   2   2   2   2   2   2
#     4  10  21  34  58  84 107 143 181 228 268 316
#     4  10  24  35  53  84 117 142 176 216 285 326
#     4  10  20  34  58  86 107 138 190 222 268 313
#     4   9  21  38  57  84 103 143 187 225 266 320
#     4  11  19  36  64  79 106 138 193 229 259 310
#     4  10  20  34  58  85 101 146 183 227 263 313
#     4  12  19  35  56  82 118 140 174 229 269 324
#
# _framework density 19.917408999999999
#
# number of rings (size 3 to 8) (size 9 to 14) (size 15 to 20)
#    0.000    2.000    2.857    3.429    2.000    2.286 
#    0.000    0.714    3.143    1.714    0.000    0.000 
#    0.000    0.000    0.000    0.000    0.000    0.000 
#
# Total GULP energy -173468.088779 kJ/mol
# GULP energy per Si atom -12390.577770 kJ/mol
# Density = 1.987208 g / cm^3
# Si number density = 19.917409 Si / 1000 Ang^3
#
#
#
# Elastic Constant Matrix: (Units=GPa)
#
#
# Indices 1 2 3 4 5 6 
#
# 1 77.0013 31.1291 42.1363 -1.9099 0.2611 13.8839
# 2 31.1291 59.9643 28.8521 -11.2391 3.3030 9.9614
# 3 42.1363 28.8521 142.7767 2.4013 -7.3304 6.3854
# 4 -1.9099 -11.2391 2.4013 21.3367 -5.7447 6.2449
# 5 0.2611 3.3030 -7.3304 -5.7447 22.3273 -2.7488
# 6 13.8839 9.9614 6.3854 6.2449 -2.7488 32.9707
#
#
#
# Elastic Compliance Matrix: (Units=1/GPa)
#
#
# Indices 1 2 3 4 5 6 
#
# 1 0.018942 -0.007083 -0.003987 -0.000427 -0.001218 -0.005085
# 2 -0.007083 0.026020 -0.003190 0.015065 -0.001833 -0.007267
# 3 -0.003987 -0.003190 0.008948 -0.002738 0.002958 0.001675
# 4 -0.000427 0.015065 -0.002738 0.062376 0.011113 -0.014730
# 5 -0.001218 -0.001833 0.002958 0.011113 0.049211 0.002492
# 6 -0.005085 -0.007267 0.001675 -0.014730 0.002492 0.037340
#
#
# Mechanical properties :
#
#
# Convention : Reuss Voigt Hill
#
# Bulk Modulus (GPa) = 39.38496 53.77524 46.58010
# Shear Modulus (GPa) = 20.84876 27.16860 24.00868
#
# Velocity S-wave (km/s) = 3.23888 3.69733 3.47567
# Velocity P-wave (km/s) = 5.81414 6.72939 6.28844
#
# Compressibility (1/GPa) = 0.02539040
#
# Stress axis : x y z
#
# Youngs Moduli (GPa) = 52.79135 38.43132 111.75378
#
# Poissons Ratio (x) = 0.27222 0.44555
# Poissons Ratio (y) = 0.37394 0.35652
# Poissons Ratio (z) = 0.21047 0.12260
#
# Static dielectric constant tensor:
#      x y z
#    x 3.679450 -0.124250 0.036460 
#    y -0.124250 3.566900 0.036260 
#    z 0.036460 0.036260 3.502560 
# 
# 
# High freq. dielectric constant tensor:
#      x y z
#    x 1.773930 -0.020640 0.006530 
#    y -0.020640 1.765120 0.000670 
#    z 0.006530 0.000670 1.756730 
# 
# From -- ./inp_files/445176.got.cif
#   From: 2010.06.25/outbox.cif.g09.slc.cpg/sg2_223_cif.got.tgz:445176.got - 2010.06.27 13:26:56.
