data_PCOD8001170
_publ_section_title
;
Structure prediction by ZEFSAII (Michael W. Deem and Ramdas Pophale) SiO2 
 PCOD8001170
Probable space group: P -1
;
_chemical_formula_sum "Si O2"
_cell_formula_units_Z 16
_cell_length_a 15.179680
_cell_length_b 14.303724
_cell_length_c 12.424245
_cell_angle_alpha 140.539799
_cell_angle_beta 150.621965
_cell_angle_gamma 32.937809
_cell_volume 711.116615
_symmetry_space_group_name_H-M "P -1"
_symmetry_group_IT_number 2
_symmetry_cell_setting 'triclinic'
loop_
_space_group_symop_operation_xyz
x,y,z
-x,-y,-z
loop_
_atom_site_type_symbol
_atom_site_label
_atom_site_fract_x
_atom_site_fract_y
_atom_site_fract_z
Si Si1 0.478784 0.455258 0.765166
Si Si2 0.301382 0.631414 0.523833
Si Si3 0.941803 0.621010 0.223927
Si Si4 0.685870 0.750008 0.701874
Si Si5 0.133721 0.328221 0.560888
Si Si6 0.802166 0.261732 0.107121
Si Si7 0.587401 0.062061 0.742228
Si Si8 0.571232 0.706780 0.758827
O O1 0.483192 0.533127 0.723142
O O2 0.410285 0.314509 0.549997
O O3 0.307568 0.604365 0.793008
O O4 0.709380 0.359055 0.980423
O O5 0.346110 0.768832 0.635128
O O6 0.320530 0.496398 0.334627
O O7 0.073436 0.711868 0.411291
O O8 0.900141 0.632773 0.315542
O O9 0.083466 0.413860 0.162426
O O10 0.723537 0.725222 0.019560
O O11 0.537624 0.815296 0.710181
O O12 0.696571 0.911207 0.814191
O O13 0.384073 0.239164 0.728553
O O14 0.000000 0.500000 0.500000
O O15 0.050621 0.200286 0.322928
O O16 0.767585 0.101347 0.936406
O O17 0.500000 0.000000 0.500000
#
# Coordination Sequence:
#
# PCOD8001170 Si02
#       8
#     2   2   2   2   2   2   2   2
#     4   9  17  34  64  87 119 156 204 252 299 358
#     4   9  17  33  55  94 121 146 207 262 294 346
#     4  10  20  38  64  92 117 158 215 255 291 365
#     4  10  19  42  60  93 128 157 203 261 306 357
#     4  12  25  40  65  95 121 165 216 249 301 382
#     4  11  21  39  62  90 121 166 204 250 307 371
#     4  12  26  43  61  90 135 164 193 261 319 366
#     4   9  19  33  63  91 118 161 203 256 303 355
#
# _framework density 22.499825000000001
#
# number of rings (size 3 to 8) (size 9 to 14) (size 15 to 20)
#    0.000    2.000    3.750    3.750    3.500    0.500 
#    0.000    5.625    0.000    1.500    0.000    0.000 
#    0.000    0.000    0.000    0.000    0.000    0.000 
#
# Total GULP energy -198261.534353 kJ/mol
# GULP energy per Si atom -12391.345897 kJ/mol
# Density = 2.244861 g / cm^3
# Si number density = 22.499825 Si / 1000 Ang^3
#
#
#
# Elastic Constant Matrix: (Units=GPa)
#
#
# Indices 1 2 3 4 5 6 
#
# 1 101.9912 2.3182 36.3674 9.3254 -0.7709 15.7660
# 2 2.3182 37.7026 6.6366 7.3712 5.1028 11.9451
# 3 36.3674 6.6366 98.7251 -0.5285 -3.3633 16.7040
# 4 9.3254 7.3712 -0.5285 19.1369 1.9994 5.5011
# 5 -0.7709 5.1028 -3.3633 1.9994 37.3270 1.2277
# 6 15.7660 11.9451 16.7040 5.5011 1.2277 25.9191
#
#
#
# Elastic Compliance Matrix: (Units=1/GPa)
#
#
# Indices 1 2 3 4 5 6 
#
# 1 0.012455 0.002646 -0.003945 -0.005752 0.000014 -0.005033
# 2 0.002646 0.033405 -0.001007 -0.009749 -0.003616 -0.014115
# 3 -0.003945 -0.001007 0.012790 0.004369 0.001184 -0.006362
# 4 -0.005752 -0.009749 0.004369 0.061316 -0.001421 -0.007770
# 5 0.000014 -0.003616 0.001184 -0.001421 0.027471 -0.000104
# 6 -0.005033 -0.014115 -0.006362 -0.007770 -0.000104 0.053903
#
#
# Mechanical properties :
#
#
# Convention : Reuss Voigt Hill
#
# Bulk Modulus (GPa) = 18.50534 36.56260 27.53397
# Shear Modulus (GPa) = 22.32477 29.34969 25.83723
#
# Velocity S-wave (km/s) = 3.15337 3.61562 3.39238
# Velocity P-wave (km/s) = 4.63690 5.80653 5.25436
#
# Compressibility (1/GPa) = 0.05403845
#
# Stress axis : x y z
#
# Youngs Moduli (GPa) = 80.28690 29.93520 78.18482
#
# Poissons Ratio (x) = -0.07921 0.30842
# Poissons Ratio (y) = -0.21243 0.07877
# Poissons Ratio (z) = 0.31671 0.03016
#
# Static dielectric constant tensor:
#      x y z
#    x 4.511850 0.071840 0.160520 
#    y 0.071840 3.650940 -0.079680 
#    z 0.160520 -0.079680 4.224490 
# 
# 
# High freq. dielectric constant tensor:
#      x y z
#    x 1.905880 0.015060 -0.005380 
#    y 0.015060 1.822950 -0.002070 
#    z -0.005380 -0.002070 1.892580 
# 
# From -- ./inp_files/455126.got.cif
#   From: 2010.06.25/outbox.cif.g09.slc.cpg/sg2_228_cif.got.tgz:455126.got - 2010.06.27 13:26:56.
