data_PCOD8001227
_publ_section_title
;
Structure prediction by ZEFSAII (Michael W. Deem and Ramdas Pophale) SiO2 
 PCOD8001227
Probable space group: P -1
;
_chemical_formula_sum "Si O2"
_cell_formula_units_Z 14
_cell_length_a 9.368907
_cell_length_b 7.877634
_cell_length_c 10.446686
_cell_angle_alpha 131.052378
_cell_angle_beta 90.213501
_cell_angle_gamma 83.150848
_cell_volume 574.408847
_symmetry_space_group_name_H-M "P -1"
_symmetry_group_IT_number 2
_symmetry_cell_setting 'triclinic'
loop_
_space_group_symop_operation_xyz
x,y,z
-x,-y,-z
loop_
_atom_site_type_symbol
_atom_site_label
_atom_site_fract_x
_atom_site_fract_y
_atom_site_fract_z
Si Si1 0.739904 0.064088 0.805424
Si Si2 0.812089 0.734647 0.884380
Si Si3 0.671117 0.369763 0.582104
Si Si4 0.157053 0.066885 0.539177
Si Si5 0.555217 0.972803 0.130829
Si Si6 0.634787 0.433317 0.346837
Si Si7 0.859987 0.415812 0.128730
O O1 0.564358 0.131217 0.837407
O O2 0.793149 0.896718 0.840255
O O3 0.785147 0.937563 0.608851
O O4 0.806354 0.302250 0.942256
O O5 0.762842 0.489856 0.742789
O O6 0.977557 0.701216 0.908295
O O7 0.715894 0.829066 0.054342
O O8 0.699234 0.506867 0.517675
O O9 0.499319 0.398421 0.632798
O O10 0.736046 0.102900 0.454849
O O11 0.156823 0.310953 0.728223
O O12 0.000000 0.000000 0.500000
O O13 0.564288 0.224219 0.306245
O O14 0.500000 0.000000 0.000000
O O15 0.758924 0.339983 0.202450
#
# Coordination Sequence:
#
# PCOD8001227 Si02
#       7
#     2   2   2   2   2   2   2
#     4  11  24  46  74 104 139 186 237 291 354 415
#     4  11  21  43  74 102 140 175 243 299 341 410
#     4  11  24  45  68  99 144 187 228 297 348 412
#     4  12  29  48  66 103 157 186 228 287 359 427
#     4  10  19  42  69 104 136 166 235 305 340 403
#     4  11  23  43  75 102 132 182 247 293 342 413
#     4  12  25  44  74 108 136 189 238 285 360 417
#
# _framework density 24.372882000000001
#
# number of rings (size 3 to 8) (size 9 to 14) (size 15 to 20)
#    0.000    0.857    7.143    1.286    4.000    2.286 
#    2.571    1.429    0.000    0.000    0.000    0.000 
#    0.000    0.000    0.000    0.000    0.000    0.000 
#
# Total GULP energy -173460.273418 kJ/mol
# GULP energy per Si atom -12390.019530 kJ/mol
# Density = 2.431741 g / cm^3
# Si number density = 24.372882 Si / 1000 Ang^3
#
#
#
# Elastic Constant Matrix: (Units=GPa)
#
#
# Indices 1 2 3 4 5 6 
#
# 1 176.1238 43.9042 26.2160 10.4381 -27.1361 -14.4695
# 2 43.9042 75.0657 17.1214 19.7480 -3.9087 -11.4653
# 3 26.2160 17.1214 56.2867 23.5826 -7.8144 -2.5168
# 4 10.4381 19.7480 23.5826 42.1350 10.6991 -4.1990
# 5 -27.1361 -3.9087 -7.8144 10.6991 42.7467 9.1198
# 6 -14.4695 -11.4653 -2.5168 -4.1990 9.1198 31.7708
#
#
#
# Elastic Compliance Matrix: (Units=1/GPa)
#
#
# Indices 1 2 3 4 5 6 
#
# 1 0.007536 -0.003646 -0.001774 -0.000092 0.003974 0.000823
# 2 -0.003646 0.017993 -0.000781 -0.006718 0.000043 0.003870
# 3 -0.001774 -0.000781 0.026941 -0.016859 0.008735 -0.003691
# 4 -0.000092 -0.006718 -0.016859 0.040805 -0.015241 0.005966
# 5 0.003974 0.000043 0.008735 -0.015241 0.033261 -0.009044
# 6 0.000823 0.003870 -0.003691 0.005966 -0.009044 0.036339
#
#
# Mechanical properties :
#
#
# Convention : Reuss Voigt Hill
#
# Bulk Modulus (GPa) = 24.95764 53.55104 39.25434
# Shear Modulus (GPa) = 26.50637 38.01281 32.25959
#
# Velocity S-wave (km/s) = 3.30136 3.95351 3.64206
# Velocity P-wave (km/s) = 4.97937 6.54672 5.81608
#
# Compressibility (1/GPa) = 0.04006789
#
# Stress axis : x y z
#
# Youngs Moduli (GPa) = 132.69402 55.57657 37.11827
#
# Poissons Ratio (x) = 0.20265 0.06584
# Poissons Ratio (y) = 0.48384 0.02900
# Poissons Ratio (z) = 0.23536 0.04342
#
# Static dielectric constant tensor:
#      x y z
#    x 4.706170 0.202100 -0.503410 
#    y 0.202100 3.943390 0.575340 
#    z -0.503410 0.575340 2.601900 
# 
# 
# High freq. dielectric constant tensor:
#      x y z
#    x 1.982670 -0.000130 0.001730 
#    y -0.000130 1.932040 0.014420 
#    z 0.001730 0.014420 1.992650 
# 
# From -- ./inp_files/380615.got.cif
#   From: 2010.06.25/outbox.cif.g09.slc.cpg/sg2_191_cif.got.tgz:380615.got - 2010.06.27 13:26:56.
