data_PCOD8001082
_publ_section_title
;
Structure prediction by ZEFSAII (Michael W. Deem and Ramdas Pophale) SiO2 
 PCOD8001082
Probable space group: P -1
;
_chemical_formula_sum "Si O2"
_cell_formula_units_Z 12
_cell_length_a 14.065205
_cell_length_b 8.643662
_cell_length_c 8.693120
_cell_angle_alpha 74.020064
_cell_angle_beta 52.728210
_cell_angle_gamma 43.456287
_cell_volume 551.778645
_symmetry_space_group_name_H-M "P -1"
_symmetry_group_IT_number 2
_symmetry_cell_setting 'triclinic'
loop_
_space_group_symop_operation_xyz
x,y,z
-x,-y,-z
loop_
_atom_site_type_symbol
_atom_site_label
_atom_site_fract_x
_atom_site_fract_y
_atom_site_fract_z
Si Si1 0.221735 0.465121 0.425053
Si Si2 0.403442 0.413879 0.773234
Si Si3 0.112013 0.305851 0.819557
Si Si4 0.252934 0.730087 0.536041
Si Si5 0.924538 0.257950 0.800473
Si Si6 0.558318 0.976985 0.276470
O O1 0.153949 0.391965 0.621670
O O2 0.224151 0.639256 0.447782
O O3 0.101592 0.592901 0.356267
O O4 0.420762 0.221108 0.250816
O O5 0.332674 0.554603 0.646351
O O6 0.603720 0.273886 0.649158
O O7 0.404059 0.220108 0.806365
O O8 0.270024 0.602957 0.988239
O O9 0.270194 0.087520 0.833209
O O10 0.017550 0.247017 0.857397
O O11 0.000000 0.500000 0.000000
O O12 0.058170 0.986715 0.693810
O O13 0.500000 0.000000 0.500000
#
# Coordination Sequence:
#
# PCOD8001082 Si02
#       6
#     2   2   2   2   2   2
#     4  11  24  42  64  94 131 167 203 271 324 365
#     4  11  23  41  68  94 121 175 216 258 313 377
#     4  11  21  41  66  94 122 166 218 257 309 382
#     4  11  23  43  65  90 133 170 213 255 314 386
#     4  12  25  42  64  99 131 161 214 265 322 374
#     4  10  19  41  65  89 122 164 215 256 310 373
#
# _framework density 21.74785
#
# number of rings (size 3 to 8) (size 9 to 14) (size 15 to 20)
#    0.000    1.000    5.000    3.500    2.333    1.333 
#    3.000    0.000    0.000    0.000    0.000    0.000 
#    0.000    0.000    0.000    0.000    0.000    0.000 
#
# Total GULP energy -148665.913510 kJ/mol
# GULP energy per Si atom -12388.826126 kJ/mol
# Density = 2.169835 g / cm^3
# Si number density = 21.747850 Si / 1000 Ang^3
#
#
#
# Elastic Constant Matrix: (Units=GPa)
#
#
# Indices 1 2 3 4 5 6 
#
# 1 52.0639 36.6682 16.3561 10.8573 -8.0720 3.3525
# 2 36.6682 108.5706 18.7663 38.4401 13.8577 0.6180
# 3 16.3561 18.7663 79.3715 33.1436 -3.0603 3.4423
# 4 10.8573 38.4401 33.1436 39.6118 -1.8266 -0.2880
# 5 -8.0720 13.8577 -3.0603 -1.8266 13.9979 2.3738
# 6 3.3525 0.6180 3.4423 -0.2880 2.3738 28.6852
#
#
#
# Elastic Compliance Matrix: (Units=1/GPa)
#
#
# Indices 1 2 3 4 5 6 
#
# 1 0.056154 -0.039862 -0.015323 0.039515 0.075296 -0.009699
# 2 -0.039862 0.047892 0.015277 -0.051739 -0.075081 0.007487
# 3 -0.015323 0.015277 0.024807 -0.032431 -0.022776 0.000044
# 4 0.039515 -0.051739 -0.032431 0.095422 0.080267 -0.005296
# 5 0.075296 -0.075081 -0.022776 0.080267 0.198080 -0.020035
# 6 -0.009699 0.007487 0.000044 -0.005296 -0.020035 0.037433
#
#
# Mechanical properties :
#
#
# Convention : Reuss Voigt Hill
#
# Bulk Modulus (GPa) = 20.39361 42.62079 31.50720
# Shear Modulus (GPa) = 8.99360 27.67333 18.33346
#
# Velocity S-wave (km/s) = 2.03577 3.57103 2.90660
# Velocity P-wave (km/s) = 3.86309 6.05337 5.07773
#
# Compressibility (1/GPa) = 0.04903496
#
# Stress axis : x y z
#
# Youngs Moduli (GPa) = 17.80820 20.88021 40.31111
#
# Poissons Ratio (x) = 0.83233 0.61770
# Poissons Ratio (y) = 0.70988 -0.61581
# Poissons Ratio (z) = 0.27288 -0.31898
#
# Static dielectric constant tensor:
#      x y z
#    x 4.069820 -0.268530 -0.162890 
#    y -0.268530 4.176320 0.544220 
#    z -0.162890 0.544220 4.093950 
# 
# 
# High freq. dielectric constant tensor:
#      x y z
#    x 1.857860 -0.010240 0.000180 
#    y -0.010240 1.856190 0.029150 
#    z 0.000180 0.029150 1.847320 
# 
# From -- ./inp_files/146342.got.cif
#   From: 2010.06.25/outbox.cif.g09.slc.cpg/sg2_74_cif.got.tgz:146342.got - 2010.06.27 13:26:56.
