data_PCOD8001221
_publ_section_title
;
Structure prediction by ZEFSAII (Michael W. Deem and Ramdas Pophale) SiO2 
 PCOD8001221
Probable space group: P -1
;
_chemical_formula_sum "Si O2"
_cell_formula_units_Z 16
_cell_length_a 9.151021
_cell_length_b 13.580562
_cell_length_c 12.032215
_cell_angle_alpha 85.624242
_cell_angle_beta 127.112612
_cell_angle_gamma 58.835297
_cell_volume 838.781593
_symmetry_space_group_name_H-M "P -1"
_symmetry_group_IT_number 2
_symmetry_cell_setting 'triclinic'
loop_
_space_group_symop_operation_xyz
x,y,z
-x,-y,-z
loop_
_atom_site_type_symbol
_atom_site_label
_atom_site_fract_x
_atom_site_fract_y
_atom_site_fract_z
Si Si1 0.046347 0.640735 0.998365
Si Si2 0.407374 0.626021 0.020325
Si Si3 0.607197 0.879394 0.920735
Si Si4 0.777573 0.181711 0.495778
Si Si5 0.802210 0.575241 0.739681
Si Si6 0.829057 0.817312 0.259392
Si Si7 0.888889 0.569486 0.324983
Si Si8 0.781114 0.140515 0.244861
O O1 0.244806 0.647784 0.047924
O O2 0.169901 0.536913 0.169079
O O3 0.782531 0.796574 0.900053
O O4 0.988349 0.587030 0.876880
O O5 0.649582 0.591577 0.183700
O O6 0.500000 0.500000 0.000000
O O7 0.221009 0.768074 0.849686
O O8 0.476459 0.825435 0.900457
O O9 0.381360 0.043642 0.773476
O O10 0.777647 0.855871 0.102201
O O11 0.494355 0.275217 0.410102
O O12 0.761155 0.190354 0.355010
O O13 0.888597 0.245517 0.579174
O O14 0.957668 0.023497 0.636605
O O15 0.888176 0.523898 0.657687
O O16 0.798339 0.716008 0.283991
O O17 0.000000 0.500000 0.500000
#
# Coordination Sequence:
#
# PCOD8001221 Si02
#       8
#     2   2   2   2   2   2   2   2
#     4  11  22  38  69  95 117 165 218 261 301 366
#     4  12  24  41  64  93 126 168 209 258 317 370
#     4  10  19  42  68  89 118 170 212 252 304 372
#     4  10  22  36  69  95 121 168 208 261 303 371
#     4  11  22  42  64  92 126 161 218 258 303 371
#     4  10  22  39  65  90 129 164 204 250 316 378
#     4  12  27  44  61  94 134 167 203 260 320 375
#     4  10  20  41  64  93 127 161 216 253 309 372
#
# _framework density 19.075285999999998
#
# number of rings (size 3 to 8) (size 9 to 14) (size 15 to 20)
#    0.000    1.250    5.000    0.750    3.500    1.500 
#    2.250    1.250    0.000    0.000    0.000    0.000 
#    0.000    0.000    0.000    0.000    0.000    0.000 
#
# Total GULP energy -198464.612908 kJ/mol
# GULP energy per Si atom -12404.038307 kJ/mol
# Density = 1.903187 g / cm^3
# Si number density = 19.075286 Si / 1000 Ang^3
#
#
#
# Elastic Constant Matrix: (Units=GPa)
#
#
# Indices 1 2 3 4 5 6 
#
# 1 136.1043 60.4287 55.1164 -10.7522 -2.0289 0.4328
# 2 60.4287 104.2240 39.5319 -0.8156 -1.8003 4.7322
# 3 55.1164 39.5319 107.0811 3.8105 -1.2520 5.8837
# 4 -10.7522 -0.8156 3.8105 29.5600 -0.8467 6.6045
# 5 -2.0289 -1.8003 -1.2520 -0.8467 32.0624 4.6362
# 6 0.4328 4.7322 5.8837 6.6045 4.6362 31.9659
#
#
#
# Elastic Compliance Matrix: (Units=1/GPa)
#
#
# Indices 1 2 3 4 5 6 
#
# 1 0.011756 -0.005149 -0.004332 0.004614 0.000350 0.000396
# 2 -0.005149 0.013486 -0.002213 -0.000885 0.000526 -0.001413
# 3 -0.004332 -0.002213 0.012567 -0.002950 0.000209 -0.001348
# 4 0.004614 -0.000885 -0.002950 0.037597 0.002201 -0.007476
# 5 0.000350 0.000526 0.000209 0.002201 0.032063 -0.005226
# 6 0.000396 -0.001413 -0.001348 -0.007476 -0.005226 0.034038
#
#
# Mechanical properties :
#
#
# Convention : Reuss Voigt Hill
#
# Bulk Modulus (GPa) = 69.34492 73.06261 71.20377
# Shear Modulus (GPa) = 29.46347 31.53981 30.50164
#
# Velocity S-wave (km/s) = 3.93439 4.07066 4.00310
# Velocity P-wave (km/s) = 7.55456 7.77683 7.66650
#
# Compressibility (1/GPa) = 0.01442067
#
# Stress axis : x y z
#
# Youngs Moduli (GPa) = 85.06216 74.15230 79.57325
#
# Poissons Ratio (x) = 0.38180 0.34472
# Poissons Ratio (y) = 0.43797 0.17611
# Poissons Ratio (z) = 0.36850 0.16411
#
# Static dielectric constant tensor:
#      x y z
#    x 3.362010 0.053670 0.094310 
#    y 0.053670 3.562400 0.326910 
#    z 0.094310 0.326910 3.015720 
# 
# 
# High freq. dielectric constant tensor:
#      x y z
#    x 1.722690 0.000760 0.010560 
#    y 0.000760 1.756570 0.003270 
#    z 0.010560 0.003270 1.746400 
# 
# From -- ./inp_files/182586.got.cif
#   From: 2010.06.25/outbox.cif.g09.slc.cpg/sg2_92_cif.got.tgz:182586.got - 2010.06.27 13:26:56.
