data_PCOD8001550
_publ_section_title
;
Structure prediction by ZEFSAII (Michael W. Deem and Ramdas Pophale) SiO2 
 PCOD8001550
Probable space group: P -1
;
_chemical_formula_sum "Si O2"
_cell_formula_units_Z 14
_cell_length_a 7.819727
_cell_length_b 7.580719
_cell_length_c 20.554597
_cell_angle_alpha 90.815346
_cell_angle_beta 53.935878
_cell_angle_gamma 55.879109
_cell_volume 699.090324
_symmetry_space_group_name_H-M "P -1"
_symmetry_group_IT_number 2
_symmetry_cell_setting 'triclinic'
loop_
_space_group_symop_operation_xyz
x,y,z
-x,-y,-z
loop_
_atom_site_type_symbol
_atom_site_label
_atom_site_fract_x
_atom_site_fract_y
_atom_site_fract_z
Si Si1 0.454807 0.686161 0.809044
Si Si2 0.303043 0.842357 0.392563
Si Si3 0.353073 0.430702 0.373908
Si Si4 0.432499 0.052531 0.122347
Si Si5 0.357212 0.124673 0.463787
Si Si6 0.032052 0.291458 0.089773
Si Si7 0.594652 0.222329 0.774144
O O1 0.534062 0.716939 0.720149
O O2 0.660406 0.390831 0.776966
O O3 0.108500 0.824297 0.886158
O O4 0.514836 0.799275 0.849028
O O5 0.488216 0.549221 0.353471
O O6 0.244661 0.922965 0.330395
O O7 0.477169 0.900179 0.387900
O O8 0.000000 0.000000 0.500000
O O9 0.464088 0.246791 0.408619
O O10 0.997491 0.658639 0.450731
O O11 0.294188 0.977430 0.196915
O O12 0.195027 0.227791 0.120836
O O13 0.744222 0.806243 0.020361
O O14 0.500000 0.000000 0.500000
O O15 0.765255 0.591435 0.150150
#
# Coordination Sequence:
#
# PCOD8001550 Si02
#       7
#     2   2   2   2   2   2   2
#     4   9  20  38  55  81 112 145 180 226 275 324
#     4   9  18  36  54  75 110 139 173 224 265 313
#     4   9  19  38  50  74 114 133 176 231 258 317
#     4  11  19  39  59  77 117 147 175 237 274 316
#     4  10  20  33  55  79 100 144 183 211 273 325
#     4   9  22  37  54  89 109 139 196 220 269 343
#     4   9  20  37  56  81 109 145 185 223 274 328
#
# _framework density 20.026025000000001
#
# number of rings (size 3 to 8) (size 9 to 14) (size 15 to 20)
#    0.857    1.714    0.000    1.714    0.000    1.714 
#   10.286    1.429    0.000    0.000    0.000    0.000 
#    0.000    0.000    0.000    0.000    0.000    0.000 
#
# Total GULP energy -173457.195408 kJ/mol
# GULP energy per Si atom -12389.799672 kJ/mol
# Density = 1.998045 g / cm^3
# Si number density = 20.026025 Si / 1000 Ang^3
#
#
#
# Elastic Constant Matrix: (Units=GPa)
#
#
# Indices 1 2 3 4 5 6 
#
# 1 68.1849 34.4329 25.1006 -8.1993 25.4973 11.0105
# 2 34.4329 84.2742 35.0708 -29.1438 17.9640 6.3486
# 3 25.1006 35.0708 102.9397 -23.0963 27.9768 7.2091
# 4 -8.1993 -29.1438 -23.0963 34.9201 -0.4036 -3.7170
# 5 25.4973 17.9640 27.9768 -0.4036 30.1592 -1.3585
# 6 11.0105 6.3486 7.2091 -3.7170 -1.3585 20.4764
#
#
#
# Elastic Compliance Matrix: (Units=1/GPa)
#
#
# Indices 1 2 3 4 5 6 
#
# 1 0.028188 -0.005924 0.003145 0.001809 -0.023903 -0.015685
# 2 -0.005924 0.021746 -0.000108 0.016488 -0.007671 -0.001035
# 3 0.003145 -0.000108 0.016928 0.010901 -0.018461 -0.006864
# 4 0.001809 0.016488 0.010901 0.049544 -0.020904 -0.002316
# 5 -0.023903 -0.007671 -0.018461 -0.020904 0.075814 0.022966
# 6 -0.015685 -0.001035 -0.006864 -0.002316 0.022966 0.061112
#
#
# Mechanical properties :
#
#
# Convention : Reuss Voigt Hill
#
# Bulk Modulus (GPa) = 16.36911 49.40084 32.88497
# Shear Modulus (GPa) = 17.89111 27.83078 22.86094
#
# Velocity S-wave (km/s) = 2.99221 3.73195 3.38237
# Velocity P-wave (km/s) = 4.48658 6.57965 5.63122
#
# Compressibility (1/GPa) = 0.06109067
#
# Stress axis : x y z
#
# Youngs Moduli (GPa) = 35.47576 45.98492 59.07360
#
# Poissons Ratio (x) = 0.27240 -0.18581
# Poissons Ratio (y) = 0.21015 0.00636
# Poissons Ratio (z) = -0.11159 0.00495
#
# Static dielectric constant tensor:
#      x y z
#    x 3.618400 0.405730 0.077640 
#    y 0.405730 3.567240 -0.030680 
#    z 0.077640 -0.030680 3.829480 
# 
# 
# High freq. dielectric constant tensor:
#      x y z
#    x 1.758480 0.018450 0.006270 
#    y 0.018450 1.762980 -0.012520 
#    z 0.006270 -0.012520 1.798240 
# 
# From -- ./inp_files/294000.got.cif
#   From: 2010.06.25/outbox.cif.g09.slc.cpg/sg2_147_cif.got.tgz:294000.got - 2010.06.27 13:26:56.
