data_PCOD8001751
_publ_section_title
;
Structure prediction by ZEFSAII (Michael W. Deem and Ramdas Pophale) SiO2 
 PCOD8001751
Probable space group: P -1
;
_chemical_formula_sum "Si O2"
_cell_formula_units_Z 16
_cell_length_a 24.203282
_cell_length_b 10.277046
_cell_length_c 8.792958
_cell_angle_alpha 58.793558
_cell_angle_beta 56.728457
_cell_angle_gamma 24.227605
_cell_volume 749.385646
_symmetry_space_group_name_H-M "P -1"
_symmetry_group_IT_number 2
_symmetry_cell_setting 'triclinic'
loop_
_space_group_symop_operation_xyz
x,y,z
-x,-y,-z
loop_
_atom_site_type_symbol
_atom_site_label
_atom_site_fract_x
_atom_site_fract_y
_atom_site_fract_z
Si Si1 0.759162 0.166564 0.648875
Si Si2 0.889746 0.086250 0.239422
Si Si3 0.823359 0.511350 0.677462
Si Si4 0.340590 0.220046 0.766602
Si Si5 0.043137 0.568913 0.738550
Si Si6 0.730707 0.890744 0.848989
Si Si7 0.635190 0.714145 0.631141
Si Si8 0.988702 0.700420 0.067998
O O1 0.820109 0.094649 0.438449
O O2 0.655918 0.501391 0.666532
O O3 0.676139 0.174954 0.746386
O O4 0.881435 0.901604 0.744714
O O5 0.797575 0.424104 0.171385
O O6 0.895150 0.017944 0.097586
O O7 0.041344 0.822916 0.235986
O O8 0.865336 0.528291 0.460628
O O9 0.718081 0.821757 0.752787
O O10 0.735841 0.546553 0.721609
O O11 0.335204 0.226582 0.587052
O O12 0.475069 0.045309 0.722178
O O13 0.347288 0.037491 0.938698
O O14 0.094577 0.289214 0.840313
O O15 0.055580 0.622201 0.854768
O O16 0.894001 0.574365 0.820079
#
# Coordination Sequence:
#
# PCOD8001751 Si02
#       8
#     2   2   2   2   2   2   2   2
#     4   9  19  35  55  80 109 143 181 222 269 320
#     4   9  19  35  57  81 110 143 178 221 272 322
#     4  10  20  34  58  84 109 140 181 225 269 319
#     4  10  22  38  56  78 109 146 182 221 269 322
#     4   9  17  30  52  83 112 141 179 224 269 320
#     4  10  20  34  55  82 110 141 180 225 271 318
#     4  10  22  39  57  78 109 147 183 221 268 321
#     4   9  17  30  52  82 114 142 176 223 273 320
#
# _framework density 21.350822000000001
#
# number of rings (size 3 to 8) (size 9 to 14) (size 15 to 20)
#    0.000    2.500    0.000    1.500    0.000   12.500 
#    0.000    0.000    0.000   13.500    0.000    0.000 
#    0.000    0.000    0.000    0.000    0.000    0.000 
#
# Total GULP energy -198352.565591 kJ/mol
# GULP energy per Si atom -12397.035349 kJ/mol
# Density = 2.130223 g / cm^3
# Si number density = 21.350822 Si / 1000 Ang^3
#
#
#
# Elastic Constant Matrix: (Units=GPa)
#
#
# Indices 1 2 3 4 5 6 
#
# 1 113.0445 46.8124 43.3122 10.3717 6.8679 15.4271
# 2 46.8124 58.7318 24.1526 4.6179 3.7374 1.0468
# 3 43.3122 24.1526 92.2630 1.9105 -4.4209 17.8914
# 4 10.3717 4.6179 1.9105 17.0182 6.7134 1.5079
# 5 6.8679 3.7374 -4.4209 6.7134 31.6439 1.9348
# 6 15.4271 1.0468 17.8914 1.5079 1.9348 23.6904
#
#
#
# Elastic Compliance Matrix: (Units=1/GPa)
#
#
# Indices 1 2 3 4 5 6 
#
# 1 0.016160 -0.010902 -0.003291 -0.005462 -0.001085 -0.007120
# 2 -0.010902 0.027287 -0.003847 -0.000390 -0.001860 0.008976
# 3 -0.003291 -0.003847 0.015437 0.000687 0.003772 -0.009698
# 4 -0.005462 -0.000390 0.000687 0.067232 -0.012926 -0.000169
# 5 -0.001085 -0.001860 0.003772 -0.012926 0.035580 -0.004143
# 6 -0.007120 0.008976 -0.009698 -0.000169 -0.004143 0.054124
#
#
# Mechanical properties :
#
#
# Convention : Reuss Voigt Hill
#
# Bulk Modulus (GPa) = 43.84840 54.73263 49.29052
# Shear Modulus (GPa) = 19.26775 24.45464 21.86119
#
# Velocity S-wave (km/s) = 3.00732 3.38801 3.20332
# Velocity P-wave (km/s) = 5.71317 6.40276 6.06777
#
# Compressibility (1/GPa) = 0.02280585
#
# Stress axis : x y z
#
# Youngs Moduli (GPa) = 61.88073 36.64753 64.77768
#
# Poissons Ratio (x) = 0.39953 0.21315
# Poissons Ratio (y) = 0.67461 0.24920
# Poissons Ratio (z) = 0.20362 0.14098
#
# Static dielectric constant tensor:
#      x y z
#    x 3.855830 0.182600 0.027430 
#    y 0.182600 3.610080 -0.027140 
#    z 0.027430 -0.027140 3.833310 
# 
# 
# High freq. dielectric constant tensor:
#      x y z
#    x 1.828470 0.015910 -0.001330 
#    y 0.015910 1.801930 0.002320 
#    z -0.001330 0.002320 1.847710 
# 
# From -- ./inp_files/270153.got.cif
#   From: 2010.06.25/outbox.cif.g09.slc.cpg/sg2_136_cif.got.tgz:270153.got - 2010.06.27 13:26:56.
