data_PCOD8001202
_publ_section_title
;
Structure prediction by ZEFSAII (Michael W. Deem and Ramdas Pophale) SiO2 
 PCOD8001202
Probable space group: P -1
;
_chemical_formula_sum "Si O2"
_cell_formula_units_Z 16
_cell_length_a 22.872271
_cell_length_b 15.269852
_cell_length_c 8.849232
_cell_angle_alpha 129.147919
_cell_angle_beta 47.167577
_cell_angle_gamma 161.790109
_cell_volume 706.866895
_symmetry_space_group_name_H-M "P -1"
_symmetry_group_IT_number 2
_symmetry_cell_setting 'triclinic'
loop_
_space_group_symop_operation_xyz
x,y,z
-x,-y,-z
loop_
_atom_site_type_symbol
_atom_site_label
_atom_site_fract_x
_atom_site_fract_y
_atom_site_fract_z
Si Si1 0.811156 0.993446 0.102867
Si Si2 0.064629 0.458966 0.379996
Si Si3 0.463574 0.670256 0.527027
Si Si4 0.735706 0.982796 0.651719
Si Si5 0.579349 0.015454 0.500277
Si Si6 0.802915 0.814722 0.339255
Si Si7 0.662144 0.935206 0.057780
Si Si8 0.229401 0.307747 0.067798
O O1 0.607483 0.770223 0.295624
O O2 0.788953 0.994939 0.966606
O O3 0.833207 0.889770 0.960483
O O4 0.007903 0.303229 0.171034
O O5 0.296375 0.756204 0.341240
O O6 0.000000 0.500000 0.500000
O O7 0.956293 0.278895 0.525338
O O8 0.581174 0.848602 0.670017
O O9 0.257163 0.341621 0.580612
O O10 0.427832 0.737748 0.561779
O O11 0.691900 0.791110 0.529866
O O12 0.729486 0.039677 0.883032
O O13 0.500000 0.000000 0.500000
O O14 0.717377 0.112315 0.261413
O O15 0.726027 0.652329 0.144937
O O16 0.040039 0.141514 0.257313
O O17 0.423803 0.610391 0.133726
#
# Coordination Sequence:
#
# PCOD8001202 Si02
#       8
#     2   2   2   2   2   2   2   2
#     4  10  21  41  66  92 127 180 212 270 315 392
#     4  11  20  44  70  88 126 179 227 252 324 397
#     4  10  19  42  66  90 127 177 218 253 322 399
#     4  11  21  39  70  96 127 175 218 273 313 398
#     4  11  26  45  68  94 134 175 213 277 330 381
#     4  11  22  37  65 101 132 173 216 264 333 395
#     4  11  23  40  64  99 130 168 223 272 326 379
#     4  11  22  37  62 100 138 166 215 272 333 382
#
# _framework density 22.635095
#
# number of rings (size 3 to 8) (size 9 to 14) (size 15 to 20)
#    0.000    1.250    7.500    1.500    1.750    1.500 
#    2.250    3.750    0.000    0.000    0.000    0.000 
#    0.000    0.000    0.000    0.000    0.000    0.000 
#
# Total GULP energy -198244.134831 kJ/mol
# GULP energy per Si atom -12390.258427 kJ/mol
# Density = 2.258358 g / cm^3
# Si number density = 22.635095 Si / 1000 Ang^3
#
#
#
# Elastic Constant Matrix: (Units=GPa)
#
#
# Indices 1 2 3 4 5 6 
#
# 1 142.0460 24.7189 15.8091 -3.2179 14.4592 -19.4983
# 2 24.7189 74.2296 4.4599 5.8916 6.4727 -4.8353
# 3 15.8091 4.4599 54.2468 -2.9510 16.6756 -3.0253
# 4 -3.2179 5.8916 -2.9510 16.9960 -3.0695 9.7163
# 5 14.4592 6.4727 16.6756 -3.0695 33.8587 2.4380
# 6 -19.4983 -4.8353 -3.0253 9.7163 2.4380 44.8607
#
#
#
# Elastic Compliance Matrix: (Units=1/GPa)
#
#
# Indices 1 2 3 4 5 6 
#
# 1 0.008320 -0.002188 -0.001197 -0.000412 -0.002838 0.003543
# 2 -0.002188 0.015217 -0.000017 -0.007631 -0.002838 0.002495
# 3 -0.001197 -0.000017 0.022101 0.000990 -0.010376 0.001318
# 4 -0.000412 -0.007631 0.000990 0.073066 0.009013 -0.017250
# 5 -0.002838 -0.002838 -0.010376 0.009013 0.037665 -0.006238
# 6 0.003543 0.002495 0.001318 -0.017250 -0.006238 0.028264
#
#
# Mechanical properties :
#
#
# Convention : Reuss Voigt Hill
#
# Bulk Modulus (GPa) = 25.75079 40.05536 32.90308
# Shear Modulus (GPa) = 24.46403 34.17872 29.32138
#
# Velocity S-wave (km/s) = 3.29112 3.89007 3.60306
# Velocity P-wave (km/s) = 5.08362 6.15723 5.64600
#
# Compressibility (1/GPa) = 0.03883376
#
# Stress axis : x y z
#
# Youngs Moduli (GPa) = 120.19560 65.71646 45.24601
#
# Poissons Ratio (x) = 0.14376 0.05417
# Poissons Ratio (y) = 0.26295 0.00078
# Poissons Ratio (z) = 0.14392 0.00113
#
# Static dielectric constant tensor:
#      x y z
#    x 3.171470 0.682910 0.501760 
#    y 0.682910 4.400540 0.447030 
#    z 0.501760 0.447030 4.049090 
# 
# 
# High freq. dielectric constant tensor:
#      x y z
#    x 1.900750 -0.012560 0.018550 
#    y -0.012560 1.877700 0.009860 
#    z 0.018550 0.009860 1.867510 
# 
# From -- ./inp_files/354584.got.cif
#   From: 2010.06.25/outbox.cif.g09.slc.cpg/sg2_178_cif.got.tgz:354584.got - 2010.06.27 13:26:56.
