data_PCOD8001505
_publ_section_title
;
Structure prediction by ZEFSAII (Michael W. Deem and Ramdas Pophale) SiO2 
 PCOD8001505
Probable space group: P -1
;
_chemical_formula_sum "Si O2"
_cell_formula_units_Z 16
_cell_length_a 14.241394
_cell_length_b 15.295282
_cell_length_c 17.549690
_cell_angle_alpha 42.961308
_cell_angle_beta 159.848965
_cell_angle_gamma 126.438111
_cell_volume 823.972516
_symmetry_space_group_name_H-M "P -1"
_symmetry_group_IT_number 2
_symmetry_cell_setting 'triclinic'
loop_
_space_group_symop_operation_xyz
x,y,z
-x,-y,-z
loop_
_atom_site_type_symbol
_atom_site_label
_atom_site_fract_x
_atom_site_fract_y
_atom_site_fract_z
Si Si1 0.736568 0.263064 0.624521
Si Si2 0.125346 0.448005 0.213335
Si Si3 0.809980 0.658147 0.284695
Si Si4 0.416191 0.545544 0.130177
Si Si5 0.616663 0.928125 0.552689
Si Si6 0.344878 0.185490 0.079793
Si Si7 0.803766 0.291239 0.824935
Si Si8 0.572087 0.388734 0.191581
O O1 0.560497 0.428997 0.378649
O O2 0.524560 0.183505 0.499724
O O3 0.896090 0.240572 0.841589
O O4 0.001378 0.207039 0.800992
O O5 0.453671 0.324840 0.543123
O O6 0.127930 0.576586 0.183008
O O7 0.000000 0.500000 0.000000
O O8 0.923885 0.379480 0.148012
O O9 0.586767 0.651042 0.186241
O O10 0.000000 0.500000 0.500000
O O11 0.070524 0.705310 0.480324
O O12 0.597003 0.768717 0.989944
O O13 0.444326 0.469826 0.119763
O O14 0.500000 0.000000 0.500000
O O15 0.542584 0.030221 0.357983
O O16 0.974867 0.845068 0.873857
O O17 0.400368 0.288279 0.116434
O O18 0.500000 0.500000 0.000000
#
# Coordination Sequence:
#
# PCOD8001505 Si02
#       8
#     2   2   2   2   2   2   2   2
#     4  12  21  38  59  86 128 160 197 242 301 373
#     4  11  22  40  62  88 121 158 207 254 301 350
#     4  10  20  33  52  82 113 154 190 243 298 346
#     4  11  19  36  58  85 121 151 195 248 302 352
#     4  12  25  36  57  91 125 165 200 241 307 365
#     4  12  22  34  56  84 124 160 192 235 301 367
#     4  11  23  39  59  88 121 164 201 246 305 354
#     4  11  19  35  55  86 121 154 196 241 303 361
#
# _framework density 19.418123000000001
#
# number of rings (size 3 to 8) (size 9 to 14) (size 15 to 20)
#    0.000    0.750    8.750    1.875    0.000    0.000 
#    0.000    0.000    0.000    0.750    0.000    4.375 
#    0.000    0.000    0.000    0.000    0.000    0.000 
#
# Total GULP energy -198229.173056 kJ/mol
# GULP energy per Si atom -12389.323316 kJ/mol
# Density = 1.937393 g / cm^3
# Si number density = 19.418123 Si / 1000 Ang^3
#
#
#
# Elastic Constant Matrix: (Units=GPa)
#
#
# Indices 1 2 3 4 5 6 
#
# 1 80.3101 38.5463 40.3846 11.9647 3.1905 23.9888
# 2 38.5463 50.4273 46.1784 9.1957 -4.0109 12.1823
# 3 40.3846 46.1784 139.7687 4.1738 0.5386 24.5507
# 4 11.9647 9.1957 4.1738 30.6913 5.5994 -3.3715
# 5 3.1905 -4.0109 0.5386 5.5994 34.6829 4.5803
# 6 23.9888 12.1823 24.5507 -3.3715 4.5803 33.1246
#
#
#
# Elastic Compliance Matrix: (Units=1/GPa)
#
#
# Indices 1 2 3 4 5 6 
#
# 1 0.024081 -0.014532 0.000278 -0.006255 -0.001204 -0.012772
# 2 -0.014532 0.041106 -0.009325 -0.006629 0.007220 0.000645
# 3 0.000278 -0.009325 0.010960 0.000822 -0.000786 -0.004702
# 4 -0.006255 -0.006629 0.000822 0.039643 -0.008125 0.011517
# 5 -0.001204 0.007220 -0.000786 -0.008125 0.031954 -0.006447
# 6 -0.012772 0.000645 -0.004702 0.011517 -0.006447 0.044750
#
#
# Mechanical properties :
#
#
# Convention : Reuss Voigt Hill
#
# Bulk Modulus (GPa) = 34.49663 57.85829 46.17746
# Shear Modulus (GPa) = 20.05498 29.39288 24.72393
#
# Velocity S-wave (km/s) = 3.21720 3.89483 3.57212
# Velocity P-wave (km/s) = 5.62177 7.07721 6.39106
#
# Compressibility (1/GPa) = 0.02898834
#
# Stress axis : x y z
#
# Youngs Moduli (GPa) = 41.52573 24.32764 91.24250
#
# Poissons Ratio (x) = 0.35353 -0.02536
# Poissons Ratio (y) = 0.60345 0.85086
# Poissons Ratio (z) = -0.01154 0.22686
#
# Static dielectric constant tensor:
#      x y z
#    x 3.490820 0.334570 -0.039640 
#    y 0.334570 3.815490 0.379820 
#    z -0.039640 0.379820 3.866710 
# 
# 
# High freq. dielectric constant tensor:
#      x y z
#    x 1.737730 0.016560 -0.017390 
#    y 0.016560 1.737210 0.032710 
#    z -0.017390 0.032710 1.763060 
# 
# From -- ./inp_files/542779.got.cif
#   From: 2010.06.25/outbox.cif.g09.slc.cpg/sg2_272_cif.got.tgz:542779.got - 2010.06.27 13:26:56.
