data_PCOD8001765
_publ_section_title
;
Structure prediction by ZEFSAII (Michael W. Deem and Ramdas Pophale) SiO2 
 PCOD8001765
Probable space group: P -1
;
_chemical_formula_sum "Si O2"
_cell_formula_units_Z 12
_cell_length_a 9.129083
_cell_length_b 11.747572
_cell_length_c 9.393226
_cell_angle_alpha 39.039502
_cell_angle_beta 108.091025
_cell_angle_gamma 107.049029
_cell_volume 600.853638
_symmetry_space_group_name_H-M "P -1"
_symmetry_group_IT_number 2
_symmetry_cell_setting 'triclinic'
loop_
_space_group_symop_operation_xyz
x,y,z
-x,-y,-z
loop_
_atom_site_type_symbol
_atom_site_label
_atom_site_fract_x
_atom_site_fract_y
_atom_site_fract_z
Si Si1 0.829021 0.052040 0.369754
Si Si2 0.794747 0.830116 0.029304
Si Si3 0.155283 0.868050 0.027941
Si Si4 0.354256 0.245745 0.225999
Si Si5 0.178134 0.553186 0.522947
Si Si6 0.287859 0.646034 0.767503
O O1 0.804817 0.236306 0.267234
O O2 0.710898 0.881669 0.542004
O O3 0.798288 0.091129 0.158336
O O4 0.000000 0.000000 0.500000
O O5 0.687550 0.860318 0.831335
O O6 0.768164 0.971370 0.006826
O O7 0.737661 0.632060 0.270022
O O8 0.970857 0.844634 0.013607
O O9 0.231782 0.686408 0.279291
O O10 0.536736 0.271842 0.272260
O O11 0.277880 0.437641 0.020985
O O12 0.206537 0.659566 0.576944
O O13 0.000000 0.500000 0.500000
#
# Coordination Sequence:
#
# PCOD8001765 Si02
#       6
#     2   2   2   2   2   2
#     4  12  24  36  59  95 122 149 193 252 298 337
#     4   9  18  36  58  81 113 157 193 233 284 352
#     4  10  20  34  55  86 119 145 194 243 288 339
#     4  10  21  43  62  84 118 162 198 235 293 354
#     4   9  19  35  59  83 109 154 197 234 284 346
#     4  10  23  41  63  85 118 160 199 237 291 358
#
# _framework density 19.971585000000001
#
# number of rings (size 3 to 8) (size 9 to 14) (size 15 to 20)
#    0.000    2.000    1.667    1.500    4.667    2.000 
#    0.000    3.333    0.000    6.000    0.000    0.000 
#    0.000    0.000    0.000    0.000    0.000    0.000 
#
# Total GULP energy -148788.209259 kJ/mol
# GULP energy per Si atom -12399.017438 kJ/mol
# Density = 1.992613 g / cm^3
# Si number density = 19.971585 Si / 1000 Ang^3
#
#
#
# Elastic Constant Matrix: (Units=GPa)
#
#
# Indices 1 2 3 4 5 6 
#
# 1 59.0573 55.4112 42.4651 5.8211 1.4228 -5.7524
# 2 55.4112 154.6470 78.1357 10.9449 -11.6292 4.9599
# 3 42.4651 78.1357 168.5542 14.7473 -28.8443 -10.8704
# 4 5.8211 10.9449 14.7473 33.4119 -0.1776 5.0371
# 5 1.4228 -11.6292 -28.8443 -0.1776 26.3058 1.2218
# 6 -5.7524 4.9599 -10.8704 5.0371 1.2218 21.2582
#
#
#
# Elastic Compliance Matrix: (Units=1/GPa)
#
#
# Indices 1 2 3 4 5 6 
#
# 1 0.030582 -0.009796 -0.004322 -0.001687 -0.011172 0.009393
# 2 -0.009796 0.011961 -0.003094 0.000261 0.002763 -0.007244
# 3 -0.004322 -0.003094 0.010958 -0.003836 0.010602 0.005455
# 4 -0.001687 0.000261 -0.003836 0.033350 -0.003301 -0.010191
# 5 -0.011172 0.002763 0.010602 -0.003301 0.051463 -0.000422
# 6 0.009393 -0.007244 0.005455 -0.010191 -0.000422 0.056501
#
#
# Mechanical properties :
#
#
# Convention : Reuss Voigt Hill
#
# Bulk Modulus (GPa) = 52.41973 81.58695 67.00334
# Shear Modulus (GPa) = 21.22265 29.94493 25.58379
#
# Velocity S-wave (km/s) = 3.26336 3.87638 3.58300
# Velocity P-wave (km/s) = 6.36423 7.80867 7.12316
#
# Compressibility (1/GPa) = 0.01907679
#
# Stress axis : x y z
#
# Youngs Moduli (GPa) = 32.69903 83.60362 91.26035
#
# Poissons Ratio (x) = 0.81898 0.39444
# Poissons Ratio (y) = 0.32032 0.28236
# Poissons Ratio (z) = 0.14133 0.25867
#
# Static dielectric constant tensor:
#      x y z
#    x 3.245860 0.085660 0.063330 
#    y 0.085660 3.978780 -0.177690 
#    z 0.063330 -0.177690 4.380280 
# 
# 
# High freq. dielectric constant tensor:
#      x y z
#    x 1.734500 0.016200 0.007190 
#    y 0.016200 1.795250 -0.005610 
#    z 0.007190 -0.005610 1.803260 
# 
# From -- ./inp_files/150636.got.cif
#   From: 2010.06.25/outbox.cif.g09.slc.cpg/sg2_76_cif.got.tgz:150636.got - 2010.06.27 13:26:56.
