data_PCOD8001920
_publ_section_title
;
Structure prediction by ZEFSAII (Michael W. Deem and Ramdas Pophale) SiO2 
 PCOD8001920
Probable space group: P -1
;
_chemical_formula_sum "Si O2"
_cell_formula_units_Z 16
_cell_length_a 14.968313
_cell_length_b 11.351955
_cell_length_c 14.285187
_cell_angle_alpha 41.123100
_cell_angle_beta 133.830951
_cell_angle_gamma 152.012015
_cell_volume 746.227542
_symmetry_space_group_name_H-M "P -1"
_symmetry_group_IT_number 2
_symmetry_cell_setting 'triclinic'
loop_
_space_group_symop_operation_xyz
x,y,z
-x,-y,-z
loop_
_atom_site_type_symbol
_atom_site_label
_atom_site_fract_x
_atom_site_fract_y
_atom_site_fract_z
Si Si1 0.723947 0.757264 0.122703
Si Si2 0.074739 0.361159 0.308190
Si Si3 0.550989 0.114073 0.668568
Si Si4 0.005967 0.329937 0.902200
Si Si5 0.174097 0.732067 0.364705
Si Si6 0.194839 0.905960 0.468474
Si Si7 0.646118 0.456991 0.066643
Si Si8 0.044775 0.081211 0.636977
O O1 0.755953 0.664077 0.111630
O O2 0.771242 0.712713 0.283138
O O3 0.502110 0.571620 0.074252
O O4 0.878225 0.089224 0.031199
O O5 0.299821 0.653917 0.282896
O O6 0.958648 0.421071 0.195028
O O7 0.064214 0.235916 0.471080
O O8 0.993781 0.162627 0.280606
O O9 0.661930 0.218037 0.587147
O O10 0.377172 0.061693 0.571163
O O11 0.477310 0.839282 0.805537
O O12 0.883795 0.185967 0.804137
O O13 0.206189 0.449146 0.960766
O O14 0.255377 0.933611 0.389607
O O15 0.987522 0.414010 0.445945
O O16 0.138683 0.051370 0.356946
#
# Coordination Sequence:
#
# PCOD8001920 Si02
#       8
#     2   2   2   2   2   2   2   2
#     4  11  25  40  63  94 129 161 199 261 311 370
#     4  10  23  43  68  85 124 168 213 260 296 359
#     4  11  20  39  64  92 122 165 205 252 308 369
#     4  11  20  44  63  88 125 171 204 245 314 368
#     4  10  20  34  59  93 122 158 199 248 309 369
#     4  11  21  35  62  92 123 162 203 253 308 371
#     4  11  22  39  67  95 127 160 202 252 314 381
#     4  11  23  44  62  92 126 165 210 258 306 354
#
# _framework density 21.441182000000001
#
# number of rings (size 3 to 8) (size 9 to 14) (size 15 to 20)
#    0.000    1.250    6.250    1.500    1.750    2.000 
#    2.250    0.625    0.000    0.000    0.000    0.000 
#    0.000    0.000    0.000    0.000    0.000    0.000 
#
# Total GULP energy -198312.311630 kJ/mol
# GULP energy per Si atom -12394.519477 kJ/mol
# Density = 2.139238 g / cm^3
# Si number density = 21.441182 Si / 1000 Ang^3
#
#
#
# Elastic Constant Matrix: (Units=GPa)
#
#
# Indices 1 2 3 4 5 6 
#
# 1 86.5420 52.2567 18.5569 11.6734 21.1944 -0.9428
# 2 52.2567 87.0916 20.1026 10.8304 10.3008 0.9979
# 3 18.5569 20.1026 47.1107 7.5097 6.3047 -0.8607
# 4 11.6734 10.8304 7.5097 36.6201 3.3942 3.4550
# 5 21.1944 10.3008 6.3047 3.3942 29.5054 2.1886
# 6 -0.9428 0.9979 -0.8607 3.4550 2.1886 36.7310
#
#
#
# Elastic Compliance Matrix: (Units=1/GPa)
#
#
# Indices 1 2 3 4 5 6 
#
# 1 0.021661 -0.010947 -0.001954 -0.002391 -0.011171 0.001698
# 2 -0.010947 0.018847 -0.003830 -0.001431 0.002333 -0.000887
# 3 -0.001954 -0.003830 0.024447 -0.003153 -0.002198 0.001054
# 4 -0.002391 -0.001431 -0.003153 0.029435 -0.000283 -0.002848
# 5 -0.011171 0.002333 -0.002198 -0.000283 0.041817 -0.002867
# 6 0.001698 -0.000887 0.001054 -0.002848 -0.002867 0.027756
#
#
# Mechanical properties :
#
#
# Convention : Reuss Voigt Hill
#
# Bulk Modulus (GPa) = 31.75357 44.73074 38.24215
# Shear Modulus (GPa) = 24.04740 29.22650 26.63695
#
# Velocity S-wave (km/s) = 3.35259 3.69603 3.52849
# Velocity P-wave (km/s) = 5.46152 6.25472 5.87153
#
# Compressibility (1/GPa) = 0.03149252
#
# Stress axis : x y z
#
# Youngs Moduli (GPa) = 46.16583 53.05906 40.90505
#
# Poissons Ratio (x) = 0.58083 0.07993
# Poissons Ratio (y) = 0.50537 0.15668
# Poissons Ratio (z) = 0.09020 0.20324
#
# Static dielectric constant tensor:
#      x y z
#    x 4.100230 0.016800 0.153530 
#    y 0.016800 3.944810 0.014680 
#    z 0.153530 0.014680 3.813510 
# 
# 
# High freq. dielectric constant tensor:
#      x y z
#    x 1.834860 0.008730 0.014880 
#    y 0.008730 1.830980 -0.001140 
#    z 0.014880 -0.001140 1.833070 
# 
# From -- ./inp_files/532345.got.cif
#   From: 2010.06.25/outbox.cif.g09.slc.cpg/sg2_267_cif.got.tgz:532345.got - 2010.06.27 13:26:56.
