data_PCOD8001331
_publ_section_title
;
Structure prediction by ZEFSAII (Michael W. Deem and Ramdas Pophale) SiO2 
 PCOD8001331
Probable space group: P -1
;
_chemical_formula_sum "Si O2"
_cell_formula_units_Z 14
_cell_length_a 11.418567
_cell_length_b 5.185480
_cell_length_c 14.303782
_cell_angle_alpha 79.747221
_cell_angle_beta 95.550847
_cell_angle_gamma 52.753727
_cell_volume 640.434776
_symmetry_space_group_name_H-M "P -1"
_symmetry_group_IT_number 2
_symmetry_cell_setting 'triclinic'
loop_
_space_group_symop_operation_xyz
x,y,z
-x,-y,-z
loop_
_atom_site_type_symbol
_atom_site_label
_atom_site_fract_x
_atom_site_fract_y
_atom_site_fract_z
Si Si1 0.826375 0.242391 0.842212
Si Si2 0.000326 0.566998 0.664104
Si Si3 0.703094 0.692013 0.629527
Si Si4 0.409440 0.402692 0.550590
Si Si5 0.822225 0.708834 0.954027
Si Si6 0.134430 0.593555 0.844370
Si Si7 0.169072 0.831690 0.656766
O O1 0.757661 0.389507 0.724464
O O2 0.786982 0.544028 0.883948
O O3 0.750244 0.087110 0.890831
O O4 0.008020 0.949886 0.864654
O O5 0.180131 0.227470 0.368589
O O6 0.047721 0.490665 0.782888
O O7 0.044720 0.792203 0.612543
O O8 0.090335 0.224148 0.632761
O O9 0.702503 0.578650 0.532264
O O10 0.534254 0.022687 0.625103
O O11 0.500000 0.500000 0.500000
O O12 0.313155 0.654899 0.612255
O O13 0.757082 0.696602 0.050392
O O14 0.000000 0.500000 0.000000
O O15 0.227673 0.648311 0.775950
#
# Coordination Sequence:
#
# PCOD8001331 Si02
#       7
#     2   2   2   2   2   2   2
#     4  11  21  34  60  96 129 166 204 263 310 375
#     4  10  22  39  69  94 129 161 212 264 318 367
#     4  11  24  45  63  94 128 169 219 267 316 383
#     4  11  29  44  67  88 129 176 218 263 327 388
#     4  10  20  30  59  96 134 160 201 253 325 372
#     4   9  20  36  64  97 134 161 205 259 323 375
#     4  10  24  42  65  96 128 170 207 268 323 373
#
# _framework density 21.860149
#
# number of rings (size 3 to 8) (size 9 to 14) (size 15 to 20)
#    0.857    0.857    1.429    3.429   12.000    1.143 
#    0.000    0.000    0.000    1.714    0.000    0.000 
#    0.000    0.000    0.000    0.000    0.000    0.000 
#
# Total GULP energy -173502.783405 kJ/mol
# GULP energy per Si atom -12393.055957 kJ/mol
# Density = 2.181039 g / cm^3
# Si number density = 21.860149 Si / 1000 Ang^3
#
#
#
# Elastic Constant Matrix: (Units=GPa)
#
#
# Indices 1 2 3 4 5 6 
#
# 1 64.7040 26.0686 33.2869 8.8957 -13.8531 7.2571
# 2 26.0686 86.0650 21.1849 11.8179 1.9751 21.0783
# 3 33.2869 21.1849 86.4594 -1.9363 -22.1949 -9.2591
# 4 8.8957 11.8179 -1.9363 38.3708 3.7573 -3.6756
# 5 -13.8531 1.9751 -22.1949 3.7573 14.9016 -5.0652
# 6 7.2571 21.0783 -9.2591 -3.6756 -5.0652 29.9929
#
#
#
# Elastic Compliance Matrix: (Units=1/GPa)
#
#
# Indices 1 2 3 4 5 6 
#
# 1 0.024947 -0.007513 -0.001435 -0.005705 0.024234 0.002194
# 2 -0.007513 0.031649 -0.024190 -0.007198 -0.058534 -0.038659
# 3 -0.001435 -0.024190 0.043818 0.006412 0.080926 0.045327
# 4 -0.005705 -0.007198 0.006412 0.030960 0.001639 0.012489
# 5 0.024234 -0.058534 0.080926 0.001639 0.252563 0.103109
# 6 0.002194 -0.038659 0.045327 0.012489 0.103109 0.092916
#
#
# Mechanical properties :
#
#
# Convention : Reuss Voigt Hill
#
# Bulk Modulus (GPa) = 29.29339 44.25659 36.77499
# Shear Modulus (GPa) = 9.01698 27.09893 18.05796
#
# Velocity S-wave (km/s) = 2.03318 3.52469 2.87726
# Velocity P-wave (km/s) = 4.35215 6.07074 5.28181
#
# Compressibility (1/GPa) = 0.03413740
#
# Stress axis : x y z
#
# Youngs Moduli (GPa) = 40.08479 31.59667 22.82152
#
# Poissons Ratio (x) = 0.23739 0.03276
# Poissons Ratio (y) = 0.30116 0.55205
# Poissons Ratio (z) = 0.05754 0.76432
#
# Static dielectric constant tensor:
#      x y z
#    x 3.576730 0.270440 -0.187250 
#    y 0.270440 4.006410 -0.109180 
#    z -0.187250 -0.109180 4.405400 
# 
# 
# High freq. dielectric constant tensor:
#      x y z
#    x 1.815560 0.032120 -0.016030 
#    y 0.032120 1.855340 0.005470 
#    z -0.016030 0.005470 1.869140 
# 
# From -- ./inp_files/440316.got.cif
#   From: 2010.06.25/outbox.cif.g09.slc.cpg/sg2_221_cif.got.tgz:440316.got - 2010.06.27 13:26:56.
