data_PCOD8001588
_publ_section_title
;
Structure prediction by ZEFSAII (Michael W. Deem and Ramdas Pophale) SiO2 
 PCOD8001588
Probable space group: P -1
;
_chemical_formula_sum "Si O2"
_cell_formula_units_Z 14
_cell_length_a 15.428725
_cell_length_b 19.006423
_cell_length_c 14.323733
_cell_angle_alpha 29.872058
_cell_angle_beta 140.617158
_cell_angle_gamma 159.058918
_cell_volume 731.439405
_symmetry_space_group_name_H-M "P -1"
_symmetry_group_IT_number 2
_symmetry_cell_setting 'triclinic'
loop_
_space_group_symop_operation_xyz
x,y,z
-x,-y,-z
loop_
_atom_site_type_symbol
_atom_site_label
_atom_site_fract_x
_atom_site_fract_y
_atom_site_fract_z
Si Si1 0.729467 0.934094 0.958150
Si Si2 0.817270 0.908026 0.253157
Si Si3 0.091306 0.670805 0.697194
Si Si4 0.635669 0.159938 0.622509
Si Si5 0.822151 0.577783 0.925118
Si Si6 0.954214 0.306111 0.574400
Si Si7 0.758858 0.551786 0.686896
O O1 0.671811 0.036703 0.842118
O O2 0.907796 0.114917 0.808454
O O3 0.863393 0.956439 0.123600
O O4 0.468320 0.642929 0.040381
O O5 0.858607 0.783522 0.460976
O O6 0.536724 0.716095 0.260014
O O7 0.011181 0.168331 0.172397
O O8 0.059594 0.724275 0.511792
O O9 0.871440 0.520337 0.757414
O O10 0.349307 0.953170 0.626060
O O11 0.097635 0.508289 0.875080
O O12 0.750120 0.243653 0.515731
O O13 0.770865 0.401218 0.512002
O O14 0.860337 0.627613 0.789023
#
# Coordination Sequence:
#
# PCOD8001588 Si02
#       7
#     2   2   2   2   2   2   2
#     4   8  17  31  52  80  97 129 179 206 239 312
#     4  10  20  38  56  68 102 146 171 207 252 306
#     4  11  20  32  54  82 107 129 163 223 258 288
#     4   8  17  30  51  79 108 129 169 204 252 308
#     4  10  20  33  57  76  98 137 175 211 255 297
#     4   9  17  31  52  81 105 135 163 204 262 308
#     4  10  23  37  49  77 106 133 177 211 252 305
#
# _framework density 19.140340999999999
#
# number of rings (size 3 to 8) (size 9 to 14) (size 15 to 20)
#    0.857    1.714    0.000    2.143    0.000    1.714 
#    0.000    0.714    0.000    1.714    0.000    0.000 
#    0.000    0.000    0.000    0.000    0.000    0.000 
#
# Total GULP energy -173500.739030 kJ/mol
# GULP energy per Si atom -12392.909931 kJ/mol
# Density = 1.909678 g / cm^3
# Si number density = 19.140341 Si / 1000 Ang^3
#
#
#
# Elastic Constant Matrix: (Units=GPa)
#
#
# Indices 1 2 3 4 5 6 
#
# 1 11.2373 7.3672 9.1233 5.6823 -0.6342 -2.6834
# 2 7.3672 75.0993 53.5848 -9.0009 1.1710 -5.5824
# 3 9.1233 53.5848 103.3787 -6.1409 -16.3060 -30.1343
# 4 5.6823 -9.0009 -6.1409 26.7169 -11.0369 -9.0884
# 5 -0.6342 1.1710 -16.3060 -11.0369 18.5967 1.6482
# 6 -2.6834 -5.5824 -30.1343 -9.0884 1.6482 8.4983
#
#
#
# Elastic Compliance Matrix: (Units=1/GPa)
#
#
# Indices 1 2 3 4 5 6 
#
# 1 0.108742 -0.015165 0.007457 -0.014934 -0.000763 0.034994
# 2 -0.015165 0.019721 -0.002543 0.016549 0.004416 0.015992
# 3 0.007457 -0.002543 -0.005433 -0.023839 -0.014847 -0.041197
# 4 -0.014934 0.016549 -0.023839 0.018613 -0.006334 -0.057241
# 5 -0.000763 0.004416 -0.014847 -0.006334 0.042452 -0.064992
# 6 0.034994 0.015992 -0.041197 -0.057241 -0.064992 -0.055466
#
#
# Mechanical properties :
#
#
# Convention : Reuss Voigt Hill
#
# Bulk Modulus (GPa) = 9.75338 36.65177 23.20257
# Shear Modulus (GPa) = 27.27678 18.73838 23.00758
#
# Velocity S-wave (km/s) = 3.77914 3.13229 3.47082
# Velocity P-wave (km/s) = 4.91419 5.68086 5.31138
#
# Compressibility (1/GPa) = 0.10252856
#
# Stress axis : x y z
#
# Youngs Moduli (GPa) = 9.19606 50.70755 -184.04439
#
# Poissons Ratio (x) = 0.76898 1.37245
# Poissons Ratio (y) = 0.13946 -0.46796
# Poissons Ratio (z) = -0.06858 0.12893
#
# Static dielectric constant tensor:
#      x y z
#    x 2.944700 0.001730 -0.210120 
#    y 0.001730 3.433000 -0.039040 
#    z -0.210120 -0.039040 3.674030 
# 
# 
# High freq. dielectric constant tensor:
#      x y z
#    x 1.696590 -0.006100 -0.020030 
#    y -0.006100 1.744770 -0.006740 
#    z -0.020030 -0.006740 1.755920 
# 
# From -- ./inp_files/208031.got.cif
#   From: 2010.06.25/outbox.cif.g09.slc.cpg/sg2_105_cif.got.tgz:208031.got - 2010.06.27 13:26:56.
