data_PCOD8001241
_publ_section_title
;
Structure prediction by ZEFSAII (Michael W. Deem and Ramdas Pophale) SiO2 
 PCOD8001241
Probable space group: P -1
;
_chemical_formula_sum "Si O2"
_cell_formula_units_Z 14
_cell_length_a 9.745963
_cell_length_b 10.530141
_cell_length_c 8.727356
_cell_angle_alpha 80.840919
_cell_angle_beta 45.432035
_cell_angle_gamma 86.791209
_cell_volume 627.966561
_symmetry_space_group_name_H-M "P -1"
_symmetry_group_IT_number 2
_symmetry_cell_setting 'triclinic'
loop_
_space_group_symop_operation_xyz
x,y,z
-x,-y,-z
loop_
_atom_site_type_symbol
_atom_site_label
_atom_site_fract_x
_atom_site_fract_y
_atom_site_fract_z
Si Si1 0.681446 0.092196 0.389391
Si Si2 0.158837 0.768157 0.060228
Si Si3 0.018616 0.991869 0.306925
Si Si4 0.147652 0.422067 0.808352
Si Si5 0.179085 0.264220 0.096305
Si Si6 0.545184 0.356977 0.955696
Si Si7 0.250382 0.666184 0.516644
O O1 0.631905 0.212695 0.513567
O O2 0.807486 0.993961 0.399190
O O3 0.500000 0.000000 0.500000
O O4 0.801971 0.152395 0.140614
O O5 0.350394 0.697915 0.967219
O O6 0.971651 0.668346 0.203632
O O7 0.114192 0.862004 0.215636
O O8 0.152187 0.112561 0.111460
O O9 0.000000 0.000000 0.500000
O O10 0.292365 0.529084 0.589582
O O11 0.255911 0.337749 0.865599
O O12 0.000000 0.500000 0.000000
O O13 0.978220 0.314398 0.303184
O O14 0.338935 0.280845 0.100381
O O15 0.688067 0.343567 0.704337
O O16 0.500000 0.500000 0.000000
#
# Coordination Sequence:
#
# PCOD8001241 Si02
#       7
#     2   2   2   2   2   2   2
#     4  11  25  44  72 107 133 174 236 282 342 411
#     4  12  24  44  71 100 138 179 229 287 339 408
#     4  11  25  45  69 101 137 187 225 275 356 408
#     4  10  19  42  71  94 133 179 226 279 340 402
#     4  10  23  44  69  98 141 178 227 286 346 408
#     4  12  28  43  67 106 137 180 236 280 345 407
#     4  10  23  47  72  96 141 180 226 288 346 405
#
# _framework density 22.294181999999999
#
# number of rings (size 3 to 8) (size 9 to 14) (size 15 to 20)
#    0.000    1.143    4.286    3.857    4.000    4.571 
#    0.000    0.000    0.000    0.000    0.000    0.000 
#    0.000    0.000    0.000    0.000    0.000    0.000 
#
# Total GULP energy -173601.509671 kJ/mol
# GULP energy per Si atom -12400.107834 kJ/mol
# Density = 2.224344 g / cm^3
# Si number density = 22.294182 Si / 1000 Ang^3
#
#
#
# Elastic Constant Matrix: (Units=GPa)
#
#
# Indices 1 2 3 4 5 6 
#
# 1 138.3434 45.8229 12.1241 0.3489 -3.8423 -5.2426
# 2 45.8229 137.9153 28.5253 7.0274 -2.1393 4.5827
# 3 12.1241 28.5253 64.5783 5.8754 13.5480 3.8276
# 4 0.3489 7.0274 5.8754 38.7256 7.9267 4.3102
# 5 -3.8423 -2.1393 13.5480 7.9267 34.3621 -7.7122
# 6 -5.2426 4.5827 3.8276 4.3102 -7.7122 39.4113
#
#
#
# Elastic Compliance Matrix: (Units=1/GPa)
#
#
# Indices 1 2 3 4 5 6 
#
# 1 0.008275 -0.002618 -0.000814 0.000025 0.001474 0.001770
# 2 -0.002618 0.009013 -0.003743 -0.001388 0.001952 -0.000499
# 3 -0.000814 -0.003743 0.019304 -0.000117 -0.008632 -0.003224
# 4 0.000025 -0.001388 -0.000117 0.028114 -0.007503 -0.004367
# 5 0.001474 0.001952 -0.008632 -0.007503 0.036490 0.008769
# 6 0.001770 -0.000499 -0.003224 -0.004367 0.008769 0.028173
#
#
# Mechanical properties :
#
#
# Convention : Reuss Voigt Hill
#
# Bulk Modulus (GPa) = 44.96159 57.08685 51.02422
# Shear Modulus (GPa) = 33.08354 39.45747 36.27050
#
# Velocity S-wave (km/s) = 3.85639 4.21153 4.03787
# Velocity P-wave (km/s) = 6.32773 7.02218 6.68398
#
# Compressibility (1/GPa) = 0.02224121
#
# Stress axis : x y z
#
# Youngs Moduli (GPa) = 120.84721 110.95609 51.80337
#
# Poissons Ratio (x) = 0.29052 0.04214
# Poissons Ratio (y) = 0.31642 0.19391
# Poissons Ratio (z) = 0.09831 0.41533
#
# Static dielectric constant tensor:
#      x y z
#    x 3.642380 0.533910 0.332600 
#    y 0.533910 3.463590 -0.165650 
#    z 0.332600 -0.165650 3.701940 
# 
# 
# High freq. dielectric constant tensor:
#      x y z
#    x 1.887260 0.001350 0.008960 
#    y 0.001350 1.895010 -0.005370 
#    z 0.008960 -0.005370 1.858670 
# 
# From -- ./inp_files/186355.got.cif
#   From: 2010.06.25/outbox.cif.g09.slc.cpg/sg2_94_cif.got.tgz:186355.got - 2010.06.27 13:26:56.
