data_PCOD8001885
_publ_section_title
;
Structure prediction by ZEFSAII (Michael W. Deem and Ramdas Pophale) SiO2 
 PCOD8001885
Probable space group: P -1
;
_chemical_formula_sum "Si O2"
_cell_formula_units_Z 14
_cell_length_a 8.451999
_cell_length_b 12.318067
_cell_length_c 23.180719
_cell_angle_alpha 159.637855
_cell_angle_beta 118.344561
_cell_angle_gamma 71.498170
_cell_volume 671.667663
_symmetry_space_group_name_H-M "P -1"
_symmetry_group_IT_number 2
_symmetry_cell_setting 'triclinic'
loop_
_space_group_symop_operation_xyz
x,y,z
-x,-y,-z
loop_
_atom_site_type_symbol
_atom_site_label
_atom_site_fract_x
_atom_site_fract_y
_atom_site_fract_z
Si Si1 0.870846 0.213968 0.081476
Si Si2 0.147191 0.452949 0.455782
Si Si3 0.509759 0.600810 0.118001
Si Si4 0.840149 0.266719 0.899606
Si Si5 0.561925 0.085457 0.183138
Si Si6 0.130250 0.489349 0.648604
Si Si7 0.931918 0.737407 0.261708
O O1 0.821398 0.306670 0.182064
O O2 0.987917 0.564221 0.240120
O O3 0.664567 0.982225 0.899105
O O4 0.000000 0.000000 0.000000
O O5 0.368409 0.699344 0.637571
O O6 0.000000 0.500000 0.500000
O O7 0.084078 0.553456 0.433709
O O8 0.127938 0.073081 0.256500
O O9 0.375932 0.815178 0.206610
O O10 0.738903 0.810844 0.280369
O O11 0.500000 0.500000 0.000000
O O12 0.416184 0.269414 0.979235
O O13 0.875645 0.466409 0.065297
O O14 0.000000 0.500000 0.000000
O O15 0.693073 0.296326 0.257309
O O16 0.114403 0.101523 0.460730
#
# Coordination Sequence:
#
# PCOD8001885 Si02
#       7
#     2   2   2   2   2   2   2
#     4  11  24  41  60  87 123 162 201 247 304 362
#     4  10  20  34  58  91 119 148 193 250 298 344
#     4   9  19  36  56  83 121 157 191 241 302 353
#     4  11  19  33  59  91 121 156 200 249 298 358
#     4  10  21  40  62  87 120 160 201 247 300 357
#     4  11  21  40  63  86 117 162 204 246 298 361
#     4  10  22  40  59  85 122 161 199 250 306 357
#
# _framework density 20.843641999999999
#
# number of rings (size 3 to 8) (size 9 to 14) (size 15 to 20)
#    0.000    1.714    0.000    6.857    0.000    1.143 
#    0.000    8.571    0.000    0.000    0.000    0.000 
#    0.000    0.000    0.000    0.000    0.000    0.000 
#
# Total GULP energy -173522.061389 kJ/mol
# GULP energy per Si atom -12394.432956 kJ/mol
# Density = 2.079620 g / cm^3
# Si number density = 20.843642 Si / 1000 Ang^3
#
#
#
# Elastic Constant Matrix: (Units=GPa)
#
#
# Indices 1 2 3 4 5 6 
#
# 1 76.4089 37.1658 28.9610 15.0130 -3.1430 -11.7393
# 2 37.1658 113.5948 32.5530 18.4510 11.5419 -9.6200
# 3 28.9610 32.5530 97.8689 16.9138 3.7577 -4.0547
# 4 15.0130 18.4510 16.9138 48.4529 1.7085 4.8236
# 5 -3.1430 11.5419 3.7577 1.7085 27.3233 10.1841
# 6 -11.7393 -9.6200 -4.0547 4.8236 10.1841 34.5337
#
#
#
# Elastic Compliance Matrix: (Units=1/GPa)
#
#
# Indices 1 2 3 4 5 6 
#
# 1 0.017797 -0.004342 -0.003210 -0.003248 0.003026 0.004025
# 2 -0.004342 0.012258 -0.001871 -0.002840 -0.006776 0.004114
# 3 -0.003210 -0.001871 0.012316 -0.002604 -0.001329 0.000589
# 4 -0.003248 -0.002840 -0.002604 0.024179 0.001968 -0.006158
# 5 0.003026 -0.006776 -0.001329 0.001968 0.045333 -0.014659
# 6 0.004025 0.004114 0.000589 -0.006158 -0.014659 0.036724
#
#
# Mechanical properties :
#
#
# Convention : Reuss Voigt Hill
#
# Bulk Modulus (GPa) = 42.50947 53.91469 48.21208
# Shear Modulus (GPa) = 28.52345 34.67483 31.59914
#
# Velocity S-wave (km/s) = 3.70327 4.08311 3.89782
# Velocity P-wave (km/s) = 6.22289 6.93913 6.59074
#
# Compressibility (1/GPa) = 0.02352417
#
# Stress axis : x y z
#
# Youngs Moduli (GPa) = 56.18860 81.57814 81.19838
#
# Poissons Ratio (x) = 0.35420 0.26068
# Poissons Ratio (y) = 0.24397 0.15192
# Poissons Ratio (z) = 0.18039 0.15263
#
# Static dielectric constant tensor:
#      x y z
#    x 3.943970 -0.068910 0.208960 
#    y -0.068910 4.375520 0.064700 
#    z 0.208960 0.064700 3.829900 
# 
# 
# High freq. dielectric constant tensor:
#      x y z
#    x 1.798050 0.000230 0.010050 
#    y 0.000230 1.834310 0.012330 
#    z 0.010050 0.012330 1.808990 
# 
# From -- ./inp_files/176762.got.cif
#   From: 2010.06.25/outbox.cif.g09.slc.cpg/sg2_89_cif.got.tgz:176762.got - 2010.06.27 13:26:56.
