data_PCOD8001911
_publ_section_title
;
Structure prediction by ZEFSAII (Michael W. Deem and Ramdas Pophale) SiO2 
 PCOD8001911
Probable space group: P -1
;
_chemical_formula_sum "Si O2"
_cell_formula_units_Z 16
_cell_length_a 11.703185
_cell_length_b 10.086914
_cell_length_c 11.845466
_cell_angle_alpha 98.484497
_cell_angle_beta 142.922496
_cell_angle_gamma 74.929937
_cell_volume 809.742027
_symmetry_space_group_name_H-M "P -1"
_symmetry_group_IT_number 2
_symmetry_cell_setting 'triclinic'
loop_
_space_group_symop_operation_xyz
x,y,z
-x,-y,-z
loop_
_atom_site_type_symbol
_atom_site_label
_atom_site_fract_x
_atom_site_fract_y
_atom_site_fract_z
Si Si1 0.936444 0.061806 0.789138
Si Si2 0.353460 0.623684 0.008294
Si Si3 0.574375 0.679852 0.992907
Si Si4 0.704260 0.888565 0.449820
Si Si5 0.979293 0.348520 0.435512
Si Si6 0.657472 0.044781 0.207365
Si Si7 0.940550 0.808062 0.304855
Si Si8 0.717222 0.136986 0.849626
O O1 0.816970 0.143699 0.808829
O O2 0.938137 0.178855 0.710551
O O3 0.832722 0.943135 0.651242
O O4 0.157695 0.989429 0.992785
O O5 0.541480 0.660108 0.099524
O O6 0.190934 0.642415 0.786267
O O7 0.406883 0.465687 0.074303
O O8 0.282773 0.719735 0.070712
O O9 0.384206 0.789516 0.808433
O O10 0.767421 0.733811 0.132118
O O11 0.820946 0.742791 0.472377
O O12 0.503217 0.874200 0.346069
O O13 0.642732 0.002164 0.318713
O O14 0.928995 0.277198 0.503258
O O15 0.000000 0.500000 0.500000
O O16 0.865624 0.967505 0.308537
O O17 0.500000 0.000000 0.000000
#
# Coordination Sequence:
#
# PCOD8001911 Si02
#       8
#     2   2   2   2   2   2   2   2
#     4  11  24  41  64  88 120 170 205 254 298 357
#     4  11  21  36  60  91 121 163 201 244 312 364
#     4  10  20  34  59  89 121 157 193 250 314 361
#     4  11  23  40  64  91 123 158 205 254 307 361
#     4  11  22  37  61  93 127 158 195 254 309 372
#     4   9  18  32  57  88 120 151 184 251 309 351
#     4  10  20  37  56  90 123 150 200 249 304 366
#     4  11  23  43  62  88 125 159 216 250 293 364
#
# _framework density 19.759378999999999
#
# number of rings (size 3 to 8) (size 9 to 14) (size 15 to 20)
#    0.000    1.500    2.500    4.875    3.500    1.000 
#    0.000    0.625    0.000    1.500    0.000    0.000 
#    0.000    0.000    0.000    0.000    0.000    0.000 
#
# Total GULP energy -198349.604519 kJ/mol
# GULP energy per Si atom -12396.850282 kJ/mol
# Density = 1.971441 g / cm^3
# Si number density = 19.759379 Si / 1000 Ang^3
#
#
#
# Elastic Constant Matrix: (Units=GPa)
#
#
# Indices 1 2 3 4 5 6 
#
# 1 123.8774 66.8415 39.9673 8.8111 -6.3576 -5.6661
# 2 66.8415 148.6841 36.3696 -5.4901 -8.1452 -6.9642
# 3 39.9673 36.3696 78.1414 10.0447 -2.3670 4.9836
# 4 8.8111 -5.4901 10.0447 30.6743 2.6111 -4.5709
# 5 -6.3576 -8.1452 -2.3670 2.6111 26.3714 5.0699
# 6 -5.6661 -6.9642 4.9836 -4.5709 5.0699 24.6078
#
#
#
# Elastic Compliance Matrix: (Units=1/GPa)
#
#
# Indices 1 2 3 4 5 6 
#
# 1 0.012028 -0.004459 -0.003762 -0.002900 0.001186 0.001486
# 2 -0.004459 0.009814 -0.003031 0.004429 0.000659 0.003051
# 3 -0.003762 -0.003031 0.017426 -0.006316 0.001647 -0.006766
# 4 -0.002900 0.004429 -0.006316 0.038285 -0.005638 0.010138
# 5 0.001186 0.000659 0.001647 -0.005638 0.040913 -0.009350
# 6 0.001486 0.003051 -0.006766 0.010138 -0.009350 0.047023
#
#
# Mechanical properties :
#
#
# Convention : Reuss Voigt Hill
#
# Bulk Modulus (GPa) = 59.65735 70.78442 65.22088
# Shear Modulus (GPa) = 25.82883 30.16568 27.99726
#
# Velocity S-wave (km/s) = 3.61940 3.91148 3.76827
# Velocity P-wave (km/s) = 6.90827 7.50337 7.21196
#
# Compressibility (1/GPa) = 0.01676239
#
# Stress axis : x y z
#
# Youngs Moduli (GPa) = 83.14179 101.89184 57.38631
#
# Poissons Ratio (x) = 0.45436 0.21591
# Poissons Ratio (y) = 0.37075 0.17394
# Poissons Ratio (z) = 0.31281 0.30884
#
# Static dielectric constant tensor:
#      x y z
#    x 3.415410 -0.058170 0.072440 
#    y -0.058170 3.957840 -0.176390 
#    z 0.072440 -0.176390 3.617040 
# 
# 
# High freq. dielectric constant tensor:
#      x y z
#    x 1.746170 -0.000510 0.014660 
#    y -0.000510 1.771220 -0.000630 
#    z 0.014660 -0.000630 1.782320 
# 
# From -- ./inp_files/417686.got.cif
#   From: 2010.06.25/outbox.cif.g09.slc.cpg/sg2_209_cif.got.tgz:417686.got - 2010.06.27 13:26:56.
