data_PCOD8001938
_publ_section_title
;
Structure prediction by ZEFSAII (Michael W. Deem and Ramdas Pophale) SiO2 
 PCOD8001938
Probable space group: P -1
;
_chemical_formula_sum "Si O2"
_cell_formula_units_Z 16
_cell_length_a 15.922185
_cell_length_b 15.214228
_cell_length_c 13.331748
_cell_angle_alpha 123.997055
_cell_angle_beta 25.644382
_cell_angle_gamma 140.991627
_cell_volume 752.026957
_symmetry_space_group_name_H-M "P -1"
_symmetry_group_IT_number 2
_symmetry_cell_setting 'triclinic'
loop_
_space_group_symop_operation_xyz
x,y,z
-x,-y,-z
loop_
_atom_site_type_symbol
_atom_site_label
_atom_site_fract_x
_atom_site_fract_y
_atom_site_fract_z
Si Si1 0.719471 0.284655 0.589173
Si Si2 0.506139 0.837269 0.033719
Si Si3 0.611543 0.690129 0.686536
Si Si4 0.185714 0.347190 0.001911
Si Si5 0.130566 0.844625 0.357902
Si Si6 0.922739 0.033252 0.006350
Si Si7 0.860920 0.927560 0.409843
Si Si8 0.654389 0.495795 0.747014
O O1 0.718829 0.250945 0.685364
O O2 0.762514 0.428783 0.630793
O O3 0.995443 0.343745 0.276306
O O4 0.419042 0.124314 0.754777
O O5 0.443387 0.905284 0.060237
O O6 0.489496 0.716954 0.921691
O O7 0.832947 0.990206 0.823073
O O8 0.609464 0.748714 0.618816
O O9 0.954898 0.798573 0.414875
O O10 0.379778 0.496766 0.808789
O O11 0.975645 0.180340 0.060016
O O12 0.413594 0.373499 0.840490
O O13 0.929544 0.675659 0.524166
O O14 0.188508 0.971138 0.444272
O O15 0.144489 0.085406 0.712437
O O16 0.000000 0.000000 0.000000
O O17 0.500000 0.500000 0.000000
#
# Coordination Sequence:
#
# PCOD8001938 Si02
#       8
#     2   2   2   2   2   2   2   2
#     4  11  22  37  60  90 120 152 197 239 292 350
#     4  10  20  35  60  92 118 153 188 237 293 352
#     4  10  22  39  58  87 122 151 193 235 289 356
#     4  11  23  38  60  85 118 159 192 243 291 338
#     4  10  20  34  60  86 118 153 185 236 292 344
#     4  11  23  42  63  82 113 156 201 247 290 337
#     4  10  23  40  58  86 117 155 199 238 283 345
#     4  11  20  33  55  88 123 152 186 233 295 348
#
# _framework density 21.275832999999999
#
# number of rings (size 3 to 8) (size 9 to 14) (size 15 to 20)
#    0.000    1.500    1.250    6.375    1.750    4.000 
#    0.000    0.000    0.000    0.750    0.000    0.000 
#    0.000    0.000    0.000    0.000    0.000    0.000 
#
# Total GULP energy -198357.708481 kJ/mol
# GULP energy per Si atom -12397.356780 kJ/mol
# Density = 2.122741 g / cm^3
# Si number density = 21.275833 Si / 1000 Ang^3
#
#
#
# Elastic Constant Matrix: (Units=GPa)
#
#
# Indices 1 2 3 4 5 6 
#
# 1 107.7402 33.8825 18.8469 -0.7990 5.6442 -16.3847
# 2 33.8825 103.6191 14.9914 6.6863 6.1571 -15.7949
# 3 18.8469 14.9914 49.7782 10.6828 -1.0382 -4.0174
# 4 -0.7990 6.6863 10.6828 20.4084 -6.6867 -5.1698
# 5 5.6442 6.1571 -1.0382 -6.6867 36.9795 4.7502
# 6 -16.3847 -15.7949 -4.0174 -5.1698 4.7502 25.3465
#
#
#
# Elastic Compliance Matrix: (Units=1/GPa)
#
#
# Indices 1 2 3 4 5 6 
#
# 1 0.011952 -0.002471 -0.004282 0.004724 -0.001547 0.006761
# 2 -0.002471 0.011886 -0.001691 -0.002632 -0.002836 0.005536
# 3 -0.004282 -0.001691 0.024889 -0.013437 -0.000471 -0.002529
# 4 0.004724 -0.002632 -0.013437 0.062765 0.009362 0.010331
# 5 -0.001547 -0.002836 -0.000471 0.009362 0.030279 -0.006607
# 6 0.006761 0.005536 -0.002529 0.010331 -0.006607 0.050218
#
#
# Mechanical properties :
#
#
# Convention : Reuss Voigt Hill
#
# Bulk Modulus (GPa) = 31.40807 44.06437 37.73622
# Shear Modulus (GPa) = 22.78012 29.44133 26.11072
#
# Velocity S-wave (km/s) = 3.27571 3.72397 3.50701
# Velocity P-wave (km/s) = 5.39457 6.26471 5.84585
#
# Compressibility (1/GPa) = 0.03183895
#
# Stress axis : x y z
#
# Youngs Moduli (GPa) = 83.66825 84.13474 40.17795
#
# Poissons Ratio (x) = 0.20790 0.17202
# Poissons Ratio (y) = 0.20675 0.06796
# Poissons Ratio (z) = 0.35823 0.14231
#
# Static dielectric constant tensor:
#      x y z
#    x 4.230670 -0.221290 -0.051320 
#    y -0.221290 3.838300 -0.139020 
#    z -0.051320 -0.139020 4.026090 
# 
# 
# High freq. dielectric constant tensor:
#      x y z
#    x 1.835080 -0.023860 -0.000110 
#    y -0.023860 1.833540 -0.014270 
#    z -0.000110 -0.014270 1.840020 
# 
# From -- ./inp_files/272487.got.cif
#   From: 2010.06.25/outbox.cif.g09.slc.cpg/sg2_137_cif.got.tgz:272487.got - 2010.06.27 13:26:56.
