data_PCOD8001099
_publ_section_title
;
Structure prediction by ZEFSAII (Michael W. Deem and Ramdas Pophale) SiO2 
 PCOD8001099
Probable space group: P -1
;
_chemical_formula_sum "Si O2"
_cell_formula_units_Z 16
_cell_length_a 14.039546
_cell_length_b 14.594701
_cell_length_c 14.873277
_cell_angle_alpha 122.138269
_cell_angle_beta 150.309572
_cell_angle_gamma 37.656646
_cell_volume 790.601458
_symmetry_space_group_name_H-M "P -1"
_symmetry_group_IT_number 2
_symmetry_cell_setting 'triclinic'
loop_
_space_group_symop_operation_xyz
x,y,z
-x,-y,-z
loop_
_atom_site_type_symbol
_atom_site_label
_atom_site_fract_x
_atom_site_fract_y
_atom_site_fract_z
Si Si1 0.541792 0.167675 0.472593
Si Si2 0.545421 0.796618 0.061902
Si Si3 0.168752 0.773544 0.818312
Si Si4 0.332095 0.472835 0.765593
Si Si5 0.889196 0.554765 0.587845
Si Si6 0.237048 0.698670 0.358113
Si Si7 0.341159 0.103934 0.115995
Si Si8 0.796084 0.996855 0.286948
O O1 0.300259 0.285622 0.417091
O O2 0.636543 0.242504 0.547372
O O3 0.374743 0.163861 0.261583
O O4 0.828945 0.975650 0.650376
O O5 0.915707 0.618077 0.283100
O O6 0.420040 0.941406 0.106479
O O7 0.385602 0.755268 0.930759
O O8 0.457412 0.856026 0.917676
O O9 0.180679 0.655499 0.712471
O O10 0.312608 0.683301 0.988079
O O11 0.352469 0.399385 0.650944
O O12 0.117799 0.518558 0.691669
O O13 0.500000 0.500000 0.500000
O O14 0.036825 0.808612 0.340331
O O15 0.018110 0.731818 0.124720
O O16 0.598959 0.025481 0.215269
O O17 0.000000 0.000000 0.500000
#
# Coordination Sequence:
#
# PCOD8001099 Si02
#       8
#     2   2   2   2   2   2   2   2
#     4  12  24  41  62  97 128 161 208 261 312 365
#     4  10  20  39  62  90 122 165 215 248 301 381
#     4  10  19  41  66  91 123 153 212 260 307 383
#     4   9  21  43  64  88 119 164 204 259 318 379
#     4  10  23  39  62  92 122 162 207 256 320 375
#     4  11  25  42  59  96 131 164 214 258 307 358
#     4  11  23  42  64  89 130 173 207 254 307 366
#     4  11  21  40  65  89 122 177 210 249 305 368
#
# _framework density 20.237755
#
# number of rings (size 3 to 8) (size 9 to 14) (size 15 to 20)
#    0.000    1.500    3.750    2.250    3.500    2.500 
#    6.750    0.000    0.000    0.000    0.000    0.000 
#    0.000    0.000    0.000    0.000    0.000    0.000 
#
# Total GULP energy -198278.070897 kJ/mol
# GULP energy per Si atom -12392.379431 kJ/mol
# Density = 2.019169 g / cm^3
# Si number density = 20.237755 Si / 1000 Ang^3
#
#
#
# Elastic Constant Matrix: (Units=GPa)
#
#
# Indices 1 2 3 4 5 6 
#
# 1 56.6958 47.8780 24.6534 3.4033 -14.0058 -11.8417
# 2 47.8780 139.5848 77.8595 -7.4361 -25.1134 -2.8200
# 3 24.6534 77.8595 140.7567 -0.1770 -18.7151 -10.4957
# 4 3.4033 -7.4361 -0.1770 48.6894 3.2676 -6.5123
# 5 -14.0058 -25.1134 -18.7151 3.2676 21.2286 6.4355
# 6 -11.8417 -2.8200 -10.4957 -6.5123 6.4355 37.9315
#
#
#
# Elastic Compliance Matrix: (Units=1/GPa)
#
#
# Indices 1 2 3 4 5 6 
#
# 1 0.028198 -0.009292 0.001703 -0.002979 0.007511 0.006798
# 2 -0.009292 0.015067 -0.006047 0.001843 0.007411 -0.004395
# 3 0.001703 -0.006047 0.010703 -0.000868 0.002807 0.002418
# 4 -0.002979 0.001843 -0.000868 0.021836 -0.004991 0.003563
# 5 0.007511 0.007411 0.002807 -0.004991 0.066646 -0.008492
# 6 0.006798 -0.004395 0.002418 0.003563 -0.008492 0.030880
#
#
# Mechanical properties :
#
#
# Convention : Reuss Voigt Hill
#
# Bulk Modulus (GPa) = 37.45781 70.86879 54.16330
# Shear Modulus (GPa) = 23.86606 34.01300 28.93953
#
# Velocity S-wave (km/s) = 3.43780 4.10405 3.78561
# Velocity P-wave (km/s) = 5.85722 7.58628 6.77712
#
# Compressibility (1/GPa) = 0.02669670
#
# Stress axis : x y z
#
# Youngs Moduli (GPa) = 35.46300 66.37032 93.42811
#
# Poissons Ratio (x) = 0.61671 -0.15908
# Poissons Ratio (y) = 0.32952 0.56494
# Poissons Ratio (z) = -0.06038 0.40133
#
# Static dielectric constant tensor:
#      x y z
#    x 3.672370 0.567090 -0.129470 
#    y 0.567090 4.642950 0.063720 
#    z -0.129470 0.063720 4.298750 
# 
# 
# High freq. dielectric constant tensor:
#      x y z
#    x 1.773130 0.014320 -0.002770 
#    y 0.014320 1.794710 0.005390 
#    z -0.002770 0.005390 1.811120 
# 
# From -- ./inp_files/313740.got.cif
#   From: 2010.06.25/outbox.cif.g09.slc.cpg/sg2_157_cif.got.tgz:313740.got - 2010.06.27 13:26:56.
