data_PCOD8001776
_publ_section_title
;
Structure prediction by ZEFSAII (Michael W. Deem and Ramdas Pophale) SiO2 
 PCOD8001776
Probable space group: P -1
;
_chemical_formula_sum "Si O2"
_cell_formula_units_Z 16
_cell_length_a 15.696431
_cell_length_b 5.344534
_cell_length_c 17.765399
_cell_angle_alpha 95.866489
_cell_angle_beta 146.970676
_cell_angle_gamma 86.789883
_cell_volume 806.870466
_symmetry_space_group_name_H-M "P -1"
_symmetry_group_IT_number 2
_symmetry_cell_setting 'triclinic'
loop_
_space_group_symop_operation_xyz
x,y,z
-x,-y,-z
loop_
_atom_site_type_symbol
_atom_site_label
_atom_site_fract_x
_atom_site_fract_y
_atom_site_fract_z
Si Si1 0.476413 0.474254 0.393801
Si Si2 0.070089 0.776090 0.741068
Si Si3 0.527573 0.785948 0.953785
Si Si4 0.581572 0.062273 0.721873
Si Si5 0.817162 0.717583 0.246403
Si Si6 0.663292 0.603874 0.270376
Si Si7 0.278178 0.302075 0.518754
Si Si8 0.658886 0.141884 0.944906
O O1 0.500000 0.500000 0.500000
O O2 0.373658 0.703719 0.294629
O O3 0.645904 0.493997 0.477974
O O4 0.388744 0.204638 0.302951
O O5 0.069459 0.513090 0.685826
O O6 0.891885 0.801548 0.638029
O O7 0.116888 0.020796 0.733096
O O8 0.178655 0.751454 0.894417
O O9 0.359179 0.657652 0.801463
O O10 0.608154 0.880921 0.939032
O O11 0.653171 0.614600 0.082371
O O12 0.500000 0.000000 0.000000
O O13 0.396079 0.072791 0.606181
O O14 0.687409 0.092243 0.876007
O O15 0.780858 0.776313 0.309923
O O16 0.737397 0.573247 0.406153
O O17 0.482864 0.675693 0.143940
#
# Coordination Sequence:
#
# PCOD8001776 Si02
#       8
#     2   2   2   2   2   2   2   2
#     4  10  20  39  66  91 111 138 181 229 279 340
#     4  11  24  38  52  81 115 160 184 230 282 330
#     4  11  19  31  54  79 105 146 202 249 277 304
#     4   9  21  36  61  89 109 144 180 230 272 332
#     4  11  23  34  54  76 113 153 203 230 275 317
#     4  11  19  37  53  80 108 150 199 248 267 315
#     4   9  24  37  59  82 117 146 184 225 293 339
#     4  10  20  34  56  78 112 147 195 238 271 323
#
# _framework density 19.829701
#
# number of rings (size 3 to 8) (size 9 to 14) (size 15 to 20)
#    0.750    1.000    2.500    3.000    1.750    1.000 
#    0.000    0.000    0.000    1.500    0.000    0.000 
#    0.000    0.000    0.000    0.000    0.000    0.000 
#
# Total GULP energy -198221.590003 kJ/mol
# GULP energy per Si atom -12388.849375 kJ/mol
# Density = 1.978457 g / cm^3
# Si number density = 19.829701 Si / 1000 Ang^3
#
#
#
# Elastic Constant Matrix: (Units=GPa)
#
#
# Indices 1 2 3 4 5 6 
#
# 1 71.9223 30.5828 44.1412 -2.4299 -36.6150 11.4266
# 2 30.5828 109.2474 24.9756 8.3875 -18.3295 2.4962
# 3 44.1412 24.9756 94.7874 0.4293 -15.7768 1.5197
# 4 -2.4299 8.3875 0.4293 18.6686 -0.5656 -5.7904
# 5 -36.6150 -18.3295 -15.7768 -0.5656 44.4836 -2.6118
# 6 11.4266 2.4962 1.5197 -5.7904 -2.6118 19.3210
#
#
#
# Elastic Compliance Matrix: (Units=1/GPa)
#
#
# Indices 1 2 3 4 5 6 
#
# 1 0.038720 -0.003536 -0.012683 0.002280 0.024923 -0.017392
# 2 -0.003536 0.011018 -0.001028 -0.005591 0.001149 -0.000772
# 3 -0.012683 -0.001028 0.015816 0.000082 -0.004915 0.005750
# 4 0.002280 -0.005591 0.000082 0.062050 0.001457 0.018160
# 5 0.024923 0.001149 -0.004915 0.001457 0.041245 -0.008490
# 6 -0.017392 -0.000772 0.005750 0.018160 -0.008490 0.065985
#
#
# Mechanical properties :
#
#
# Convention : Reuss Voigt Hill
#
# Bulk Modulus (GPa) = 32.19407 52.81739 42.50573
# Shear Modulus (GPa) = 17.87752 28.24515 23.06134
#
# Velocity S-wave (km/s) = 3.00584 3.77820 3.41393
# Velocity P-wave (km/s) = 5.32140 6.76213 6.08456
#
# Compressibility (1/GPa) = 0.03106162
#
# Stress axis : x y z
#
# Youngs Moduli (GPa) = 25.82661 90.76112 63.22581
#
# Poissons Ratio (x) = 0.32091 0.80188
# Poissons Ratio (y) = 0.09132 0.06497
# Poissons Ratio (z) = 0.32755 0.09327
#
# Static dielectric constant tensor:
#      x y z
#    x 3.346040 0.081520 -0.109300 
#    y 0.081520 3.553510 -0.056580 
#    z -0.109300 -0.056580 3.639400 
# 
# 
# High freq. dielectric constant tensor:
#      x y z
#    x 1.738160 0.009350 -0.022360 
#    y 0.009350 1.772320 -0.001050 
#    z -0.022360 -0.001050 1.760090 
# 
# From -- ./inp_files/108732.got.cif
#   From: 2010.06.25/outbox.cif.g09.slc.cpg/sg2_55_cif.got.tgz:108732.got - 2010.06.27 13:26:56.
