data_PCOD8001314
_publ_section_title
;
Structure prediction by ZEFSAII (Michael W. Deem and Ramdas Pophale) SiO2 
 PCOD8001314
Probable space group: P -1
;
_chemical_formula_sum "Si O2"
_cell_formula_units_Z 16
_cell_length_a 15.230604
_cell_length_b 17.630415
_cell_length_c 15.316495
_cell_angle_alpha 42.432091
_cell_angle_beta 161.249678
_cell_angle_gamma 130.492080
_cell_volume 868.398776
_symmetry_space_group_name_H-M "P -1"
_symmetry_group_IT_number 2
_symmetry_cell_setting 'triclinic'
loop_
_space_group_symop_operation_xyz
x,y,z
-x,-y,-z
loop_
_atom_site_type_symbol
_atom_site_label
_atom_site_fract_x
_atom_site_fract_y
_atom_site_fract_z
Si Si1 0.951124 0.047159 0.282010
Si Si2 0.474036 0.102106 0.033029
Si Si3 0.992337 0.368241 0.099049
Si Si4 0.538838 0.252233 0.816420
Si Si5 0.400423 0.076427 0.178448
Si Si6 0.150461 0.888263 0.289709
Si Si7 0.010369 0.761037 0.969696
Si Si8 0.427609 0.812317 0.446400
O O1 0.749780 0.139269 0.074101
O O2 0.041496 0.110362 0.228826
O O3 0.241877 0.988341 0.654565
O O4 0.799330 0.946903 0.198150
O O5 0.492146 0.128088 0.130971
O O6 0.439580 0.221158 0.845040
O O7 0.272902 0.288277 0.471707
O O8 0.000000 0.500000 0.000000
O O9 0.715287 0.351476 0.904423
O O10 0.960304 0.334987 0.996346
O O11 0.631415 0.078890 0.466181
O O12 0.365944 0.945758 0.244745
O O13 0.096870 0.155572 0.855472
O O14 0.316330 0.796746 0.452737
O O15 0.000000 0.000000 0.000000
O O16 0.288882 0.739278 0.308903
O O17 0.757222 0.755790 0.800984
#
# Coordination Sequence:
#
# PCOD8001314 Si02
#       8
#     2   2   2   2   2   2   2   2
#     4  11  19  33  48  76 110 142 172 210 250 294
#     4  12  21  32  52  74 112 142 178 209 240 315
#     4  11  24  42  58  75 105 132 172 232 279 309
#     4  11  23  37  54  79 100 139 180 211 265 312
#     4  11  19  31  45  71 105 148 175 203 251 286
#     4  10  20  30  44  67 102 146 182 209 240 289
#     4  11  19  32  52  76  97 138 178 209 259 305
#     4  11  18  31  48  71 104 137 183 211 239 301
#
# _framework density 18.424714999999999
#
# number of rings (size 3 to 8) (size 9 to 14) (size 15 to 20)
#    0.000    1.000    2.500    9.375    0.000    0.000 
#    0.000    0.000    0.000    0.000    0.000    0.000 
#    0.000   20.000    0.000    0.000    0.000    0.000 
#
# Total GULP energy -198375.402554 kJ/mol
# GULP energy per Si atom -12398.462660 kJ/mol
# Density = 1.838278 g / cm^3
# Si number density = 18.424715 Si / 1000 Ang^3
#
#
#
# Elastic Constant Matrix: (Units=GPa)
#
#
# Indices 1 2 3 4 5 6 
#
# 1 114.5610 49.3230 36.1517 5.5228 -1.4378 -1.8971
# 2 49.3230 97.0800 31.0693 19.1448 -5.0129 -3.1732
# 3 36.1517 31.0693 62.5484 25.8407 3.9145 -0.8673
# 4 5.5228 19.1448 25.8407 29.4923 1.7767 -0.1019
# 5 -1.4378 -5.0129 3.9145 1.7767 24.3658 10.6290
# 6 -1.8971 -3.1732 -0.8673 -0.1019 10.6290 18.9415
#
#
#
# Elastic Compliance Matrix: (Units=1/GPa)
#
#
# Indices 1 2 3 4 5 6 
#
# 1 0.013522 -0.005839 -0.008547 0.008721 0.000424 -0.000206
# 2 -0.005839 0.015427 -0.001165 -0.008122 0.003679 -0.000162
# 3 -0.008547 -0.001165 0.032579 -0.025840 -0.005595 0.003441
# 4 0.008721 -0.008122 -0.025840 0.060249 -0.001074 -0.000744
# 5 0.000424 0.003679 -0.005595 -0.001074 0.056444 -0.031276
# 6 -0.000206 -0.000162 0.003441 -0.000744 -0.031276 0.070450
#
#
# Mechanical properties :
#
#
# Convention : Reuss Voigt Hill
#
# Bulk Modulus (GPa) = 32.86701 56.36414 44.61557
# Shear Modulus (GPa) = 17.24645 25.06963 21.15804
#
# Velocity S-wave (km/s) = 3.06281 3.69270 3.39241
# Velocity P-wave (km/s) = 5.51226 6.98852 6.29382
#
# Compressibility (1/GPa) = 0.03042565
#
# Stress axis : x y z
#
# Youngs Moduli (GPa) = 73.95580 64.82256 30.69434
#
# Poissons Ratio (x) = 0.37851 0.26234
# Poissons Ratio (y) = 0.43184 0.03575
# Poissons Ratio (z) = 0.63210 0.07551
#
# Static dielectric constant tensor:
#      x y z
#    x 3.874700 0.199550 0.218590 
#    y 0.199550 3.187470 0.450690 
#    z 0.218590 0.450690 3.367510 
# 
# 
# High freq. dielectric constant tensor:
#      x y z
#    x 1.724630 0.003420 0.010970 
#    y 0.003420 1.673020 0.056000 
#    z 0.010970 0.056000 1.702380 
# 
# From -- ./inp_files/437256.got.cif
#   From: 2010.06.25/outbox.cif.g09.slc.cpg/sg2_219_cif.got.tgz:437256.got - 2010.06.27 13:26:56.
