data_PCOD8001578
_publ_section_title
;
Structure prediction by ZEFSAII (Michael W. Deem and Ramdas Pophale) SiO2 
 PCOD8001578
Probable space group: P -1
;
_chemical_formula_sum "Si O2"
_cell_formula_units_Z 16
_cell_length_a 12.065860
_cell_length_b 12.081054
_cell_length_c 9.177611
_cell_angle_alpha 95.372432
_cell_angle_beta 119.603001
_cell_angle_gamma 47.849717
_cell_volume 801.502402
_symmetry_space_group_name_H-M "P -1"
_symmetry_group_IT_number 2
_symmetry_cell_setting 'triclinic'
loop_
_space_group_symop_operation_xyz
x,y,z
-x,-y,-z
loop_
_atom_site_type_symbol
_atom_site_label
_atom_site_fract_x
_atom_site_fract_y
_atom_site_fract_z
Si Si1 0.633105 0.809478 0.058319
Si Si2 0.438931 0.331301 0.225459
Si Si3 0.688251 0.149501 0.631968
Si Si4 0.350909 0.887908 0.081908
Si Si5 0.653097 0.317062 0.123079
Si Si6 0.029353 0.096094 0.446712
Si Si7 0.293193 0.615178 0.318270
Si Si8 0.079119 0.202931 0.758701
O O1 0.556727 0.782602 0.138412
O O2 0.844191 0.719009 0.198206
O O3 0.637632 0.733907 0.902762
O O4 0.500000 0.000000 0.000000
O O5 0.508665 0.264639 0.426437
O O6 0.602015 0.272409 0.222383
O O7 0.293196 0.526193 0.173035
O O8 0.640565 0.106985 0.737682
O O9 0.761386 0.225114 0.741295
O O10 0.848631 0.989628 0.627702
O O11 0.300399 0.793464 0.994414
O O12 0.192905 0.070086 0.943966
O O13 0.835241 0.267802 0.285089
O O14 0.500000 0.500000 0.000000
O O15 0.126178 0.118789 0.623663
O O16 0.000000 0.000000 0.500000
O O17 0.500000 0.500000 0.500000
O O18 0.140453 0.665087 0.339527
#
# Coordination Sequence:
#
# PCOD8001578 Si02
#       8
#     2   2   2   2   2   2   2   2
#     4   9  20  39  60  80 112 161 205 241 286 350
#     4  10  20  37  57  82 117 159 193 238 298 356
#     4  11  20  34  60  88 118 150 194 248 300 347
#     4  10  21  36  57  88 118 151 198 250 289 348
#     4  11  21  35  57  85 121 154 194 244 304 355
#     4  12  19  38  60  85 119 157 197 239 299 364
#     4  10  20  33  56  86 113 144 189 240 298 346
#     4  11  21  39  61  83 116 160 203 239 293 358
#
# _framework density 19.962513000000001
#
# number of rings (size 3 to 8) (size 9 to 14) (size 15 to 20)
#    0.000    1.500    3.750    3.000    0.000    4.500 
#    0.000    5.625    0.000   12.000    0.000    0.000 
#    0.000    0.000    0.000    0.000    0.000    0.000 
#
# Total GULP energy -198255.219087 kJ/mol
# GULP energy per Si atom -12390.951193 kJ/mol
# Density = 1.991708 g / cm^3
# Si number density = 19.962513 Si / 1000 Ang^3
#
#
#
# Elastic Constant Matrix: (Units=GPa)
#
#
# Indices 1 2 3 4 5 6 
#
# 1 108.4071 32.0078 65.9939 11.7928 9.1712 -12.9850
# 2 32.0078 97.1154 46.8450 26.5467 7.7384 -5.4542
# 3 65.9939 46.8450 117.2471 18.7000 -7.0635 1.1151
# 4 11.7928 26.5467 18.7000 41.1270 -1.4274 5.3986
# 5 9.1712 7.7384 -7.0635 -1.4274 39.0978 6.3647
# 6 -12.9850 -5.4542 1.1151 5.3986 6.3647 28.4257
#
#
#
# Elastic Compliance Matrix: (Units=1/GPa)
#
#
# Indices 1 2 3 4 5 6 
#
# 1 0.017617 0.001374 -0.010611 -0.002858 -0.008235 0.011114
# 2 0.001374 0.016261 -0.006242 -0.009200 -0.006163 0.007120
# 3 -0.010611 -0.006242 0.017492 0.000549 0.008320 -0.008698
# 4 -0.002858 -0.009200 0.000549 0.032388 0.005477 -0.010470
# 5 -0.008235 -0.006163 0.008320 0.005477 0.032649 -0.013621
# 6 0.011114 0.007120 -0.008698 -0.010470 -0.013621 0.047002
#
#
# Mechanical properties :
#
#
# Convention : Reuss Voigt Hill
#
# Bulk Modulus (GPa) = 48.99054 68.05144 58.52099
# Shear Modulus (GPa) = 24.85453 33.59164 29.22309
#
# Velocity S-wave (km/s) = 3.53237 4.10657 3.83024
# Velocity P-wave (km/s) = 6.42117 7.52654 6.99572
#
# Compressibility (1/GPa) = 0.02041211
#
# Stress axis : x y z
#
# Youngs Moduli (GPa) = 56.76286 61.49688 57.17016
#
# Poissons Ratio (x) = -0.08447 0.60662
# Poissons Ratio (y) = -0.07797 0.35684
# Poissons Ratio (z) = 0.60230 0.38384
#
# Static dielectric constant tensor:
#      x y z
#    x 3.747470 -0.072540 0.182530 
#    y -0.072540 3.882830 0.259570 
#    z 0.182530 0.259570 3.599020 
# 
# 
# High freq. dielectric constant tensor:
#      x y z
#    x 1.761730 -0.013790 0.003250 
#    y -0.013790 1.777300 0.019690 
#    z 0.003250 0.019690 1.763890 
# 
# From -- ./inp_files/259119.got.cif
#   From: 2010.06.25/outbox.cif.g09.slc.cpg/sg2_130_cif.got.tgz:259119.got - 2010.06.27 13:26:56.
