data_PCOD8001655
_publ_section_title
;
Structure prediction by ZEFSAII (Michael W. Deem and Ramdas Pophale) SiO2 
 PCOD8001655
Probable space group: P -1
;
_chemical_formula_sum "Si O2"
_cell_formula_units_Z 12
_cell_length_a 15.493244
_cell_length_b 7.091918
_cell_length_c 6.296911
_cell_angle_alpha 42.908398
_cell_angle_beta 92.330558
_cell_angle_gamma 88.225916
_cell_volume 468.784752
_symmetry_space_group_name_H-M "P -1"
_symmetry_group_IT_number 2
_symmetry_cell_setting 'triclinic'
loop_
_space_group_symop_operation_xyz
x,y,z
-x,-y,-z
loop_
_atom_site_type_symbol
_atom_site_label
_atom_site_fract_x
_atom_site_fract_y
_atom_site_fract_z
Si Si1 0.614508 0.602130 0.205172
Si Si2 0.222313 0.853580 0.776807
Si Si3 0.668301 0.644106 0.693617
Si Si4 0.192168 0.467108 0.700422
Si Si5 0.506773 0.108530 0.651108
Si Si6 0.897767 0.047247 0.957459
O O1 0.710155 0.630343 0.300979
O O2 0.582542 0.309895 0.509407
O O3 0.626654 0.605759 0.950519
O O4 0.536482 0.851724 0.027598
O O5 0.197856 0.652644 0.754013
O O6 0.270188 0.108229 0.482671
O O7 0.281741 0.656497 0.110080
O O8 0.135123 0.978167 0.782738
O O9 0.589542 0.723389 0.448723
O O10 0.132711 0.644363 0.380204
O O11 0.145352 0.191571 0.983673
O O12 0.500000 0.000000 0.500000
O O13 0.000000 0.000000 0.000000
#
# Coordination Sequence:
#
# PCOD8001655 Si02
#       6
#     2   2   2   2   2   2
#     4  10  18  31  56  89 124 166 207 248 301 357
#     4  11  23  41  66  94 127 167 208 255 314 373
#     4  10  18  33  58  92 129 167 209 252 301 359
#     4  11  23  43  67  93 128 164 206 258 314 376
#     4  10  16  27  52  90 127 161 211 252 285 356
#     4  12  27  45  68  95 122 160 208 263 326 383
#
# _framework density 25.598102999999998
#
# number of rings (size 3 to 8) (size 9 to 14) (size 15 to 20)
#    0.000    1.333    0.000   11.500    0.000    1.333 
#    0.000    0.000    0.000   20.000    0.000    0.000 
#    0.000    0.000    0.000    0.000    0.000    0.000 
#
# Total GULP energy -148854.871360 kJ/mol
# GULP energy per Si atom -12404.572613 kJ/mol
# Density = 2.553984 g / cm^3
# Si number density = 25.598103 Si / 1000 Ang^3
#
#
#
# Elastic Constant Matrix: (Units=GPa)
#
#
# Indices 1 2 3 4 5 6 
#
# 1 189.4450 28.4358 38.2197 -8.4322 9.1242 -1.8664
# 2 28.4358 69.0230 11.3654 -14.2114 -6.2636 -1.5109
# 3 38.2197 11.3654 123.1819 -19.9860 3.6988 3.6615
# 4 -8.4322 -14.2114 -19.9860 41.4416 12.0357 -1.6487
# 5 9.1242 -6.2636 3.6988 12.0357 46.7310 -8.2790
# 6 -1.8664 -1.5109 3.6615 -1.6487 -8.2790 38.2770
#
#
#
# Elastic Compliance Matrix: (Units=1/GPa)
#
#
# Indices 1 2 3 4 5 6 
#
# 1 0.006020 -0.002328 -0.001606 0.000050 -0.001362 0.000063
# 2 -0.002328 0.016617 -0.000129 0.004721 0.001674 0.001120
# 3 -0.001606 -0.000129 0.009483 0.004700 -0.001876 -0.001194
# 4 0.000050 0.004721 0.004700 0.030221 -0.007641 -0.000612
# 5 -0.001362 0.001674 -0.001876 -0.007641 0.024935 0.005243
# 6 0.000063 0.001120 -0.001194 -0.000612 0.005243 0.027395
#
#
# Mechanical properties :
#
#
# Convention : Reuss Voigt Hill
#
# Bulk Modulus (GPa) = 41.67522 59.74351 50.70936
# Shear Modulus (GPa) = 38.22852 45.53186 41.88019
#
# Velocity S-wave (km/s) = 3.86866 4.22206 4.04922
# Velocity P-wave (km/s) = 6.02257 6.86713 6.45867
#
# Compressibility (1/GPa) = 0.02399508
#
# Stress axis : x y z
#
# Youngs Moduli (GPa) = 166.10092 60.18106 105.45678
#
# Poissons Ratio (x) = 0.14008 0.16936
# Poissons Ratio (y) = 0.38663 0.01355
# Poissons Ratio (z) = 0.26676 0.00773
#
# Static dielectric constant tensor:
#      x y z
#    x 5.025080 -0.394900 0.648450 
#    y -0.394900 4.746410 -0.023480 
#    z 0.648450 -0.023480 5.380720 
# 
# 
# High freq. dielectric constant tensor:
#      x y z
#    x 2.018240 -0.023090 0.007050 
#    y -0.023090 2.050040 0.008890 
#    z 0.007050 0.008890 2.052080 
# 
# From -- ./inp_files/201706.got.cif
#   From: 2010.06.25/outbox.cif.g09.slc.cpg/sg2_101_cif.got.tgz:201706.got - 2010.06.27 13:26:56.
