data_PCOD8001332
_publ_section_title
;
Structure prediction by ZEFSAII (Michael W. Deem and Ramdas Pophale) SiO2 
 PCOD8001332
Probable space group: P -1
;
_chemical_formula_sum "Si O2"
_cell_formula_units_Z 16
_cell_length_a 20.690780
_cell_length_b 16.274132
_cell_length_c 8.702292
_cell_angle_alpha 138.394825
_cell_angle_beta 65.128443
_cell_angle_gamma 146.903915
_cell_volume 874.619474
_symmetry_space_group_name_H-M "P -1"
_symmetry_group_IT_number 2
_symmetry_cell_setting 'triclinic'
loop_
_space_group_symop_operation_xyz
x,y,z
-x,-y,-z
loop_
_atom_site_type_symbol
_atom_site_label
_atom_site_fract_x
_atom_site_fract_y
_atom_site_fract_z
Si Si1 0.440903 0.786643 0.193002
Si Si2 0.845726 0.786605 0.788129
Si Si3 0.641496 0.146670 0.124786
Si Si4 0.994825 0.853336 0.238909
Si Si5 0.755110 0.499991 0.744879
Si Si6 0.566522 0.795571 0.872847
Si Si7 0.208135 0.500010 0.791875
Si Si8 0.270968 0.204475 0.289732
O O1 0.336024 0.575637 0.132873
O O2 0.500000 0.000000 0.500000
O O3 0.558228 0.860287 0.132103
O O4 0.361132 0.702298 0.997911
O O5 0.739596 0.575601 0.729257
O O6 0.841158 0.702265 0.517852
O O7 0.802033 0.860221 0.888203
O O8 0.000000 0.000000 0.000000
O O9 0.693546 0.279355 0.424582
O O10 0.767416 0.357292 0.163970
O O11 0.500000 0.000000 0.000000
O O12 0.610017 0.953371 0.910065
O O13 0.910122 0.642713 0.158498
O O14 0.914193 0.720652 0.967694
O O15 0.000000 0.000000 0.500000
O O16 0.156660 0.046666 0.323319
O O17 0.412456 0.500023 0.587581
O O18 0.690842 0.881670 0.885321
#
# Coordination Sequence:
#
# PCOD8001332 Si02
#       8
#     2   2   2   2   2   2   2   2
#     4  11  18  34  56  87 111 147 189 236 278 338
#     4  11  18  34  56  87 111 147 189 236 278 338
#     4  11  19  36  58  89 115 149 195 240 279 342
#     4  11  19  36  58  89 115 149 195 240 279 342
#     4  10  20  30  60  86 110 144 202 238 278 322
#     4  11  22  37  58  87 121 153 185 237 302 348
#     4  10  20  32  60  88 110 144 206 236 278 322
#     4  11  22  37  58  87 121 153 185 237 302 348
#
# _framework density 18.293669000000001
#
# number of rings (size 3 to 8) (size 9 to 14) (size 15 to 20)
#    0.000    1.250    6.250    1.500    0.000    0.000 
#    0.000    1.875    0.000    6.000    0.000    0.000 
#    0.000    0.000    0.000    0.000    0.000    0.000 
#
# Total GULP energy -198263.594320 kJ/mol
# GULP energy per Si atom -12391.474645 kJ/mol
# Density = 1.825203 g / cm^3
# Si number density = 18.293669 Si / 1000 Ang^3
#
#
#
# Elastic Constant Matrix: (Units=GPa)
#
#
# Indices 1 2 3 4 5 6 
#
# 1 129.8488 66.8869 44.3014 -2.4351 -10.8134 4.3293
# 2 66.8869 121.9645 22.2262 -8.8764 -8.4979 -0.2027
# 3 44.3014 22.2262 110.7566 -3.1169 6.6546 10.9236
# 4 -2.4351 -8.8764 -3.1169 26.7129 -3.1794 3.8521
# 5 -10.8134 -8.4979 6.6546 -3.1794 28.2475 -1.9854
# 6 4.3293 -0.2027 10.9236 3.8521 -1.9854 33.1315
#
#
#
# Elastic Compliance Matrix: (Units=1/GPa)
#
#
# Indices 1 2 3 4 5 6 
#
# 1 0.012401 -0.005857 -0.004039 -0.000830 0.003843 0.000002
# 2 -0.005857 0.011807 -0.000090 0.003508 0.001765 0.000565
# 3 -0.004039 -0.000090 0.011304 0.000914 -0.004384 -0.003569
# 4 -0.000830 0.003508 0.000914 0.039842 0.004689 -0.004523
# 5 0.003843 0.001765 -0.004384 0.004689 0.039158 0.002755
# 6 0.000002 0.000565 -0.003569 -0.004523 0.002755 0.032053
#
#
# Mechanical properties :
#
#
# Convention : Reuss Voigt Hill
#
# Bulk Modulus (GPa) = 64.35475 69.93322 67.14398
# Shear Modulus (GPa) = 29.11767 32.89540 31.00654
#
# Velocity S-wave (km/s) = 3.99391 4.24510 4.12142
# Velocity P-wave (km/s) = 7.51821 7.89550 7.70917
#
# Compressibility (1/GPa) = 0.01553887
#
# Stress axis : x y z
#
# Youngs Moduli (GPa) = 80.63831 84.69618 88.46770
#
# Poissons Ratio (x) = 0.49610 0.35735
# Poissons Ratio (y) = 0.47233 0.00792
# Poissons Ratio (z) = 0.32573 0.00759
#
# Static dielectric constant tensor:
#      x y z
#    x 3.440040 -0.501510 0.012260 
#    y -0.501510 4.342340 0.125680 
#    z 0.012260 0.125680 3.474530 
# 
# 
# High freq. dielectric constant tensor:
#      x y z
#    x 1.670340 -0.030470 0.008170 
#    y -0.030470 1.726520 0.013540 
#    z 0.008170 0.013540 1.709550 
# 
# From -- ./inp_files/254874.got.cif
#   From: 2010.06.25/outbox.cif.g09.slc.cpg/sg2_128_cif.got.tgz:254874.got - 2010.06.27 13:26:56.
