data_PCOD8001598
_publ_section_title
;
Structure prediction by ZEFSAII (Michael W. Deem and Ramdas Pophale) SiO2 
 PCOD8001598
Probable space group: P -1
;
_chemical_formula_sum "Si O2"
_cell_formula_units_Z 16
_cell_length_a 18.457457
_cell_length_b 19.245904
_cell_length_c 6.186990
_cell_angle_alpha 51.893474
_cell_angle_beta 46.225350
_cell_angle_gamma 22.104526
_cell_volume 594.865347
_symmetry_space_group_name_H-M "P -1"
_symmetry_group_IT_number 2
_symmetry_cell_setting 'triclinic'
loop_
_space_group_symop_operation_xyz
x,y,z
-x,-y,-z
loop_
_atom_site_type_symbol
_atom_site_label
_atom_site_fract_x
_atom_site_fract_y
_atom_site_fract_z
Si Si1 0.063890 0.185292 0.941381
Si Si2 0.817384 0.763934 0.740903
Si Si3 0.506128 0.066080 0.171104
Si Si4 0.639164 0.493666 0.976784
Si Si5 0.124685 0.951888 0.149799
Si Si6 0.470387 0.755037 0.154617
Si Si7 0.279178 0.753360 0.820950
Si Si8 0.153787 0.563884 0.715419
O O1 0.177473 0.163956 0.588212
O O2 0.829654 0.345411 0.037598
O O3 0.199102 0.987977 0.032937
O O4 0.039529 0.239556 0.133789
O O5 0.725786 0.749919 0.824796
O O6 0.048711 0.574485 0.740899
O O7 0.661089 0.912428 0.964840
O O8 0.500000 0.000000 0.500000
O O9 0.589537 0.094528 0.045859
O O10 0.707497 0.473822 0.635244
O O11 0.473103 0.690856 0.054891
O O12 0.567237 0.445533 0.190362
O O13 0.958640 0.098332 0.016931
O O14 0.000000 0.000000 0.500000
O O15 0.304920 0.753521 0.029601
O O16 0.317888 0.817721 0.504698
O O17 0.697042 0.595260 0.107885
#
# Coordination Sequence:
#
# PCOD8001598 Si02
#       8
#     2   2   2   2   2   2   2   2
#     4   9  18  36  59  87 122 163 207 253 307 368
#     4  10  22  42  66  89 120 163 206 263 321 369
#     4  11  25  43  65  94 125 161 211 266 318 373
#     4   9  20  37  59  89 128 166 201 249 307 370
#     4  10  20  33  57  90 126 168 210 253 306 366
#     4  11  24  40  63  94 126 167 212 258 315 375
#     4  10  21  37  57  92 131 164 210 256 304 372
#     4  10  21  40  64  91 125 166 210 255 311 377
#
# _framework density 26.896844000000002
#
# number of rings (size 3 to 8) (size 9 to 14) (size 15 to 20)
#    0.000    2.000    0.000    2.625    0.000    8.000 
#    0.000    8.750    0.000    0.000    0.000    0.000 
#    0.000    0.000    0.000    0.000    0.000    0.000 
#
# Total GULP energy -198271.753612 kJ/mol
# GULP energy per Si atom -12391.984601 kJ/mol
# Density = 2.683563 g / cm^3
# Si number density = 26.896844 Si / 1000 Ang^3
#
#
#
# Elastic Constant Matrix: (Units=GPa)
#
#
# Indices 1 2 3 4 5 6 
#
# 1 225.5579 34.7938 45.5560 -10.2206 -0.2132 14.2492
# 2 34.7938 88.0619 30.3345 4.0010 5.7423 20.2950
# 3 45.5560 30.3345 169.7102 20.0009 14.7212 33.6281
# 4 -10.2206 4.0010 20.0009 29.5224 7.0477 7.6042
# 5 -0.2132 5.7423 14.7212 7.0477 43.6369 -1.1493
# 6 14.2492 20.2950 33.6281 7.6042 -1.1493 42.3550
#
#
#
# Elastic Compliance Matrix: (Units=1/GPa)
#
#
# Indices 1 2 3 4 5 6 
#
# 1 0.005119 -0.001608 -0.001379 0.002973 0.000212 -0.000385
# 2 -0.001608 0.013615 -0.000778 -0.000088 -0.001665 -0.005394
# 3 -0.001379 -0.000778 0.008024 -0.004059 -0.002084 -0.004862
# 4 0.002973 -0.000088 -0.004059 0.040227 -0.005236 -0.005100
# 5 0.000212 -0.001665 -0.002084 -0.005236 0.024790 0.003994
# 6 -0.000385 -0.005394 -0.004862 -0.005100 0.003994 0.031208
#
#
# Mechanical properties :
#
#
# Convention : Reuss Voigt Hill
#
# Bulk Modulus (GPa) = 52.00914 78.29983 65.15449
# Shear Modulus (GPa) = 36.51667 47.94592 42.23129
#
# Velocity S-wave (km/s) = 3.68864 4.22665 3.96677
# Velocity P-wave (km/s) = 6.12535 7.27968 6.72732
#
# Compressibility (1/GPa) = 0.01922739
#
# Stress axis : x y z
#
# Youngs Moduli (GPa) = 195.34045 73.45000 124.62264
#
# Poissons Ratio (x) = 0.11809 0.17189
# Poissons Ratio (y) = 0.31405 0.09700
# Poissons Ratio (z) = 0.26944 0.05717
#
# Static dielectric constant tensor:
#      x y z
#    x 6.494640 -0.413260 0.199340 
#    y -0.413260 5.211800 0.109990 
#    z 0.199340 0.109990 4.571700 
# 
# 
# High freq. dielectric constant tensor:
#      x y z
#    x 2.152950 -0.038650 0.013640 
#    y -0.038650 2.088490 0.007160 
#    z 0.013640 0.007160 2.062090 
# 
# From -- ./inp_files/111614.got.cif
#   From: 2010.06.25/outbox.cif.g09.slc.cpg/sg2_56_cif.got.tgz:111614.got - 2010.06.27 13:26:56.
