data_PCOD8001152
_publ_section_title
;
Structure prediction by ZEFSAII (Michael W. Deem and Ramdas Pophale) SiO2 
 PCOD8001152
Probable space group: P -1
;
_chemical_formula_sum "Si O2"
_cell_formula_units_Z 12
_cell_length_a 11.465448
_cell_length_b 9.661937
_cell_length_c 13.431802
_cell_angle_alpha 93.433180
_cell_angle_beta 34.587155
_cell_angle_gamma 66.340426
_cell_volume 511.213314
_symmetry_space_group_name_H-M "P -1"
_symmetry_group_IT_number 2
_symmetry_cell_setting 'triclinic'
loop_
_space_group_symop_operation_xyz
x,y,z
-x,-y,-z
loop_
_atom_site_type_symbol
_atom_site_label
_atom_site_fract_x
_atom_site_fract_y
_atom_site_fract_z
Si Si1 0.709627 0.231857 0.778385
Si Si2 0.405528 0.930885 0.988355
Si Si3 0.379844 0.207996 0.552537
Si Si4 0.337675 0.352205 0.864022
Si Si5 0.759983 0.842237 0.554823
Si Si6 0.317836 0.708613 0.569449
O O1 0.396415 0.403014 0.929855
O O2 0.853274 0.305415 0.715255
O O3 0.609608 0.205666 0.948600
O O4 0.000000 0.000000 0.500000
O O5 0.053329 0.148065 0.188697
O O6 0.500000 0.000000 0.000000
O O7 0.693552 0.782869 0.695336
O O8 0.278511 0.246182 0.510916
O O9 0.689595 0.147959 0.351271
O O10 0.500000 0.000000 0.500000
O O11 0.070421 0.435468 0.847074
O O12 0.491289 0.366079 0.671393
O O13 0.499027 0.111536 0.739057
O O14 0.500000 0.500000 0.500000
#
# Coordination Sequence:
#
# PCOD8001152 Si02
#       6
#     2   2   2   2   2   2
#     4  10  19  41  71 104 133 179 238 279 350 412
#     4  12  21  40  74 100 134 183 231 288 340 412
#     4  12  26  44  68 100 140 188 233 279 354 416
#     4  11  22  45  72  96 141 188 224 289 346 409
#     4  11  23  44  71 103 139 178 233 287 347 413
#     4  12  26  43  69 107 141 183 235 282 352 419
#
# _framework density 23.473568
#
# number of rings (size 3 to 8) (size 9 to 14) (size 15 to 20)
#    0.000    0.667    8.333    1.500    2.333    1.333 
#    3.000    0.833    0.000    0.000    0.000    0.000 
#    0.000    0.000    0.000    0.000    0.000    0.000 
#
# Total GULP energy -148779.706531 kJ/mol
# GULP energy per Si atom -12398.308878 kJ/mol
# Density = 2.342014 g / cm^3
# Si number density = 23.473568 Si / 1000 Ang^3
#
#
#
# Elastic Constant Matrix: (Units=GPa)
#
#
# Indices 1 2 3 4 5 6 
#
# 1 157.4742 38.5902 33.8445 -25.8001 -15.2856 11.0995
# 2 38.5902 115.2397 32.1448 -31.0105 0.7819 -15.0623
# 3 33.8445 32.1448 83.8959 -33.0670 -11.7333 -2.9930
# 4 -25.8001 -31.0105 -33.0670 45.4408 -9.5139 8.7923
# 5 -15.2856 0.7819 -11.7333 -9.5139 49.5465 -12.2278
# 6 11.0995 -15.0623 -2.9930 8.7923 -12.2278 44.7493
#
#
#
# Elastic Compliance Matrix: (Units=1/GPa)
#
#
# Indices 1 2 3 4 5 6 
#
# 1 0.008006 -0.001823 -0.000840 0.003710 0.002334 -0.002747
# 2 -0.001823 0.011550 -0.001329 0.005391 0.000819 0.003416
# 3 -0.000840 -0.001329 0.019342 0.014137 0.007111 0.000220
# 4 0.003710 0.005391 0.014137 0.041091 0.011537 -0.003081
# 5 0.002334 0.000819 0.007111 0.011537 0.026028 0.005018
# 6 -0.002747 0.003416 0.000220 -0.003081 0.005018 0.026169
#
#
# Mechanical properties :
#
#
# Convention : Reuss Voigt Hill
#
# Bulk Modulus (GPa) = 32.34840 62.86320 47.60580
# Shear Modulus (GPa) = 33.22802 44.74934 38.98868
#
# Velocity S-wave (km/s) = 3.76646 4.37094 4.07991
# Velocity P-wave (km/s) = 5.72064 7.23271 6.52065
#
# Compressibility (1/GPa) = 0.03091343
#
# Stress axis : x y z
#
# Youngs Moduli (GPa) = 124.91325 86.57852 51.69996
#
# Poissons Ratio (x) = 0.15782 0.04345
# Poissons Ratio (y) = 0.22771 0.06871
# Poissons Ratio (z) = 0.10498 0.11507
#
# Static dielectric constant tensor:
#      x y z
#    x 5.006900 -0.213660 -0.146400 
#    y -0.213660 4.047890 -0.368130 
#    z -0.146400 -0.368130 4.533920 
# 
# 
# High freq. dielectric constant tensor:
#      x y z
#    x 1.961640 -0.010520 -0.013500 
#    y -0.010520 1.911910 -0.017000 
#    z -0.013500 -0.017000 1.927720 
# 
# From -- ./inp_files/511919.got.cif
#   From: 2010.06.25/outbox.cif.g09.slc.cpg/sg2_256_cif.got.tgz:511919.got - 2010.06.27 13:26:56.
