data_PCOD8001698
_publ_section_title
;
Structure prediction by ZEFSAII (Michael W. Deem and Ramdas Pophale) SiO2 
 PCOD8001698
Probable space group: P -1
;
_chemical_formula_sum "Si O2"
_cell_formula_units_Z 16
_cell_length_a 22.523431
_cell_length_b 21.194771
_cell_length_c 8.085886
_cell_angle_alpha 138.411448
_cell_angle_beta 129.152884
_cell_angle_gamma 19.068748
_cell_volume 784.709814
_symmetry_space_group_name_H-M "P -1"
_symmetry_group_IT_number 2
_symmetry_cell_setting 'triclinic'
loop_
_space_group_symop_operation_xyz
x,y,z
-x,-y,-z
loop_
_atom_site_type_symbol
_atom_site_label
_atom_site_fract_x
_atom_site_fract_y
_atom_site_fract_z
Si Si1 0.501187 0.110105 0.210621
Si Si2 0.839601 0.389662 0.078872
Si Si3 0.952297 0.665064 0.585134
Si Si4 0.130332 0.276558 0.086596
Si Si5 0.060201 0.146132 0.659807
Si Si6 0.585810 0.148972 0.712292
Si Si7 0.538763 0.346993 0.733863
Si Si8 0.810219 0.385405 0.383339
O O1 0.583024 0.055097 0.419462
O O2 0.291185 0.394861 0.361677
O O3 0.500000 0.000000 0.000000
O O4 0.646120 0.981476 0.073871
O O5 0.616415 0.620678 0.088666
O O6 0.890949 0.277482 0.124675
O O7 0.868493 0.469602 0.320533
O O8 0.971044 0.207614 0.796269
O O9 0.861447 0.723481 0.702821
O O10 0.023087 0.495790 0.262102
O O11 0.782320 0.924447 0.720862
O O12 0.024574 0.300702 0.887293
O O13 0.971332 0.197855 0.441448
O O14 0.288158 0.861359 0.503934
O O15 0.599592 0.226128 0.773584
O O16 0.345051 0.519271 0.659138
O O17 0.500000 0.500000 0.000000
#
# Coordination Sequence:
#
# PCOD8001698 Si02
#       8
#     2   2   2   2   2   2   2   2
#     4  10  20  34  53  84 119 152 200 242 287 354
#     4   9  21  37  56  89 124 152 202 250 288 358
#     4  10  21  35  56  83 128 159 198 248 290 347
#     4  10  20  36  53  89 120 161 205 240 286 363
#     4  11  21  38  64  88 115 167 197 241 316 355
#     4  10  21  38  58  85 115 162 193 246 306 345
#     4  10  22  43  64  89 120 151 204 260 303 361
#     4  10  22  39  60  89 120 157 198 252 301 357
#
# _framework density 20.389703000000001
#
# number of rings (size 3 to 8) (size 9 to 14) (size 15 to 20)
#    0.000    2.250    2.500    2.250    3.500    1.000 
#    0.000    5.000    0.000   12.750    0.000    0.000 
#    0.000    0.000    0.000    0.000    0.000    0.000 
#
# Total GULP energy -198255.450788 kJ/mol
# GULP energy per Si atom -12390.965674 kJ/mol
# Density = 2.034329 g / cm^3
# Si number density = 20.389703 Si / 1000 Ang^3
#
#
#
# Elastic Constant Matrix: (Units=GPa)
#
#
# Indices 1 2 3 4 5 6 
#
# 1 90.2132 33.6332 47.9657 6.7555 -15.4254 -12.5768
# 2 33.6332 68.1290 22.1192 -1.3165 -4.7577 -0.9354
# 3 47.9657 22.1192 84.5318 4.2663 -0.0850 -7.4346
# 4 6.7555 -1.3165 4.2663 21.6264 -9.2198 -8.2262
# 5 -15.4254 -4.7577 -0.0850 -9.2198 42.6087 3.3723
# 6 -12.5768 -0.9354 -7.4346 -8.2262 3.3723 22.5463
#
#
#
# Elastic Compliance Matrix: (Units=1/GPa)
#
#
# Indices 1 2 3 4 5 6 
#
# 1 0.020531 -0.006573 -0.009300 0.000461 0.006198 0.007354
# 2 -0.006573 0.018445 -0.001449 0.002725 0.000461 -0.002454
# 3 -0.009300 -0.001449 0.017626 -0.002235 -0.004005 0.000348
# 4 0.000461 0.002725 -0.002235 0.059092 0.011714 0.019441
# 5 0.006198 0.000461 -0.004005 0.011714 0.028115 0.002225
# 6 0.007354 -0.002454 0.000348 0.019441 0.002225 0.055229
#
#
# Mechanical properties :
#
#
# Convention : Reuss Voigt Hill
#
# Bulk Modulus (GPa) = 45.54616 50.03448 47.79032
# Shear Modulus (GPa) = 20.74684 26.63334 23.69009
#
# Velocity S-wave (km/s) = 3.19331 3.61808 3.41231
# Velocity P-wave (km/s) = 5.99855 6.48432 6.24616
#
# Compressibility (1/GPa) = 0.02195575
#
# Stress axis : x y z
#
# Youngs Moduli (GPa) = 48.70747 54.21572 56.73595
#
# Poissons Ratio (x) = 0.35638 0.52764
# Poissons Ratio (y) = 0.32017 0.08223
# Poissons Ratio (z) = 0.45297 0.07858
#
# Static dielectric constant tensor:
#      x y z
#    x 3.556440 -0.293360 -0.384220 
#    y -0.293360 3.543580 0.059930 
#    z -0.384220 0.059930 3.509510 
# 
# 
# High freq. dielectric constant tensor:
#      x y z
#    x 1.796720 -0.027960 -0.014730 
#    y -0.027960 1.779990 0.003600 
#    z -0.014730 0.003600 1.780910 
# 
# From -- ./inp_files/207541.got.cif
#   From: 2010.06.25/outbox.cif.g09.slc.cpg/sg2_104_cif.got.tgz:207541.got - 2010.06.27 13:26:56.
