data_PCOD8001143
_publ_section_title
;
Structure prediction by ZEFSAII (Michael W. Deem and Ramdas Pophale) SiO2 
 PCOD8001143
Probable space group: P -1
;
_chemical_formula_sum "Si O2"
_cell_formula_units_Z 16
_cell_length_a 13.959754
_cell_length_b 13.487259
_cell_length_c 11.250719
_cell_angle_alpha 120.747575
_cell_angle_beta 40.775408
_cell_angle_gamma 146.232467
_cell_volume 726.993233
_symmetry_space_group_name_H-M "P -1"
_symmetry_group_IT_number 2
_symmetry_cell_setting 'triclinic'
loop_
_space_group_symop_operation_xyz
x,y,z
-x,-y,-z
loop_
_atom_site_type_symbol
_atom_site_label
_atom_site_fract_x
_atom_site_fract_y
_atom_site_fract_z
Si Si1 0.063122 0.645418 0.445378
Si Si2 0.230497 0.145219 0.290329
Si Si3 0.881935 0.165155 0.050846
Si Si4 0.208705 0.928852 0.667709
Si Si5 0.188377 0.146400 0.070161
Si Si6 0.469389 0.059424 0.951485
Si Si7 0.590918 0.532630 0.304824
Si Si8 0.542008 0.339940 0.656730
O O1 0.170568 0.821910 0.525188
O O2 0.272423 0.738422 0.215155
O O3 0.000000 0.500000 0.500000
O O4 0.829851 0.529243 0.513864
O O5 0.199216 0.196318 0.227315
O O6 0.439426 0.333815 0.279077
O O7 0.303877 0.061088 0.145764
O O8 0.000000 0.000000 0.500000
O O9 0.146716 0.362618 0.880322
O O10 0.894320 0.035401 0.959756
O O11 0.813221 0.162881 0.248215
O O12 0.681846 0.095540 0.108131
O O13 0.997966 0.891930 0.849732
O O14 0.456453 0.158623 0.580318
O O15 0.443534 0.309052 0.862414
O O16 0.500000 0.000000 0.000000
O O17 0.500000 0.500000 0.500000
O O18 0.560863 0.631234 0.320239
#
# Coordination Sequence:
#
# PCOD8001143 Si02
#       8
#     2   2   2   2   2   2   2   2
#     4  12  28  44  69 101 145 194 240 280 352 440
#     4  11  26  44  73  98 139 187 230 290 359 411
#     4  10  21  42  70  98 135 175 226 294 353 408
#     4  11  22  42  74 101 140 179 230 302 356 397
#     4  10  19  41  70 105 135 169 229 300 351 402
#     4  11  28  49  67  98 147 189 235 285 353 432
#     4  12  24  39  69 106 135 169 238 297 349 419
#     4  11  24  42  72 108 138 179 239 297 351 419
#
# _framework density 22.008455999999999
#
# number of rings (size 3 to 8) (size 9 to 14) (size 15 to 20)
#    0.000    1.000    2.500    5.250    8.750    3.000 
#    0.000    0.625    0.000    0.000    0.000    0.000 
#    0.000    0.000    0.000    0.000    0.000    0.000 
#
# Total GULP energy -198337.449145 kJ/mol
# GULP energy per Si atom -12396.090572 kJ/mol
# Density = 2.195836 g / cm^3
# Si number density = 22.008456 Si / 1000 Ang^3
#
#
#
# Elastic Constant Matrix: (Units=GPa)
#
#
# Indices 1 2 3 4 5 6 
#
# 1 134.6010 30.3800 37.7530 -13.5939 10.6765 16.2413
# 2 30.3800 82.4325 42.8722 -16.8376 2.5217 21.2076
# 3 37.7530 42.8722 127.9170 -27.8830 9.5628 8.4633
# 4 -13.5939 -16.8376 -27.8830 40.8618 3.3659 -4.2628
# 5 10.6765 2.5217 9.5628 3.3659 36.2143 -4.3119
# 6 16.2413 21.2076 8.4633 -4.2628 -4.3119 36.7047
#
#
#
# Elastic Compliance Matrix: (Units=1/GPa)
#
#
# Indices 1 2 3 4 5 6 
#
# 1 0.008846 -0.001403 -0.001479 0.001264 -0.002585 -0.002920
# 2 -0.001403 0.017653 -0.004185 0.003161 -0.001000 -0.008364
# 3 -0.001479 -0.004185 0.011015 0.005605 -0.002598 0.000879
# 4 0.001264 0.003161 0.005605 0.030354 -0.004982 -0.000738
# 5 -0.002585 -0.001000 -0.002598 -0.004982 0.030224 0.005293
# 6 -0.002920 -0.008364 0.000879 -0.000738 0.005293 0.033703
#
#
# Mechanical properties :
#
#
# Convention : Reuss Voigt Hill
#
# Bulk Modulus (GPa) = 42.77110 62.99565 52.88337
# Shear Modulus (GPa) = 32.52655 38.35251 35.43953
#
# Velocity S-wave (km/s) = 3.84853 4.17901 4.01717
# Velocity P-wave (km/s) = 6.26294 7.20909 6.75261
#
# Compressibility (1/GPa) = 0.02338027
#
# Stress axis : x y z
#
# Youngs Moduli (GPa) = 113.04999 56.64740 90.78908
#
# Poissons Ratio (x) = 0.07945 0.13424
# Poissons Ratio (y) = 0.15856 0.37998
# Poissons Ratio (z) = 0.16716 0.23709
#
# Static dielectric constant tensor:
#      x y z
#    x 4.428040 0.557770 -0.054440 
#    y 0.557770 3.612360 -0.122280 
#    z -0.054440 -0.122280 4.159260 
# 
# 
# High freq. dielectric constant tensor:
#      x y z
#    x 1.870860 0.018810 0.002540 
#    y 0.018810 1.861560 -0.006570 
#    z 0.002540 -0.006570 1.870890 
# 
# From -- ./inp_files/455792.got.cif
#   From: 2010.06.25/outbox.cif.g09.slc.cpg/sg2_228_cif.got.tgz:455792.got - 2010.06.27 13:26:56.
