data_PCOD8001569
_publ_section_title
;
Structure prediction by ZEFSAII (Michael W. Deem and Ramdas Pophale) SiO2 
 PCOD8001569
Probable space group: P -1
;
_chemical_formula_sum "Si O2"
_cell_formula_units_Z 16
_cell_length_a 16.734139
_cell_length_b 11.520240
_cell_length_c 16.953478
_cell_angle_alpha 143.024285
_cell_angle_beta 27.317815
_cell_angle_gamma 124.373029
_cell_volume 767.230976
_symmetry_space_group_name_H-M "P -1"
_symmetry_group_IT_number 2
_symmetry_cell_setting 'triclinic'
loop_
_space_group_symop_operation_xyz
x,y,z
-x,-y,-z
loop_
_atom_site_type_symbol
_atom_site_label
_atom_site_fract_x
_atom_site_fract_y
_atom_site_fract_z
Si Si1 0.932705 0.224484 0.440244
Si Si2 0.100714 0.133170 0.076152
Si Si3 0.732216 0.332213 0.389935
Si Si4 0.281556 0.218209 0.220571
Si Si5 0.707215 0.757757 0.598931
Si Si6 0.395304 0.310783 0.954512
Si Si7 0.240703 0.952752 0.395630
Si Si8 0.504673 0.523920 0.843063
O O1 0.711735 0.449010 0.774590
O O2 0.938330 0.023631 0.378111
O O3 0.963716 0.157508 0.285413
O O4 0.112758 0.258055 0.327776
O O5 0.227841 0.255635 0.041573
O O6 0.948056 0.239943 0.194813
O O7 0.261409 0.866390 0.774472
O O8 0.706588 0.528937 0.459519
O O9 0.534597 0.435236 0.678142
O O10 0.202873 0.254205 0.399158
O O11 0.314991 0.420911 0.275803
O O12 0.477733 0.969543 0.905907
O O13 0.837460 0.803185 0.444588
O O14 0.555418 0.120757 0.770905
O O15 0.519717 0.328016 0.780205
O O16 0.293676 0.763775 0.177105
#
# Coordination Sequence:
#
# PCOD8001569 Si02
#       8
#     2   2   2   2   2   2   2   2
#     4  11  21  35  55  82 110 135 176 224 261 304
#     4  11  22  35  56  81 103 138 181 215 264 311
#     4  10  21  38  56  75 107 142 174 218 258 316
#     4   9  18  33  58  81 105 139 174 217 263 312
#     4   9  18  36  53  75 108 141 173 210 263 316
#     4  11  20  33  56  82 107 136 173 224 266 302
#     4  10  20  33  56  82 108 137 172 218 265 312
#     4   9  17  33  53  79 105 133 171 212 262 303
#
# _framework density 20.854215
#
# number of rings (size 3 to 8) (size 9 to 14) (size 15 to 20)
#    0.000    2.000    0.000    7.125    0.000    1.000 
#    0.000    6.875    0.000    0.000    0.000    0.000 
#    0.000    0.000    0.000    0.000    0.000    0.000 
#
# Total GULP energy -198295.424265 kJ/mol
# GULP energy per Si atom -12393.464017 kJ/mol
# Density = 2.080675 g / cm^3
# Si number density = 20.854215 Si / 1000 Ang^3
#
#
#
# Elastic Constant Matrix: (Units=GPa)
#
#
# Indices 1 2 3 4 5 6 
#
# 1 49.0351 36.6834 18.4402 -3.2214 9.1442 -6.4007
# 2 36.6834 166.8567 34.9186 -1.8226 27.0824 -28.4277
# 3 18.4402 34.9186 56.7622 4.4923 20.8461 -4.3309
# 4 -3.2214 -1.8226 4.4923 34.5510 1.0834 -3.3749
# 5 9.1442 27.0824 20.8461 1.0834 23.5097 -2.8728
# 6 -6.4007 -28.4277 -4.3309 -3.3749 -2.8728 27.9420
#
#
#
# Elastic Compliance Matrix: (Units=1/GPa)
#
#
# Indices 1 2 3 4 5 6 
#
# 1 0.026215 -0.004293 -0.006090 0.003111 0.000137 0.001084
# 2 -0.004293 0.009864 -0.001392 0.001340 -0.007516 0.008226
# 3 -0.006090 -0.001392 0.028465 -0.003778 -0.021221 -0.001037
# 4 0.003111 0.001340 -0.003778 0.030302 -0.000173 0.005133
# 5 0.000137 -0.007516 -0.021221 -0.000173 0.069503 -0.003779
# 6 0.001084 0.008226 -0.001037 0.005133 -0.003779 0.044476
#
#
# Mechanical properties :
#
#
# Convention : Reuss Voigt Hill
#
# Bulk Modulus (GPa) = 24.39240 50.30429 37.34834
# Shear Modulus (GPa) = 20.32196 29.37465 24.84830
#
# Velocity S-wave (km/s) = 3.12505 3.75717 3.45559
# Velocity P-wave (km/s) = 4.97426 6.55713 5.81976
#
# Compressibility (1/GPa) = 0.04099638
#
# Stress axis : x y z
#
# Youngs Moduli (GPa) = 38.14568 101.37705 35.13056
#
# Poissons Ratio (x) = 0.43518 0.21394
# Poissons Ratio (y) = 0.16375 0.04889
# Poissons Ratio (z) = 0.23230 0.14109
#
# Static dielectric constant tensor:
#      x y z
#    x 3.578240 -0.269590 0.258830 
#    y -0.269590 4.145730 -0.056500 
#    z 0.258830 -0.056500 3.729480 
# 
# 
# High freq. dielectric constant tensor:
#      x y z
#    x 1.790970 -0.020120 0.000850 
#    y -0.020120 1.833900 -0.008960 
#    z 0.000850 -0.008960 1.783300 
# 
# From -- ./inp_files/575777.got.cif
#   From: 2010.06.25/outbox.cif.g09.slc.cpg/sg2_288_cif.got.tgz:575777.got - 2010.06.27 13:26:56.
