data_PCOD8001354
_publ_section_title
;
Structure prediction by ZEFSAII (Michael W. Deem and Ramdas Pophale) SiO2 
 PCOD8001354
Probable space group: P -1
;
_chemical_formula_sum "Si O2"
_cell_formula_units_Z 14
_cell_length_a 9.305595
_cell_length_b 21.254586
_cell_length_c 8.760574
_cell_angle_alpha 129.988139
_cell_angle_beta 31.805628
_cell_angle_gamma 132.188021
_cell_volume 665.071443
_symmetry_space_group_name_H-M "P -1"
_symmetry_group_IT_number 2
_symmetry_cell_setting 'triclinic'
loop_
_space_group_symop_operation_xyz
x,y,z
-x,-y,-z
loop_
_atom_site_type_symbol
_atom_site_label
_atom_site_fract_x
_atom_site_fract_y
_atom_site_fract_z
Si Si1 0.023235 0.833110 0.874727
Si Si2 0.441509 0.412456 0.508042
Si Si3 0.188070 0.687802 0.128669
Si Si4 0.166305 0.019075 0.038855
Si Si5 0.801507 0.128005 0.572068
Si Si6 0.378915 0.721953 0.343293
Si Si7 0.323989 0.554759 0.318112
O O1 0.136516 0.850843 0.627691
O O2 0.204947 0.773022 0.682005
O O3 0.101469 0.925692 0.036335
O O4 0.685013 0.785686 0.113146
O O5 0.500000 0.500000 0.500000
O O6 0.608450 0.432186 0.545554
O O7 0.100282 0.377224 0.782111
O O8 0.542372 0.339631 0.216429
O O9 0.200399 0.783273 0.206247
O O10 0.192175 0.682052 0.299972
O O11 0.499810 0.057170 0.764317
O O12 0.043578 0.086088 0.349835
O O13 0.000000 0.000000 0.000000
O O14 0.416382 0.647338 0.299051
O O15 0.000000 0.500000 0.500000
O O16 0.500000 0.500000 0.000000
#
# Coordination Sequence:
#
# PCOD8001354 Si02
#       7
#     2   2   2   2   2   2   2
#     4  10  18  30  51  82 117 153 188 231 281 330
#     4  12  24  40  61  85 111 146 186 233 283 339
#     4  11  21  37  57  85 115 147 186 231 282 336
#     4  10  16  27  46  78 117 151 184 229 279 326
#     4  10  18  29  49  79 116 151 183 230 281 326
#     4  11  21  36  57  84 117 152 187 234 285 334
#     4  12  25  43  62  85 113 148 188 234 284 341
#
# _framework density 21.050369
#
# number of rings (size 3 to 8) (size 9 to 14) (size 15 to 20)
#    0.000    1.143    0.000   12.429    0.000    0.000 
#    0.000    0.000    0.000    0.000    0.000   20.000 
#    0.000    0.000    0.000    0.000    0.000    0.000 
#
# Total GULP energy -173550.615335 kJ/mol
# GULP energy per Si atom -12396.472524 kJ/mol
# Density = 2.100246 g / cm^3
# Si number density = 21.050369 Si / 1000 Ang^3
#
#
#
# Elastic Constant Matrix: (Units=GPa)
#
#
# Indices 1 2 3 4 5 6 
#
# 1 83.7726 42.3632 19.3993 -1.1165 -6.1613 -4.3448
# 2 42.3632 136.4405 41.5210 12.1052 -10.1258 -2.6237
# 3 19.3993 41.5210 119.6267 19.6432 -24.6796 -4.4947
# 4 -1.1165 12.1052 19.6432 60.7166 5.9239 -19.2956
# 5 -6.1613 -10.1258 -24.6796 5.9239 26.4481 -0.5096
# 6 -4.3448 -2.6237 -4.4947 -19.2956 -0.5096 22.4391
#
#
#
# Elastic Compliance Matrix: (Units=1/GPa)
#
#
# Indices 1 2 3 4 5 6 
#
# 1 0.014713 -0.004384 -0.001165 0.003003 0.000080 0.004687
# 2 -0.004384 0.009558 -0.002132 -0.001985 0.001058 -0.001841
# 3 -0.001165 -0.002132 0.012558 -0.005615 0.011840 -0.002519
# 4 0.003003 -0.001985 -0.005615 0.026797 -0.010878 0.022021
# 5 0.000080 0.001058 0.011840 -0.010878 0.051609 -0.005671
# 6 0.004687 -0.001841 -0.002519 0.022021 -0.005671 0.063560
#
#
# Mechanical properties :
#
#
# Convention : Reuss Voigt Hill
#
# Bulk Modulus (GPa) = 46.58037 60.71185 53.64611
# Shear Modulus (GPa) = 24.83704 37.69118 31.26411
#
# Velocity S-wave (km/s) = 3.43867 4.23605 3.85802
# Velocity P-wave (km/s) = 6.15971 7.26838 6.73689
#
# Compressibility (1/GPa) = 0.02146827
#
# Stress axis : x y z
#
# Youngs Moduli (GPa) = 67.96803 104.62091 79.63003
#
# Poissons Ratio (x) = 0.45867 0.09276
# Poissons Ratio (y) = 0.29798 0.16973
# Poissons Ratio (z) = 0.07917 0.22300
#
# Static dielectric constant tensor:
#      x y z
#    x 2.881830 -2.415640 -1.323020 
#    y -2.415640 -4.597310 -2.927930 
#    z -1.323020 -2.927930 3.031870 
# 
# 
# High freq. dielectric constant tensor:
#      x y z
#    x 1.767790 0.000920 -0.032820 
#    y 0.000920 1.852060 0.014340 
#    z -0.032820 0.014340 1.846250 
# 
# From -- ./inp_files/218444.got.cif
#   From: 2010.06.25/outbox.cif.g09.slc.cpg/sg2_110_cif.got.tgz:218444.got - 2010.06.27 13:26:56.
