data_PCOD8001522
_publ_section_title
;
Structure prediction by ZEFSAII (Michael W. Deem and Ramdas Pophale) SiO2 
 PCOD8001522
Probable space group: P -1
;
_chemical_formula_sum "Si O2"
_cell_formula_units_Z 16
_cell_length_a 11.486526
_cell_length_b 11.916107
_cell_length_c 12.806039
_cell_angle_alpha 35.688698
_cell_angle_beta 68.675124
_cell_angle_gamma 94.755597
_cell_volume 683.916436
_symmetry_space_group_name_H-M "P -1"
_symmetry_group_IT_number 2
_symmetry_cell_setting 'triclinic'
loop_
_space_group_symop_operation_xyz
x,y,z
-x,-y,-z
loop_
_atom_site_type_symbol
_atom_site_label
_atom_site_fract_x
_atom_site_fract_y
_atom_site_fract_z
Si Si1 0.539226 0.590336 0.074791
Si Si2 0.407891 0.137035 0.767889
Si Si3 0.636123 0.527702 0.570073
Si Si4 0.893534 0.563557 0.945060
Si Si5 0.701083 0.318063 0.382135
Si Si6 0.555561 0.241783 0.193972
Si Si7 0.874900 0.483099 0.629855
Si Si8 0.894148 0.169514 0.513597
O O1 0.454947 0.472314 0.302495
O O2 0.507572 0.357606 0.202664
O O3 0.440172 0.660610 0.997115
O O4 0.743228 0.854927 0.820162
O O5 0.493586 0.240941 0.775730
O O6 0.307623 0.230496 0.704088
O O7 0.569496 0.291504 0.517965
O O8 0.277312 0.817934 0.047833
O O9 0.799925 0.575438 0.513901
O O10 0.020499 0.817291 0.633928
O O11 0.814582 0.576543 0.068803
O O12 0.738499 0.337474 0.087226
O O13 0.000000 0.500000 0.000000
O O14 0.823670 0.312884 0.416151
O O15 0.595472 0.078551 0.511880
O O16 0.000000 0.500000 0.500000
O O17 0.975854 0.687835 0.538671
#
# Coordination Sequence:
#
# PCOD8001522 Si02
#       8
#     2   2   2   2   2   2   2   2
#     4  10  21  39  61  87 125 167 213 265 307 371
#     4  11  24  43  69  95 125 167 219 263 308 383
#     4  11  24  43  68  97 125 167 217 261 315 378
#     4  10  20  33  53  84 120 155 198 256 312 364
#     4  10  20  39  63  88 123 167 218 264 307 372
#     4  10  20  36  60  85 119 169 219 256 307 374
#     4  12  24  42  68  95 130 168 205 265 330 378
#     4  10  21  37  58  90 129 168 210 258 324 383
#
# _framework density 23.394672
#
# number of rings (size 3 to 8) (size 9 to 14) (size 15 to 20)
#    0.000    1.500    0.000    6.000    0.000    2.000 
#    0.000    8.750    0.000    0.000    0.000    0.000 
#    0.000    0.000    0.000    0.000    0.000    0.000 
#
# Total GULP energy -198265.342230 kJ/mol
# GULP energy per Si atom -12391.583889 kJ/mol
# Density = 2.334142 g / cm^3
# Si number density = 23.394672 Si / 1000 Ang^3
#
#
#
# Elastic Constant Matrix: (Units=GPa)
#
#
# Indices 1 2 3 4 5 6 
#
# 1 152.6828 24.1128 44.2689 -7.5364 -0.6996 26.9684
# 2 24.1128 88.8422 15.6111 2.0289 -0.7782 13.6517
# 3 44.2689 15.6111 36.9004 11.6170 -1.3417 -1.6832
# 4 -7.5364 2.0289 11.6170 40.7909 -3.8756 -7.3544
# 5 -0.6996 -0.7782 -1.3417 -3.8756 26.1084 -3.9283
# 6 26.9684 13.6517 -1.6832 -7.3544 -3.9283 35.3930
#
#
#
# Elastic Compliance Matrix: (Units=1/GPa)
#
#
# Indices 1 2 3 4 5 6 
#
# 1 0.014713 0.001269 -0.020767 0.006356 -0.001426 -0.011526
# 2 0.001269 0.013213 -0.007594 0.000502 -0.000853 -0.006415
# 3 -0.020767 -0.007594 0.061655 -0.017469 0.002552 0.018338
# 4 0.006356 0.000502 -0.017469 0.031221 0.004084 0.001073
# 5 -0.001426 -0.000853 0.002552 0.004084 0.040002 0.006825
# 6 -0.011526 -0.006415 0.018338 0.001073 0.006825 0.041363
#
#
# Mechanical properties :
#
#
# Convention : Reuss Voigt Hill
#
# Bulk Modulus (GPa) = 28.25040 49.60122 38.92581
# Shear Modulus (GPa) = 18.64622 33.42065 26.03343
#
# Velocity S-wave (km/s) = 2.82623 3.78373 3.33947
# Velocity P-wave (km/s) = 4.76990 6.35112 5.61643
#
# Compressibility (1/GPa) = 0.03539772
#
# Stress axis : x y z
#
# Youngs Moduli (GPa) = 67.96622 75.68513 16.21919
#
# Poissons Ratio (x) = -0.09606 0.33682
# Poissons Ratio (y) = -0.08626 0.12317
# Poissons Ratio (z) = 1.41144 0.57476
#
# Static dielectric constant tensor:
#      x y z
#    x 4.596930 0.236930 -0.039790 
#    y 0.236930 4.137150 0.275970 
#    z -0.039790 0.275970 4.278370 
# 
# 
# High freq. dielectric constant tensor:
#      x y z
#    x 1.948440 0.015290 0.004710 
#    y 0.015290 1.917570 0.021240 
#    z 0.004710 0.021240 1.916820 
# 
# From -- ./inp_files/427372.got.cif
#   From: 2010.06.25/outbox.cif.g09.slc.cpg/sg2_214_cif.got.tgz:427372.got - 2010.06.27 13:26:56.
