data_PCOD8001286
_publ_section_title
;
Structure prediction by ZEFSAII (Michael W. Deem and Ramdas Pophale) SiO2 
 PCOD8001286
Probable space group: P -1
;
_chemical_formula_sum "Si O2"
_cell_formula_units_Z 16
_cell_length_a 6.273382
_cell_length_b 21.966782
_cell_length_c 8.707275
_cell_angle_alpha 44.567787
_cell_angle_beta 123.619316
_cell_angle_gamma 117.549211
_cell_volume 696.426401
_symmetry_space_group_name_H-M "P -1"
_symmetry_group_IT_number 2
_symmetry_cell_setting 'triclinic'
loop_
_space_group_symop_operation_xyz
x,y,z
-x,-y,-z
loop_
_atom_site_type_symbol
_atom_site_label
_atom_site_fract_x
_atom_site_fract_y
_atom_site_fract_z
Si Si1 0.255672 0.039352 0.265839
Si Si2 0.045374 0.862917 0.440564
Si Si3 0.995012 0.141878 0.206995
Si Si4 0.567043 0.355851 0.755181
Si Si5 0.543775 0.812646 0.152971
Si Si6 0.530738 0.257297 0.218616
Si Si7 0.819050 0.516684 0.670171
Si Si8 0.352069 0.561334 0.933963
O O1 0.078887 0.056336 0.311843
O O2 0.500000 0.000000 0.500000
O O3 0.106276 0.964643 0.230271
O O4 0.327400 0.130293 0.040527
O O5 0.255581 0.808547 0.537915
O O6 0.086463 0.868493 0.630290
O O7 0.747448 0.827727 0.347442
O O8 0.237469 0.215835 0.162739
O O9 0.742842 0.162834 0.971503
O O10 0.498411 0.292581 0.697596
O O11 0.813544 0.432150 0.703669
O O12 0.328489 0.409715 0.600278
O O13 0.629033 0.292652 0.029742
O O14 0.529141 0.337112 0.194897
O O15 0.092032 0.564770 0.731251
O O16 0.677496 0.480031 0.835514
O O17 0.500000 0.500000 0.000000
#
# Coordination Sequence:
#
# PCOD8001286 Si02
#       8
#     2   2   2   2   2   2   2   2
#     4  12  23  48  70  95 140 179 220 279 339 392
#     4  12  26  45  70 101 133 182 225 275 336 398
#     4  12  24  44  69 101 133 182 218 281 331 402
#     4  10  19  44  63  90 128 177 214 271 338 383
#     4  12  26  42  70 101 135 175 228 278 331 399
#     4  11  23  43  68  92 142 176 216 279 336 395
#     4   9  21  39  65  87 130 169 218 275 324 395
#     4  10  22  39  62  99 127 171 221 270 329 391
#
# _framework density 22.974432
#
# number of rings (size 3 to 8) (size 9 to 14) (size 15 to 20)
#    0.000    1.000    5.000    1.500    1.750    3.500 
#    4.500    1.875    0.000    0.000    0.000    0.000 
#    0.000    0.000    0.000    0.000    0.000    0.000 
#
# Total GULP energy -198209.656321 kJ/mol
# GULP energy per Si atom -12388.103520 kJ/mol
# Density = 2.292214 g / cm^3
# Si number density = 22.974432 Si / 1000 Ang^3
#
#
#
# Elastic Constant Matrix: (Units=GPa)
#
#
# Indices 1 2 3 4 5 6 
#
# 1 82.8073 45.2124 16.8547 -7.3381 32.4396 2.3362
# 2 45.2124 194.7255 41.0223 -17.7787 32.5269 3.4731
# 3 16.8547 41.0223 68.4809 -2.3048 26.2768 4.4991
# 4 -7.3381 -17.7787 -2.3048 40.1277 5.8820 13.9477
# 5 32.4396 32.5269 26.2768 5.8820 27.8011 2.9274
# 6 2.3362 3.4731 4.4991 13.9477 2.9274 39.1986
#
#
#
# Elastic Compliance Matrix: (Units=1/GPa)
#
#
# Indices 1 2 3 4 5 6 
#
# 1 0.031018 0.000213 0.012815 0.015814 -0.051360 -0.005130
# 2 0.000213 0.007222 -0.000642 0.005121 -0.008992 -0.001729
# 3 0.012815 -0.000642 0.029475 0.011968 -0.044060 -0.005058
# 4 0.015814 0.005121 0.011968 0.042148 -0.043142 -0.014545
# 5 -0.051360 -0.008992 -0.044060 -0.043142 0.155863 0.012626
# 6 -0.005130 -0.001729 -0.005058 -0.014545 0.012626 0.030783
#
#
# Mechanical properties :
#
#
# Convention : Reuss Voigt Hill
#
# Bulk Modulus (GPa) = 10.81245 61.35473 36.08359
# Shear Modulus (GPa) = 16.52537 37.62046 27.07291
#
# Velocity S-wave (km/s) = 2.68488 4.05098 3.43650
# Velocity P-wave (km/s) = 3.78522 6.97454 5.61125
#
# Compressibility (1/GPa) = 0.09248600
#
# Stress axis : x y z
#
# Youngs Moduli (GPa) = 32.23928 138.47165 33.92755
#
# Poissons Ratio (x) = -0.02948 -0.43478
# Poissons Ratio (y) = -0.00686 0.02178
# Poissons Ratio (z) = -0.41315 0.08891
#
# Static dielectric constant tensor:
#      x y z
#    x 0.565570 -1.242850 -0.723960 
#    y -1.242850 4.280340 -0.527210 
#    z -0.723960 -0.527210 3.891330 
# 
# 
# High freq. dielectric constant tensor:
#      x y z
#    x 1.878220 0.014970 0.019560 
#    y 0.014970 1.939410 -0.008860 
#    z 0.019560 -0.008860 1.903040 
# 
# From -- ./inp_files/141181.got.cif
#   From: 2010.06.25/outbox.cif.g09.slc.cpg/sg2_71_cif.got.tgz:141181.got - 2010.06.27 13:26:56.
