data_PCOD8001658
_publ_section_title
;
Structure prediction by ZEFSAII (Michael W. Deem and Ramdas Pophale) SiO2 
 PCOD8001658
Probable space group: P -1
;
_chemical_formula_sum "Si O2"
_cell_formula_units_Z 10
_cell_length_a 7.253632
_cell_length_b 13.541158
_cell_length_c 5.358135
_cell_angle_alpha 63.790787
_cell_angle_beta 108.533126
_cell_angle_gamma 125.070291
_cell_volume 384.980388
_symmetry_space_group_name_H-M "P -1"
_symmetry_group_IT_number 2
_symmetry_cell_setting 'triclinic'
loop_
_space_group_symop_operation_xyz
x,y,z
-x,-y,-z
loop_
_atom_site_type_symbol
_atom_site_label
_atom_site_fract_x
_atom_site_fract_y
_atom_site_fract_z
Si Si1 0.446220 0.358093 0.130584
Si Si2 0.318398 0.760383 0.852164
Si Si3 0.027449 0.869730 0.880123
Si Si4 0.811339 0.351996 0.567114
Si Si5 0.767374 0.018914 0.655764
O O1 0.557123 0.324032 0.981640
O O2 0.559369 0.333893 0.452742
O O3 0.177696 0.272682 0.091826
O O4 0.500000 0.500000 0.000000
O O5 0.142297 0.704624 0.604244
O O6 0.508884 0.906325 0.696184
O O7 0.191857 0.732642 0.099663
O O8 0.938213 0.968454 0.739264
O O9 0.195904 0.897303 0.679901
O O10 0.163584 0.890744 0.172365
O O11 0.000000 0.500000 0.500000
#
# Coordination Sequence:
#
# PCOD8001658 Si02
#       5
#     2   2   2   2   2
#     4   9  21  33  49  76 107 131 159 197 247 302
#     4   9  19  32  52  74 102 126 165 206 248 283
#     4   9  17  26  45  69 101 123 153 196 251 284
#     4  10  20  34  50  73 100 131 170 201 241 287
#     4   9  16  28  45  71  99 119 156 206 247 278
#
# _framework density 25.975346999999999
#
# number of rings (size 3 to 8) (size 9 to 14) (size 15 to 20)
#    1.200    1.600    0.000    1.800    8.400    0.800 
#    0.000    0.000    0.000    0.000    0.000    8.400 
#    0.000    0.000    0.000    0.000    0.000    0.000 
#
# Total GULP energy -123926.469815 kJ/mol
# GULP energy per Si atom -12392.646981 kJ/mol
# Density = 2.591623 g / cm^3
# Si number density = 25.975347 Si / 1000 Ang^3
#
#
#
# Elastic Constant Matrix: (Units=GPa)
#
#
# Indices 1 2 3 4 5 6 
#
# 1 97.4907 47.8315 36.5723 9.2071 -28.9554 -16.1731
# 2 47.8315 236.9229 115.1580 20.2795 -21.4249 5.8661
# 3 36.5723 115.1580 226.5295 10.6717 -27.7321 -20.1619
# 4 9.2071 20.2795 10.6717 38.9870 -10.5937 4.5806
# 5 -28.9554 -21.4249 -27.7321 -10.5937 45.6857 -2.2634
# 6 -16.1731 5.8661 -20.1619 4.5806 -2.2634 36.3187
#
#
#
# Elastic Compliance Matrix: (Units=1/GPa)
#
#
# Indices 1 2 3 4 5 6 
#
# 1 0.015612 -0.002878 0.000890 -0.000918 0.009299 0.008607
# 2 -0.002878 0.006529 -0.003300 -0.001709 -0.001362 -0.004037
# 3 0.000890 -0.003300 0.006801 -0.000013 0.003386 0.004918
# 4 -0.000918 -0.001709 -0.000013 0.028535 0.005056 -0.003424
# 5 0.009299 -0.001362 0.003386 0.005056 0.030744 0.007519
# 6 0.008607 -0.004037 0.004918 -0.003424 0.007519 0.035649
#
#
# Mechanical properties :
#
#
# Convention : Reuss Voigt Hill
#
# Bulk Modulus (GPa) = 54.44787 106.67406 80.56097
# Shear Modulus (GPa) = 35.57024 48.29035 41.93030
#
# Velocity S-wave (km/s) = 3.70453 4.31639 4.02211
# Velocity P-wave (km/s) = 6.26937 8.12393 7.25614
#
# Compressibility (1/GPa) = 0.01836619
#
# Stress axis : x y z
#
# Youngs Moduli (GPa) = 64.05410 153.16616 147.03723
#
# Poissons Ratio (x) = 0.44084 -0.13091
# Poissons Ratio (y) = 0.18436 0.48520
# Poissons Ratio (z) = -0.05703 0.50543
#
# Static dielectric constant tensor:
#      x y z
#    x 5.191290 -0.181460 0.142420 
#    y -0.181460 4.624490 0.227430 
#    z 0.142420 0.227430 4.776920 
# 
# 
# High freq. dielectric constant tensor:
#      x y z
#    x 2.085590 -0.022760 0.022380 
#    y -0.022760 2.046430 0.004350 
#    z 0.022380 0.004350 2.041080 
# 
# From -- ./inp_files/25426.got.cif
#   From: 2010.06.25/outbox.cif.g09.slc.cpg/sg2_13_cif.got.tgz:25426.got - 2010.06.27 13:26:56.
