data_PCOD8001048
_publ_section_title
;
Structure prediction by ZEFSAII (Michael W. Deem and Ramdas Pophale) SiO2 
 PCOD8001048
Probable space group: P -1
;
_chemical_formula_sum "Si O2"
_cell_formula_units_Z 12
_cell_length_a 9.248836
_cell_length_b 18.619128
_cell_length_c 8.028776
_cell_angle_alpha 130.371754
_cell_angle_beta 95.367447
_cell_angle_gamma 47.362149
_cell_volume 610.448705
_symmetry_space_group_name_H-M "P -1"
_symmetry_group_IT_number 2
_symmetry_cell_setting 'triclinic'
loop_
_space_group_symop_operation_xyz
x,y,z
-x,-y,-z
loop_
_atom_site_type_symbol
_atom_site_label
_atom_site_fract_x
_atom_site_fract_y
_atom_site_fract_z
Si Si1 0.459975 0.974848 0.282623
Si Si2 0.875035 0.661201 0.676097
Si Si3 0.055064 0.094010 0.255124
Si Si4 0.790635 0.330055 0.306094
Si Si5 0.935224 0.985516 0.298158
Si Si6 0.481727 0.878819 0.702940
O O1 0.493500 0.027192 0.209794
O O2 0.176489 0.084046 0.412588
O O3 0.500000 0.000000 0.500000
O O4 0.669777 0.785780 0.985970
O O5 0.747127 0.708158 0.551587
O O6 0.000000 0.500000 0.500000
O O7 0.069224 0.644562 0.661493
O O8 0.824444 0.271600 0.411183
O O9 0.727229 0.021894 0.030755
O O10 0.982527 0.028670 0.210159
O O11 0.500000 0.500000 0.500000
O O12 0.900131 0.196233 0.983672
O O13 0.635034 0.120179 0.463274
O O14 0.000000 0.000000 0.500000
#
# Coordination Sequence:
#
# PCOD8001048 Si02
#       6
#     2   2   2   2   2   2
#     4  11  20  38  65  87 117 155 200 254 292 340
#     4  11  23  39  61  90 118 159 203 242 294 354
#     4  10  20  37  63  87 115 160 203 236 292 363
#     4  11  23  40  60  88 123 157 199 245 294 357
#     4  11  23  39  63  92 119 154 201 248 299 349
#     4  10  19  41  61  85 117 158 206 242 282 363
#
# _framework density 19.65767
#
# number of rings (size 3 to 8) (size 9 to 14) (size 15 to 20)
#    0.000    1.333    5.000    4.000    7.000    0.000 
#    0.000    3.333    0.000    0.000    0.000    0.000 
#    0.000    0.000    0.000    0.000    0.000    0.000 
#
# Total GULP energy -148676.281098 kJ/mol
# GULP energy per Si atom -12389.690092 kJ/mol
# Density = 1.961293 g / cm^3
# Si number density = 19.657670 Si / 1000 Ang^3
#
#
#
# Elastic Constant Matrix: (Units=GPa)
#
#
# Indices 1 2 3 4 5 6 
#
# 1 136.9232 55.0048 46.3712 28.2810 11.7867 -11.6340
# 2 55.0048 128.3968 72.8624 30.9719 15.0782 -23.7115
# 3 46.3712 72.8624 78.4472 18.9217 14.2675 -9.7002
# 4 28.2810 30.9719 18.9217 35.6566 -3.4170 2.5886
# 5 11.7867 15.0782 14.2675 -3.4170 29.6927 2.0776
# 6 -11.6340 -23.7115 -9.7002 2.5886 2.0776 55.8474
#
#
#
# Elastic Compliance Matrix: (Units=1/GPa)
#
#
# Indices 1 2 3 4 5 6 
#
# 1 0.010390 0.000024 -0.003695 -0.006758 -0.003277 0.001968
# 2 0.000024 0.020788 -0.014799 -0.011231 -0.005236 0.006976
# 3 -0.003695 -0.014799 0.029426 -0.000189 -0.005057 -0.001745
# 4 -0.006758 -0.011231 -0.000189 0.045274 0.014305 -0.008840
# 5 -0.003277 -0.005236 -0.005057 0.014305 0.042135 -0.006015
# 6 0.001968 0.006976 -0.001745 -0.008840 -0.006015 0.021608
#
#
# Mechanical properties :
#
#
# Convention : Reuss Voigt Hill
#
# Bulk Modulus (GPa) = 42.25514 76.91600 59.58557
# Shear Modulus (GPa) = 23.31558 35.54126 29.42842
#
# Velocity S-wave (km/s) = 3.44769 4.25668 3.87336
# Velocity P-wave (km/s) = 6.11481 7.96064 7.09798
#
# Compressibility (1/GPa) = 0.02366576
#
# Stress axis : x y z
#
# Youngs Moduli (GPa) = 96.24545 48.10362 33.98350
#
# Poissons Ratio (x) = -0.00115 0.12556
# Poissons Ratio (y) = -0.00230 0.50291
# Poissons Ratio (z) = 0.35559 0.71187
#
# Static dielectric constant tensor:
#      x y z
#    x 4.352670 -0.501010 0.024990 
#    y -0.501010 4.267570 0.075980 
#    z 0.024990 0.075980 3.097870 
# 
# 
# High freq. dielectric constant tensor:
#      x y z
#    x 1.801460 -0.014100 0.005630 
#    y -0.014100 1.784460 0.001710 
#    z 0.005630 0.001710 1.708350 
# 
# From -- ./inp_files/211109.got.cif
#   From: 2010.06.25/outbox.cif.g09.slc.cpg/sg2_106_cif.got.tgz:211109.got - 2010.06.27 13:26:56.
