data_PCOD8001912
_publ_section_title
;
Structure prediction by ZEFSAII (Michael W. Deem and Ramdas Pophale) SiO2 
 PCOD8001912
Probable space group: P -1
;
_chemical_formula_sum "Si O2"
_cell_formula_units_Z 16
_cell_length_a 13.366784
_cell_length_b 11.213452
_cell_length_c 12.530859
_cell_angle_alpha 63.792432
_cell_angle_beta 68.434014
_cell_angle_gamma 123.914148
_cell_volume 791.102402
_symmetry_space_group_name_H-M "P -1"
_symmetry_group_IT_number 2
_symmetry_cell_setting 'triclinic'
loop_
_space_group_symop_operation_xyz
x,y,z
-x,-y,-z
loop_
_atom_site_type_symbol
_atom_site_label
_atom_site_fract_x
_atom_site_fract_y
_atom_site_fract_z
Si Si1 0.922640 0.015716 0.818125
Si Si2 0.593294 0.731524 0.543676
Si Si3 0.476700 0.632823 0.226419
Si Si4 0.775185 0.564081 0.066375
Si Si5 0.056780 0.197196 0.456693
Si Si6 0.655121 0.409741 0.494963
Si Si7 0.725511 0.283443 0.351968
Si Si8 0.974750 0.283463 0.262851
O O1 0.942392 0.077094 0.662753
O O2 0.712040 0.866988 0.998826
O O3 0.912758 0.846636 0.906669
O O4 0.114508 0.276722 0.709253
O O5 0.619542 0.602029 0.587828
O O6 0.468853 0.652656 0.729545
O O7 0.479688 0.646292 0.512286
O O8 0.823584 0.042009 0.336152
O O9 0.465211 0.728911 0.288633
O O10 0.312078 0.491192 0.251686
O O11 0.836953 0.523900 0.149931
O O12 0.798218 0.510339 0.964768
O O13 0.969272 0.225540 0.408768
O O14 0.000000 0.000000 0.500000
O O15 0.677517 0.283822 0.490447
O O16 0.904759 0.361340 0.256692
O O17 0.500000 0.000000 0.500000
#
# Coordination Sequence:
#
# PCOD8001912 Si02
#       8
#     2   2   2   2   2   2   2   2
#     4  10  22  40  62  96 122 153 205 251 308 354
#     4  10  20  34  59  89 123 154 190 252 304 355
#     4  10  21  37  59  89 122 159 197 248 305 353
#     4  10  21  36  61  90 122 153 200 243 305 364
#     4  11  21  38  63  91 124 159 201 251 303 355
#     4  10  21  39  59  89 124 158 201 250 305 362
#     4  11  23  42  59  88 126 163 201 245 301 365
#     4  12  21  39  61  89 125 159 196 250 302 358
#
# _framework density 20.224943
#
# number of rings (size 3 to 8) (size 9 to 14) (size 15 to 20)
#    0.000    1.500    5.000    1.500    0.000    8.000 
#    2.250    2.500    0.000    1.500    0.000    0.000 
#    0.000    0.000    0.000    0.000    0.000    0.000 
#
# Total GULP energy -198319.679370 kJ/mol
# GULP energy per Si atom -12394.979961 kJ/mol
# Density = 2.017891 g / cm^3
# Si number density = 20.224943 Si / 1000 Ang^3
#
#
#
# Elastic Constant Matrix: (Units=GPa)
#
#
# Indices 1 2 3 4 5 6 
#
# 1 96.0016 48.7679 34.9331 8.5803 -9.2699 2.8379
# 2 48.7679 123.7340 44.0832 14.4281 -9.6747 3.7653
# 3 34.9331 44.0832 79.7932 11.1349 -6.4666 2.2661
# 4 8.5803 14.4281 11.1349 27.8936 -1.4728 -8.9957
# 5 -9.2699 -9.6747 -6.4666 -1.4728 21.2331 13.1791
# 6 2.8379 3.7653 2.2661 -8.9957 13.1791 30.6838
#
#
#
# Elastic Compliance Matrix: (Units=1/GPa)
#
#
# Indices 1 2 3 4 5 6 
#
# 1 0.014354 -0.003642 -0.003418 -0.002053 0.005710 -0.003683
# 2 -0.003642 0.011960 -0.003817 -0.004699 0.005117 -0.004425
# 3 -0.003418 -0.003817 0.017224 -0.004794 0.003895 -0.003566
# 4 -0.002053 -0.004699 -0.004794 0.046840 -0.014273 0.020983
# 5 0.005710 0.005117 0.003895 -0.014273 0.075824 -0.038196
# 6 -0.003683 -0.004425 -0.003566 0.020983 -0.038196 0.056295
#
#
# Mechanical properties :
#
#
# Convention : Reuss Voigt Hill
#
# Bulk Modulus (GPa) = 45.90659 61.67749 53.79204
# Shear Modulus (GPa) = 19.87981 27.41174 23.64577
#
# Velocity S-wave (km/s) = 3.13858 3.68549 3.42298
# Velocity P-wave (km/s) = 5.99012 6.97656 6.50208
#
# Compressibility (1/GPa) = 0.02178336
#
# Stress axis : x y z
#
# Youngs Moduli (GPa) = 69.66710 83.61392 58.05986
#
# Poissons Ratio (x) = 0.30449 0.19847
# Poissons Ratio (y) = 0.25370 0.22161
# Poissons Ratio (z) = 0.23815 0.31915
#
# Static dielectric constant tensor:
#      x y z
#    x 3.709330 -0.070570 -0.168600 
#    y -0.070570 3.747600 0.159710 
#    z -0.168600 0.159710 3.838160 
# 
# 
# High freq. dielectric constant tensor:
#      x y z
#    x 1.782570 -0.006190 -0.020370 
#    y -0.006190 1.782570 0.013930 
#    z -0.020370 0.013930 1.789230 
# 
# From -- ./inp_files/427797.got.cif
#   From: 2010.06.25/outbox.cif.g09.slc.cpg/sg2_214_cif.got.tgz:427797.got - 2010.06.27 13:26:56.
