data_PCOD8001865
_publ_section_title
;
Structure prediction by ZEFSAII (Michael W. Deem and Ramdas Pophale) SiO2 
 PCOD8001865
Probable space group: P -1
;
_chemical_formula_sum "Si O2"
_cell_formula_units_Z 14
_cell_length_a 11.737636
_cell_length_b 12.925230
_cell_length_c 6.569607
_cell_angle_alpha 88.632810
_cell_angle_beta 72.024937
_cell_angle_gamma 47.802433
_cell_volume 678.127471
_symmetry_space_group_name_H-M "P -1"
_symmetry_group_IT_number 2
_symmetry_cell_setting 'triclinic'
loop_
_space_group_symop_operation_xyz
x,y,z
-x,-y,-z
loop_
_atom_site_type_symbol
_atom_site_label
_atom_site_fract_x
_atom_site_fract_y
_atom_site_fract_z
Si Si1 0.764222 0.634124 0.050354
Si Si2 0.389334 0.786869 0.803210
Si Si3 0.436283 0.925881 0.092874
Si Si4 0.955841 0.455508 0.338024
Si Si5 0.787176 0.046871 0.498636
Si Si6 0.841978 0.189434 0.785250
Si Si7 0.263437 0.522945 0.256751
O O1 0.574367 0.782792 0.155408
O O2 0.819754 0.587923 0.254668
O O3 0.786227 0.515703 0.911483
O O4 0.874261 0.660716 0.882273
O O5 0.356251 0.835425 0.586838
O O6 0.556064 0.618150 0.747941
O O7 0.407323 0.885796 0.899434
O O8 0.228005 0.821903 0.972751
O O9 0.272677 0.014423 0.324329
O O10 0.500000 0.000000 0.000000
O O11 0.872928 0.404225 0.487039
O O12 0.000000 0.500000 0.500000
O O13 0.809866 0.136146 0.613433
O O14 0.959205 0.909099 0.299192
O O15 0.736635 0.357976 0.810774
#
# Coordination Sequence:
#
# PCOD8001865 Si02
#       7
#     2   2   2   2   2   2   2
#     4   9  19  36  53  81 117 146 184 235 277 329
#     4  10  21  40  58  82 115 150 187 237 280 334
#     4  10  22  38  58  84 113 149 192 230 280 342
#     4   9  18  34  54  80 115 147 180 232 281 329
#     4  10  22  40  58  81 118 149 187 236 284 333
#     4  10  22  38  58  85 113 148 191 234 280 339
#     4  10  20  34  58  84 111 145 190 231 281 335
#
# _framework density 20.645087
#
# number of rings (size 3 to 8) (size 9 to 14) (size 15 to 20)
#    0.000    2.286    0.000    1.714    2.000    2.286 
#    7.714    0.000    0.000    0.000    0.000    0.000 
#    0.000    0.000    0.000    0.000    0.000    0.000 
#
# Total GULP energy -173510.582904 kJ/mol
# GULP energy per Si atom -12393.613065 kJ/mol
# Density = 2.059810 g / cm^3
# Si number density = 20.645087 Si / 1000 Ang^3
#
#
#
# Elastic Constant Matrix: (Units=GPa)
#
#
# Indices 1 2 3 4 5 6 
#
# 1 94.8797 38.7963 44.1622 -10.1180 -14.3744 -0.2823
# 2 38.7963 67.7905 34.3311 -7.1054 -5.2412 12.4294
# 3 44.1622 34.3311 82.0698 -12.5190 -1.6490 3.2794
# 4 -10.1180 -7.1054 -12.5190 25.3666 -11.4239 -3.1922
# 5 -14.3744 -5.2412 -1.6490 -11.4239 37.4021 -15.3845
# 6 -0.2823 12.4294 3.2794 -3.1922 -15.3845 32.8726
#
#
#
# Elastic Compliance Matrix: (Units=1/GPa)
#
#
# Indices 1 2 3 4 5 6 
#
# 1 0.020040 -0.008447 -0.005798 0.010695 0.014339 0.011694
# 2 -0.008447 0.023700 -0.005591 -0.003720 -0.006121 -0.011702
# 3 -0.005798 -0.005591 0.018386 0.005059 -0.000445 0.000513
# 4 0.010695 -0.003720 0.005059 0.062249 0.031852 0.021945
# 5 0.014339 -0.006121 -0.000445 0.031852 0.053736 0.030724
# 6 0.011694 -0.011702 0.000513 0.021945 0.030724 0.051404
#
#
# Mechanical properties :
#
#
# Convention : Reuss Voigt Hill
#
# Bulk Modulus (GPa) = 44.53733 53.25768 48.89751
# Shear Modulus (GPa) = 18.07201 27.62496 22.84849
#
# Velocity S-wave (km/s) = 2.96187 3.66196 3.33036
# Velocity P-wave (km/s) = 5.77205 6.61307 6.20682
#
# Compressibility (1/GPa) = 0.02245307
#
# Stress axis : x y z
#
# Youngs Moduli (GPa) = 49.90023 42.19496 54.38981
#
# Poissons Ratio (x) = 0.35642 0.31534
# Poissons Ratio (y) = 0.42151 0.30411
# Poissons Ratio (z) = 0.28931 0.23592
#
# Static dielectric constant tensor:
#      x y z
#    x 3.997870 -0.199910 -0.340210 
#    y -0.199910 3.408250 0.038530 
#    z -0.340210 0.038530 3.963160 
# 
# 
# High freq. dielectric constant tensor:
#      x y z
#    x 1.817630 -0.019090 -0.016730 
#    y -0.019090 1.779630 -0.006390 
#    z -0.016730 -0.006390 1.818890 
# 
# From -- ./inp_files/26892.got.cif
#   From: 2010.06.25/outbox.cif.g09.slc.cpg/sg2_14_cif.got.tgz:26892.got - 2010.06.27 13:26:56.
