data_PCOD8001511
_publ_section_title
;
Structure prediction by ZEFSAII (Michael W. Deem and Ramdas Pophale) SiO2 
 PCOD8001511
Probable space group: P -1
;
_chemical_formula_sum "Si O2"
_cell_formula_units_Z 12
_cell_length_a 8.695811
_cell_length_b 11.952240
_cell_length_c 7.719736
_cell_angle_alpha 67.192983
_cell_angle_beta 131.946707
_cell_angle_gamma 111.771146
_cell_volume 542.739278
_symmetry_space_group_name_H-M "P -1"
_symmetry_group_IT_number 2
_symmetry_cell_setting 'triclinic'
loop_
_space_group_symop_operation_xyz
x,y,z
-x,-y,-z
loop_
_atom_site_type_symbol
_atom_site_label
_atom_site_fract_x
_atom_site_fract_y
_atom_site_fract_z
Si Si1 0.747652 0.241351 0.666245
Si Si2 0.934317 0.127481 0.180252
Si Si3 0.074773 0.875748 0.436221
Si Si4 0.177551 0.373956 0.562642
Si Si5 0.135669 0.460483 0.831491
Si Si6 0.671520 0.656387 0.655507
O O1 0.752387 0.157308 0.548849
O O2 0.534823 0.295156 0.471237
O O3 0.938616 0.352098 0.740110
O O4 0.759727 0.159841 0.896541
O O5 0.136920 0.232104 0.267977
O O6 0.833116 0.111780 0.305967
O O7 0.003862 0.001324 0.245855
O O8 0.868104 0.770553 0.340235
O O9 0.347822 0.401944 0.518700
O O10 0.955332 0.411768 0.306067
O O11 0.262649 0.451966 0.750984
O O12 0.282886 0.448958 0.113051
#
# Coordination Sequence:
#
# PCOD8001511 Si02
#       6
#     2   2   2   2   2   2
#     4  10  20  33  53  78 100 129 168 207 248 293
#     4   9  19  36  53  72 102 134 165 204 248 295
#     4   9  18  35  54  72 101 136 165 202 250 295
#     4   9  18  35  54  72 101 136 165 202 250 295
#     4   9  19  36  53  72 102 134 165 204 248 295
#     4  10  20  33  53  78 100 129 168 207 248 293
#
# _framework density 22.110064000000001
#
# number of rings (size 3 to 8) (size 9 to 14) (size 15 to 20)
#    0.000    2.667    0.000    1.000    0.000    2.667 
#    0.000   15.000    0.000    0.000    0.000    0.000 
#    0.000    0.000    0.000    0.000    0.000    0.000 
#
# Total GULP energy -148770.598104 kJ/mol
# GULP energy per Si atom -12397.549842 kJ/mol
# Density = 2.205974 g / cm^3
# Si number density = 22.110064 Si / 1000 Ang^3
#
#
#
# Elastic Constant Matrix: (Units=GPa)
#
#
# Indices 1 2 3 4 5 6 
#
# 1 115.3364 1.4049 36.3028 7.8540 -16.6743 -29.3851
# 2 1.4049 36.4527 0.7936 -12.9096 -5.4482 -12.5323
# 3 36.3028 0.7936 82.2663 -12.5594 -14.8580 2.4145
# 4 7.8540 -12.9096 -12.5594 20.9935 -0.1414 -6.9971
# 5 -16.6743 -5.4482 -14.8580 -0.1414 27.8159 -5.2737
# 6 -29.3851 -12.5323 2.4145 -6.9971 -5.2737 29.1824
#
#
#
# Elastic Compliance Matrix: (Units=1/GPa)
#
#
# Indices 1 2 3 4 5 6 
#
# 1 0.022559 0.022731 -0.004620 0.016621 0.023379 0.041071
# 2 0.022731 0.103489 0.011378 0.095697 0.059434 0.100077
# 3 -0.004620 0.011378 0.019311 0.022348 0.011023 0.005987
# 4 0.016621 0.095697 0.022348 0.148210 0.060834 0.102514
# 5 0.023379 0.059434 0.011023 0.060834 0.082526 0.077653
# 6 0.041071 0.100077 0.005987 0.102514 0.077653 0.156719
#
#
# Mechanical properties :
#
#
# Convention : Reuss Voigt Hill
#
# Bulk Modulus (GPa) = 4.89385 34.56202 19.72793
# Shear Modulus (GPa) = 9.22595 28.63531 18.93063
#
# Velocity S-wave (km/s) = 2.04494 3.60269 2.92926
# Velocity P-wave (km/s) = 2.79176 5.74209 4.51473
#
# Compressibility (1/GPa) = 0.20433826
#
# Stress axis : x y z
#
# Youngs Moduli (GPa) = 44.32724 9.66286 51.78266
#
# Poissons Ratio (x) = -0.21965 0.23923
# Poissons Ratio (y) = -1.00762 -0.58916
# Poissons Ratio (z) = 0.20479 -0.10994
#
# Static dielectric constant tensor:
#      x y z
#    x 4.267170 -0.175810 -0.548910 
#    y -0.175810 3.981090 -0.304310 
#    z -0.548910 -0.304310 3.889330 
# 
# 
# High freq. dielectric constant tensor:
#      x y z
#    x 1.876660 -0.015630 -0.034010 
#    y -0.015630 1.868790 -0.025770 
#    z -0.034010 -0.025770 1.844820 
# 
# From -- ./inp_files/80798.got.cif
#   From: 2010.06.25/outbox.cif.g09.slc.cpg/sg2_41_cif.got.tgz:80798.got - 2010.06.27 13:26:56.
