data_PCOD8001318
_publ_section_title
;
Structure prediction by ZEFSAII (Michael W. Deem and Ramdas Pophale) SiO2 
 PCOD8001318
Probable space group: P -1
;
_chemical_formula_sum "Si O2"
_cell_formula_units_Z 14
_cell_length_a 15.220346
_cell_length_b 13.124159
_cell_length_c 15.431003
_cell_angle_alpha 54.858817
_cell_angle_beta 18.588789
_cell_angle_gamma 61.908166
_cell_volume 769.821527
_symmetry_space_group_name_H-M "P -1"
_symmetry_group_IT_number 2
_symmetry_cell_setting 'triclinic'
loop_
_space_group_symop_operation_xyz
x,y,z
-x,-y,-z
loop_
_atom_site_type_symbol
_atom_site_label
_atom_site_fract_x
_atom_site_fract_y
_atom_site_fract_z
Si Si1 0.393884 0.184919 0.412177
Si Si2 0.489685 0.077496 0.772885
Si Si3 0.966802 0.142618 0.968496
Si Si4 0.779890 0.215386 0.774617
Si Si5 0.418657 0.346624 0.151572
Si Si6 0.928837 0.090006 0.217748
Si Si7 0.208834 0.907666 0.348374
O O1 0.222882 0.235671 0.624898
O O2 0.531711 0.297940 0.158576
O O3 0.158344 0.063444 0.647638
O O4 0.653208 0.139348 0.231000
O O5 0.659426 0.115408 0.506128
O O6 0.720314 0.146148 0.598561
O O7 0.206506 0.126662 0.004567
O O8 0.381702 0.923199 0.965010
O O9 0.995557 0.180456 0.025155
O O10 0.000000 0.000000 0.000000
O O11 0.868489 0.207693 0.594026
O O12 0.077492 0.285617 0.507790
O O13 0.561389 0.301477 0.954992
O O14 0.500000 0.500000 0.000000
O O15 0.000000 0.000000 0.500000
O O16 0.500000 0.000000 0.000000
#
# Coordination Sequence:
#
# PCOD8001318 Si02
#       7
#     2   2   2   2   2   2   2
#     4  11  19  34  47  66 105 136 171 212 250 287
#     4  11  18  30  50  74 102 134 164 198 250 317
#     4  10  20  30  47  71  98 137 169 200 250 316
#     4  11  20  37  50  70 107 137 170 219 256 291
#     4  12  24  36  54  74  98 142 190 216 244 292
#     4  11  18  29  48  74 103 131 168 195 249 314
#     4  10  20  32  49  75 100 136 171 199 257 322
#
# _framework density 18.186032000000001
#
# number of rings (size 3 to 8) (size 9 to 14) (size 15 to 20)
#    0.000    1.143    2.857    9.000    0.000    0.000 
#    0.000    0.000    0.000    0.000    0.000    0.000 
#    0.000   22.857    0.000    0.000    0.000    0.000 
#
# Total GULP energy -173457.001163 kJ/mol
# GULP energy per Si atom -12389.785797 kJ/mol
# Density = 1.814464 g / cm^3
# Si number density = 18.186032 Si / 1000 Ang^3
#
#
#
# Elastic Constant Matrix: (Units=GPa)
#
#
# Indices 1 2 3 4 5 6 
#
# 1 113.7552 26.2708 37.1964 5.6933 3.2025 -0.8416
# 2 26.2708 57.6303 33.9702 11.0720 7.0468 5.5210
# 3 37.1964 33.9702 80.7781 29.2592 1.8754 1.7032
# 4 5.6933 11.0720 29.2592 27.1904 -2.3965 2.0518
# 5 3.2025 7.0468 1.8754 -2.3965 34.2307 13.2474
# 6 -0.8416 5.5210 1.7032 2.0518 13.2474 20.7832
#
#
#
# Elastic Compliance Matrix: (Units=1/GPa)
#
#
# Indices 1 2 3 4 5 6 
#
# 1 0.011062 -0.002677 -0.005727 0.004799 -0.000373 0.001392
# 2 -0.002677 0.024592 -0.009123 0.000453 -0.002632 -0.004261
# 3 -0.005727 -0.009123 0.028248 -0.026012 -0.002524 0.004053
# 4 0.004799 0.000453 -0.026012 0.065180 0.009402 -0.010222
# 5 -0.000373 -0.002632 -0.002524 0.009402 0.040622 -0.025930
# 6 0.001392 -0.004261 0.004053 -0.010222 -0.025930 0.066509
#
#
# Mechanical properties :
#
#
# Convention : Reuss Voigt Hill
#
# Bulk Modulus (GPa) = 34.66138 49.67094 42.16616
# Shear Modulus (GPa) = 17.80098 26.75594 22.27846
#
# Velocity S-wave (km/s) = 3.13202 3.83983 3.50384
# Velocity P-wave (km/s) = 5.67275 6.85792 6.29330
#
# Compressibility (1/GPa) = 0.02885055
#
# Stress axis : x y z
#
# Youngs Moduli (GPa) = 90.39733 40.66293 35.40030
#
# Poissons Ratio (x) = 0.10884 0.20274
# Poissons Ratio (y) = 0.24195 0.32294
# Poissons Ratio (z) = 0.51772 0.37095
#
# Static dielectric constant tensor:
#      x y z
#    x 1.809690 -0.665550 0.192350 
#    y -0.665550 2.602170 0.398360 
#    z 0.192350 0.398360 3.514850 
# 
# 
# High freq. dielectric constant tensor:
#      x y z
#    x 1.720030 0.002270 0.001750 
#    y 0.002270 1.641610 0.056520 
#    z 0.001750 0.056520 1.705450 
# 
# From -- ./inp_files/366434.got.cif
#   From: 2010.06.25/outbox.cif.g09.slc.cpg/sg2_184_cif.got.tgz:366434.got - 2010.06.27 13:26:56.
