data_PCOD8001070
_publ_section_title
;
Structure prediction by ZEFSAII (Michael W. Deem and Ramdas Pophale) SiO2 
 PCOD8001070
Probable space group: P -1
;
_chemical_formula_sum "Si O2"
_cell_formula_units_Z 16
_cell_length_a 9.244772
_cell_length_b 12.202574
_cell_length_c 21.348980
_cell_angle_alpha 148.377474
_cell_angle_beta 132.951398
_cell_angle_gamma 37.536602
_cell_volume 769.218484
_symmetry_space_group_name_H-M "P -1"
_symmetry_group_IT_number 2
_symmetry_cell_setting 'triclinic'
loop_
_space_group_symop_operation_xyz
x,y,z
-x,-y,-z
loop_
_atom_site_type_symbol
_atom_site_label
_atom_site_fract_x
_atom_site_fract_y
_atom_site_fract_z
Si Si1 0.577545 0.969855 0.242783
Si Si2 0.527956 0.296449 0.767503
Si Si3 0.725831 0.184240 0.498610
Si Si4 0.884045 0.462334 0.143447
Si Si5 0.597214 0.688627 0.752492
Si Si6 0.410475 0.158333 0.489125
Si Si7 0.317298 0.619486 0.742542
Si Si8 0.173830 0.900718 0.128921
O O1 0.626802 0.136049 0.383691
O O2 0.570009 0.054113 0.210106
O O3 0.791109 0.678715 0.168866
O O4 0.327498 0.010627 0.207423
O O5 0.264869 0.407936 0.773316
O O6 0.493615 0.455746 0.772808
O O7 0.699421 0.295778 0.870733
O O8 0.673074 0.990471 0.649532
O O9 0.655333 0.468074 0.614223
O O10 0.628425 0.140315 0.511422
O O11 0.000000 0.000000 0.500000
O O12 0.162231 0.332108 0.169782
O O13 0.837922 0.252469 0.006601
O O14 0.463029 0.691826 0.776696
O O15 0.233964 0.454181 0.600393
O O16 0.500000 0.000000 0.500000
O O17 0.089784 0.872254 0.822823
#
# Coordination Sequence:
#
# PCOD8001070 Si02
#       8
#     2   2   2   2   2   2   2   2
#     4  11  22  41  65  92 121 161 213 257 301 362
#     4  10  19  41  64  89 120 161 211 257 302 355
#     4  11  19  39  63  91 126 159 201 254 312 365
#     4  11  23  42  68  88 120 166 215 261 295 352
#     4  11  24  40  60  95 129 161 202 250 319 373
#     4   9  18  36  61  90 121 160 196 246 312 363
#     4  10  24  39  59  93 130 163 196 254 316 373
#     4  11  24  41  65  93 118 166 218 253 298 359
#
# _framework density 20.800332000000001
#
# number of rings (size 3 to 8) (size 9 to 14) (size 15 to 20)
#    0.000    1.500    3.750    2.625    0.000    6.000 
#    2.250    1.250    0.000    0.000    0.000    0.000 
#    0.000    0.000    0.000    0.000    0.000    0.000 
#
# Total GULP energy -198260.409542 kJ/mol
# GULP energy per Si atom -12391.275596 kJ/mol
# Density = 2.075299 g / cm^3
# Si number density = 20.800332 Si / 1000 Ang^3
#
#
#
# Elastic Constant Matrix: (Units=GPa)
#
#
# Indices 1 2 3 4 5 6 
#
# 1 60.2342 47.6420 20.0570 -5.4004 0.6188 29.7502
# 2 47.6420 100.8711 24.8870 1.5391 5.9312 23.0026
# 3 20.0570 24.8870 101.6127 -11.6507 0.0216 -3.2041
# 4 -5.4004 1.5391 -11.6507 26.1138 -10.0469 1.0610
# 5 0.6188 5.9312 0.0216 -10.0469 24.2069 -0.6315
# 6 29.7502 23.0026 -3.2041 1.0610 -0.6315 33.1229
#
#
#
# Elastic Compliance Matrix: (Units=1/GPa)
#
#
# Indices 1 2 3 4 5 6 
#
# 1 0.046596 -0.013596 -0.005580 0.011649 0.006113 -0.033206
# 2 -0.013596 0.017502 -0.002486 -0.007694 -0.007134 -0.000073
# 3 -0.005580 -0.002486 0.012423 0.005451 0.003207 0.007827
# 4 0.011649 -0.007694 0.005451 0.052808 0.023348 -0.005839
# 5 0.006113 -0.007134 0.003207 0.023348 0.052590 0.000028
# 6 -0.033206 -0.000073 0.007827 -0.005839 0.000028 0.061011
#
#
# Mechanical properties :
#
#
# Convention : Reuss Voigt Hill
#
# Bulk Modulus (GPa) = 30.12358 49.76556 39.94457
# Shear Modulus (GPa) = 16.81703 28.03087 22.42395
#
# Velocity S-wave (km/s) = 2.84650 3.67497 3.28694
# Velocity P-wave (km/s) = 5.03161 6.47955 5.80093
#
# Compressibility (1/GPa) = 0.03319659
#
# Stress axis : x y z
#
# Youngs Moduli (GPa) = 21.46130 57.13714 80.49789
#
# Poissons Ratio (x) = 0.77681 0.44920
# Poissons Ratio (y) = 0.29178 0.20011
# Poissons Ratio (z) = 0.11976 0.14204
#
# Static dielectric constant tensor:
#      x y z
#    x 3.980890 0.118160 -0.128580 
#    y 0.118160 3.775400 -0.053680 
#    z -0.128580 -0.053680 4.433770 
# 
# 
# High freq. dielectric constant tensor:
#      x y z
#    x 1.803020 0.013710 -0.003370 
#    y 0.013710 1.808220 0.004090 
#    z -0.003370 0.004090 1.824160 
# 
# From -- ./inp_files/427407.got.cif
#   From: 2010.06.25/outbox.cif.g09.slc.cpg/sg2_214_cif.got.tgz:427407.got - 2010.06.27 13:26:56.
