data_PCOD8001220
_publ_section_title
;
Structure prediction by ZEFSAII (Michael W. Deem and Ramdas Pophale) SiO2 
 PCOD8001220
Probable space group: P -1
;
_chemical_formula_sum "Si O2"
_cell_formula_units_Z 14
_cell_length_a 10.459922
_cell_length_b 9.531826
_cell_length_c 7.856118
_cell_angle_alpha 81.525961
_cell_angle_beta 118.583452
_cell_angle_gamma 72.019334
_cell_volume 612.035693
_symmetry_space_group_name_H-M "P -1"
_symmetry_group_IT_number 2
_symmetry_cell_setting 'triclinic'
loop_
_space_group_symop_operation_xyz
x,y,z
-x,-y,-z
loop_
_atom_site_type_symbol
_atom_site_label
_atom_site_fract_x
_atom_site_fract_y
_atom_site_fract_z
Si Si1 0.885486 0.165316 0.742260
Si Si2 0.730395 0.658794 0.757198
Si Si3 0.279756 0.636539 0.075683
Si Si4 0.474579 0.250706 0.700478
Si Si5 0.122880 0.365791 0.481920
Si Si6 0.224682 0.052680 0.111168
Si Si7 0.078386 0.813979 0.599322
O O1 0.822371 0.285440 0.835387
O O2 0.828042 0.254256 0.508612
O O3 0.824641 0.027999 0.746021
O O4 0.081318 0.093202 0.875894
O O5 0.721644 0.533789 0.909836
O O6 0.562117 0.732453 0.529831
O O7 0.874528 0.574880 0.722479
O O8 0.755080 0.793928 0.848968
O O9 0.459125 0.624415 0.217875
O O10 0.206226 0.741399 0.844258
O O11 0.306871 0.291640 0.688041
O O12 0.609697 0.072201 0.849421
O O13 0.000000 0.500000 0.500000
O O14 0.071024 0.226385 0.460050
O O15 0.000000 0.000000 0.500000
#
# Coordination Sequence:
#
# PCOD8001220 Si02
#       7
#     2   2   2   2   2   2   2
#     4  10  22  39  70  96 140 167 227 275 331 396
#     4  10  21  38  71  96 134 170 227 273 333 398
#     4  11  23  44  69  99 133 182 218 273 344 393
#     4   9  22  41  69  95 136 174 222 273 335 396
#     4  10  23  41  65  95 135 175 218 277 331 389
#     4  10  19  42  68 104 125 179 220 275 336 395
#     4  12  24  42  67  97 133 175 227 272 328 399
#
# _framework density 22.874482
#
# number of rings (size 3 to 8) (size 9 to 14) (size 15 to 20)
#    0.857    0.857    0.000    6.000    0.000    3.429 
#    0.000    3.571    0.000    0.000    0.000    0.000 
#    0.000    0.000    0.000    0.000    0.000    0.000 
#
# Total GULP energy -173482.218870 kJ/mol
# GULP energy per Si atom -12391.587062 kJ/mol
# Density = 2.282242 g / cm^3
# Si number density = 22.874482 Si / 1000 Ang^3
#
#
#
# Elastic Constant Matrix: (Units=GPa)
#
#
# Indices 1 2 3 4 5 6 
#
# 1 95.4075 48.2071 55.0842 16.0929 24.9755 0.0812
# 2 48.2071 144.2297 47.2854 8.4279 15.6605 26.6740
# 3 55.0842 47.2854 94.7516 5.0639 -1.3193 8.2563
# 4 16.0929 8.4279 5.0639 20.0956 -2.0778 4.2464
# 5 24.9755 15.6605 -1.3193 -2.0778 45.0768 1.0492
# 6 0.0812 26.6740 8.2563 4.2464 1.0492 48.0083
#
#
#
# Elastic Compliance Matrix: (Units=1/GPa)
#
#
# Indices 1 2 3 4 5 6 
#
# 1 0.027883 -0.002773 -0.014491 -0.020468 -0.015997 0.006145
# 2 -0.002773 0.009969 -0.002938 -0.000371 -0.001915 -0.004954
# 3 -0.014491 -0.002938 0.020337 0.009372 0.010144 -0.002891
# 4 -0.020468 -0.000371 0.009372 0.067113 0.015015 -0.007635
# 5 -0.015997 -0.001915 0.010144 0.015015 0.032765 -0.002698
# 6 0.006145 -0.004954 -0.002891 -0.007635 -0.002698 0.024804
#
#
# Mechanical properties :
#
#
# Convention : Reuss Voigt Hill
#
# Bulk Modulus (GPa) = 56.22392 70.61579 63.41986
# Shear Modulus (GPa) = 21.81470 34.89027 28.35249
#
# Velocity S-wave (km/s) = 3.09150 3.90974 3.52445
# Velocity P-wave (km/s) = 6.11358 7.16376 6.65940
#
# Compressibility (1/GPa) = 0.01778602
#
# Stress axis : x y z
#
# Youngs Moduli (GPa) = 35.86370 100.30740 49.17168
#
# Poissons Ratio (x) = 0.27810 0.71254
# Poissons Ratio (y) = 0.09943 0.14449
# Poissons Ratio (z) = 0.51969 0.29475
#
# Static dielectric constant tensor:
#      x y z
#    x 4.272250 0.211040 -0.015390 
#    y 0.211040 4.025130 0.109460 
#    z -0.015390 0.109460 4.191710 
# 
# 
# High freq. dielectric constant tensor:
#      x y z
#    x 1.894000 0.016910 0.009830 
#    y 0.016910 1.904720 0.008250 
#    z 0.009830 0.008250 1.893690 
# 
# From -- ./inp_files/234474.got.cif
#   From: 2010.06.25/outbox.cif.g09.slc.cpg/sg2_118_cif.got.tgz:234474.got - 2010.06.27 13:26:56.
