data_PCOD8001396
_publ_section_title
;
Structure prediction by ZEFSAII (Michael W. Deem and Ramdas Pophale) SiO2 
 PCOD8001396
Probable space group: P -1
;
_chemical_formula_sum "Si O2"
_cell_formula_units_Z 16
_cell_length_a 8.778509
_cell_length_b 13.091757
_cell_length_c 17.697474
_cell_angle_alpha 152.753967
_cell_angle_beta 113.941650
_cell_angle_gamma 75.118159
_cell_volume 824.345674
_symmetry_space_group_name_H-M "P -1"
_symmetry_group_IT_number 2
_symmetry_cell_setting 'triclinic'
loop_
_space_group_symop_operation_xyz
x,y,z
-x,-y,-z
loop_
_atom_site_type_symbol
_atom_site_label
_atom_site_fract_x
_atom_site_fract_y
_atom_site_fract_z
Si Si1 0.472801 0.133587 0.765443
Si Si2 0.209162 0.033455 0.268106
Si Si3 0.654994 0.558289 0.169847
Si Si4 0.775262 0.752766 0.740460
Si Si5 0.024761 0.606252 0.875141
Si Si6 0.665875 0.379079 0.588321
Si Si7 0.664944 0.561429 0.350651
Si Si8 0.150910 0.807001 0.871690
O O1 0.385874 0.223132 0.735343
O O2 0.653987 0.088326 0.746297
O O3 0.349755 0.890468 0.607952
O O4 0.511203 0.324071 0.965133
O O5 0.304657 0.172755 0.303476
O O6 0.179066 0.224520 0.447208
O O7 0.039578 0.830612 0.080512
O O8 0.847098 0.549437 0.174690
O O9 0.639286 0.594326 0.279108
O O10 0.686621 0.500680 0.589624
O O11 0.973389 0.771594 0.766682
O O12 0.764036 0.921729 0.920418
O O13 0.105688 0.699778 0.873832
O O14 0.828991 0.467837 0.735336
O O15 0.506152 0.432376 0.634941
O O16 0.717441 0.324039 0.226020
#
# Coordination Sequence:
#
# PCOD8001396 Si02
#       8
#     2   2   2   2   2   2   2   2
#     4   9  19  34  56  75  94 133 174 203 249 305
#     4   9  18  32  52  74 102 140 169 193 245 309
#     4   9  18  37  57  71  96 134 172 206 244 306
#     4   9  17  33  51  69 103 140 167 198 241 299
#     4   8  16  34  54  72 101 136 168 199 244 305
#     4  10  20  32  51  80 105 128 164 213 254 283
#     4  10  20  32  51  79 101 124 170 216 248 288
#     4   8  16  32  52  70  96 140 174 194 239 303
#
# _framework density 19.409333
#
# number of rings (size 3 to 8) (size 9 to 14) (size 15 to 20)
#    0.000    3.000    0.000    1.500    0.000    5.500 
#    0.000    5.000    0.000    7.500    0.000    0.000 
#    0.000    0.000    0.000    0.000    0.000    0.000 
#
# Total GULP energy -198218.860581 kJ/mol
# GULP energy per Si atom -12388.678786 kJ/mol
# Density = 1.936516 g / cm^3
# Si number density = 19.409333 Si / 1000 Ang^3
#
#
#
# Elastic Constant Matrix: (Units=GPa)
#
#
# Indices 1 2 3 4 5 6 
#
# 1 65.7691 27.0162 32.2432 4.3583 -3.3650 -14.0617
# 2 27.0162 72.4893 34.5909 10.5982 -12.6510 -15.7675
# 3 32.2432 34.5909 118.6139 9.2473 -0.3194 0.6789
# 4 4.3583 10.5982 9.2473 34.0270 -1.2159 -3.4643
# 5 -3.3650 -12.6510 -0.3194 -1.2159 23.0610 2.2402
# 6 -14.0617 -15.7675 0.6789 -3.4643 2.2402 24.2935
#
#
#
# Elastic Compliance Matrix: (Units=1/GPa)
#
#
# Indices 1 2 3 4 5 6 
#
# 1 0.021143 -0.003396 -0.004872 0.000725 0.000197 0.010255
# 2 -0.003396 0.022420 -0.005373 -0.003568 0.010447 0.011264
# 3 -0.004872 -0.005373 0.011476 -0.001597 -0.002944 -0.006584
# 4 0.000725 -0.003568 -0.001597 0.031091 -0.000490 0.002627
# 5 0.000197 0.010447 -0.002944 -0.000490 0.048823 0.002405
# 6 0.010255 0.011264 -0.006584 0.002627 0.002405 0.054747
#
#
# Mechanical properties :
#
#
# Convention : Reuss Voigt Hill
#
# Bulk Modulus (GPa) = 36.02715 49.39696 42.71205
# Shear Modulus (GPa) = 22.10114 27.14443 24.62279
#
# Velocity S-wave (km/s) = 3.37810 3.74374 3.56561
# Velocity P-wave (km/s) = 5.81528 6.64777 6.24541
#
# Compressibility (1/GPa) = 0.02775685
#
# Stress axis : x y z
#
# Youngs Moduli (GPa) = 47.29789 44.60361 87.13706
#
# Poissons Ratio (x) = 0.15148 0.42449
# Poissons Ratio (y) = 0.16063 0.46820
# Poissons Ratio (z) = 0.23041 0.23966
#
# Static dielectric constant tensor:
#      x y z
#    x 3.452780 -0.600280 0.050090 
#    y -0.600280 3.579970 0.049640 
#    z 0.050090 0.049640 3.993490 
# 
# 
# High freq. dielectric constant tensor:
#      x y z
#    x 1.719110 -0.043390 0.003280 
#    y -0.043390 1.742490 0.003400 
#    z 0.003280 0.003400 1.768790 
# 
# From -- ./inp_files/181838.got.cif
#   From: 2010.06.25/outbox.cif.g09.slc.cpg/sg2_91_cif.got.tgz:181838.got - 2010.06.27 13:26:56.
