data_PCOD8001762
_publ_section_title
;
Structure prediction by ZEFSAII (Michael W. Deem and Ramdas Pophale) SiO2 
 PCOD8001762
Probable space group: P -1
;
_chemical_formula_sum "Si O2"
_cell_formula_units_Z 16
_cell_length_a 21.625098
_cell_length_b 20.727958
_cell_length_c 11.363997
_cell_angle_alpha 151.082517
_cell_angle_beta 39.682670
_cell_angle_gamma 159.889154
_cell_volume 803.829011
_symmetry_space_group_name_H-M "P -1"
_symmetry_group_IT_number 2
_symmetry_cell_setting 'triclinic'
loop_
_space_group_symop_operation_xyz
x,y,z
-x,-y,-z
loop_
_atom_site_type_symbol
_atom_site_label
_atom_site_fract_x
_atom_site_fract_y
_atom_site_fract_z
Si Si1 0.082243 0.422279 0.834258
Si Si2 0.705412 0.068694 0.729137
Si Si3 0.072652 0.525971 0.270868
Si Si4 0.387286 0.322328 0.996110
Si Si5 0.022119 0.179554 0.224291
Si Si6 0.328133 0.536612 0.527232
Si Si7 0.439613 0.107461 0.601242
Si Si8 0.156264 0.510581 0.362777
O O1 0.208740 0.435853 0.658965
O O2 0.874672 0.164227 0.665709
O O3 0.203960 0.677540 0.993404
O O4 0.054880 0.423864 0.013516
O O5 0.535295 0.850078 0.723967
O O6 0.606585 0.927177 0.523712
O O7 0.066629 0.415772 0.212481
O O8 0.902536 0.431200 0.378578
O O9 0.267724 0.838855 0.494763
O O10 0.352570 0.405422 0.267641
O O11 0.500000 0.500000 0.000000
O O12 0.488564 0.318295 0.908989
O O13 0.189388 0.016597 0.756313
O O14 0.190763 0.437847 0.469775
O O15 0.078878 0.282423 0.171017
O O16 0.000000 0.000000 0.000000
O O17 0.617084 0.222526 0.548072
#
# Coordination Sequence:
#
# PCOD8001762 Si02
#       8
#     2   2   2   2   2   2   2   2
#     4  10  23  36  53  82 122 159 197 235 291 355
#     4  10  20  34  55  85 122 153 193 247 293 348
#     4  10  24  39  58  85 120 161 198 233 286 360
#     4  11  20  34  56  89 121 147 188 244 300 354
#     4  10  20  35  60  91 118 149 189 249 303 337
#     4  11  21  34  57  86 120 152 189 241 307 340
#     4  11  19  36  59  90 118 146 198 247 299 340
#     4  11  21  39  61  86 118 154 196 244 293 346
#
# _framework density 19.904731999999999
#
# number of rings (size 3 to 8) (size 9 to 14) (size 15 to 20)
#    0.000    1.500    3.750    2.250    3.500    2.000 
#    0.000    0.000    0.000    3.750    0.000    0.000 
#    0.000    0.000    0.000    0.000    0.000    0.000 
#
# Total GULP energy -198230.308506 kJ/mol
# GULP energy per Si atom -12389.394282 kJ/mol
# Density = 1.985943 g / cm^3
# Si number density = 19.904732 Si / 1000 Ang^3
#
#
#
# Elastic Constant Matrix: (Units=GPa)
#
#
# Indices 1 2 3 4 5 6 
#
# 1 85.4244 32.3568 33.7773 -7.4793 -7.1777 -1.1570
# 2 32.3568 132.8973 40.6331 -9.2351 -0.5619 24.2061
# 3 33.7773 40.6331 74.1662 -18.5092 0.6165 5.4684
# 4 -7.4793 -9.2351 -18.5092 43.2549 1.4499 -2.5396
# 5 -7.1777 -0.5619 0.6165 1.4499 22.2330 0.2093
# 6 -1.1570 24.2061 5.4684 -2.5396 0.2093 31.9036
#
#
#
# Elastic Compliance Matrix: (Units=1/GPa)
#
#
# Indices 1 2 3 4 5 6 
#
# 1 0.015515 -0.002565 -0.006067 -0.000428 0.005108 0.003481
# 2 -0.002565 0.010816 -0.004297 -0.000407 -0.000337 -0.007593
# 3 -0.006067 -0.004297 0.020324 0.006841 -0.003078 0.000121
# 4 -0.000428 -0.000407 0.006841 0.026025 -0.002047 0.001206
# 5 0.005108 -0.000337 -0.003078 -0.002047 0.046833 0.000499
# 6 0.003481 -0.007593 0.000121 0.001206 0.000499 0.037304
#
#
# Mechanical properties :
#
#
# Convention : Reuss Voigt Hill
#
# Bulk Modulus (GPa) = 48.07916 56.22470 52.15193
# Shear Modulus (GPa) = 26.37044 31.85967 29.11505
#
# Velocity S-wave (km/s) = 3.64377 4.00510 3.82870
# Velocity P-wave (km/s) = 6.47378 7.04954 6.76779
#
# Compressibility (1/GPa) = 0.02079903
#
# Stress axis : x y z
#
# Youngs Moduli (GPa) = 64.45184 92.45506 49.20274
#
# Poissons Ratio (x) = 0.23713 0.29850
# Poissons Ratio (y) = 0.16531 0.21141
# Poissons Ratio (z) = 0.39102 0.39725
#
# Static dielectric constant tensor:
#      x y z
#    x 3.613070 0.477620 -0.185230 
#    y 0.477620 4.475590 -0.032270 
#    z -0.185230 -0.032270 3.514660 
# 
# 
# High freq. dielectric constant tensor:
#      x y z
#    x 1.741590 0.017150 -0.015510 
#    y 0.017150 1.806310 -0.003040 
#    z -0.015510 -0.003040 1.750860 
# 
# From -- ./inp_files/457566.got.cif
#   From: 2010.06.25/outbox.cif.g09.slc.cpg/sg2_229_cif.got.tgz:457566.got - 2010.06.27 13:26:56.
