data_PCOD8001182
_publ_section_title
;
Structure prediction by ZEFSAII (Michael W. Deem and Ramdas Pophale) SiO2 
 PCOD8001182
Probable space group: P -1
;
_chemical_formula_sum "Si O2"
_cell_formula_units_Z 16
_cell_length_a 8.966136
_cell_length_b 9.076034
_cell_length_c 19.691930
_cell_angle_alpha 142.029940
_cell_angle_beta 59.367323
_cell_angle_gamma 129.366667
_cell_volume 762.064058
_symmetry_space_group_name_H-M "P -1"
_symmetry_group_IT_number 2
_symmetry_cell_setting 'triclinic'
loop_
_space_group_symop_operation_xyz
x,y,z
-x,-y,-z
loop_
_atom_site_type_symbol
_atom_site_label
_atom_site_fract_x
_atom_site_fract_y
_atom_site_fract_z
Si Si1 0.199150 0.493581 0.459547
Si Si2 0.135116 0.222900 0.240235
Si Si3 0.862863 0.642528 0.079271
Si Si4 0.490543 0.984928 0.636514
Si Si5 0.797213 0.842984 0.025043
Si Si6 0.211843 0.742131 0.731665
Si Si7 0.443982 0.445259 0.148794
Si Si8 0.191589 0.223045 0.505489
O O1 0.242919 0.371449 0.337333
O O2 0.360117 0.799656 0.538758
O O3 0.182371 0.316622 0.465235
O O4 0.000000 0.500000 0.500000
O O5 0.301239 0.213514 0.148376
O O6 0.009522 0.352136 0.277403
O O7 0.983152 0.927599 0.189733
O O8 0.815091 0.679503 0.026079
O O9 0.664119 0.483691 0.110291
O O10 0.000000 0.500000 0.000000
O O11 0.360510 0.943819 0.717565
O O12 0.656555 0.894559 0.575754
O O13 0.574377 0.300603 0.720522
O O14 0.741736 0.081984 0.146701
O O15 0.639322 0.627351 0.934470
O O16 0.000000 0.000000 0.000000
O O17 0.250648 0.480774 0.635051
O O18 0.000000 0.000000 0.500000
#
# Coordination Sequence:
#
# PCOD8001182 Si02
#       8
#     2   2   2   2   2   2   2   2
#     4  11  21  42  66  92 134 178 212 271 338 386
#     4  11  22  43  67  95 136 176 216 274 328 400
#     4  11  25  46  64 100 137 168 226 283 324 395
#     4  11  23  40  69  96 132 173 226 272 330 395
#     4  11  22  43  74  96 130 182 223 270 336 399
#     4  10  19  42  63  94 137 165 221 275 319 389
#     4  12  23  44  72  96 131 183 223 268 340 398
#     4  11  24  42  64 101 134 173 224 281 321 393
#
# _framework density 20.995609000000002
#
# number of rings (size 3 to 8) (size 9 to 14) (size 15 to 20)
#    0.000    1.000    7.500    2.625    0.000    2.000 
#    4.500    0.000    0.000    0.000    0.000    0.000 
#    0.000    0.000    0.000    0.000    0.000    0.000 
#
# Total GULP energy -198284.065694 kJ/mol
# GULP energy per Si atom -12392.754106 kJ/mol
# Density = 2.094782 g / cm^3
# Si number density = 20.995609 Si / 1000 Ang^3
#
#
#
# Elastic Constant Matrix: (Units=GPa)
#
#
# Indices 1 2 3 4 5 6 
#
# 1 103.7256 28.3843 60.4417 -3.2079 -4.7148 19.8082
# 2 28.3843 77.4098 26.2439 -14.7843 1.0728 25.0487
# 3 60.4417 26.2439 141.4342 -5.2565 17.2815 3.2845
# 4 -3.2079 -14.7843 -5.2565 36.0538 6.8589 -5.6606
# 5 -4.7148 1.0728 17.2815 6.8589 48.8488 -1.3754
# 6 19.8082 25.0487 3.2845 -5.6606 -1.3754 30.2713
#
#
#
# Elastic Compliance Matrix: (Units=1/GPa)
#
#
# Indices 1 2 3 4 5 6 
#
# 1 0.015781 -0.001015 -0.006924 -0.002200 0.004052 -0.008962
# 2 -0.001015 0.019974 -0.002629 0.005582 -0.000801 -0.014571
# 3 -0.006924 -0.002629 0.011008 0.001664 -0.004581 0.005615
# 4 -0.002200 0.005582 0.001664 0.031433 -0.005273 0.002279
# 5 0.004052 -0.000801 -0.004581 -0.005273 0.023201 -0.001424
# 6 -0.008962 -0.014571 0.005615 0.002279 -0.001424 0.050708
#
#
# Mechanical properties :
#
#
# Convention : Reuss Voigt Hill
#
# Bulk Modulus (GPa) = 39.02171 61.41214 50.21693
# Shear Modulus (GPa) = 27.50515 36.86811 32.18663
#
# Velocity S-wave (km/s) = 3.62338 4.19500 3.91962
# Velocity P-wave (km/s) = 6.01092 7.26481 6.66741
#
# Compressibility (1/GPa) = 0.02562676
#
# Stress axis : x y z
#
# Youngs Moduli (GPa) = 63.36664 50.06575 90.83914
#
# Poissons Ratio (x) = 0.05083 0.62900
# Poissons Ratio (y) = 0.06433 0.23879
# Poissons Ratio (z) = 0.43877 0.13161
#
# Static dielectric constant tensor:
#      x y z
#    x 3.823200 0.172400 0.143960 
#    y 0.172400 3.804290 0.029780 
#    z 0.143960 0.029780 4.202690 
# 
# 
# High freq. dielectric constant tensor:
#      x y z
#    x 1.801390 0.029610 0.000080 
#    y 0.029610 1.826020 -0.004450 
#    z 0.000080 -0.004450 1.838420 
# 
# From -- ./inp_files/329631.got.cif
#   From: 2010.06.25/outbox.cif.g09.slc.cpg/sg2_165_cif.got.tgz:329631.got - 2010.06.27 13:26:56.
