data_PCOD8001618
_publ_section_title
;
Structure prediction by ZEFSAII (Michael W. Deem and Ramdas Pophale) SiO2 
 PCOD8001618
Probable space group: P -1
;
_chemical_formula_sum "Si O2"
_cell_formula_units_Z 14
_cell_length_a 18.392714
_cell_length_b 14.250952
_cell_length_c 9.638037
_cell_angle_alpha 114.499318
_cell_angle_beta 60.142639
_cell_angle_gamma 159.046429
_cell_volume 773.159221
_symmetry_space_group_name_H-M "P -1"
_symmetry_group_IT_number 2
_symmetry_cell_setting 'triclinic'
loop_
_space_group_symop_operation_xyz
x,y,z
-x,-y,-z
loop_
_atom_site_type_symbol
_atom_site_label
_atom_site_fract_x
_atom_site_fract_y
_atom_site_fract_z
Si Si1 0.147525 0.880418 0.237467
Si Si2 0.210719 0.787901 0.907863
Si Si3 0.820646 0.138210 0.503496
Si Si4 0.938839 0.581716 0.824526
Si Si5 0.224491 0.475428 0.826221
Si Si6 0.439171 0.980192 0.244725
Si Si7 0.535389 0.656983 0.602108
O O1 0.081556 0.745390 0.360434
O O2 0.930064 0.677371 0.251182
O O3 0.310545 0.158765 0.294845
O O4 0.280163 0.956709 0.052687
O O5 0.398399 0.918151 0.779383
O O6 0.147248 0.762452 0.803708
O O7 0.000000 0.500000 0.000000
O O8 0.010345 0.334479 0.332479
O O9 0.703047 0.114944 0.567352
O O10 0.648979 0.848191 0.483610
O O11 0.726996 0.269277 0.849812
O O12 0.898653 0.642288 0.984390
O O13 0.431835 0.786478 0.820034
O O14 0.303720 0.447271 0.726562
O O15 0.500000 0.500000 0.500000
#
# Coordination Sequence:
#
# PCOD8001618 Si02
#       7
#     2   2   2   2   2   2   2
#     4   9  19  35  53  77 108 130 187 212 260 317
#     4  11  20  31  56  78 109 151 182 208 250 322
#     4   9  22  36  51  78 115 135 177 234 264 305
#     4  11  21  35  50  81 116 141 178 219 262 311
#     4  10  20  33  59  75 102 145 180 216 259 323
#     4  11  20  32  52  77 111 153 180 200 261 321
#     4   9  20  39  61  76  99 139 184 227 272 319
#
# _framework density 18.107526
#
# number of rings (size 3 to 8) (size 9 to 14) (size 15 to 20)
#    0.857    1.143    2.857    2.571    0.000    1.143 
#    5.143    0.714    0.000    3.429    0.000    0.000 
#    0.000    0.000    0.000    0.000    0.000    0.000 
#
# Total GULP energy -173439.609707 kJ/mol
# GULP energy per Si atom -12388.543551 kJ/mol
# Density = 1.806631 g / cm^3
# Si number density = 18.107526 Si / 1000 Ang^3
#
#
#
# Elastic Constant Matrix: (Units=GPa)
#
#
# Indices 1 2 3 4 5 6 
#
# 1 103.4085 47.3700 61.0179 9.7594 -27.5618 9.5191
# 2 47.3700 78.1149 40.7502 20.1213 -14.8386 4.5737
# 3 61.0179 40.7502 89.2969 4.4162 -12.7150 11.0714
# 4 9.7594 20.1213 4.4162 21.3802 -1.7091 -8.0311
# 5 -27.5618 -14.8386 -12.7150 -1.7091 33.0657 5.2363
# 6 9.5191 4.5737 11.0714 -8.0311 5.2363 26.1356
#
#
#
# Elastic Compliance Matrix: (Units=1/GPa)
#
#
# Indices 1 2 3 4 5 6 
#
# 1 0.022610 -0.003146 -0.010604 -0.007124 0.014295 -0.008246
# 2 -0.003146 0.026556 -0.006467 -0.025407 0.007077 -0.009987
# 3 -0.010604 -0.006467 0.020821 0.005849 -0.003213 -0.001385
# 4 -0.007124 -0.025407 0.005849 0.084069 -0.016069 0.033616
# 5 0.014295 0.007077 -0.003213 -0.016069 0.046324 -0.019302
# 6 -0.008246 -0.009987 -0.001385 0.033616 -0.019302 0.057796
#
#
# Mechanical properties :
#
#
# Convention : Reuss Voigt Hill
#
# Bulk Modulus (GPa) = 33.83720 63.23293 48.53506
# Shear Modulus (GPa) = 16.20947 24.22846 20.21896
#
# Velocity S-wave (km/s) = 2.99520 3.66188 3.34519
# Velocity P-wave (km/s) = 5.53977 7.27157 6.46393
#
# Compressibility (1/GPa) = 0.02955328
#
# Stress axis : x y z
#
# Youngs Moduli (GPa) = 44.22829 37.65575 48.02948
#
# Poissons Ratio (x) = 0.11846 0.50931
# Poissons Ratio (y) = 0.13914 0.31060
# Poissons Ratio (z) = 0.46900 0.24351
#
# Static dielectric constant tensor:
#      x y z
#    x 3.240010 0.272290 -0.243740 
#    y 0.272290 3.159630 0.088180 
#    z -0.243740 0.088180 3.247800 
# 
# 
# High freq. dielectric constant tensor:
#      x y z
#    x 1.682150 0.028830 -0.019220 
#    y 0.028830 1.679100 0.012020 
#    z -0.019220 0.012020 1.693400 
# 
# From -- ./inp_files/307683.got.cif
#   From: 2010.06.25/outbox.cif.g09.slc.cpg/sg2_154_cif.got.tgz:307683.got - 2010.06.27 13:26:56.
