data_PCOD8001872
_publ_section_title
;
Structure prediction by ZEFSAII (Michael W. Deem and Ramdas Pophale) SiO2 
 PCOD8001872
Probable space group: P -1
;
_chemical_formula_sum "Si O2"
_cell_formula_units_Z 12
_cell_length_a 7.729773
_cell_length_b 10.051082
_cell_length_c 11.811745
_cell_angle_alpha 54.460787
_cell_angle_beta 124.124088
_cell_angle_gamma 87.796413
_cell_volume 519.831192
_symmetry_space_group_name_H-M "P -1"
_symmetry_group_IT_number 2
_symmetry_cell_setting 'triclinic'
loop_
_space_group_symop_operation_xyz
x,y,z
-x,-y,-z
loop_
_atom_site_type_symbol
_atom_site_label
_atom_site_fract_x
_atom_site_fract_y
_atom_site_fract_z
Si Si1 0.733418 0.514250 0.088607
Si Si2 0.948321 0.876701 0.691228
Si Si3 0.885110 0.129669 0.734029
Si Si4 0.393099 0.869226 0.156859
Si Si5 0.626967 0.061537 0.273095
Si Si6 0.782562 0.486845 0.378586
O O1 0.942478 0.355044 0.158083
O O2 0.837877 0.447142 0.286219
O O3 0.500000 0.500000 0.000000
O O4 0.644043 0.735322 0.918172
O O5 0.159937 0.917745 0.713782
O O6 0.868931 0.960525 0.747532
O O7 0.709422 0.981120 0.469847
O O8 0.707312 0.196208 0.743842
O O9 0.779669 0.310380 0.521497
O O10 0.165913 0.051204 0.916582
O O11 0.523417 0.689420 0.206439
O O12 0.589080 0.920548 0.248225
O O13 0.000000 0.500000 0.500000
#
# Coordination Sequence:
#
# PCOD8001872 Si02
#       6
#     2   2   2   2   2   2
#     4  10  20  34  58  86 111 142 188 241 285 329
#     4  10  20  37  59  86 115 148 194 241 286 338
#     4  11  24  40  58  85 122 158 191 234 290 350
#     4  11  24  40  58  85 122 158 191 234 291 350
#     4  10  20  37  59  86 115 148 194 241 287 338
#     4  12  23  38  63  88 113 151 198 244 287 338
#
# _framework density 23.084417999999999
#
# number of rings (size 3 to 8) (size 9 to 14) (size 15 to 20)
#    0.000    1.333    0.000    8.500    0.000    2.667 
#    0.000    0.833    0.000    0.000    0.000    3.500 
#    0.000    0.000    0.000    0.000    0.000    0.000 
#
# Total GULP energy -148805.776531 kJ/mol
# GULP energy per Si atom -12400.481378 kJ/mol
# Density = 2.303188 g / cm^3
# Si number density = 23.084418 Si / 1000 Ang^3
#
#
#
# Elastic Constant Matrix: (Units=GPa)
#
#
# Indices 1 2 3 4 5 6 
#
# 1 25.1625 11.0851 3.7108 -7.8307 8.8329 -7.3949
# 2 11.0851 122.3690 28.5287 1.5115 5.0143 -8.9430
# 3 3.7108 28.5287 100.9940 -3.6782 4.8921 11.2252
# 4 -7.8307 1.5115 -3.6782 51.5880 1.6594 4.3752
# 5 8.8329 5.0143 4.8921 1.6594 14.6167 1.7422
# 6 -7.3949 -8.9430 11.2252 4.3752 1.7422 27.5457
#
#
#
# Elastic Compliance Matrix: (Units=1/GPa)
#
#
# Indices 1 2 3 4 5 6 
#
# 1 0.063275 -0.002615 -0.001270 0.009379 -0.040089 0.017701
# 2 -0.002615 0.009441 -0.002992 -0.001180 -0.000980 0.003832
# 3 -0.001270 -0.002992 0.011597 0.001291 -0.001501 -0.006148
# 4 0.009379 -0.001180 0.001291 0.021299 -0.007962 -0.001271
# 5 -0.040089 -0.000980 -0.001501 -0.007962 0.096205 -0.015289
# 6 0.017701 0.003832 -0.006148 -0.001271 -0.015289 0.045974
#
#
# Mechanical properties :
#
#
# Convention : Reuss Voigt Hill
#
# Bulk Modulus (GPa) = 14.17291 37.24165 25.70728
# Shear Modulus (GPa) = 17.53989 32.43015 24.98502
#
# Velocity S-wave (km/s) = 2.75946 3.75220 3.29345
# Velocity P-wave (km/s) = 4.03804 5.91099 5.06190
#
# Compressibility (1/GPa) = 0.07055715
#
# Stress axis : x y z
#
# Youngs Moduli (GPa) = 15.80414 105.91754 86.23190
#
# Poissons Ratio (x) = 0.27701 0.10952
# Poissons Ratio (y) = 0.04133 0.25803
# Poissons Ratio (z) = 0.02007 0.31694
#
# Static dielectric constant tensor:
#      x y z
#    x 3.683620 -0.322340 0.240610 
#    y -0.322340 4.792230 -0.410690 
#    z 0.240610 -0.410690 4.586120 
# 
# 
# High freq. dielectric constant tensor:
#      x y z
#    x 1.870720 -0.013640 0.012070 
#    y -0.013640 1.931300 0.004540 
#    z 0.012070 0.004540 1.926610 
# 
# From -- ./inp_files/164557.got.cif
#   From: 2010.06.25/outbox.cif.g09.slc.cpg/sg2_83_cif.got.tgz:164557.got - 2010.06.27 13:26:56.
