data_PCOD8001853
_publ_section_title
;
Structure prediction by ZEFSAII (Michael W. Deem and Ramdas Pophale) SiO2 
 PCOD8001853
Probable space group: P -1
;
_chemical_formula_sum "Si O2"
_cell_formula_units_Z 16
_cell_length_a 14.936867
_cell_length_b 11.930162
_cell_length_c 11.165772
_cell_angle_alpha 125.579521
_cell_angle_beta 61.429065
_cell_angle_gamma 150.699505
_cell_volume 789.836839
_symmetry_space_group_name_H-M "P -1"
_symmetry_group_IT_number 2
_symmetry_cell_setting 'triclinic'
loop_
_space_group_symop_operation_xyz
x,y,z
-x,-y,-z
loop_
_atom_site_type_symbol
_atom_site_label
_atom_site_fract_x
_atom_site_fract_y
_atom_site_fract_z
Si Si1 0.056977 0.181978 0.347374
Si Si2 0.627680 0.640866 0.680606
Si Si3 0.394835 0.978406 0.414378
Si Si4 0.084115 0.189719 0.961907
Si Si5 0.665311 0.057646 0.304552
Si Si6 0.507141 0.634121 0.990369
Si Si7 0.279424 0.121687 0.470936
Si Si8 0.946066 0.603494 0.732767
O O1 0.261249 0.379707 0.389793
O O2 0.057808 0.294461 0.311739
O O3 0.990233 0.954583 0.204951
O O4 0.924779 0.088801 0.478148
O O5 0.418840 0.373488 0.612849
O O6 0.723973 0.842213 0.643250
O O7 0.627367 0.727783 0.856776
O O8 0.410005 0.063064 0.589398
O O9 0.242339 0.688702 0.330136
O O10 0.587390 0.118140 0.348024
O O11 0.346264 0.038542 0.385220
O O12 0.301969 0.440063 0.967460
O O13 0.026393 0.281107 0.088656
O O14 0.000000 0.000000 0.000000
O O15 0.885894 0.314915 0.333054
O O16 0.606903 0.873066 0.137456
O O17 0.500000 0.500000 0.000000
#
# Coordination Sequence:
#
# PCOD8001853 Si02
#       8
#     2   2   2   2   2   2   2   2
#     4  11  21  38  63  91 123 157 199 254 306 352
#     4  11  25  40  65  89 121 161 205 249 306 356
#     4  11  24  38  59  90 125 161 200 244 303 364
#     4  10  20  34  57  92 123 149 191 251 307 355
#     4  11  23  36  60  91 120 157 197 248 304 354
#     4  12  20  38  63  90 119 156 199 260 305 349
#     4  11  24  43  59  89 125 164 205 245 293 372
#     4  11  21  37  60  95 124 153 195 254 307 359
#
# _framework density 20.257349000000001
#
# number of rings (size 3 to 8) (size 9 to 14) (size 15 to 20)
#    0.000    1.000    3.750    5.250    3.500    0.000 
#    0.000    0.625    0.000    1.500    0.000    0.000 
#    0.000    0.000    0.000    0.000    0.000    0.000 
#
# Total GULP energy -198391.453485 kJ/mol
# GULP energy per Si atom -12399.465843 kJ/mol
# Density = 2.021124 g / cm^3
# Si number density = 20.257349 Si / 1000 Ang^3
#
#
#
# Elastic Constant Matrix: (Units=GPa)
#
#
# Indices 1 2 3 4 5 6 
#
# 1 110.6423 37.8668 34.4870 -24.6432 -15.9458 14.3102
# 2 37.8668 60.5744 15.8363 -11.9883 -5.0731 5.3081
# 3 34.4870 15.8363 90.2408 -13.0704 -5.1249 -13.2446
# 4 -24.6432 -11.9883 -13.0704 25.6333 7.1407 -1.8900
# 5 -15.9458 -5.0731 -5.1249 7.1407 27.2650 -4.1287
# 6 14.3102 5.3081 -13.2446 -1.8900 -4.1287 37.1454
#
#
#
# Elastic Compliance Matrix: (Units=1/GPa)
#
#
# Indices 1 2 3 4 5 6 
#
# 1 0.015732 -0.006174 -0.004326 0.008447 0.004144 -0.005831
# 2 -0.006174 0.021385 -0.001050 0.003724 -0.000951 -0.000968
# 3 -0.004326 -0.001050 0.014443 0.003175 0.000241 0.007155
# 4 0.008447 0.003724 0.003175 0.052566 -0.007663 -0.000832
# 5 0.004144 -0.000951 0.000241 -0.007663 0.041406 0.002838
# 6 -0.005831 -0.000968 0.007155 -0.000832 0.002838 0.032130
#
#
# Mechanical properties :
#
#
# Convention : Reuss Voigt Hill
#
# Bulk Modulus (GPa) = 35.13711 48.64860 41.89285
# Shear Modulus (GPa) = 23.78144 29.55992 26.67068
#
# Velocity S-wave (km/s) = 3.43004 3.82412 3.63242
# Velocity P-wave (km/s) = 5.75064 6.60045 6.19015
#
# Compressibility (1/GPa) = 0.02845994
#
# Stress axis : x y z
#
# Youngs Moduli (GPa) = 63.56364 46.76197 69.24006
#
# Poissons Ratio (x) = 0.28871 0.29952
# Poissons Ratio (y) = 0.39244 0.07270
# Poissons Ratio (z) = 0.27496 0.04910
#
# Static dielectric constant tensor:
#      x y z
#    x 4.173000 0.554230 -0.852660 
#    y 0.554230 3.764800 -0.406700 
#    z -0.852660 -0.406700 5.039190 
# 
# 
# High freq. dielectric constant tensor:
#      x y z
#    x 1.779990 0.034050 -0.013930 
#    y 0.034050 1.785950 0.003280 
#    z -0.013930 0.003280 1.792640 
# 
# From -- ./inp_files/451793.got.cif
#   From: 2010.06.25/outbox.cif.g09.slc.cpg/sg2_226_cif.got.tgz:451793.got - 2010.06.27 13:26:56.
