data_PCOD8001848
_publ_section_title
;
Structure prediction by ZEFSAII (Michael W. Deem and Ramdas Pophale) SiO2 
 PCOD8001848
Probable space group: P -1
;
_chemical_formula_sum "Si O2"
_cell_formula_units_Z 16
_cell_length_a 8.647139
_cell_length_b 7.793954
_cell_length_c 21.503651
_cell_angle_alpha 77.912422
_cell_angle_beta 30.157273
_cell_angle_gamma 86.106965
_cell_volume 692.774224
_symmetry_space_group_name_H-M "P -1"
_symmetry_group_IT_number 2
_symmetry_cell_setting 'triclinic'
loop_
_space_group_symop_operation_xyz
x,y,z
-x,-y,-z
loop_
_atom_site_type_symbol
_atom_site_label
_atom_site_fract_x
_atom_site_fract_y
_atom_site_fract_z
Si Si1 0.229082 0.771243 0.391695
Si Si2 0.493228 0.742780 0.480043
Si Si3 0.199888 0.798787 0.796239
Si Si4 0.667519 0.362132 0.120222
Si Si5 0.265497 0.077726 0.498702
Si Si6 0.889246 0.843912 0.215827
Si Si7 0.235320 0.579461 0.053860
Si Si8 0.942476 0.549015 0.619752
O O1 0.603923 0.809881 0.267121
O O2 0.115110 0.619895 0.391646
O O3 0.093559 0.936049 0.398816
O O4 0.064647 0.722739 0.519823
O O5 0.629889 0.754927 0.501278
O O6 0.780040 0.787243 0.327938
O O7 0.235854 0.553820 0.567313
O O8 0.275191 0.890486 0.541834
O O9 0.312890 0.804286 0.828726
O O10 0.507012 0.882899 0.642702
O O11 0.055536 0.592465 0.843076
O O12 0.967093 0.937652 0.855985
O O13 0.379741 0.450703 0.232722
O O14 0.628621 0.313192 0.064465
O O15 0.000000 0.500000 0.000000
O O16 0.138300 0.727845 0.120207
O O17 0.500000 0.500000 0.000000
#
# Coordination Sequence:
#
# PCOD8001848 Si02
#       8
#     2   2   2   2   2   2   2   2
#     4  10  20  34  62  93 121 154 202 253 304 381
#     4   9  22  36  59  92 133 154 197 255 310 391
#     4  10  22  41  67  89 128 165 203 266 306 364
#     4  10  21  39  61  88 123 165 215 258 300 361
#     4  10  20  37  58  95 127 162 196 244 326 375
#     4  10  23  43  63  96 125 160 211 259 313 373
#     4  11  26  44  64  89 125 168 216 260 306 372
#     4  10  20  34  57  89 119 162 200 255 309 358
#
# _framework density 23.095548000000001
#
# number of rings (size 3 to 8) (size 9 to 14) (size 15 to 20)
#    0.000    2.000    1.250    1.500    7.000    4.000 
#    0.000    0.000    0.000    0.000    0.000    0.000 
#    0.000    0.000    0.000    0.000    0.000    0.000 
#
# Total GULP energy -198271.337608 kJ/mol
# GULP energy per Si atom -12391.958600 kJ/mol
# Density = 2.304298 g / cm^3
# Si number density = 23.095548 Si / 1000 Ang^3
#
#
#
# Elastic Constant Matrix: (Units=GPa)
#
#
# Indices 1 2 3 4 5 6 
#
# 1 71.8938 0.2588 28.6865 17.2953 11.5771 -7.0943
# 2 0.2588 56.6290 13.3655 14.1097 16.8394 -0.3174
# 3 28.6865 13.3655 98.8059 18.1481 9.4289 -10.3852
# 4 17.2953 14.1097 18.1481 37.1896 -1.0205 -1.7957
# 5 11.5771 16.8394 9.4289 -1.0205 30.8765 -0.9428
# 6 -7.0943 -0.3174 -10.3852 -1.7957 -0.9428 33.0734
#
#
#
# Elastic Compliance Matrix: (Units=1/GPa)
#
#
# Indices 1 2 3 4 5 6 
#
# 1 0.019452 0.006113 -0.003490 -0.009820 -0.009815 0.002322
# 2 0.006113 0.025952 -0.001437 -0.012440 -0.016419 -0.000034
# 3 -0.003490 -0.001437 0.012509 -0.003844 -0.001766 0.002906
# 4 -0.009820 -0.012440 -0.003844 0.038357 0.012878 -0.000983
# 5 -0.009815 -0.016419 -0.001766 0.012878 0.045962 -0.000808
# 6 0.002322 -0.000034 0.002906 -0.000983 -0.000808 0.031570
#
#
# Mechanical properties :
#
#
# Convention : Reuss Voigt Hill
#
# Bulk Modulus (GPa) = 16.58804 34.66115 25.62460
# Shear Modulus (GPa) = 26.10629 32.56242 29.33435
#
# Velocity S-wave (km/s) = 3.36573 3.75894 3.56775
# Velocity P-wave (km/s) = 4.72251 5.82063 5.30009
#
# Compressibility (1/GPa) = 0.06028440
#
# Stress axis : x y z
#
# Youngs Moduli (GPa) = 51.40845 38.53282 79.94557
#
# Poissons Ratio (x) = -0.23556 0.27902
# Poissons Ratio (y) = -0.31428 0.11490
# Poissons Ratio (z) = 0.17942 0.05538
#
# Static dielectric constant tensor:
#      x y z
#    x 4.672520 -0.007480 0.264060 
#    y -0.007480 4.536430 -0.018180 
#    z 0.264060 -0.018180 4.003530 
# 
# 
# High freq. dielectric constant tensor:
#      x y z
#    x 1.929140 -0.001160 0.006830 
#    y -0.001160 1.913090 0.012510 
#    z 0.006830 0.012510 1.889350 
# 
# From -- ./inp_files/587956.got.cif
#   From: 2010.06.25/outbox.cif.g09.slc.cpg/sg2_294_cif.got.tgz:587956.got - 2010.06.27 13:26:56.
