data_PCOD8001766
_publ_section_title
;
Structure prediction by ZEFSAII (Michael W. Deem and Ramdas Pophale) SiO2 
 PCOD8001766
Probable space group: P -1
;
_chemical_formula_sum "Si O2"
_cell_formula_units_Z 16
_cell_length_a 22.631392
_cell_length_b 22.960227
_cell_length_c 13.791925
_cell_angle_alpha 29.921335
_cell_angle_beta 149.073686
_cell_angle_gamma 167.377114
_cell_volume 776.403913
_symmetry_space_group_name_H-M "P -1"
_symmetry_group_IT_number 2
_symmetry_cell_setting 'triclinic'
loop_
_space_group_symop_operation_xyz
x,y,z
-x,-y,-z
loop_
_atom_site_type_symbol
_atom_site_label
_atom_site_fract_x
_atom_site_fract_y
_atom_site_fract_z
Si Si1 0.277821 0.048219 0.548261
Si Si2 0.278766 0.491962 0.220457
Si Si3 0.493659 0.904592 0.352865
Si Si4 0.277756 0.366797 0.592302
Si Si5 0.278794 0.925651 0.919493
Si Si6 0.040905 0.720205 0.193863
Si Si7 0.506430 0.331694 0.938536
Si Si8 0.959181 0.406731 0.425604
O O1 0.233514 0.902957 0.773455
O O2 0.000042 0.863914 0.408411
O O3 0.359973 0.068443 0.532311
O O4 0.500047 0.342885 0.471487
O O5 0.233475 0.345803 0.444776
O O6 0.373282 0.524803 0.204544
O O7 0.999984 0.306654 0.079978
O O8 0.499978 0.782306 0.153016
O O9 0.241264 0.620877 0.467895
O O10 0.373282 0.880867 0.136360
O O11 0.707902 0.168437 0.341868
O O12 0.359931 0.309163 0.809991
O O13 0.999982 0.578663 0.263982
O O14 0.116455 0.742001 0.374463
O O15 0.758911 0.531855 0.074519
O O16 0.292320 0.029311 0.065470
#
# Coordination Sequence:
#
# PCOD8001766 Si02
#       8
#     2   2   2   2   2   2   2   2
#     4  10  22  38  56  84 120 154 190 232 272 325
#     4  10  20  34  55  87 120 147 184 229 279 340
#     4  12  21  37  63  84 113 155 192 226 283 343
#     4  10  22  38  56  84 120 154 190 232 272 325
#     4  10  20  34  55  87 120 147 184 229 279 340
#     4  11  24  40  60  88 116 142 182 239 295 343
#     4  12  21  37  63  84 113 155 192 226 283 343
#     4  11  24  40  60  88 116 142 182 239 295 343
#
# _framework density 20.60783
#
# number of rings (size 3 to 8) (size 9 to 14) (size 15 to 20)
#    0.000    1.250    0.000    7.500    0.000    2.000 
#    0.000   10.000    0.000   15.000    0.000    0.000 
#    0.000    0.000    0.000    0.000    0.000    0.000 
#
# Total GULP energy -198489.584605 kJ/mol
# GULP energy per Si atom -12405.599038 kJ/mol
# Density = 2.056093 g / cm^3
# Si number density = 20.607830 Si / 1000 Ang^3
#
#
#
# Elastic Constant Matrix: (Units=GPa)
#
#
# Indices 1 2 3 4 5 6 
#
# 1 100.5366 32.3215 38.2022 8.7494 9.1046 15.9370
# 2 32.3215 133.7034 28.9829 12.5887 3.9672 18.8077
# 3 38.2022 28.9829 83.8887 7.2410 11.8140 7.6195
# 4 8.7494 12.5887 7.2410 33.5199 6.1738 2.2017
# 5 9.1046 3.9672 11.8140 6.1738 23.8892 7.6800
# 6 15.9370 18.8077 7.6195 2.2017 7.6800 35.4176
#
#
#
# Elastic Compliance Matrix: (Units=1/GPa)
#
#
# Indices 1 2 3 4 5 6 
#
# 1 0.013051 -0.001400 -0.004886 -0.001441 -0.000721 -0.003832
# 2 -0.001400 0.009043 -0.002187 -0.002681 0.002088 -0.003988
# 3 -0.004886 -0.002187 0.015633 -0.000288 -0.005843 0.001282
# 4 -0.001441 -0.002681 -0.000288 0.032609 -0.007874 0.001814
# 5 -0.000721 0.002088 -0.005843 -0.007874 0.049880 -0.009854
# 6 -0.003832 -0.003988 0.001282 0.001814 -0.009854 0.033825
#
#
# Mechanical properties :
#
#
# Convention : Reuss Voigt Hill
#
# Bulk Modulus (GPa) = 48.12051 57.46023 52.79037
# Shear Modulus (GPa) = 28.10334 33.14016 30.62175
#
# Velocity S-wave (km/s) = 3.69687 4.01451 3.85896
# Velocity P-wave (km/s) = 6.45164 7.03076 6.74742
#
# Compressibility (1/GPa) = 0.02078116
#
# Stress axis : x y z
#
# Youngs Moduli (GPa) = 76.62015 110.58008 63.96889
#
# Poissons Ratio (x) = 0.15479 0.31254
# Poissons Ratio (y) = 0.10725 0.13992
# Poissons Ratio (z) = 0.37436 0.24188
#
# Static dielectric constant tensor:
#      x y z
#    x 3.579140 0.170760 -0.127380 
#    y 0.170760 3.865350 0.116290 
#    z -0.127380 0.116290 3.675540 
# 
# 
# High freq. dielectric constant tensor:
#      x y z
#    x 1.791900 0.011440 -0.000970 
#    y 0.011440 1.827140 0.007630 
#    z -0.000970 0.007630 1.792510 
# 
# From -- ./inp_files/439296.got.cif
#   From: 2010.06.25/outbox.cif.g09.slc.cpg/sg2_220_cif.got.tgz:439296.got - 2010.06.27 13:26:56.
