data_PCOD8001494
_publ_section_title
;
Structure prediction by ZEFSAII (Michael W. Deem and Ramdas Pophale) SiO2 
 PCOD8001494
Probable space group: P -1
;
_chemical_formula_sum "Si O2"
_cell_formula_units_Z 16
_cell_length_a 15.477764
_cell_length_b 14.725104
_cell_length_c 17.876782
_cell_angle_alpha 159.657291
_cell_angle_beta 140.028518
_cell_angle_gamma 51.350214
_cell_volume 825.346169
_symmetry_space_group_name_H-M "P -1"
_symmetry_group_IT_number 2
_symmetry_cell_setting 'triclinic'
loop_
_space_group_symop_operation_xyz
x,y,z
-x,-y,-z
loop_
_atom_site_type_symbol
_atom_site_label
_atom_site_fract_x
_atom_site_fract_y
_atom_site_fract_z
Si Si1 0.805695 0.268344 0.512518
Si Si2 0.651200 0.219431 0.228878
Si Si3 0.941949 0.369981 0.942419
Si Si4 0.507279 0.787562 0.689772
Si Si5 0.748535 0.705702 0.100800
Si Si6 0.446595 0.867823 0.280085
Si Si7 0.296435 0.221638 0.704311
Si Si8 0.549968 0.677406 0.470362
O O1 0.794590 0.294266 0.435166
O O2 0.644571 0.186057 0.375999
O O3 0.852566 0.009115 0.364449
O O4 0.925273 0.557892 0.853916
O O5 0.657033 0.524938 0.443159
O O6 0.500000 0.000000 0.000000
O O7 0.652980 0.047805 0.022520
O O8 0.861716 0.022797 0.615909
O O9 0.832086 0.499384 0.002752
O O10 0.000000 0.500000 0.000000
O O11 0.500000 0.500000 0.500000
O O12 0.528613 0.821385 0.642461
O O13 0.694759 0.774720 0.197676
O O14 0.606894 0.562173 0.843728
O O15 0.581597 0.866724 0.319765
O O16 0.500000 0.000000 0.500000
O O17 0.382738 0.074382 0.356414
O O18 0.318467 0.543023 0.944175
#
# Coordination Sequence:
#
# PCOD8001494 Si02
#       8
#     2   2   2   2   2   2   2   2
#     4  11  21  36  54  85 126 161 194 236 301 366
#     4  10  20  33  51  82 113 155 192 243 295 347
#     4  12  24  37  58  89 127 167 201 242 305 371
#     4  11  19  35  55  85 121 155 198 244 302 356
#     4  12  21  38  57  88 128 159 199 242 300 369
#     4  11  23  39  63  87 119 159 205 259 301 350
#     4  11  23  39  58  89 120 159 203 244 310 355
#     4  12  20  34  60  83 121 150 196 251 298 355
#
# _framework density 19.385805000000001
#
# number of rings (size 3 to 8) (size 9 to 14) (size 15 to 20)
#    0.000    0.750    8.750    1.875    0.000    0.000 
#    0.000    0.000    0.000    0.750    0.000    4.375 
#    0.000    0.000    0.000    0.000    0.000    0.000 
#
# Total GULP energy -198298.996784 kJ/mol
# GULP energy per Si atom -12393.687299 kJ/mol
# Density = 1.934168 g / cm^3
# Si number density = 19.385805 Si / 1000 Ang^3
#
#
#
# Elastic Constant Matrix: (Units=GPa)
#
#
# Indices 1 2 3 4 5 6 
#
# 1 79.8498 30.1022 40.0452 -8.9777 -27.0579 16.2051
# 2 30.1022 107.7181 57.2497 6.3676 -7.3849 24.9776
# 3 40.0452 57.2497 165.1693 -5.3538 -14.2945 23.0263
# 4 -8.9777 6.3676 -5.3538 47.0510 11.2889 -6.3769
# 5 -27.0579 -7.3849 -14.2945 11.2889 33.9973 -1.7940
# 6 16.2051 24.9776 23.0263 -6.3769 -1.7940 28.1559
#
#
#
# Elastic Compliance Matrix: (Units=1/GPa)
#
#
# Indices 1 2 3 4 5 6 
#
# 1 0.020925 -0.001839 -0.002035 -0.000717 0.015218 -0.007941
# 2 -0.001839 0.014027 -0.003095 -0.004199 0.001163 -0.009731
# 3 -0.002035 -0.003095 0.008058 0.000406 0.000828 -0.002528
# 4 -0.000717 -0.004199 0.000406 0.025145 -0.009191 0.008915
# 5 0.015218 0.001163 0.000828 -0.009191 0.044666 -0.009703
# 6 -0.007941 -0.009731 -0.002528 0.008915 -0.009703 0.052188
#
#
# Mechanical properties :
#
#
# Convention : Reuss Voigt Hill
#
# Bulk Modulus (GPa) = 34.39790 67.50348 50.95069
# Shear Modulus (GPa) = 26.50602 36.86350 31.68476
#
# Velocity S-wave (km/s) = 3.70170 4.36543 4.04720
# Velocity P-wave (km/s) = 6.00437 7.76569 6.94113
#
# Compressibility (1/GPa) = 0.02907154
#
# Stress axis : x y z
#
# Youngs Moduli (GPa) = 47.78974 71.29349 124.10387
#
# Poissons Ratio (x) = 0.13111 0.25256
# Poissons Ratio (y) = 0.08789 0.38408
# Poissons Ratio (z) = 0.09726 0.22064
#
# Static dielectric constant tensor:
#      x y z
#    x 3.593820 0.102990 -0.515960 
#    y 0.102990 3.933180 0.137340 
#    z -0.515960 0.137340 4.021800 
# 
# 
# High freq. dielectric constant tensor:
#      x y z
#    x 1.727890 0.017140 -0.041760 
#    y 0.017140 1.747890 0.007610 
#    z -0.041760 0.007610 1.762950 
# 
# From -- ./inp_files/428494.got.cif
#   From: 2010.06.25/outbox.cif.g09.slc.cpg/sg2_215_cif.got.tgz:428494.got - 2010.06.27 13:26:56.
