data_PCOD8001117
_publ_section_title
;
Structure prediction by ZEFSAII (Michael W. Deem and Ramdas Pophale) SiO2 
 PCOD8001117
Probable space group: P -1
;
_chemical_formula_sum "Si O2"
_cell_formula_units_Z 16
_cell_length_a 10.172026
_cell_length_b 11.375262
_cell_length_c 14.266228
_cell_angle_alpha 31.622101
_cell_angle_beta 100.709351
_cell_angle_gamma 113.355384
_cell_volume 754.072584
_symmetry_space_group_name_H-M "P -1"
_symmetry_group_IT_number 2
_symmetry_cell_setting 'triclinic'
loop_
_space_group_symop_operation_xyz
x,y,z
-x,-y,-z
loop_
_atom_site_type_symbol
_atom_site_label
_atom_site_fract_x
_atom_site_fract_y
_atom_site_fract_z
Si Si1 0.915432 0.455305 0.776941
Si Si2 0.009345 0.283636 0.586068
Si Si3 0.282507 0.119269 0.270041
Si Si4 0.318308 0.531097 0.129317
Si Si5 0.574024 0.446623 0.314273
Si Si6 0.251597 0.724799 0.682019
Si Si7 0.860391 0.920942 0.105775
Si Si8 0.551729 0.071493 0.260446
O O1 0.917743 0.596711 0.584926
O O2 0.834723 0.546347 0.781448
O O3 0.080327 0.507316 0.799792
O O4 0.824767 0.154707 0.956108
O O5 0.109786 0.178807 0.723906
O O6 0.000000 0.500000 0.500000
O O7 0.846859 0.042724 0.712099
O O8 0.278365 0.372535 0.133637
O O9 0.439400 0.185453 0.196409
O O10 0.262248 0.966569 0.466091
O O11 0.431676 0.486064 0.242100
O O12 0.393387 0.827341 0.906380
O O13 0.630099 0.358716 0.289466
O O14 0.708894 0.703531 0.191943
O O15 0.529982 0.233527 0.534781
O O16 0.299034 0.810621 0.735585
O O17 0.000000 0.000000 0.000000
#
# Coordination Sequence:
#
# PCOD8001117 Si02
#       8
#     2   2   2   2   2   2   2   2
#     4  11  27  44  63 105 137 173 221 278 333 396
#     4  11  23  43  70  99 131 172 226 278 326 387
#     4  10  21  40  68 100 132 174 223 278 326 396
#     4  12  26  41  65 103 139 175 217 274 346 389
#     4  11  23  44  68  95 134 171 223 283 321 396
#     4  10  19  41  67  94 134 168 225 273 326 389
#     4  12  24  43  73  96 126 176 228 272 325 397
#     4  11  22  39  68  99 131 176 224 267 335 391
#
# _framework density 21.218116999999999
#
# number of rings (size 3 to 8) (size 9 to 14) (size 15 to 20)
#    0.000    1.000    5.000    2.625    3.500    5.000 
#    0.000    1.250    0.000    0.000    0.000    0.000 
#    0.000    0.000    0.000    0.000    0.000    0.000 
#
# Total GULP energy -198413.691974 kJ/mol
# GULP energy per Si atom -12400.855748 kJ/mol
# Density = 2.116982 g / cm^3
# Si number density = 21.218117 Si / 1000 Ang^3
#
#
#
# Elastic Constant Matrix: (Units=GPa)
#
#
# Indices 1 2 3 4 5 6 
#
# 1 66.8275 16.5819 26.1491 1.6475 -7.2580 -1.4418
# 2 16.5819 73.0166 20.4201 -14.6111 -9.4717 11.6475
# 3 26.1491 20.4201 93.1443 -6.6144 -9.3189 0.9998
# 4 1.6475 -14.6111 -6.6144 28.9525 2.5363 -5.6651
# 5 -7.2580 -9.4717 -9.3189 2.5363 28.7333 5.1026
# 6 -1.4418 11.6475 0.9998 -5.6651 5.1026 23.2905
#
#
#
# Elastic Compliance Matrix: (Units=1/GPa)
#
#
# Indices 1 2 3 4 5 6 
#
# 1 0.017889 -0.003622 -0.004313 -0.003649 0.001929 0.001794
# 2 -0.003622 0.018592 -0.001914 0.006905 0.005578 -0.008982
# 3 -0.004313 -0.001914 0.012729 0.002025 0.002202 0.000154
# 4 -0.003649 0.006905 0.002025 0.040226 -0.002714 0.006613
# 5 0.001929 0.005578 0.002202 -0.002714 0.040257 -0.012245
# 6 0.001794 -0.008982 0.000154 0.006613 -0.012245 0.051824
#
#
# Mechanical properties :
#
#
# Convention : Reuss Voigt Hill
#
# Bulk Modulus (GPa) = 33.88696 39.92121 36.90408
# Shear Modulus (GPa) = 23.69086 27.51776 25.60431
#
# Velocity S-wave (km/s) = 3.34509 3.60516 3.47755
# Velocity P-wave (km/s) = 5.56102 6.01540 5.79267
#
# Compressibility (1/GPa) = 0.02950988
#
# Stress axis : x y z
#
# Youngs Moduli (GPa) = 55.90132 53.78761 78.56100
#
# Poissons Ratio (x) = 0.19484 0.33886
# Poissons Ratio (y) = 0.20249 0.15037
# Poissons Ratio (z) = 0.24112 0.10295
#
# Static dielectric constant tensor:
#      x y z
#    x 3.742690 0.232030 0.010040 
#    y 0.232030 3.834750 -0.088650 
#    z 0.010040 -0.088650 4.131300 
# 
# 
# High freq. dielectric constant tensor:
#      x y z
#    x 1.812520 0.019910 0.000900 
#    y 0.019910 1.822190 -0.005640 
#    z 0.000900 -0.005640 1.851810 
# 
# From -- ./inp_files/272862.got.cif
#   From: 2010.06.25/outbox.cif.g09.slc.cpg/sg2_137_cif.got.tgz:272862.got - 2010.06.27 13:26:56.
