data_PCOD8001409
_publ_section_title
;
Structure prediction by ZEFSAII (Michael W. Deem and Ramdas Pophale) SiO2 
 PCOD8001409
Probable space group: P -1
;
_chemical_formula_sum "Si O2"
_cell_formula_units_Z 16
_cell_length_a 8.382738
_cell_length_b 13.395663
_cell_length_c 13.712284
_cell_angle_alpha 147.796992
_cell_angle_beta 64.164184
_cell_angle_gamma 112.048514
_cell_volume 738.492118
_symmetry_space_group_name_H-M "P -1"
_symmetry_group_IT_number 2
_symmetry_cell_setting 'triclinic'
loop_
_space_group_symop_operation_xyz
x,y,z
-x,-y,-z
loop_
_atom_site_type_symbol
_atom_site_label
_atom_site_fract_x
_atom_site_fract_y
_atom_site_fract_z
Si Si1 0.455624 0.097633 0.452088
Si Si2 0.800662 0.137794 0.275072
Si Si3 0.484237 0.175081 0.080750
Si Si4 0.227463 0.673592 0.749970
Si Si5 0.055962 0.204539 0.933510
Si Si6 0.243855 0.012179 0.264221
Si Si7 0.836230 0.698070 0.641704
Si Si8 0.581964 0.704168 0.174218
O O1 0.621048 0.183265 0.418358
O O2 0.275238 0.093693 0.431500
O O3 0.423664 0.249072 0.670777
O O4 0.485845 0.882357 0.298818
O O5 0.768454 0.139585 0.167345
O O6 0.955106 0.289389 0.384819
O O7 0.869518 0.938895 0.126010
O O8 0.597873 0.338502 0.240483
O O9 0.280761 0.243530 0.182967
O O10 0.500000 0.000000 0.000000
O O11 0.580497 0.118665 0.907454
O O12 0.215870 0.512551 0.541188
O O13 0.062665 0.660295 0.857539
O O14 0.214760 0.313681 0.928614
O O15 0.937075 0.108408 0.799880
O O16 0.231724 0.179322 0.328958
O O17 0.500000 0.500000 0.000000
#
# Coordination Sequence:
#
# PCOD8001409 Si02
#       8
#     2   2   2   2   2   2   2   2
#     4  10  22  42  66  86 118 158 195 248 302 356
#     4  10  20  35  55  86 119 161 192 231 299 354
#     4   9  18  33  51  73 116 160 189 225 280 350
#     4  11  20  33  55  88 122 153 195 240 289 347
#     4   9  21  38  61  84 118 160 195 243 293 352
#     4   9  19  39  58  83 117 157 198 233 300 355
#     4  10  20  32  52  86 124 158 189 244 280 348
#     4  10  23  44  65  89 115 151 203 252 300 352
#
# _framework density 21.665769999999998
#
# number of rings (size 3 to 8) (size 9 to 14) (size 15 to 20)
#    0.000    2.250    0.000    3.375    1.750    2.500 
#    6.750    0.625    0.000    0.000    0.000    0.000 
#    0.000    0.000    0.000    0.000    0.000    0.000 
#
# Total GULP energy -198215.461753 kJ/mol
# GULP energy per Si atom -12388.466360 kJ/mol
# Density = 2.161646 g / cm^3
# Si number density = 21.665770 Si / 1000 Ang^3
#
#
#
# Elastic Constant Matrix: (Units=GPa)
#
#
# Indices 1 2 3 4 5 6 
#
# 1 83.1089 47.7740 35.9768 -16.3304 14.7412 2.9521
# 2 47.7740 86.4626 38.3899 -16.7437 6.1078 27.5830
# 3 35.9768 38.3899 101.3455 -5.3133 15.6280 10.3736
# 4 -16.3304 -16.7437 -5.3133 29.3897 2.5407 4.8685
# 5 14.7412 6.1078 15.6280 2.5407 28.9004 -8.1764
# 6 2.9521 27.5830 10.3736 4.8685 -8.1764 31.1692
#
#
#
# Elastic Compliance Matrix: (Units=1/GPa)
#
#
# Indices 1 2 3 4 5 6 
#
# 1 0.021524 -0.011885 -0.002918 0.003859 -0.005104 0.007508
# 2 -0.011885 0.035293 -0.002678 0.019895 -0.011712 -0.035396
# 3 -0.002918 -0.002678 0.013222 0.000333 -0.006088 -0.003403
# 4 0.003859 0.019895 0.000333 0.054594 -0.020179 -0.031903
# 5 -0.005104 -0.011712 -0.006088 -0.020179 0.053230 0.029989
# 6 0.007508 -0.035396 -0.003403 -0.031903 0.029989 0.076678
#
#
# Mechanical properties :
#
#
# Convention : Reuss Voigt Hill
#
# Bulk Modulus (GPa) = 28.50791 57.24426 42.87608
# Shear Modulus (GPa) = 16.60047 27.81028 22.20537
#
# Velocity S-wave (km/s) = 2.77105 3.58663 3.20489
# Velocity P-wave (km/s) = 4.83993 6.60536 5.79032
#
# Compressibility (1/GPa) = 0.03507799
#
# Stress axis : x y z
#
# Youngs Moduli (GPa) = 46.45913 28.33390 75.63057
#
# Poissons Ratio (x) = 0.33674 0.22070
# Poissons Ratio (y) = 0.55215 0.20255
# Poissons Ratio (z) = 0.13557 0.07588
#
# Static dielectric constant tensor:
#      x y z
#    x 4.641970 0.330840 -0.112240 
#    y 0.330840 3.846650 -0.176140 
#    z -0.112240 -0.176140 3.936570 
# 
# 
# High freq. dielectric constant tensor:
#      x y z
#    x 1.859970 0.015830 0.010670 
#    y 0.015830 1.828070 -0.005090 
#    z 0.010670 -0.005090 1.843780 
# 
# From -- ./inp_files/346442.got.cif
#   From: 2010.06.25/outbox.cif.g09.slc.cpg/sg2_174_cif.got.tgz:346442.got - 2010.06.27 13:26:56.
