data_PCOD8001280
_publ_section_title
;
Structure prediction by ZEFSAII (Michael W. Deem and Ramdas Pophale) SiO2 
 PCOD8001280
Probable space group: P -1
;
_chemical_formula_sum "Si O2"
_cell_formula_units_Z 14
_cell_length_a 7.833893
_cell_length_b 7.458115
_cell_length_c 16.328357
_cell_angle_alpha 91.167713
_cell_angle_beta 138.036661
_cell_angle_gamma 101.659228
_cell_volume 603.151714
_symmetry_space_group_name_H-M "P -1"
_symmetry_group_IT_number 2
_symmetry_cell_setting 'triclinic'
loop_
_space_group_symop_operation_xyz
x,y,z
-x,-y,-z
loop_
_atom_site_type_symbol
_atom_site_label
_atom_site_fract_x
_atom_site_fract_y
_atom_site_fract_z
Si Si1 0.054684 0.470088 0.255132
Si Si2 0.820894 0.384426 0.007670
Si Si3 0.433974 0.769643 0.812824
Si Si4 0.591463 0.762624 0.696132
Si Si5 0.256952 0.822501 0.437789
Si Si6 0.286728 0.115984 0.789772
Si Si7 0.132827 0.009614 0.915953
O O1 0.898989 0.510508 0.119464
O O2 0.835610 0.363070 0.242895
O O3 0.256884 0.357147 0.301905
O O4 0.234170 0.666484 0.359112
O O5 0.862621 0.183814 0.040796
O O6 0.504411 0.329975 0.869481
O O7 0.000000 0.500000 0.000000
O O8 0.489372 0.672661 0.747990
O O9 0.388052 0.967855 0.772985
O O10 0.701717 0.811857 0.966854
O O11 0.327469 0.760616 0.551631
O O12 0.811020 0.976343 0.790266
O O13 0.984562 0.874312 0.347260
O O14 0.500000 0.000000 0.500000
O O15 0.265259 0.034530 0.873888
#
# Coordination Sequence:
#
# PCOD8001280 Si02
#       7
#     2   2   2   2   2   2   2
#     4  11  24  46  68  95 142 182 231 295 345 406
#     4  10  21  40  71 107 137 172 231 292 344 405
#     4  11  21  43  75 100 133 182 233 288 347 411
#     4  11  24  42  71 103 131 189 237 271 344 420
#     4  12  26  43  67  98 140 190 230 284 346 412
#     4  11  21  44  72 102 143 185 222 276 362 411
#     4  10  19  43  72  99 140 181 225 282 349 413
#
# _framework density 23.211407000000001
#
# number of rings (size 3 to 8) (size 9 to 14) (size 15 to 20)
#    0.000    1.143    5.714    1.714    0.000    6.286 
#    5.143    1.429    0.000    0.000    0.000    0.000 
#    0.000    0.000    0.000    0.000    0.000    0.000 
#
# Total GULP energy -173536.955752 kJ/mol
# GULP energy per Si atom -12395.496839 kJ/mol
# Density = 2.315858 g / cm^3
# Si number density = 23.211407 Si / 1000 Ang^3
#
#
#
# Elastic Constant Matrix: (Units=GPa)
#
#
# Indices 1 2 3 4 5 6 
#
# 1 115.5257 45.7710 47.0218 13.4012 0.1401 29.0146
# 2 45.7710 71.9589 51.6701 15.7178 0.7684 25.1536
# 3 47.0218 51.6701 180.0830 19.6226 15.0669 -1.4436
# 4 13.4012 15.7178 19.6226 34.8365 -6.9660 9.0236
# 5 0.1401 0.7684 15.0669 -6.9660 38.0240 0.5879
# 6 29.0146 25.1536 -1.4436 9.0236 0.5879 30.6955
#
#
#
# Elastic Compliance Matrix: (Units=1/GPa)
#
#
# Indices 1 2 3 4 5 6 
#
# 1 0.013713 -0.002863 -0.003081 0.000932 0.001570 -0.011065
# 2 -0.002863 0.028937 -0.007752 -0.001663 0.002517 -0.020930
# 3 -0.003081 -0.007752 0.009547 -0.004498 -0.004611 0.011125
# 4 0.000932 -0.001663 -0.004498 0.036066 0.008582 -0.010496
# 5 0.001570 0.002517 -0.004611 0.008582 0.029748 -0.006856
# 6 -0.011065 -0.020930 0.011125 -0.010496 -0.006856 0.063929
#
#
# Mechanical properties :
#
#
# Convention : Reuss Voigt Hill
#
# Bulk Modulus (GPa) = 40.31387 72.94371 56.62879
# Shear Modulus (GPa) = 22.97783 35.58486 29.28135
#
# Velocity S-wave (km/s) = 3.14974 3.91970 3.55562
# Velocity P-wave (km/s) = 5.53477 7.20968 6.42702
#
# Compressibility (1/GPa) = 0.02480536
#
# Stress axis : x y z
#
# Youngs Moduli (GPa) = 72.92110 34.55769 104.74607
#
# Poissons Ratio (x) = 0.09893 0.32272
# Poissons Ratio (y) = 0.20876 0.81203
# Poissons Ratio (z) = 0.22467 0.26790
#
# Static dielectric constant tensor:
#      x y z
#    x 4.044300 0.090940 0.082730 
#    y 0.090940 4.028160 0.154870 
#    z 0.082730 0.154870 5.202500 
# 
# 
# High freq. dielectric constant tensor:
#      x y z
#    x 1.908500 0.011220 0.005670 
#    y 0.011220 1.903230 0.008460 
#    z 0.005670 0.008460 1.933270 
# 
# From -- ./inp_files/557210.got.cif
#   From: 2010.06.25/outbox.cif.g09.slc.cpg/sg2_279_cif.got.tgz:557210.got - 2010.06.27 13:26:56.
