data_PCOD8001087
_publ_section_title
;
Structure prediction by ZEFSAII (Michael W. Deem and Ramdas Pophale) SiO2 
 PCOD8001087
Probable space group: P -1
;
_chemical_formula_sum "Si O2"
_cell_formula_units_Z 16
_cell_length_a 13.787825
_cell_length_b 8.666155
_cell_length_c 11.492869
_cell_angle_alpha 143.153453
_cell_angle_beta 67.070523
_cell_angle_gamma 102.295406
_cell_volume 746.195318
_symmetry_space_group_name_H-M "P -1"
_symmetry_group_IT_number 2
_symmetry_cell_setting 'triclinic'
loop_
_space_group_symop_operation_xyz
x,y,z
-x,-y,-z
loop_
_atom_site_type_symbol
_atom_site_label
_atom_site_fract_x
_atom_site_fract_y
_atom_site_fract_z
Si Si1 0.210964 0.882855 0.087954
Si Si2 0.726343 0.669641 0.803271
Si Si3 0.496263 0.591726 0.924394
Si Si4 0.670964 0.681600 0.278269
Si Si5 0.215587 0.591890 0.604141
Si Si6 0.034065 0.796874 0.963541
Si Si7 0.330359 0.091275 0.342306
Si Si8 0.199816 0.178446 0.909762
O O1 0.281939 0.034424 0.062051
O O2 0.224993 0.981657 0.274353
O O3 0.251162 0.575676 0.869595
O O4 0.088446 0.926546 0.124807
O O5 0.611174 0.586219 0.811208
O O6 0.805328 0.482344 0.564643
O O7 0.777803 0.626629 0.881007
O O8 0.441997 0.390780 0.751358
O O9 0.500000 0.500000 0.000000
O O10 0.432141 0.889836 0.125487
O O11 0.660267 0.898245 0.516213
O O12 0.720971 0.812756 0.227349
O O13 0.117574 0.562752 0.720913
O O14 0.321608 0.387498 0.474348
O O15 0.229519 0.891480 0.780275
O O16 0.922797 0.723323 0.016674
O O17 0.000000 0.000000 0.000000
#
# Coordination Sequence:
#
# PCOD8001087 Si02
#       8
#     2   2   2   2   2   2   2   2
#     4  10  21  42  63  91 134 156 213 267 306 375
#     4  11  22  42  66  91 126 167 209 266 317 372
#     4  11  25  42  66  96 128 165 213 267 319 371
#     4  11  23  42  65  91 133 168 208 263 315 381
#     4  10  22  40  65  94 127 160 220 255 307 389
#     4  10  19  41  65  96 126 167 211 263 312 371
#     4  10  23  42  66  89 131 172 201 267 317 368
#     4  11  23  39  66  94 131 169 209 260 321 367
#
# _framework density 21.442105000000002
#
# number of rings (size 3 to 8) (size 9 to 14) (size 15 to 20)
#    0.000    1.500    5.000    0.000    1.750    7.000 
#    2.250    4.375    0.000    0.000    0.000    0.000 
#    0.000    0.000    0.000    0.000    0.000    0.000 
#
# Total GULP energy -198226.300237 kJ/mol
# GULP energy per Si atom -12389.143765 kJ/mol
# Density = 2.139330 g / cm^3
# Si number density = 21.442105 Si / 1000 Ang^3
#
#
#
# Elastic Constant Matrix: (Units=GPa)
#
#
# Indices 1 2 3 4 5 6 
#
# 1 174.3402 35.6143 55.9671 -16.4545 20.7793 -1.2938
# 2 35.6143 45.7566 22.4552 -10.3841 -2.2477 9.2092
# 3 55.9671 22.4552 105.7930 -16.8268 23.9048 2.3659
# 4 -16.4545 -10.3841 -16.8268 31.0305 -17.1258 0.6195
# 5 20.7793 -2.2477 23.9048 -17.1258 37.3038 -11.8448
# 6 -1.2938 9.2092 2.3659 0.6195 -11.8448 33.4871
#
#
#
# Elastic Compliance Matrix: (Units=1/GPa)
#
#
# Indices 1 2 3 4 5 6 
#
# 1 0.007973 -0.005515 -0.002446 -0.000779 -0.003295 0.000846
# 2 -0.005515 0.032847 -0.004748 0.012339 0.012230 -0.004813
# 3 -0.002446 -0.004748 0.013761 -0.000185 -0.008730 -0.002846
# 4 -0.000779 0.012339 -0.000185 0.049956 0.025746 0.004772
# 5 -0.003295 0.012230 -0.008730 0.025746 0.051516 0.014872
# 6 0.000846 -0.004813 -0.002846 0.004772 0.014872 0.036592
#
#
# Mechanical properties :
#
#
# Convention : Reuss Voigt Hill
#
# Bulk Modulus (GPa) = 34.28828 61.55144 47.91986
# Shear Modulus (GPa) = 21.95090 34.48782 28.21936
#
# Velocity S-wave (km/s) = 3.20305 4.01486 3.63171
# Velocity P-wave (km/s) = 5.45024 7.08945 6.32319
#
# Compressibility (1/GPa) = 0.02916449
#
# Stress axis : x y z
#
# Youngs Moduli (GPa) = 125.42240 30.44453 72.66955
#
# Poissons Ratio (x) = 0.16789 0.17773
# Poissons Ratio (y) = 0.69165 0.34502
# Poissons Ratio (z) = 0.30675 0.14454
#
# Static dielectric constant tensor:
#      x y z
#    x 4.297630 -0.084830 0.016980 
#    y -0.084830 3.801210 -0.105710 
#    z 0.016980 -0.105710 4.157330 
# 
# 
# High freq. dielectric constant tensor:
#      x y z
#    x 1.841920 -0.021340 0.018080 
#    y -0.021340 1.828060 -0.001420 
#    z 0.018080 -0.001420 1.836640 
# 
# From -- ./inp_files/448317.got.cif
#   From: 2010.06.25/outbox.cif.g09.slc.cpg/sg2_225_cif.got.tgz:448317.got - 2010.06.27 13:26:56.
