data_PCOD8001442
_publ_section_title
;
Structure prediction by ZEFSAII (Michael W. Deem and Ramdas Pophale) SiO2 
 PCOD8001442
Probable space group: P -1
;
_chemical_formula_sum "Si O2"
_cell_formula_units_Z 14
_cell_length_a 9.180300
_cell_length_b 11.407177
_cell_length_c 18.737657
_cell_angle_alpha 35.567747
_cell_angle_beta 131.693720
_cell_angle_gamma 137.097822
_cell_volume 764.989246
_symmetry_space_group_name_H-M "P -1"
_symmetry_group_IT_number 2
_symmetry_cell_setting 'triclinic'
loop_
_space_group_symop_operation_xyz
x,y,z
-x,-y,-z
loop_
_atom_site_type_symbol
_atom_site_label
_atom_site_fract_x
_atom_site_fract_y
_atom_site_fract_z
Si Si1 0.907320 0.368742 0.339534
Si Si2 0.395323 0.886520 0.757688
Si Si3 0.565308 0.441590 0.973743
Si Si4 0.812618 0.942489 0.791600
Si Si5 0.723269 0.711280 0.457217
Si Si6 0.892415 0.812236 0.116760
Si Si7 0.046219 0.718730 0.451646
O O1 0.718881 0.264700 0.272681
O O2 0.996635 0.637270 0.232793
O O3 0.107592 0.305622 0.421067
O O4 0.813691 0.279384 0.433262
O O5 0.649767 0.985692 0.771535
O O6 0.307352 0.068044 0.649880
O O7 0.340838 0.737412 0.886785
O O8 0.744487 0.678928 0.883633
O O9 0.367648 0.324383 0.911553
O O10 0.500000 0.500000 0.000000
O O11 0.047689 0.063085 0.848164
O O12 0.821477 0.058190 0.661400
O O13 0.500000 0.500000 0.500000
O O14 0.817130 0.710544 0.408624
O O15 0.000000 0.000000 0.000000
O O16 0.000000 0.500000 0.500000
#
# Coordination Sequence:
#
# PCOD8001442 Si02
#       7
#     2   2   2   2   2   2   2
#     4  10  21  34  57  87 112 146 196 227 293 334
#     4  11  19  38  57  86 116 144 195 238 281 343
#     4  10  20  32  55  88 111 149 191 235 283 330
#     4  11  20  36  59  86 120 146 191 244 281 336
#     4  10  22  37  57  83 114 153 191 234 290 343
#     4  12  18  33  58  87 112 148 194 238 276 333
#     4  10  21  36  57  85 115 153 188 236 291 342
#
# _framework density 18.300912
#
# number of rings (size 3 to 8) (size 9 to 14) (size 15 to 20)
#    0.857    0.571    7.143    2.143    0.000    0.571 
#    0.000    0.714    0.000    0.857    0.000    0.000 
#    0.000    0.000    0.000    0.000    0.000    0.000 
#
# Total GULP energy -173454.820489 kJ/mol
# GULP energy per Si atom -12389.630035 kJ/mol
# Density = 1.825926 g / cm^3
# Si number density = 18.300912 Si / 1000 Ang^3
#
#
#
# Elastic Constant Matrix: (Units=GPa)
#
#
# Indices 1 2 3 4 5 6 
#
# 1 51.8177 19.6886 32.9171 -10.1354 -3.5280 -1.1882
# 2 19.6886 128.9336 57.8514 -0.8232 -0.5965 1.3400
# 3 32.9171 57.8514 158.4698 -21.4724 2.2440 2.4121
# 4 -10.1354 -0.8232 -21.4724 42.7987 3.2935 0.5341
# 5 -3.5280 -0.5965 2.2440 3.2935 25.8822 -2.7563
# 6 -1.1882 1.3400 2.4121 0.5341 -2.7563 11.8280
#
#
#
# Elastic Compliance Matrix: (Units=1/GPa)
#
#
# Indices 1 2 3 4 5 6 
#
# 1 0.023420 -0.001849 -0.003859 0.003255 0.003498 0.004017
# 2 -0.001849 0.009543 -0.003368 -0.001976 0.000471 -0.000381
# 3 -0.003859 -0.003368 0.008908 0.003684 -0.002109 -0.002481
# 4 0.003255 -0.001976 0.003684 0.026243 -0.003495 -0.002200
# 5 0.003498 0.000471 -0.002109 -0.003495 0.040860 0.010408
# 6 0.004017 -0.000381 -0.002481 -0.002200 0.010408 0.088022
#
#
# Mechanical properties :
#
#
# Convention : Reuss Voigt Hill
#
# Bulk Modulus (GPa) = 42.16311 62.23727 52.20019
# Shear Modulus (GPa) = 22.41588 31.35271 26.88430
#
# Velocity S-wave (km/s) = 3.50358 4.14355 3.83693
# Velocity P-wave (km/s) = 6.28137 7.54808 6.94367
#
# Compressibility (1/GPa) = 0.02371741
#
# Stress axis : x y z
#
# Youngs Moduli (GPa) = 42.69927 104.78676 112.25376
#
# Poissons Ratio (x) = 0.19380 0.43320
# Poissons Ratio (y) = 0.07897 0.37810
# Poissons Ratio (z) = 0.16478 0.35295
#
# Static dielectric constant tensor:
#      x y z
#    x 3.156940 -0.126600 0.263860 
#    y -0.126600 3.636190 -0.163360 
#    z 0.263860 -0.163360 4.070340 
# 
# 
# High freq. dielectric constant tensor:
#      x y z
#    x 1.649950 -0.004090 0.007990 
#    y -0.004090 1.718060 -0.007250 
#    z 0.007990 -0.007250 1.735010 
# 
# From -- ./inp_files/558391.got.cif
#   From: 2010.06.25/outbox.cif.g09.slc.cpg/sg2_280_cif.got.tgz:558391.got - 2010.06.27 13:26:56.
