data_PCOD8001467
_publ_section_title
;
Structure prediction by ZEFSAII (Michael W. Deem and Ramdas Pophale) SiO2 
 PCOD8001467
Probable space group: P -1
;
_chemical_formula_sum "Si O2"
_cell_formula_units_Z 14
_cell_length_a 9.003798
_cell_length_b 9.138597
_cell_length_c 10.417060
_cell_angle_alpha 102.164541
_cell_angle_beta 115.661119
_cell_angle_gamma 56.340680
_cell_volume 642.580474
_symmetry_space_group_name_H-M "P -1"
_symmetry_group_IT_number 2
_symmetry_cell_setting 'triclinic'
loop_
_space_group_symop_operation_xyz
x,y,z
-x,-y,-z
loop_
_atom_site_type_symbol
_atom_site_label
_atom_site_fract_x
_atom_site_fract_y
_atom_site_fract_z
Si Si1 0.860844 0.410683 0.296733
Si Si2 0.591629 0.411792 0.869210
Si Si3 0.559763 0.014387 0.210268
Si Si4 0.129608 0.281463 0.139252
Si Si5 0.494645 0.757268 0.990925
Si Si6 0.085540 0.262746 0.600225
Si Si7 0.093491 0.646142 0.185902
O O1 0.637486 0.468127 0.220944
O O2 0.866647 0.585225 0.346709
O O3 0.983137 0.295498 0.197683
O O4 0.955917 0.286360 0.433380
O O5 0.647481 0.547934 0.980614
O O6 0.718141 0.341233 0.774985
O O7 0.649511 0.247756 0.957186
O O8 0.714592 0.929415 0.368263
O O9 0.344532 0.110354 0.206149
O O10 0.601076 0.140528 0.159232
O O11 0.607175 0.843949 0.109660
O O12 0.157242 0.445067 0.188088
O O13 0.060968 0.260557 0.969521
O O14 0.982179 0.254960 0.689923
#
# Coordination Sequence:
#
# PCOD8001467 Si02
#       7
#     2   2   2   2   2   2   2
#     4  10  22  40  61  85 120 165 202 233 290 368
#     4  11  20  37  59  92 119 157 190 257 288 354
#     4  11  20  37  59  92 119 157 190 257 288 354
#     4  10  20  35  61  90 116 156 202 239 292 359
#     4  10  20  32  60  88 122 148 190 242 314 326
#     4  10  22  40  61  85 120 165 202 233 290 368
#     4  10  20  35  61  90 116 156 202 239 292 359
#
# _framework density 21.787154000000001
#
# number of rings (size 3 to 8) (size 9 to 14) (size 15 to 20)
#    0.000    1.714    2.857    3.429    4.000    1.143 
#    0.000    7.143    0.000    0.000    0.000    0.000 
#    0.000    0.000    0.000    0.000    0.000    0.000 
#
# Total GULP energy -173475.182781 kJ/mol
# GULP energy per Si atom -12391.084484 kJ/mol
# Density = 2.173757 g / cm^3
# Si number density = 21.787154 Si / 1000 Ang^3
#
#
#
# Elastic Constant Matrix: (Units=GPa)
#
#
# Indices 1 2 3 4 5 6 
#
# 1 135.0585 34.6585 42.7475 -13.8821 -22.1073 -27.5143
# 2 34.6585 68.4477 30.8843 -22.6145 0.3657 -8.2657
# 3 42.7475 30.8843 89.5717 -20.5534 -20.8559 -22.5023
# 4 -13.8821 -22.6145 -20.5534 30.9789 -2.1222 7.1897
# 5 -22.1073 0.3657 -20.8559 -2.1222 28.7061 -4.0553
# 6 -27.5143 -8.2657 -22.5023 7.1897 -4.0553 41.4979
#
#
#
# Elastic Compliance Matrix: (Units=1/GPa)
#
#
# Indices 1 2 3 4 5 6 
#
# 1 0.012159 -0.005325 0.001120 0.001112 0.011535 0.008543
# 2 -0.005325 0.023192 -0.006287 0.010945 -0.008873 -0.005083
# 3 0.001120 -0.006287 0.022591 0.009462 0.019755 0.012032
# 4 0.001112 0.010945 0.009462 0.047607 0.011238 0.000898
# 5 0.011535 -0.008873 0.019755 0.011238 0.061940 0.020699
# 6 0.008543 -0.005083 0.012032 0.000898 0.020699 0.037141
#
#
# Mechanical properties :
#
#
# Convention : Reuss Voigt Hill
#
# Bulk Modulus (GPa) = 27.05665 56.62873 41.84269
# Shear Modulus (GPa) = 21.01438 32.55574 26.78506
#
# Velocity S-wave (km/s) = 3.10906 3.86976 3.51008
# Velocity P-wave (km/s) = 5.03328 6.78343 5.97281
#
# Compressibility (1/GPa) = 0.03695949
#
# Stress axis : x y z
#
# Youngs Moduli (GPa) = 82.24480 43.11787 44.26557
#
# Poissons Ratio (x) = 0.22959 -0.04960
# Poissons Ratio (y) = 0.43792 0.27830
# Poissons Ratio (z) = -0.09215 0.27109
#
# Static dielectric constant tensor:
#      x y z
#    x 3.950600 0.016750 -0.279340 
#    y 0.016750 3.860770 -0.259490 
#    z -0.279340 -0.259490 4.042960 
# 
# 
# High freq. dielectric constant tensor:
#      x y z
#    x 1.855470 -0.005790 -0.018410 
#    y -0.005790 1.838060 -0.022240 
#    z -0.018410 -0.022240 1.835190 
# 
# From -- ./inp_files/158780.got.cif
#   From: 2010.06.25/outbox.cif.g09.slc.cpg/sg2_80_cif.got.tgz:158780.got - 2010.06.27 13:26:56.
