data_PCOD8001173
_publ_section_title
;
Structure prediction by ZEFSAII (Michael W. Deem and Ramdas Pophale) SiO2 
 PCOD8001173
Probable space group: P -1
;
_chemical_formula_sum "Si O2"
_cell_formula_units_Z 14
_cell_length_a 7.578797
_cell_length_b 7.913034
_cell_length_c 21.558210
_cell_angle_alpha 39.841790
_cell_angle_beta 69.531264
_cell_angle_gamma 57.729516
_cell_volume 696.016688
_symmetry_space_group_name_H-M "P -1"
_symmetry_group_IT_number 2
_symmetry_cell_setting 'triclinic'
loop_
_space_group_symop_operation_xyz
x,y,z
-x,-y,-z
loop_
_atom_site_type_symbol
_atom_site_label
_atom_site_fract_x
_atom_site_fract_y
_atom_site_fract_z
Si Si1 0.821687 0.241470 0.280591
Si Si2 0.940763 0.277964 0.386087
Si Si3 0.708014 0.908674 0.289388
Si Si4 0.228599 0.224968 0.262241
Si Si5 0.243566 0.714772 0.041849
Si Si6 0.736505 0.382328 0.067893
Si Si7 0.276984 0.236185 0.937601
O O1 0.689610 0.567012 0.176061
O O2 0.784991 0.271612 0.351438
O O3 0.072231 0.132513 0.267828
O O4 0.754193 0.007580 0.323571
O O5 0.151305 0.270391 0.330765
O O6 0.836047 0.561912 0.362550
O O7 0.000000 0.000000 0.500000
O O8 0.464431 0.977744 0.296802
O O9 0.768773 0.074114 0.181021
O O10 0.201280 0.535976 0.151899
O O11 0.490823 0.605085 0.032453
O O12 0.155485 0.678743 0.995674
O O13 0.145762 0.063634 0.975861
O O14 0.842532 0.542246 0.053274
O O15 0.500000 0.000000 0.000000
#
# Coordination Sequence:
#
# PCOD8001173 Si02
#       7
#     2   2   2   2   2   2   2
#     4   9  21  40  57  92 123 153 206 245 289 360
#     4  10  23  43  64  90 116 151 208 254 303 366
#     4  10  19  42  63  80 128 159 183 261 301 339
#     4   9  22  40  58  92 119 156 209 239 297 366
#     4   9  15  30  49  76 117 150 186 235 273 334
#     4   8  16  28  51  79 108 156 191 215 288 346
#     4   9  16  29  53  82 117 156 191 231 283 342
#
# _framework density 20.114460999999999
#
# number of rings (size 3 to 8) (size 9 to 14) (size 15 to 20)
#    0.857    2.000    0.000    1.714    0.000    2.857 
#    5.143    2.143    0.000    0.000    0.000    0.000 
#    0.000    0.000    0.000    0.000    0.000    0.000 
#
# Total GULP energy -173475.275230 kJ/mol
# GULP energy per Si atom -12391.091088 kJ/mol
# Density = 2.006868 g / cm^3
# Si number density = 20.114461 Si / 1000 Ang^3
#
#
#
# Elastic Constant Matrix: (Units=GPa)
#
#
# Indices 1 2 3 4 5 6 
#
# 1 82.0958 32.5301 33.1045 -6.1435 4.2842 16.4647
# 2 32.5301 98.7500 71.5666 -9.5590 1.8355 13.1384
# 3 33.1045 71.5666 129.0741 -6.0738 14.0560 13.4612
# 4 -6.1435 -9.5590 -6.0738 34.1248 1.9650 1.4739
# 5 4.2842 1.8355 14.0560 1.9650 22.7332 4.8622
# 6 16.4647 13.1384 13.4612 1.4739 4.8622 35.1217
#
#
#
# Elastic Compliance Matrix: (Units=1/GPa)
#
#
# Indices 1 2 3 4 5 6 
#
# 1 0.015250 -0.003009 -0.001511 0.001909 -0.000701 -0.005428
# 2 -0.003009 0.018753 -0.009807 0.002769 0.005458 -0.002718
# 3 -0.001511 -0.009807 0.014433 0.000004 -0.007833 -0.000071
# 4 0.001909 0.002769 0.000004 0.030699 -0.002628 -0.002857
# 5 -0.000701 0.005458 -0.007833 -0.002628 0.049929 -0.005513
# 6 -0.005428 -0.002718 -0.000071 -0.002857 -0.005513 0.032944
#
#
# Mechanical properties :
#
#
# Convention : Reuss Voigt Hill
#
# Bulk Modulus (GPa) = 50.54755 64.92470 57.73612
# Shear Modulus (GPa) = 25.34776 29.91054 27.62915
#
# Velocity S-wave (km/s) = 3.55375 3.86037 3.71023
# Velocity P-wave (km/s) = 6.48254 7.22618 6.86444
#
# Compressibility (1/GPa) = 0.01978335
#
# Stress axis : x y z
#
# Youngs Moduli (GPa) = 65.57241 53.32412 69.28537
#
# Poissons Ratio (x) = 0.16045 0.10468
# Poissons Ratio (y) = 0.19730 0.67947
# Poissons Ratio (z) = 0.09907 0.52294
#
# Static dielectric constant tensor:
#      x y z
#    x 3.951580 0.369820 0.031690 
#    y 0.369820 3.814460 -0.065620 
#    z 0.031690 -0.065620 3.390380 
# 
# 
# High freq. dielectric constant tensor:
#      x y z
#    x 1.790680 0.009990 0.007780 
#    y 0.009990 1.779620 -0.004380 
#    z 0.007780 -0.004380 1.761650 
# 
# From -- ./inp_files/606561.got.cif
#   From: 2010.06.25/outbox.cif.g09.slc.cpg/sg2_304_cif.got.tgz:606561.got - 2010.06.27 13:26:56.
