data_PCOD8001260
_publ_section_title
;
Structure prediction by ZEFSAII (Michael W. Deem and Ramdas Pophale) SiO2 
 PCOD8001260
Probable space group: P -1
;
_chemical_formula_sum "Si O2"
_cell_formula_units_Z 14
_cell_length_a 11.928428
_cell_length_b 8.523603
_cell_length_c 15.775303
_cell_angle_alpha 72.532829
_cell_angle_beta 64.872000
_cell_angle_gamma 128.032256
_cell_volume 704.524079
_symmetry_space_group_name_H-M "P -1"
_symmetry_group_IT_number 2
_symmetry_cell_setting 'triclinic'
loop_
_space_group_symop_operation_xyz
x,y,z
-x,-y,-z
loop_
_atom_site_type_symbol
_atom_site_label
_atom_site_fract_x
_atom_site_fract_y
_atom_site_fract_z
Si Si1 0.269512 0.736064 0.882804
Si Si2 0.030374 0.357165 0.556603
Si Si3 0.500319 0.940186 0.412111
Si Si4 0.364471 0.357044 0.179416
Si Si5 0.794073 0.664096 0.931580
Si Si6 0.606524 0.415482 0.699185
Si Si7 0.340992 0.223725 0.660855
O O1 0.382884 0.811505 0.741033
O O2 0.433610 0.059811 0.824722
O O3 0.278774 0.595018 0.966139
O O4 0.000000 0.500000 0.000000
O O5 0.217310 0.583483 0.539022
O O6 0.134994 0.350967 0.455260
O O7 0.000000 0.500000 0.500000
O O8 0.781860 0.984489 0.727671
O O9 0.671820 0.976230 0.339256
O O10 0.500000 0.000000 0.500000
O O11 0.283713 0.401825 0.130152
O O12 0.326372 0.403665 0.271168
O O13 0.651142 0.642645 0.032385
O O14 0.082706 0.016534 0.788679
O O15 0.473858 0.386448 0.681694
O O16 0.500000 0.500000 0.500000
#
# Coordination Sequence:
#
# PCOD8001260 Si02
#       7
#     2   2   2   2   2   2   2
#     4  10  19  43  63  89 128 161 210 263 319 364
#     4  10  21  42  63  87 131 166 205 262 318 376
#     4  10  22  39  64  95 115 159 217 259 305 375
#     4  11  24  39  59  97 127 164 215 253 326 382
#     4  11  22  41  61  85 134 169 203 271 317 380
#     4  10  22  39  63  91 121 166 216 260 311 381
#     4  10  21  40  60  86 123 164 208 265 316 363
#
# _framework density 19.871572
#
# number of rings (size 3 to 8) (size 9 to 14) (size 15 to 20)
#    0.000    2.000    2.857    3.857    0.000    4.571 
#    7.714    0.000    0.000    0.000    0.000    0.000 
#    0.000    0.000    0.000    0.000    0.000    0.000 
#
# Total GULP energy -173455.356730 kJ/mol
# GULP energy per Si atom -12389.668338 kJ/mol
# Density = 1.982634 g / cm^3
# Si number density = 19.871572 Si / 1000 Ang^3
#
#
#
# Elastic Constant Matrix: (Units=GPa)
#
#
# Indices 1 2 3 4 5 6 
#
# 1 141.9210 36.2647 56.9778 6.1212 6.7518 16.7418
# 2 36.2647 105.5409 46.3829 25.9867 3.6017 8.5807
# 3 56.9778 46.3829 126.0410 -0.7727 6.0787 11.6528
# 4 6.1212 25.9867 -0.7727 30.6433 -1.7702 2.5968
# 5 6.7518 3.6017 6.0787 -1.7702 54.3770 -2.9572
# 6 16.7418 8.5807 11.6528 2.5968 -2.9572 10.8984
#
#
#
# Elastic Compliance Matrix: (Units=1/GPa)
#
#
# Indices 1 2 3 4 5 6 
#
# 1 0.009963 -0.001055 -0.002970 -0.000269 -0.001477 -0.011634
# 2 -0.001055 0.015429 -0.005022 -0.012853 -0.000875 -0.002332
# 3 -0.002970 -0.005022 0.011704 0.005573 -0.000726 -0.005523
# 4 -0.000269 -0.012853 0.005573 0.044283 0.001399 -0.005597
# 5 -0.001477 -0.000875 -0.000726 0.001399 0.019227 0.008617
# 6 -0.011634 -0.002332 -0.005523 -0.005597 0.008617 0.121041
#
#
# Mechanical properties :
#
#
# Convention : Reuss Voigt Hill
#
# Bulk Modulus (GPa) = 52.62786 72.52818 62.57802
# Shear Modulus (GPa) = 20.31911 34.77561 27.54736
#
# Velocity S-wave (km/s) = 3.20116 4.18786 3.72730
# Velocity P-wave (km/s) = 6.34072 7.74351 7.07696
#
# Compressibility (1/GPa) = 0.01900134
#
# Stress axis : x y z
#
# Youngs Moduli (GPa) = 100.37591 64.81463 85.43825
#
# Poissons Ratio (x) = 0.06840 0.25376
# Poissons Ratio (y) = 0.10593 0.42904
# Poissons Ratio (z) = 0.29813 0.32548
#
# Static dielectric constant tensor:
#      x y z
#    x 3.716250 0.059080 -0.001280 
#    y 0.059080 3.221110 0.003680 
#    z -0.001280 0.003680 3.863420 
# 
# 
# High freq. dielectric constant tensor:
#      x y z
#    x 1.792060 0.009670 -0.001050 
#    y 0.009670 1.740710 -0.002720 
#    z -0.001050 -0.002720 1.795560 
# 
# From -- ./inp_files/199015.got.cif
#   From: 2010.06.25/outbox.cif.g09.slc.cpg/sg2_100_cif.got.tgz:199015.got - 2010.06.27 13:26:56.
