data_PCOD8001422
_publ_section_title
;
Structure prediction by ZEFSAII (Michael W. Deem and Ramdas Pophale) SiO2 
 PCOD8001422
Probable space group: P -1
;
_chemical_formula_sum "Si O2"
_cell_formula_units_Z 12
_cell_length_a 12.310728
_cell_length_b 10.128424
_cell_length_c 5.282914
_cell_angle_alpha 58.792012
_cell_angle_beta 122.056491
_cell_angle_gamma 117.835050
_cell_volume 460.452623
_symmetry_space_group_name_H-M "P -1"
_symmetry_group_IT_number 2
_symmetry_cell_setting 'triclinic'
loop_
_space_group_symop_operation_xyz
x,y,z
-x,-y,-z
loop_
_atom_site_type_symbol
_atom_site_label
_atom_site_fract_x
_atom_site_fract_y
_atom_site_fract_z
Si Si1 0.192925 0.355389 0.259710
Si Si2 0.236912 0.018735 0.647813
Si Si3 0.538752 0.860068 0.829537
Si Si4 0.109810 0.700591 0.032696
Si Si5 0.350118 0.399778 0.918453
Si Si6 0.248896 0.725259 0.685728
O O1 0.281209 0.420830 0.547920
O O2 0.174328 0.165973 0.376589
O O3 0.264224 0.443890 0.002078
O O4 0.046970 0.378600 0.100456
O O5 0.243495 0.912331 0.511462
O O6 0.145838 0.894283 0.861665
O O7 0.388184 0.078939 0.877626
O O8 0.402398 0.721441 0.854153
O O9 0.500000 0.000000 0.500000
O O10 0.638489 0.783996 0.860821
O O11 0.165844 0.648038 0.414154
O O12 0.183306 0.632595 0.955425
O O13 0.500000 0.500000 0.000000
#
# Coordination Sequence:
#
# PCOD8001422 Si02
#       6
#     2   2   2   2   2   2
#     4  11  22  39  61  84 120 160 202 239 296 359
#     4   9  21  31  56  92 123 155 191 246 298 343
#     4  11  19  39  61  93 120 155 200 249 293 347
#     4  10  21  33  55  88 129 152 191 240 304 352
#     4  11  26  43  64  86 117 159 202 249 296 346
#     4  10  20  32  53  86 127 151 190 236 303 342
#
# _framework density 26.061313999999999
#
# number of rings (size 3 to 8) (size 9 to 14) (size 15 to 20)
#    1.000    0.667    1.667    3.500    2.333    4.667 
#    0.000    0.000    0.000    6.000    0.000    0.000 
#    0.000    0.000    0.000    0.000    0.000    0.000 
#
# Total GULP energy -148795.789672 kJ/mol
# GULP energy per Si atom -12399.649139 kJ/mol
# Density = 2.600200 g / cm^3
# Si number density = 26.061314 Si / 1000 Ang^3
#
#
#
# Elastic Constant Matrix: (Units=GPa)
#
#
# Indices 1 2 3 4 5 6 
#
# 1 216.4728 52.7643 80.2812 20.1803 -5.9515 3.2453
# 2 52.7643 72.5460 48.2245 21.4161 5.3396 21.8048
# 3 80.2812 48.2245 148.1231 30.3013 -18.4680 11.8946
# 4 20.1803 21.4161 30.3013 48.2611 2.7209 4.4270
# 5 -5.9515 5.3396 -18.4680 2.7209 40.7933 6.8415
# 6 3.2453 21.8048 11.8946 4.4270 6.8415 54.2018
#
#
#
# Elastic Compliance Matrix: (Units=1/GPa)
#
#
# Indices 1 2 3 4 5 6 
#
# 1 0.006347 -0.003528 -0.002487 0.000331 -0.000022 0.001561
# 2 -0.003528 0.023394 -0.004581 -0.005133 -0.004091 -0.007259
# 3 -0.002487 -0.004581 0.011242 -0.004231 0.005752 -0.000856
# 4 0.000331 -0.005133 -0.004231 0.025575 -0.003116 0.001278
# 5 -0.000022 -0.004091 0.005752 -0.003116 0.028351 -0.002939
# 6 0.001561 -0.007259 -0.000856 0.001278 -0.002939 0.021731
#
#
# Mechanical properties :
#
#
# Convention : Reuss Voigt Hill
#
# Bulk Modulus (GPa) = 50.53104 88.85354 69.69229
# Shear Modulus (GPa) = 34.61876 45.70935 40.16406
#
# Velocity S-wave (km/s) = 3.64862 4.19252 3.92999
# Velocity P-wave (km/s) = 6.09765 7.58975 6.88424
#
# Compressibility (1/GPa) = 0.01978982
#
# Stress axis : x y z
#
# Youngs Moduli (GPa) = 157.55372 42.74563 88.95074
#
# Poissons Ratio (x) = 0.15082 0.22124
# Poissons Ratio (y) = 0.55591 0.40751
# Poissons Ratio (z) = 0.39187 0.19583
#
# Static dielectric constant tensor:
#      x y z
#    x 5.130570 -0.291540 0.349610 
#    y -0.291540 5.229930 -0.343540 
#    z 0.349610 -0.343540 4.667880 
# 
# 
# High freq. dielectric constant tensor:
#      x y z
#    x 2.055480 -0.017490 0.008270 
#    y -0.017490 2.085730 -0.014330 
#    z 0.008270 -0.014330 2.028990 
# 
# From -- ./inp_files/25121.got.cif
#   From: 2010.06.25/outbox.cif.g09.slc.cpg/sg2_13_cif.got.tgz:25121.got - 2010.06.27 13:26:56.
