data_PCOD8001718
_publ_section_title
;
Structure prediction by ZEFSAII (Michael W. Deem and Ramdas Pophale) SiO2 
 PCOD8001718
Probable space group: P -1
;
_chemical_formula_sum "Si O2"
_cell_formula_units_Z 16
_cell_length_a 10.530364
_cell_length_b 5.151228
_cell_length_c 25.618024
_cell_angle_alpha 89.661861
_cell_angle_beta 35.503455
_cell_angle_gamma 87.564476
_cell_volume 805.316105
_symmetry_space_group_name_H-M "P -1"
_symmetry_group_IT_number 2
_symmetry_cell_setting 'triclinic'
loop_
_space_group_symop_operation_xyz
x,y,z
-x,-y,-z
loop_
_atom_site_type_symbol
_atom_site_label
_atom_site_fract_x
_atom_site_fract_y
_atom_site_fract_z
Si Si1 0.130898 0.727003 0.255014
Si Si2 0.133126 0.740541 0.939016
Si Si3 0.531133 0.832298 0.631073
Si Si4 0.147342 0.644466 0.812931
Si Si5 0.848678 0.763394 0.616125
Si Si6 0.095246 0.246862 0.562492
Si Si7 0.380724 0.216210 0.200773
Si Si8 0.897369 0.855987 0.225245
O O1 0.253104 0.442871 0.209910
O O2 0.948034 0.717036 0.361502
O O3 0.005361 0.788379 0.243948
O O4 0.310506 0.936748 0.204854
O O5 0.362350 0.749499 0.892741
O O6 0.172355 0.715703 0.864419
O O7 0.000000 0.500000 0.000000
O O8 0.000000 0.000000 0.000000
O O9 0.734563 0.870706 0.601488
O O10 0.644272 0.747263 0.537907
O O11 0.387700 0.611237 0.704786
O O12 0.367270 0.091490 0.679043
O O13 0.041973 0.373092 0.836793
O O14 0.006028 0.884273 0.831854
O O15 0.666786 0.757857 0.722084
O O16 0.962400 0.472736 0.573394
O O17 0.029725 0.961322 0.569288
#
# Coordination Sequence:
#
# PCOD8001718 Si02
#       8
#     2   2   2   2   2   2   2   2
#     4  10  21  38  59  84 120 165 204 228 276 334
#     4  12  24  41  69  97 117 139 183 247 305 362
#     4  10  22  34  58  81 123 155 199 244 288 329
#     4  10  23  39  60  88 117 151 190 237 303 345
#     4  10  20  34  54  81 119 153 194 241 296 347
#     4  10  22  32  54  86 117 158 202 244 280 329
#     4  10  20  39  60  86 119 151 189 242 295 351
#     4  10  22  37  60  82 116 172 196 236 272 342
#
# _framework density 19.867975999999999
#
# number of rings (size 3 to 8) (size 9 to 14) (size 15 to 20)
#    0.750    1.000    1.250    3.000    3.500    1.500 
#    0.000    0.625    0.000   15.000    0.000    0.000 
#    0.000    0.000    0.000    0.000    0.000    0.000 
#
# Total GULP energy -198282.939425 kJ/mol
# GULP energy per Si atom -12392.683714 kJ/mol
# Density = 1.982276 g / cm^3
# Si number density = 19.867976 Si / 1000 Ang^3
#
#
#
# Elastic Constant Matrix: (Units=GPa)
#
#
# Indices 1 2 3 4 5 6 
#
# 1 96.6349 25.5161 24.5056 7.8610 5.6446 -16.1273
# 2 25.5161 122.6642 37.7272 5.6046 -1.9149 -3.6021
# 3 24.5056 37.7272 82.3082 -5.4260 -6.9475 -2.1012
# 4 7.8610 5.6046 -5.4260 23.1713 -1.8838 1.9759
# 5 5.6446 -1.9149 -6.9475 -1.8838 13.4137 0.2693
# 6 -16.1273 -3.6021 -2.1012 1.9759 0.2693 27.4389
#
#
#
# Elastic Compliance Matrix: (Units=1/GPa)
#
#
# Indices 1 2 3 4 5 6 
#
# 1 0.014511 -0.001063 -0.004945 -0.007376 -0.010028 0.008640
# 2 -0.001063 0.009907 -0.004500 -0.003214 -0.000932 0.000571
# 3 -0.004945 -0.004500 0.017103 0.007949 0.011471 -0.002872
# 4 -0.007376 -0.003214 0.007949 0.050106 0.013957 -0.007893
# 5 -0.010028 -0.000932 0.011471 0.013957 0.086680 -0.006994
# 6 0.008640 0.000571 -0.002872 -0.007893 -0.006994 0.042015
#
#
# Mechanical properties :
#
#
# Convention : Reuss Voigt Hill
#
# Bulk Modulus (GPa) = 48.77191 53.01167 50.89179
# Shear Modulus (GPa) = 20.14725 27.06198 23.60462
#
# Velocity S-wave (km/s) = 3.18788 3.69466 3.45058
# Velocity P-wave (km/s) = 6.17668 6.70377 6.44562
#
# Compressibility (1/GPa) = 0.02050360
#
# Stress axis : x y z
#
# Youngs Moduli (GPa) = 68.91474 100.94154 58.46785
#
# Poissons Ratio (x) = 0.10734 0.28912
# Poissons Ratio (y) = 0.07328 0.26312
# Poissons Ratio (z) = 0.34078 0.45426
#
# Static dielectric constant tensor:
#      x y z
#    x 3.305720 -0.076480 0.109220 
#    y -0.076480 3.735590 -0.049580 
#    z 0.109220 -0.049580 3.641830 
# 
# 
# High freq. dielectric constant tensor:
#      x y z
#    x 1.754870 -0.007950 0.009200 
#    y -0.007950 1.788210 -0.000180 
#    z 0.009200 -0.000180 1.762580 
# 
# From -- ./inp_files/605647.got.cif
#   From: 2010.06.25/outbox.cif.g09.slc.cpg/sg2_303_cif.got.tgz:605647.got - 2010.06.27 13:26:56.
