data_PCOD8001774
_publ_section_title
;
Structure prediction by ZEFSAII (Michael W. Deem and Ramdas Pophale) SiO2 
 PCOD8001774
Probable space group: P -1
;
_chemical_formula_sum "Si O2"
_cell_formula_units_Z 16
_cell_length_a 7.082322
_cell_length_b 20.372476
_cell_length_c 8.767828
_cell_angle_alpha 110.222989
_cell_angle_beta 119.142487
_cell_angle_gamma 47.848641
_cell_volume 818.810959
_symmetry_space_group_name_H-M "P -1"
_symmetry_group_IT_number 2
_symmetry_cell_setting 'triclinic'
loop_
_space_group_symop_operation_xyz
x,y,z
-x,-y,-z
loop_
_atom_site_type_symbol
_atom_site_label
_atom_site_fract_x
_atom_site_fract_y
_atom_site_fract_z
Si Si1 0.312031 0.064017 0.845934
Si Si2 0.464075 0.393298 0.375792
Si Si3 0.489250 0.513609 0.257207
Si Si4 0.643046 0.900218 0.656272
Si Si5 0.203909 0.808388 0.643418
Si Si6 0.057859 0.594862 0.901825
Si Si7 0.702301 0.798188 0.900427
Si Si8 0.823703 0.096113 0.579588
O O1 0.008760 0.091494 0.783282
O O2 0.450270 0.006653 0.698747
O O3 0.282629 0.153969 0.907359
O O4 0.500000 0.000000 0.000000
O O5 0.541331 0.435526 0.316551
O O6 0.461202 0.427691 0.571417
O O7 0.708533 0.289276 0.390168
O O8 0.181677 0.413857 0.226522
O O9 0.712450 0.472133 0.180608
O O10 0.187604 0.568893 0.103300
O O11 0.722012 0.843174 0.795329
O O12 0.469381 0.878513 0.467579
O O13 0.904718 0.876125 0.651589
O O14 0.415485 0.815400 0.822762
O O15 0.209103 0.832159 0.490693
O O16 0.951202 0.694431 0.909923
O O17 0.000000 0.000000 0.500000
#
# Coordination Sequence:
#
# PCOD8001774 Si02
#       8
#     2   2   2   2   2   2   2   2
#     4   9  18  33  53  73 106 140 172 219 266 312
#     4  10  21  37  57  83 117 142 184 235 279 327
#     4  10  21  36  59  83 109 150 183 231 282 335
#     4   9  18  35  54  76 106 143 181 217 267 322
#     4  10  20  34  56  78 105 145 176 220 272 321
#     4  10  20  36  59  82 110 148 189 224 282 337
#     4   9  19  34  53  78 109 138 177 228 267 318
#     4   9  19  34  53  75 104 138 178 222 261 308
#
# _framework density 19.54053
#
# number of rings (size 3 to 8) (size 9 to 14) (size 15 to 20)
#    0.000    2.500    0.000    2.250    1.750    2.500 
#    0.000    2.500    2.750    0.000    0.000    0.000 
#    0.000    0.000    0.000    0.000    0.000    0.000 
#
# Total GULP energy -198229.216814 kJ/mol
# GULP energy per Si atom -12389.326051 kJ/mol
# Density = 1.949605 g / cm^3
# Si number density = 19.540530 Si / 1000 Ang^3
#
#
#
# Elastic Constant Matrix: (Units=GPa)
#
#
# Indices 1 2 3 4 5 6 
#
# 1 54.9147 2.6836 20.8509 7.0719 13.5125 -6.9040
# 2 2.6836 58.4519 29.9799 9.1724 12.2599 8.0006
# 3 20.8509 29.9799 115.9612 2.2709 28.4697 -0.9235
# 4 7.0719 9.1724 2.2709 30.5865 2.9116 4.9086
# 5 13.5125 12.2599 28.4697 2.9116 27.0559 -2.7731
# 6 -6.9040 8.0006 -0.9235 4.9086 -2.7731 31.7580
#
#
#
# Elastic Compliance Matrix: (Units=1/GPa)
#
#
# Indices 1 2 3 4 5 6 
#
# 1 0.022387 0.002275 -0.002330 -0.005549 -0.008720 0.004322
# 2 0.002275 0.022184 -0.004517 -0.005446 -0.006356 -0.004939
# 3 -0.002330 -0.004517 0.012727 0.001974 -0.010416 -0.000213
# 4 -0.005549 -0.005446 0.001974 0.036478 -0.001331 -0.005531
# 5 -0.008720 -0.006356 -0.010416 -0.001331 0.055759 0.004477
# 6 0.004322 -0.004939 -0.000213 -0.005531 0.004477 0.034912
#
#
# Mechanical properties :
#
#
# Convention : Reuss Voigt Hill
#
# Bulk Modulus (GPa) = 20.76578 37.37294 29.06936
# Shear Modulus (GPa) = 23.85037 29.60096 26.72567
#
# Velocity S-wave (km/s) = 3.49744 3.89633 3.70226
# Velocity P-wave (km/s) = 5.19226 6.27768 5.76059
#
# Compressibility (1/GPa) = 0.04815615
#
# Stress axis : x y z
#
# Youngs Moduli (GPa) = 44.66848 45.07791 78.57239
#
# Poissons Ratio (x) = -0.10256 0.18304
# Poissons Ratio (y) = -0.10163 0.35488
# Poissons Ratio (z) = 0.10406 0.20360
#
# Static dielectric constant tensor:
#      x y z
#    x 3.665720 -0.107670 0.838730 
#    y -0.107670 3.998200 -0.212580 
#    z 0.838730 -0.212580 4.706770 
# 
# 
# High freq. dielectric constant tensor:
#      x y z
#    x 1.743950 0.010040 0.028320 
#    y 0.010040 1.766900 -0.009780 
#    z 0.028320 -0.009780 1.765990 
# 
# From -- ./inp_files/43594.got.cif
#   From: 2010.06.25/outbox.cif.g09.slc.cpg/sg2_22_cif.got.tgz:43594.got - 2010.06.27 13:26:56.
