data_PCOD8001883
_publ_section_title
;
Structure prediction by ZEFSAII (Michael W. Deem and Ramdas Pophale) SiO2 
 PCOD8001883
Probable space group: P -1
;
_chemical_formula_sum "Si O2"
_cell_formula_units_Z 12
_cell_length_a 9.728220
_cell_length_b 11.685181
_cell_length_c 5.056842
_cell_angle_alpha 94.419019
_cell_angle_beta 85.669965
_cell_angle_gamma 116.925532
_cell_volume 510.469255
_symmetry_space_group_name_H-M "P -1"
_symmetry_group_IT_number 2
_symmetry_cell_setting 'triclinic'
loop_
_space_group_symop_operation_xyz
x,y,z
-x,-y,-z
loop_
_atom_site_type_symbol
_atom_site_label
_atom_site_fract_x
_atom_site_fract_y
_atom_site_fract_z
Si Si1 0.604063 0.050758 0.745809
Si Si2 0.415059 0.716632 0.365833
Si Si3 0.753235 0.410279 0.099272
Si Si4 0.757262 0.904872 0.488248
Si Si5 0.999347 0.163630 0.329288
Si Si6 0.997235 0.315481 0.853332
O O1 0.672881 0.204243 0.736431
O O2 0.500000 0.000000 0.500000
O O3 0.725433 0.992189 0.728113
O O4 0.500000 0.000000 0.000000
O O5 0.354864 0.670274 0.658572
O O6 0.600394 0.801820 0.351865
O O7 0.358200 0.601064 0.138969
O O8 0.875696 0.358563 0.998569
O O9 0.840901 0.558791 0.196519
O O10 0.836625 0.826331 0.600465
O O11 0.873825 0.013496 0.288778
O O12 0.020923 0.224370 0.048199
O O13 0.947472 0.240378 0.566658
#
# Coordination Sequence:
#
# PCOD8001883 Si02
#       6
#     2   2   2   2   2   2
#     4  10  20  34  58  89 121 152 191 246 302 355
#     4  11  22  39  65  97 124 156 204 263 314 356
#     4  11  23  41  68  91 121 160 210 266 304 354
#     4  10  24  41  63  94 129 164 203 250 315 374
#     4  11  25  42  63  89 129 170 203 248 306 382
#     4  11  24  44  64  91 122 166 213 250 306 368
#
# _framework density 23.507781999999999
#
# number of rings (size 3 to 8) (size 9 to 14) (size 15 to 20)
#    0.000    1.333    0.000    6.000    0.000   14.667 
#    0.000    5.000    0.000    0.000    0.000    0.000 
#    0.000    0.000    0.000    0.000    0.000    0.000 
#
# Total GULP energy -148698.260304 kJ/mol
# GULP energy per Si atom -12391.521692 kJ/mol
# Density = 2.345428 g / cm^3
# Si number density = 23.507782 Si / 1000 Ang^3
#
#
#
# Elastic Constant Matrix: (Units=GPa)
#
#
# Indices 1 2 3 4 5 6 
#
# 1 87.5419 32.4596 14.5424 -7.0715 -0.9730 16.1413
# 2 32.4596 92.3604 16.9011 -9.9580 9.0406 31.4159
# 3 14.5424 16.9011 111.7420 -15.1570 1.2880 15.1288
# 4 -7.0715 -9.9580 -15.1570 37.5830 7.8456 7.4384
# 5 -0.9730 9.0406 1.2880 7.8456 21.3125 7.5704
# 6 16.1413 31.4159 15.1288 7.4384 7.5704 40.8105
#
#
#
# Elastic Compliance Matrix: (Units=1/GPa)
#
#
# Indices 1 2 3 4 5 6 
#
# 1 0.013625 -0.003791 -0.000652 0.001292 0.002858 -0.002995
# 2 -0.003791 0.017900 0.000709 0.008166 -0.006242 -0.012873
# 3 -0.000652 0.000709 0.010344 0.005461 -0.001229 -0.004889
# 4 0.001292 0.008166 0.005461 0.036423 -0.012473 -0.013147
# 5 0.002858 -0.006242 -0.001229 -0.012473 0.055765 -0.003940
# 6 -0.002995 -0.012873 -0.004889 -0.013147 -0.003940 0.040537
#
#
# Mechanical properties :
#
#
# Convention : Reuss Voigt Hill
#
# Bulk Modulus (GPa) = 29.06956 46.60559 37.83757
# Shear Modulus (GPa) = 25.83577 35.12395 30.47986
#
# Velocity S-wave (km/s) = 3.31876 3.86961 3.60472
# Velocity P-wave (km/s) = 5.20368 6.31140 5.78412
#
# Compressibility (1/GPa) = 0.03440025
#
# Stress axis : x y z
#
# Youngs Moduli (GPa) = 73.39225 55.86579 96.67672
#
# Poissons Ratio (x) = 0.21179 0.06304
# Poissons Ratio (y) = 0.27823 -0.06850
# Poissons Ratio (z) = 0.04785 -0.03958
#
# Static dielectric constant tensor:
#      x y z
#    x 4.381030 -0.071120 -0.043130 
#    y -0.071120 4.268440 -0.009920 
#    z -0.043130 -0.009920 4.035820 
# 
# 
# High freq. dielectric constant tensor:
#      x y z
#    x 1.925610 0.020440 0.005010 
#    y 0.020440 1.938760 0.003270 
#    z 0.005010 0.003270 1.929640 
# 
# From -- ./inp_files/19750.got.cif
#   From: 2010.06.25/outbox.cif.g09.slc.cpg/sg2_10_cif.got.tgz:19750.got - 2010.06.27 13:26:56.
