data_PCOD8001800
_publ_section_title
;
Structure prediction by ZEFSAII (Michael W. Deem and Ramdas Pophale) SiO2 
 PCOD8001800
Probable space group: P -1
;
_chemical_formula_sum "Si O2"
_cell_formula_units_Z 16
_cell_length_a 20.101537
_cell_length_b 12.488498
_cell_length_c 9.959661
_cell_angle_alpha 36.861406
_cell_angle_beta 143.754175
_cell_angle_gamma 144.188656
_cell_volume 784.084858
_symmetry_space_group_name_H-M "P -1"
_symmetry_group_IT_number 2
_symmetry_cell_setting 'triclinic'
loop_
_space_group_symop_operation_xyz
x,y,z
-x,-y,-z
loop_
_atom_site_type_symbol
_atom_site_label
_atom_site_fract_x
_atom_site_fract_y
_atom_site_fract_z
Si Si1 0.070064 0.230686 0.228221
Si Si2 0.043806 0.795294 0.658256
Si Si3 0.084471 0.291186 0.732820
Si Si4 0.497200 0.685717 0.160796
Si Si5 0.117951 0.920197 0.166745
Si Si6 0.306028 0.865837 0.918950
Si Si7 0.271300 0.725648 0.697466
Si Si8 0.359990 0.535250 0.359132
O O1 0.209682 0.396288 0.251683
O O2 0.020605 0.300987 0.208074
O O3 0.074610 0.025923 0.469640
O O4 0.976359 0.206585 0.978141
O O5 0.176988 0.791831 0.866458
O O6 0.946855 0.667613 0.510284
O O7 0.160868 0.499294 0.724909
O O8 0.950686 0.158708 0.722542
O O9 0.161596 0.159429 0.985782
O O10 0.406775 0.547149 0.270759
O O11 0.564931 0.558521 0.334693
O O12 0.609872 0.895036 0.187437
O O13 0.405731 0.731718 0.865281
O O14 0.240999 0.880188 0.404650
O O15 0.276176 0.786486 0.798640
O O16 0.384146 0.757832 0.223219
#
# Coordination Sequence:
#
# PCOD8001800 Si02
#       8
#     2   2   2   2   2   2   2   2
#     4  10  21  38  60  89 119 152 192 239 292 343
#     4  10  21  38  59  87 123 153 186 240 295 342
#     4  10  21  35  54  86 118 151 182 240 295 337
#     4  10  22  37  56  86 118 154 193 246 283 326
#     4  10  20  34  56  85 117 148 186 238 292 342
#     4  11  21  36  58  89 118 150 194 244 284 342
#     4  11  21  33  57  84 117 148 189 235 287 346
#     4  10  20  35  57  84 115 148 196 239 282 336
#
# _framework density 20.405954000000001
#
# number of rings (size 3 to 8) (size 9 to 14) (size 15 to 20)
#    0.000    1.750    2.500    3.375    1.750    4.500 
#    0.000    0.000    0.000    1.500    3.250    0.000 
#    0.000    0.000    0.000    0.000    0.000    0.000 
#
# Total GULP energy -198288.486318 kJ/mol
# GULP energy per Si atom -12393.030395 kJ/mol
# Density = 2.035951 g / cm^3
# Si number density = 20.405954 Si / 1000 Ang^3
#
#
#
# Elastic Constant Matrix: (Units=GPa)
#
#
# Indices 1 2 3 4 5 6 
#
# 1 85.7094 30.1167 59.6482 3.2870 17.0926 -0.3117
# 2 30.1167 61.6384 16.3376 -7.2282 -0.9040 4.7794
# 3 59.6482 16.3376 122.9221 -2.3766 40.7960 -5.0301
# 4 3.2870 -7.2282 -2.3766 19.6436 -3.6087 0.4835
# 5 17.0926 -0.9040 40.7960 -3.6087 36.9505 1.6620
# 6 -0.3117 4.7794 -5.0301 0.4835 1.6620 21.6104
#
#
#
# Elastic Compliance Matrix: (Units=1/GPa)
#
#
# Indices 1 2 3 4 5 6 
#
# 1 0.021830 -0.009280 -0.009146 -0.008383 -0.001069 0.000508
# 2 -0.009280 0.022965 -0.001042 0.011391 0.007400 -0.006279
# 3 -0.009146 -0.001042 0.018351 0.000237 -0.016285 0.005617
# 4 -0.008383 0.011391 0.000237 0.058447 0.009811 -0.004647
# 5 -0.001069 0.007400 -0.016285 0.009811 0.047094 -0.009284
# 6 0.000508 -0.006279 0.005617 -0.004647 -0.009284 0.049795
#
#
# Mechanical properties :
#
#
# Convention : Reuss Voigt Hill
#
# Bulk Modulus (GPa) = 41.30470 53.60830 47.45650
# Shear Modulus (GPa) = 18.83324 26.58541 22.70932
#
# Velocity S-wave (km/s) = 3.04127 3.61338 3.33960
# Velocity P-wave (km/s) = 5.71121 6.61337 6.17878
#
# Compressibility (1/GPa) = 0.02421032
#
# Stress axis : x y z
#
# Youngs Moduli (GPa) = 45.80921 43.54426 54.49261
#
# Poissons Ratio (x) = 0.40409 0.49840
# Poissons Ratio (y) = 0.42510 0.05677
# Poissons Ratio (z) = 0.41898 0.04536
#
# Static dielectric constant tensor:
#      x y z
#    x 3.768480 -0.129690 0.554680 
#    y -0.129690 3.569590 -0.221900 
#    z 0.554680 -0.221900 4.336580 
# 
# 
# High freq. dielectric constant tensor:
#      x y z
#    x 1.767560 -0.003030 0.037120 
#    y -0.003030 1.788770 -0.019930 
#    z 0.037120 -0.019930 1.803140 
# 
# From -- ./inp_files/308403.got.cif
#   From: 2010.06.25/outbox.cif.g09.slc.cpg/sg2_155_cif.got.tgz:308403.got - 2010.06.27 13:26:56.
