data_PCOD8001545
_publ_section_title
;
Structure prediction by ZEFSAII (Michael W. Deem and Ramdas Pophale) SiO2 
 PCOD8001545
Probable space group: P -1
;
_chemical_formula_sum "Si O2"
_cell_formula_units_Z 16
_cell_length_a 12.013684
_cell_length_b 15.078286
_cell_length_c 9.187329
_cell_angle_alpha 143.468637
_cell_angle_beta 74.914553
_cell_angle_gamma 122.304521
_cell_volume 788.581012
_symmetry_space_group_name_H-M "P -1"
_symmetry_group_IT_number 2
_symmetry_cell_setting 'triclinic'
loop_
_space_group_symop_operation_xyz
x,y,z
-x,-y,-z
loop_
_atom_site_type_symbol
_atom_site_label
_atom_site_fract_x
_atom_site_fract_y
_atom_site_fract_z
Si Si1 0.155150 0.274820 0.553149
Si Si2 0.634335 0.018056 0.119308
Si Si3 0.585426 0.290664 0.395130
Si Si4 0.540391 0.517879 0.175758
Si Si5 0.125696 0.901868 0.062504
Si Si6 0.159006 0.333986 0.302005
Si Si7 0.921094 0.089260 0.593661
Si Si8 0.705525 0.852118 0.118980
O O1 0.299173 0.412252 0.769520
O O2 0.154642 0.355139 0.504104
O O3 0.028972 0.252734 0.664119
O O4 0.130426 0.082519 0.282442
O O5 0.610164 0.177559 0.356243
O O6 0.693564 0.994308 0.217165
O O7 0.738667 0.073070 0.020417
O O8 0.487647 0.830572 0.883574
O O9 0.479756 0.335295 0.553326
O O10 0.733006 0.470814 0.544558
O O11 0.500000 0.500000 0.000000
O O12 0.446966 0.326390 0.035469
O O13 0.117970 0.847136 0.163728
O O14 0.990759 0.739096 0.811243
O O15 0.202246 0.196457 0.068475
O O16 0.778368 0.943259 0.367030
O O17 0.000000 0.000000 0.500000
#
# Coordination Sequence:
#
# PCOD8001545 Si02
#       8
#     2   2   2   2   2   2   2   2
#     4  11  19  33  57  89 115 145 190 246 288 332
#     4  11  22  41  61  82 119 158 192 233 287 349
#     4  10  24  39  59  85 118 154 195 235 288 344
#     4  11  22  36  62  90 117 148 191 243 294 333
#     4  11  20  34  59  86 116 153 188 235 294 340
#     4  11  20  35  60  89 112 144 201 247 279 330
#     4  10  20  33  54  92 117 147 184 242 291 344
#     4  11  20  35  61  90 114 148 195 243 282 340
#
# _framework density 20.289608999999999
#
# number of rings (size 3 to 8) (size 9 to 14) (size 15 to 20)
#    0.000    1.250    5.000    3.375    1.750    2.500 
#    0.000    0.625    2.750    1.500    0.000    0.000 
#    0.000    0.000    0.000    0.000    0.000    0.000 
#
# Total GULP energy -198432.617945 kJ/mol
# GULP energy per Si atom -12402.038622 kJ/mol
# Density = 2.024343 g / cm^3
# Si number density = 20.289609 Si / 1000 Ang^3
#
#
#
# Elastic Constant Matrix: (Units=GPa)
#
#
# Indices 1 2 3 4 5 6 
#
# 1 65.9949 24.7748 37.6826 12.8435 19.8115 -7.8144
# 2 24.7748 79.0881 34.3350 -7.1592 2.8499 -6.7220
# 3 37.6826 34.3350 72.8269 0.7831 30.1349 -9.1267
# 4 12.8435 -7.1592 0.7831 29.8117 -0.8891 9.1306
# 5 19.8115 2.8499 30.1349 -0.8891 32.4463 0.5962
# 6 -7.8144 -6.7220 -9.1267 9.1306 0.5962 38.5721
#
#
#
# Elastic Compliance Matrix: (Units=1/GPa)
#
#
# Indices 1 2 3 4 5 6 
#
# 1 0.028713 -0.007220 -0.005027 -0.016655 -0.012824 0.007510
# 2 -0.007220 0.020349 -0.012357 0.009787 0.014428 -0.003380
# 3 -0.005027 -0.012357 0.034782 -0.004578 -0.028396 0.006581
# 4 -0.016655 0.009787 -0.004578 0.048039 0.015142 -0.014357
# 5 -0.012824 0.014428 -0.028396 0.015142 0.064380 -0.011382
# 6 0.007510 -0.003380 0.006581 -0.014357 -0.011382 0.031990
#
#
# Mechanical properties :
#
#
# Convention : Reuss Voigt Hill
#
# Bulk Modulus (GPa) = 28.87051 45.72163 37.29607
# Shear Modulus (GPa) = 17.30067 28.24050 22.77058
#
# Velocity S-wave (km/s) = 2.92325 3.73482 3.35368
# Velocity P-wave (km/s) = 5.06497 6.41732 5.78083
#
# Compressibility (1/GPa) = 0.03463742
#
# Stress axis : x y z
#
# Youngs Moduli (GPa) = 34.82702 49.14191 28.75047
#
# Poissons Ratio (x) = 0.35478 0.14452
# Poissons Ratio (y) = 0.25143 0.35528
# Poissons Ratio (z) = 0.17506 0.60726
#
# Static dielectric constant tensor:
#      x y z
#    x 3.604860 0.270030 0.111530 
#    y 0.270030 4.131310 -0.131120 
#    z 0.111530 -0.131120 4.199000 
# 
# 
# High freq. dielectric constant tensor:
#      x y z
#    x 1.779310 0.011640 0.032890 
#    y 0.011640 1.802690 -0.000690 
#    z 0.032890 -0.000690 1.773760 
# 
# From -- ./inp_files/188569.got.cif
#   From: 2010.06.25/outbox.cif.g09.slc.cpg/sg2_95_cif.got.tgz:188569.got - 2010.06.27 13:26:56.
