data_PCOD8001059
_publ_section_title
;
Structure prediction by ZEFSAII (Michael W. Deem and Ramdas Pophale) SiO2 
 PCOD8001059
Probable space group: P -1
;
_chemical_formula_sum "Si O2"
_cell_formula_units_Z 14
_cell_length_a 15.231546
_cell_length_b 9.025326
_cell_length_c 6.380170
_cell_angle_alpha 63.981934
_cell_angle_beta 104.377201
_cell_angle_gamma 121.538958
_cell_volume 671.561166
_symmetry_space_group_name_H-M "P -1"
_symmetry_group_IT_number 2
_symmetry_cell_setting 'triclinic'
loop_
_space_group_symop_operation_xyz
x,y,z
-x,-y,-z
loop_
_atom_site_type_symbol
_atom_site_label
_atom_site_fract_x
_atom_site_fract_y
_atom_site_fract_z
Si Si1 0.710969 0.856101 0.483098
Si Si2 0.246602 0.927066 0.242952
Si Si3 0.790091 0.622984 0.468422
Si Si4 0.383836 0.949946 0.929200
Si Si5 0.925523 0.591184 0.904107
Si Si6 0.241705 0.637436 0.733472
Si Si7 0.110156 0.969138 0.806995
O O1 0.710401 0.660938 0.542704
O O2 0.705216 0.876401 0.718041
O O3 0.817527 0.029353 0.344512
O O4 0.618975 0.876622 0.301196
O O5 0.211150 0.767837 0.495758
O O6 0.331106 0.921394 0.142617
O O7 0.147112 0.905670 0.075964
O O8 0.848283 0.533462 0.695592
O O9 0.724074 0.477760 0.336512
O O10 0.875441 0.820800 0.293217
O O11 0.500000 0.000000 0.000000
O O12 0.330076 0.759758 0.876586
O O13 0.991024 0.818109 0.797823
O O14 0.860084 0.519789 0.119353
O O15 0.000000 0.500000 0.000000
#
# Coordination Sequence:
#
# PCOD8001059 Si02
#       7
#     2   2   2   2   2   2   2
#     4   8  20  37  61  87 118 158 197 244 296 347
#     4  10  19  41  63  86 121 157 204 244 297 360
#     4  10  23  39  58  88 127 161 203 245 299 343
#     4  10  21  41  67  91 113 152 203 248 306 369
#     4  12  23  37  58  89 127 165 207 243 285 352
#     4  11  24  38  60  90 124 160 195 254 302 353
#     4   9  21  37  58  88 120 166 203 240 287 343
#
# _framework density 20.846948000000001
#
# number of rings (size 3 to 8) (size 9 to 14) (size 15 to 20)
#    0.857    1.143    0.000    4.714    2.000    6.286 
#    0.000    0.714    0.000    4.286    0.000    0.000 
#    0.000    0.000    0.000    0.000    0.000    0.000 
#
# Total GULP energy -173473.539953 kJ/mol
# GULP energy per Si atom -12390.967140 kJ/mol
# Density = 2.079950 g / cm^3
# Si number density = 20.846948 Si / 1000 Ang^3
#
#
#
# Elastic Constant Matrix: (Units=GPa)
#
#
# Indices 1 2 3 4 5 6 
#
# 1 93.9456 46.1241 47.8566 24.0390 10.6250 -12.5461
# 2 46.1241 97.3054 42.0198 26.7835 -5.3253 -30.7336
# 3 47.8566 42.0198 103.6037 21.9716 -6.0701 -3.8070
# 4 24.0390 26.7835 21.9716 38.7883 -8.1460 -8.1052
# 5 10.6250 -5.3253 -6.0701 -8.1460 28.4075 6.3842
# 6 -12.5461 -30.7336 -3.8070 -8.1052 6.3842 29.9405
#
#
#
# Elastic Compliance Matrix: (Units=1/GPa)
#
#
# Indices 1 2 3 4 5 6 
#
# 1 0.019832 -0.003814 -0.006564 -0.007732 -0.012690 0.004173
# 2 -0.003814 0.021933 -0.005216 -0.006212 -0.001608 0.018914
# 3 -0.006564 -0.005216 0.015137 -0.001256 0.006110 -0.007822
# 4 -0.007732 -0.006212 -0.001256 0.037787 0.012807 -0.002278
# 5 -0.012690 -0.001608 0.006110 0.012807 0.047514 -0.012856
# 6 0.004173 0.018914 -0.007822 -0.002278 -0.012856 0.055693
#
#
# Mechanical properties :
#
#
# Convention : Reuss Voigt Hill
#
# Bulk Modulus (GPa) = 38.89011 62.98398 50.93704
# Shear Modulus (GPa) = 21.03890 30.01754 25.52822
#
# Velocity S-wave (km/s) = 3.18025 3.79872 3.50316
# Velocity P-wave (km/s) = 5.67282 7.03694 6.39138
#
# Compressibility (1/GPa) = 0.02571348
#
# Stress axis : x y z
#
# Youngs Moduli (GPa) = 50.42354 45.59379 66.06520
#
# Poissons Ratio (x) = 0.17390 0.43367
# Poissons Ratio (y) = 0.19232 0.34457
# Poissons Ratio (z) = 0.33099 0.23780
#
# Static dielectric constant tensor:
#      x y z
#    x 3.450690 -0.324430 -0.071040 
#    y -0.324430 3.795050 0.128340 
#    z -0.071040 0.128340 3.888340 
# 
# 
# High freq. dielectric constant tensor:
#      x y z
#    x 1.783450 -0.030250 0.001550 
#    y -0.030250 1.801700 0.006590 
#    z 0.001550 0.006590 1.829860 
# 
# From -- ./inp_files/104802.got.cif
#   From: 2010.06.25/outbox.cif.g09.slc.cpg/sg2_53_cif.got.tgz:104802.got - 2010.06.27 13:26:56.
