data_PCOD8001425
_publ_section_title
;
Structure prediction by ZEFSAII (Michael W. Deem and Ramdas Pophale) SiO2 
 PCOD8001425
Probable space group: P -1
;
_chemical_formula_sum "Si O2"
_cell_formula_units_Z 16
_cell_length_a 25.561046
_cell_length_b 25.644918
_cell_length_c 10.764741
_cell_angle_alpha 144.684796
_cell_angle_beta 35.931398
_cell_angle_gamma 168.909138
_cell_volume 782.122540
_symmetry_space_group_name_H-M "P -1"
_symmetry_group_IT_number 2
_symmetry_cell_setting 'triclinic'
loop_
_space_group_symop_operation_xyz
x,y,z
-x,-y,-z
loop_
_atom_site_type_symbol
_atom_site_label
_atom_site_fract_x
_atom_site_fract_y
_atom_site_fract_z
Si Si1 0.569803 0.049287 0.317646
Si Si2 0.871263 0.502873 0.898029
Si Si3 0.695204 0.813303 0.197125
Si Si4 0.774005 0.690154 0.718097
Si Si5 0.269351 0.606042 0.325998
Si Si6 0.376253 0.547903 0.703706
Si Si7 0.815095 0.038487 0.170842
Si Si8 0.934171 0.041271 0.721335
O O1 0.655990 0.225381 0.427318
O O2 0.806516 0.202333 0.129491
O O3 0.500000 0.000000 0.500000
O O4 0.290455 0.737260 0.197992
O O5 0.847672 0.486597 0.763890
O O6 0.733494 0.458865 0.140564
O O7 0.396892 0.531983 0.285030
O O8 0.741617 0.940296 0.261232
O O9 0.719805 0.744208 0.940183
O O10 0.909130 0.025757 0.312117
O O11 0.687871 0.582975 0.537077
O O12 0.550054 0.821798 0.190246
O O13 0.050886 0.340279 0.309632
O O14 0.692932 0.844488 0.710785
O O15 0.204382 0.354992 0.779003
O O16 0.894128 0.026240 0.914051
O O17 0.000000 0.000000 0.500000
#
# Coordination Sequence:
#
# PCOD8001425 Si02
#       8
#     2   2   2   2   2   2   2   2
#     4  10  20  32  54  79 116 157 184 220 284 339
#     4  11  19  35  53  83 117 151 186 229 277 349
#     4  10  22  39  60  80 109 148 199 247 279 317
#     4  10  22  41  59  81 108 148 203 247 276 318
#     4  11  20  34  53  83 119 148 184 229 279 354
#     4  12  23  38  59  84 116 153 191 235 286 337
#     4  12  21  36  56  85 116 151 186 233 289 340
#     4  12  24  37  54  83 123 155 183 222 292 360
#
# _framework density 20.457153999999999
#
# number of rings (size 3 to 8) (size 9 to 14) (size 15 to 20)
#    0.000    1.000    2.500    7.125    0.000    3.000 
#    0.000    0.000    0.000    0.000    0.000   17.500 
#    0.000    0.000    0.000    0.000    0.000    0.000 
#
# Total GULP energy -198331.152048 kJ/mol
# GULP energy per Si atom -12395.697003 kJ/mol
# Density = 2.041059 g / cm^3
# Si number density = 20.457154 Si / 1000 Ang^3
#
#
#
# Elastic Constant Matrix: (Units=GPa)
#
#
# Indices 1 2 3 4 5 6 
#
# 1 42.3369 14.0649 17.8460 0.6425 -7.0831 -12.4348
# 2 14.0649 109.3268 23.7876 3.3682 -16.9292 -11.6882
# 3 17.8460 23.7876 47.7452 1.1302 -16.5792 -2.6989
# 4 0.6425 3.3682 1.1302 31.4579 0.8335 -12.4122
# 5 -7.0831 -16.9292 -16.5792 0.8335 26.9246 7.9678
# 6 -12.4348 -11.6882 -2.6989 -12.4122 7.9678 27.0624
#
#
#
# Elastic Compliance Matrix: (Units=1/GPa)
#
#
# Indices 1 2 3 4 5 6 
#
# 1 0.034080 -0.000485 -0.013532 0.007574 -0.005595 0.019222
# 2 -0.000485 0.010919 -0.003906 0.000142 0.003390 0.003171
# 3 -0.013532 -0.003906 0.033917 -0.006105 0.018869 -0.012878
# 4 0.007574 0.000142 -0.006105 0.042111 -0.010477 0.025332
# 5 -0.005595 0.003390 0.018869 -0.010477 0.055798 -0.020458
# 6 0.019222 0.003171 -0.012878 0.025332 -0.020458 0.063511
#
#
# Mechanical properties :
#
#
# Convention : Reuss Voigt Hill
#
# Bulk Modulus (GPa) = 23.21774 34.53398 28.87586
# Shear Modulus (GPa) = 17.20948 26.66965 21.93956
#
# Velocity S-wave (km/s) = 2.90357 3.61457 3.27840
# Velocity P-wave (km/s) = 4.75553 5.85986 5.33634
#
# Compressibility (1/GPa) = 0.04307051
#
# Stress axis : x y z
#
# Youngs Moduli (GPa) = 29.34283 91.58685 29.48344
#
# Poissons Ratio (x) = 0.04439 0.39898
# Poissons Ratio (y) = 0.01422 0.11515
# Poissons Ratio (z) = 0.39708 0.35771
#
# Static dielectric constant tensor:
#      x y z
#    x 3.383940 -0.186520 -0.472760 
#    y -0.186520 4.184640 0.235990 
#    z -0.472760 0.235990 4.049580 
# 
# 
# High freq. dielectric constant tensor:
#      x y z
#    x 1.753840 -0.006310 -0.026810 
#    y -0.006310 1.829100 0.005040 
#    z -0.026810 0.005040 1.787870 
# 
# From -- ./inp_files/437283.got.cif
#   From: 2010.06.25/outbox.cif.g09.slc.cpg/sg2_219_cif.got.tgz:437283.got - 2010.06.27 13:26:56.
