data_PCOD8001903
_publ_section_title
;
Structure prediction by ZEFSAII (Michael W. Deem and Ramdas Pophale) SiO2 
 PCOD8001903
Probable space group: P -1
;
_chemical_formula_sum "Si O2"
_cell_formula_units_Z 16
_cell_length_a 15.966188
_cell_length_b 7.856909
_cell_length_c 16.793909
_cell_angle_alpha 93.455293
_cell_angle_beta 25.902679
_cell_angle_gamma 77.603686
_cell_volume 723.184673
_symmetry_space_group_name_H-M "P -1"
_symmetry_group_IT_number 2
_symmetry_cell_setting 'triclinic'
loop_
_space_group_symop_operation_xyz
x,y,z
-x,-y,-z
loop_
_atom_site_type_symbol
_atom_site_label
_atom_site_fract_x
_atom_site_fract_y
_atom_site_fract_z
Si Si1 0.050366 0.536919 0.711843
Si Si2 0.432855 0.640274 0.749187
Si Si3 0.934489 0.412615 0.656265
Si Si4 0.992546 0.820314 0.037674
Si Si5 0.767624 0.225360 0.914388
Si Si6 0.795190 0.916249 0.376230
Si Si7 0.716508 0.884627 0.129955
Si Si8 0.605111 0.810600 0.841903
O O1 0.285845 0.530565 0.519872
O O2 0.099518 0.327685 0.702290
O O3 0.985112 0.544679 0.675253
O O4 0.826742 0.751126 0.951257
O O5 0.347147 0.883843 0.822492
O O6 0.395050 0.597784 0.871405
O O7 0.261843 0.621941 0.835453
O O8 0.809010 0.324466 0.806324
O O9 0.742628 0.576082 0.758493
O O10 0.195143 0.212836 0.388982
O O11 0.798274 0.934602 0.279029
O O12 0.900297 0.748331 0.043468
O O13 0.000000 0.000000 0.000000
O O14 0.030112 0.042136 0.726759
O O15 0.630659 0.128989 0.002043
O O16 0.525268 0.091181 0.644434
O O17 0.500000 0.000000 0.000000
#
# Coordination Sequence:
#
# PCOD8001903 Si02
#       8
#     2   2   2   2   2   2   2   2
#     4  10  20  36  59  84 115 157 194 245 293 350
#     4   9  19  37  58  83 121 157 195 241 294 345
#     4  10  23  41  60  89 123 154 195 244 303 355
#     4   9  18  35  55  81 118 158 196 248 293 338
#     4  10  20  41  64  85 123 160 192 244 301 353
#     4   9  20  37  57  82 118 158 196 242 294 347
#     4  10  20  34  59  87 116 156 203 242 292 346
#     4  11  24  41  65  90 118 155 196 246 299 358
#
# _framework density 22.124362999999999
#
# number of rings (size 3 to 8) (size 9 to 14) (size 15 to 20)
#    0.000    2.250    1.250    0.750    1.750    1.500 
#    0.000   17.500    0.000    0.000    0.000    0.000 
#    0.000    0.000    0.000    0.000    0.000    0.000 
#
# Total GULP energy -198317.215903 kJ/mol
# GULP energy per Si atom -12394.825994 kJ/mol
# Density = 2.207401 g / cm^3
# Si number density = 22.124363 Si / 1000 Ang^3
#
#
#
# Elastic Constant Matrix: (Units=GPa)
#
#
# Indices 1 2 3 4 5 6 
#
# 1 104.1148 7.0029 36.8238 -6.7357 -1.9465 9.2266
# 2 7.0029 23.5239 20.7325 -12.3379 1.7675 -7.1438
# 3 36.8238 20.7325 151.7660 -17.8255 1.3430 12.3854
# 4 -6.7357 -12.3379 -17.8255 32.4537 2.5960 9.3215
# 5 -1.9465 1.7675 1.3430 2.5960 39.2115 -13.8243
# 6 9.2266 -7.1438 12.3854 9.3215 -13.8243 25.8731
#
#
#
# Elastic Compliance Matrix: (Units=1/GPa)
#
#
# Indices 1 2 3 4 5 6 
#
# 1 0.010906 -0.002113 -0.001687 0.002091 -0.001234 -0.005078
# 2 -0.002113 0.062686 -0.008039 0.013349 0.003068 0.018740
# 3 -0.001687 -0.008039 0.009553 0.005067 -0.003956 -0.010131
# 4 0.002091 0.013349 0.005067 0.046494 -0.011673 -0.022473
# 5 -0.001234 0.003068 -0.003956 -0.011673 0.035504 0.026356
# 6 -0.005078 0.018740 -0.010131 -0.022473 0.026356 0.072664
#
#
# Mechanical properties :
#
#
# Convention : Reuss Voigt Hill
#
# Bulk Modulus (GPa) = 16.81572 45.39144 31.10358
# Shear Modulus (GPa) = 17.77420 33.83070 25.80245
#
# Velocity S-wave (km/s) = 2.83747 3.91463 3.41874
# Velocity P-wave (km/s) = 4.28392 6.40262 5.44727
#
# Compressibility (1/GPa) = 0.05946817
#
# Stress axis : x y z
#
# Youngs Moduli (GPa) = 91.69604 15.95242 104.67408
#
# Poissons Ratio (x) = 0.03370 0.17654
# Poissons Ratio (y) = 0.19373 0.84152
# Poissons Ratio (z) = 0.15465 0.12825
#
# Static dielectric constant tensor:
#      x y z
#    x 7.273560 0.267580 -0.879510 
#    y 0.267580 3.596460 -0.521410 
#    z -0.879510 -0.521410 4.315610 
# 
# 
# High freq. dielectric constant tensor:
#      x y z
#    x 1.884570 -0.012570 -0.006730 
#    y -0.012570 1.833250 -0.033340 
#    z -0.006730 -0.033340 1.878650 
# 
# From -- ./inp_files/141383.got.cif
#   From: 2010.06.25/outbox.cif.g09.slc.cpg/sg2_71_cif.got.tgz:141383.got - 2010.06.27 13:26:56.
