data_PCOD8001019
_publ_section_title
;
Structure prediction by ZEFSAII (Michael W. Deem and Ramdas Pophale) SiO2 
 PCOD8001019
Probable space group: P -1
;
_chemical_formula_sum "Si O2"
_cell_formula_units_Z 12
_cell_length_a 14.176934
_cell_length_b 6.536248
_cell_length_c 11.704888
_cell_angle_alpha 96.211563
_cell_angle_beta 150.212466
_cell_angle_gamma 97.791876
_cell_volume 474.322584
_symmetry_space_group_name_H-M "P -1"
_symmetry_group_IT_number 2
_symmetry_cell_setting 'triclinic'
loop_
_space_group_symop_operation_xyz
x,y,z
-x,-y,-z
loop_
_atom_site_type_symbol
_atom_site_label
_atom_site_fract_x
_atom_site_fract_y
_atom_site_fract_z
Si Si1 0.226971 0.200263 0.714640
Si Si2 0.495813 0.106252 0.150013
Si Si3 0.163284 0.407022 0.202028
Si Si4 0.881871 0.603603 0.594988
Si Si5 0.629932 0.682748 0.778305
Si Si6 0.320948 0.617606 0.003856
O O1 0.225003 0.268069 0.584253
O O2 0.301432 0.438454 0.875230
O O3 0.396266 0.102864 0.918284
O O4 0.000000 0.000000 0.500000
O O5 0.728190 0.325491 0.421879
O O6 0.329381 0.123661 0.070696
O O7 0.508296 0.870518 0.177520
O O8 0.091198 0.288011 0.243184
O O9 0.405327 0.619379 0.475751
O O10 0.178216 0.234403 0.109791
O O11 0.000000 0.500000 0.000000
O O12 0.102904 0.638567 0.777392
O O13 0.620044 0.454258 0.817453
#
# Coordination Sequence:
#
# PCOD8001019 Si02
#       6
#     2   2   2   2   2   2
#     4  11  23  42  65  95 135 175 217 274 331 392
#     4  10  23  42  66  97 134 171 219 273 330 395
#     4  10  19  40  70  93 135 174 220 275 327 391
#     4  11  22  40  66  95 129 176 222 265 331 394
#     4   9  21  41  67  98 134 171 220 278 324 391
#     4  11  22  43  67  94 137 173 214 280 328 389
#
# _framework density 25.299237999999999
#
# number of rings (size 3 to 8) (size 9 to 14) (size 15 to 20)
#    0.000    1.667    3.333    1.000    0.000    0.667 
#    9.000    8.333    0.000    0.000    0.000    0.000 
#    0.000    0.000    0.000    0.000    0.000    0.000 
#
# Total GULP energy -148756.843437 kJ/mol
# GULP energy per Si atom -12396.403620 kJ/mol
# Density = 2.524166 g / cm^3
# Si number density = 25.299238 Si / 1000 Ang^3
#
#
#
# Elastic Constant Matrix: (Units=GPa)
#
#
# Indices 1 2 3 4 5 6 
#
# 1 95.4859 22.7356 28.4403 -29.0541 -15.3126 26.0501
# 2 22.7356 149.3511 50.1852 -8.2584 -9.6930 13.2697
# 3 28.4403 50.1852 103.7934 -31.8672 -9.4645 -0.0615
# 4 -29.0541 -8.2584 -31.8672 46.1667 5.2293 8.0727
# 5 -15.3126 -9.6930 -9.4645 5.2293 38.4463 -19.4269
# 6 26.0501 13.2697 -0.0615 8.0727 -19.4269 24.3615
#
#
#
# Elastic Compliance Matrix: (Units=1/GPa)
#
#
# Indices 1 2 3 4 5 6 
#
# 1 0.044779 0.002554 -0.002238 0.047518 -0.035831 -0.093598
# 2 0.002554 0.008733 -0.004523 0.002546 -0.004114 -0.011623
# 3 -0.002238 -0.004523 0.014795 0.006650 0.003459 0.005449
# 4 0.047518 0.002546 0.006650 0.083480 -0.051076 -0.120574
# 5 -0.035831 -0.004114 0.003459 -0.051076 0.079641 0.120998
# 6 -0.093598 -0.011623 0.005449 -0.120574 0.120998 0.283922
#
#
# Mechanical properties :
#
#
# Convention : Reuss Voigt Hill
#
# Bulk Modulus (GPa) = 16.69652 61.26138 38.97895
# Shear Modulus (GPa) = 9.19576 38.27953 23.73765
#
# Velocity S-wave (km/s) = 1.90858 3.89404 3.06645
# Velocity P-wave (km/s) = 3.38687 6.66973 5.28943
#
# Compressibility (1/GPa) = 0.05989271
#
# Stress axis : x y z
#
# Youngs Moduli (GPa) = 22.33198 114.50702 67.59035
#
# Poissons Ratio (x) = -0.29240 0.15127
# Poissons Ratio (y) = -0.05703 0.30569
# Poissons Ratio (z) = 0.04998 0.51787
#
# Static dielectric constant tensor:
#      x y z
#    x 5.198880 0.023440 -0.152820 
#    y 0.023440 4.453620 -0.317340 
#    z -0.152820 -0.317340 4.698680 
# 
# 
# High freq. dielectric constant tensor:
#      x y z
#    x 2.039110 -0.001510 0.000420 
#    y -0.001510 1.988830 -0.021860 
#    z 0.000420 -0.021860 2.008160 
# 
# From -- ./inp_files/29496.got.cif
#   From: 2010.06.25/outbox.cif.g09.slc.cpg/sg2_15_cif.got.tgz:29496.got - 2010.06.27 13:26:56.
