data_PCOD8001188
_publ_section_title
;
Structure prediction by ZEFSAII (Michael W. Deem and Ramdas Pophale) SiO2 
 PCOD8001188
Probable space group: P -1
;
_chemical_formula_sum "Si O2"
_cell_formula_units_Z 16
_cell_length_a 14.879475
_cell_length_b 11.745942
_cell_length_c 9.763412
_cell_angle_alpha 127.859288
_cell_angle_beta 80.088685
_cell_angle_gamma 138.036838
_cell_volume 759.119957
_symmetry_space_group_name_H-M "P -1"
_symmetry_group_IT_number 2
_symmetry_cell_setting 'triclinic'
loop_
_space_group_symop_operation_xyz
x,y,z
-x,-y,-z
loop_
_atom_site_type_symbol
_atom_site_label
_atom_site_fract_x
_atom_site_fract_y
_atom_site_fract_z
Si Si1 0.352485 0.361061 0.654155
Si Si2 0.718878 0.534330 0.727103
Si Si3 0.866349 0.866426 0.691410
Si Si4 0.195747 0.167076 0.832662
Si Si5 0.683822 0.198237 0.594937
Si Si6 0.633381 0.936973 0.642094
Si Si7 0.160508 0.799376 0.659823
Si Si8 0.305096 0.086419 0.109165
O O1 0.240169 0.309404 0.544106
O O2 0.324090 0.355846 0.817260
O O3 0.297924 0.127270 0.469280
O O4 0.536266 0.620404 0.757393
O O5 0.841544 0.717041 0.707226
O O6 0.780291 0.471364 0.745404
O O7 0.548892 0.288847 0.522363
O O8 0.716964 0.667736 0.929498
O O9 0.824787 0.969005 0.840916
O O10 0.051582 0.087208 0.769977
O O11 0.135922 0.925278 0.691450
O O12 0.716189 0.126682 0.413016
O O13 0.500000 0.000000 0.500000
O O14 0.731783 0.189696 0.722853
O O15 0.653350 0.977036 0.830206
O O16 0.000000 0.500000 0.500000
O O17 0.238483 0.910694 0.870772
#
# Coordination Sequence:
#
# PCOD8001188 Si02
#       8
#     2   2   2   2   2   2   2   2
#     4  11  21  40  67  99 129 164 221 268 314 377
#     4  11  21  40  67  96 127 170 214 260 316 384
#     4  11  21  40  63 100 130 166 211 264 326 372
#     4  12  25  38  69  99 132 166 218 266 318 381
#     4  10  24  41  66  93 135 169 211 266 320 377
#     4  10  19  42  64  95 128 169 213 264 320 375
#     4  12  26  45  64  97 133 170 214 266 327 384
#     4  11  23  41  70  93 127 175 217 262 320 387
#
# _framework density 21.077038000000002
#
# number of rings (size 3 to 8) (size 9 to 14) (size 15 to 20)
#    0.000    1.000    5.000    2.250    5.250    1.000 
#    0.000    6.875    0.000    0.000    0.000    0.000 
#    0.000    0.000    0.000    0.000    0.000    0.000 
#
# Total GULP energy -198350.370748 kJ/mol
# GULP energy per Si atom -12396.898172 kJ/mol
# Density = 2.102907 g / cm^3
# Si number density = 21.077038 Si / 1000 Ang^3
#
#
#
# Elastic Constant Matrix: (Units=GPa)
#
#
# Indices 1 2 3 4 5 6 
#
# 1 101.9852 51.7968 39.0680 -7.7905 -2.6420 -9.6789
# 2 51.7968 96.3907 39.6411 -25.1729 -1.9828 -27.5110
# 3 39.0680 39.6411 93.4328 -16.9275 5.9073 -10.2192
# 4 -7.7905 -25.1729 -16.9275 30.6906 -3.7901 -2.1876
# 5 -2.6420 -1.9828 5.9073 -3.7901 30.9522 -2.3801
# 6 -9.6789 -27.5110 -10.2192 -2.1876 -2.3801 47.9824
#
#
#
# Elastic Compliance Matrix: (Units=1/GPa)
#
#
# Indices 1 2 3 4 5 6 
#
# 1 0.015114 -0.008884 -0.003978 -0.005802 0.000529 -0.003130
# 2 -0.008884 0.024591 -0.002314 0.018107 0.004465 0.012862
# 3 -0.003978 -0.002314 0.014505 0.004849 -0.002581 0.001053
# 4 -0.005802 0.018107 0.004849 0.050407 0.006903 0.012885
# 5 0.000529 0.004465 -0.002581 0.006903 0.034295 0.004133
# 6 -0.003130 0.012862 0.001053 0.012885 0.004133 0.028601
#
#
# Mechanical properties :
#
#
# Convention : Reuss Voigt Hill
#
# Bulk Modulus (GPa) = 41.91134 61.42450 51.66792
# Shear Modulus (GPa) = 24.29342 32.67856 28.48599
#
# Velocity S-wave (km/s) = 3.39868 3.94183 3.68029
# Velocity P-wave (km/s) = 5.94385 7.06565 6.52889
#
# Compressibility (1/GPa) = 0.02385989
#
# Stress axis : x y z
#
# Youngs Moduli (GPa) = 66.16172 40.66493 68.94311
#
# Poissons Ratio (x) = 0.36125 0.27424
# Poissons Ratio (y) = 0.58776 0.15952
# Poissons Ratio (z) = 0.26317 0.09409
#
# Static dielectric constant tensor:
#      x y z
#    x 4.059850 -0.549410 -0.042120 
#    y -0.549410 5.359820 0.791450 
#    z -0.042120 0.791450 4.514110 
# 
# 
# High freq. dielectric constant tensor:
#      x y z
#    x 1.830910 -0.010430 0.007290 
#    y -0.010430 1.835150 -0.018950 
#    z 0.007290 -0.018950 1.804280 
# 
# From -- ./inp_files/263333.got.cif
#   From: 2010.06.25/outbox.cif.g09.slc.cpg/sg2_132_cif.got.tgz:263333.got - 2010.06.27 13:26:56.
