data_PCOD8001506
_publ_section_title
;
Structure prediction by ZEFSAII (Michael W. Deem and Ramdas Pophale) SiO2 
 PCOD8001506
Probable space group: P -1
;
_chemical_formula_sum "Si O2"
_cell_formula_units_Z 16
_cell_length_a 14.589783
_cell_length_b 16.527311
_cell_length_c 9.373929
_cell_angle_alpha 39.364295
_cell_angle_beta 137.290599
_cell_angle_gamma 142.203290
_cell_volume 832.790284
_symmetry_space_group_name_H-M "P -1"
_symmetry_group_IT_number 2
_symmetry_cell_setting 'triclinic'
loop_
_space_group_symop_operation_xyz
x,y,z
-x,-y,-z
loop_
_atom_site_type_symbol
_atom_site_label
_atom_site_fract_x
_atom_site_fract_y
_atom_site_fract_z
Si Si1 0.260774 0.296608 0.465429
Si Si2 0.526487 0.379828 0.261211
Si Si3 0.214629 0.158578 0.090586
Si Si4 0.892558 0.425391 0.843512
Si Si5 0.139922 0.420163 0.662397
Si Si6 0.985766 0.730835 0.992174
Si Si7 0.088555 0.029796 0.834146
Si Si8 0.411934 0.605016 0.374942
O O1 0.179752 0.290889 0.227659
O O2 0.128797 0.161583 0.591037
O O3 0.309009 0.452627 0.379907
O O4 0.419350 0.283962 0.659939
O O5 0.387433 0.216124 0.277097
O O6 0.699493 0.416659 0.358555
O O7 0.525057 0.416366 0.374879
O O8 0.500000 0.500000 0.000000
O O9 0.175374 0.289130 0.848770
O O10 0.209516 0.089123 0.024849
O O11 0.088000 0.032193 0.223790
O O12 0.941276 0.557095 0.601484
O O13 0.708558 0.337753 0.805663
O O14 0.000000 0.500000 0.000000
O O15 0.924071 0.301240 0.984415
O O16 0.044141 0.379545 0.756920
O O17 0.099558 0.900010 0.943109
#
# Coordination Sequence:
#
# PCOD8001506 Si02
#       8
#     2   2   2   2   2   2   2   2
#     4  11  20  35  56  84 113 140 186 234 278 325
#     4   9  15  29  52  79 108 137 174 227 282 317
#     4   9  18  33  55  83 114 142 189 225 286 325
#     4  11  21  38  55  82 115 148 183 231 284 327
#     4   9  19  34  57  82 109 145 185 238 274 323
#     4  11  22  35  56  85 116 148 188 221 280 338
#     4  10  20  33  52  82 115 151 180 230 271 338
#     4  10  21  34  56  83 110 140 186 234 279 327
#
# _framework density 19.212519
#
# number of rings (size 3 to 8) (size 9 to 14) (size 15 to 20)
#    0.000    2.000    1.250    5.250    0.000    1.000 
#    0.000    0.625    0.000    3.000    0.000    0.000 
#    0.000    0.000    0.000    0.000    0.000    0.000 
#
# Total GULP energy -198209.379802 kJ/mol
# GULP energy per Si atom -12388.086238 kJ/mol
# Density = 1.916879 g / cm^3
# Si number density = 19.212519 Si / 1000 Ang^3
#
#
#
# Elastic Constant Matrix: (Units=GPa)
#
#
# Indices 1 2 3 4 5 6 
#
# 1 98.5218 36.0646 25.3878 5.1033 4.6552 -2.7323
# 2 36.0646 102.7357 27.0311 17.7211 -7.3607 -6.2126
# 3 25.3878 27.0311 71.4496 16.0023 -16.3755 7.4568
# 4 5.1033 17.7211 16.0023 28.2567 -1.4337 -5.9619
# 5 4.6552 -7.3607 -16.3755 -1.4337 29.8944 -2.7858
# 6 -2.7323 -6.2126 7.4568 -5.9619 -2.7858 35.7834
#
#
#
# Elastic Compliance Matrix: (Units=1/GPa)
#
#
# Indices 1 2 3 4 5 6 
#
# 1 0.013158 -0.004095 -0.005303 0.003223 -0.005668 0.001494
# 2 -0.004095 0.012918 -0.001603 -0.005999 0.002790 0.001482
# 3 -0.005303 -0.001603 0.022359 -0.011454 0.011538 -0.006353
# 4 0.003223 -0.005999 -0.011454 0.046686 -0.005179 0.008967
# 5 -0.005668 0.002790 0.011538 -0.005179 0.041091 -0.000016
# 6 0.001494 0.001482 -0.006353 0.008967 -0.000016 0.031134
#
#
# Mechanical properties :
#
#
# Convention : Reuss Voigt Hill
#
# Bulk Modulus (GPa) = 37.83314 49.96378 43.89846
# Shear Modulus (GPa) = 25.23216 31.06846 28.15031
#
# Velocity S-wave (km/s) = 3.62791 4.02567 3.83195
# Velocity P-wave (km/s) = 6.10603 6.90437 6.51744
#
# Compressibility (1/GPa) = 0.02643185
#
# Stress axis : x y z
#
# Youngs Moduli (GPa) = 75.99929 77.41373 44.72401
#
# Poissons Ratio (x) = 0.31704 0.23717
# Poissons Ratio (y) = 0.31125 0.07170
# Poissons Ratio (z) = 0.40301 0.12411
#
# Static dielectric constant tensor:
#      x y z
#    x 3.696010 0.553370 -0.119740 
#    y 0.553370 6.245630 0.880770 
#    z -0.119740 0.880770 3.454250 
# 
# 
# High freq. dielectric constant tensor:
#      x y z
#    x 1.746040 -0.001470 -0.023340 
#    y -0.001470 1.750160 0.024930 
#    z -0.023340 0.024930 1.718890 
# 
# From -- ./inp_files/312445.got.cif
#   From: 2010.06.25/outbox.cif.g09.slc.cpg/sg2_157_cif.got.tgz:312445.got - 2010.06.27 13:26:56.
