data_PCOD8001684
_publ_section_title
;
Structure prediction by ZEFSAII (Michael W. Deem and Ramdas Pophale) SiO2 
 PCOD8001684
Probable space group: P -1
;
_chemical_formula_sum "Si O2"
_cell_formula_units_Z 16
_cell_length_a 14.545113
_cell_length_b 20.344754
_cell_length_c 9.405572
_cell_angle_alpha 113.781199
_cell_angle_beta 65.530995
_cell_angle_gamma 160.255080
_cell_volume 855.016514
_symmetry_space_group_name_H-M "P -1"
_symmetry_group_IT_number 2
_symmetry_cell_setting 'triclinic'
loop_
_space_group_symop_operation_xyz
x,y,z
-x,-y,-z
loop_
_atom_site_type_symbol
_atom_site_label
_atom_site_fract_x
_atom_site_fract_y
_atom_site_fract_z
Si Si1 0.278603 0.248085 0.937714
Si Si2 0.769937 0.635254 0.810613
Si Si3 0.155604 0.500261 0.819378
Si Si4 0.736724 0.269566 0.115736
Si Si5 0.373766 0.880465 0.656054
Si Si6 0.068038 0.744333 0.492554
Si Si7 0.312245 0.986121 0.915308
Si Si8 0.336764 0.161201 0.029065
O O1 0.488708 0.406458 0.816301
O O2 0.283646 0.314525 0.112418
O O3 0.372881 0.235500 0.934263
O O4 0.973407 0.038333 0.885452
O O5 0.888587 0.689037 0.630038
O O6 0.983125 0.758915 0.912544
O O7 0.155445 0.577914 0.812112
O O8 0.454187 0.677162 0.841760
O O9 0.096724 0.400290 0.655435
O O10 0.935372 0.354034 0.961070
O O11 0.743792 0.242355 0.245055
O O12 0.425049 0.059525 0.069540
O O13 0.141769 0.732334 0.553435
O O14 0.457639 0.017591 0.765786
O O15 0.655147 0.033849 0.548104
O O16 0.400900 0.121096 0.906406
#
# Coordination Sequence:
#
# PCOD8001684 Si02
#       8
#     2   2   2   2   2   2   2   2
#     4   9  18  37  57  80  98 137 191 232 264 312
#     4   9  19  34  57  79 106 137 183 227 270 314
#     4  10  21  35  52  81 114 143 180 217 260 328
#     4  10  20  34  54  80 113 150 179 209 256 323
#     4  10  20  34  53  78 116 148 174 213 262 322
#     4  10  21  35  50  80 116 143 173 220 269 319
#     4   9  17  32  53  83 106 135 178 220 254 316
#     4   9  19  33  56  79 104 136 182 230 266 302
#
# _framework density 18.713087000000002
#
# number of rings (size 3 to 8) (size 9 to 14) (size 15 to 20)
#    0.000    2.500    1.250    0.375    3.500    0.500 
#    0.000    7.500    0.000    0.000    0.000    0.000 
#    0.000    0.000    0.000    0.000    0.000    0.000 
#
# Total GULP energy -198306.337050 kJ/mol
# GULP energy per Si atom -12394.146066 kJ/mol
# Density = 1.867050 g / cm^3
# Si number density = 18.713087 Si / 1000 Ang^3
#
#
#
# Elastic Constant Matrix: (Units=GPa)
#
#
# Indices 1 2 3 4 5 6 
#
# 1 79.0013 29.2017 22.4253 -12.6568 7.7939 -3.5303
# 2 29.2017 85.9449 32.2636 -5.4910 8.6960 2.2216
# 3 22.4253 32.2636 76.8792 -14.3380 3.1421 0.0454
# 4 -12.6568 -5.4910 -14.3380 28.6615 4.1495 6.9853
# 5 7.7939 8.6960 3.1421 4.1495 28.2829 -2.3059
# 6 -3.5303 2.2216 0.0454 6.9853 -2.3059 21.1546
#
#
#
# Elastic Compliance Matrix: (Units=1/GPa)
#
#
# Indices 1 2 3 4 5 6 
#
# 1 0.015975 -0.004050 -0.001732 0.005763 -0.003746 0.000784
# 2 -0.004050 0.015319 -0.005188 -0.000384 -0.003164 -0.002492
# 3 -0.001732 -0.005188 0.017150 0.007572 -0.001140 -0.002405
# 4 0.005763 -0.000384 0.007572 0.046424 -0.010384 -0.015476
# 5 -0.003746 -0.003164 -0.001140 -0.010384 0.039620 0.007457
# 6 0.000784 -0.002492 -0.002405 -0.015476 0.007457 0.053592
#
#
# Mechanical properties :
#
#
# Convention : Reuss Voigt Hill
#
# Bulk Modulus (GPa) = 37.73300 45.51183 41.62241
# Shear Modulus (GPa) = 22.84593 26.14878 24.49736
#
# Velocity S-wave (km/s) = 3.49786 3.74217 3.62208
# Velocity P-wave (km/s) = 6.04327 6.56090 6.30740
#
# Compressibility (1/GPa) = 0.02650200
#
# Stress axis : x y z
#
# Youngs Moduli (GPa) = 62.59829 65.27694 58.30821
#
# Poissons Ratio (x) = 0.26440 0.10102
# Poissons Ratio (y) = 0.25355 0.30252
# Poissons Ratio (z) = 0.10845 0.33867
#
# Static dielectric constant tensor:
#      x y z
#    x 3.429690 0.156320 -0.107080 
#    y 0.156320 3.524190 0.114310 
#    z -0.107080 0.114310 3.213250 
# 
# 
# High freq. dielectric constant tensor:
#      x y z
#    x 1.717670 0.008880 -0.008520 
#    y 0.008880 1.733960 0.009150 
#    z -0.008520 0.009150 1.694810 
# 
# From -- ./inp_files/179250.got.cif
#   From: 2010.06.25/outbox.cif.g09.slc.cpg/sg2_90_cif.got.tgz:179250.got - 2010.06.27 13:26:56.
