data_PCOD8001514
_publ_section_title
;
Structure prediction by ZEFSAII (Michael W. Deem and Ramdas Pophale) SiO2 
 PCOD8001514
Probable space group: P -1
;
_chemical_formula_sum "Si O2"
_cell_formula_units_Z 14
_cell_length_a 11.721386
_cell_length_b 10.482127
_cell_length_c 9.218354
_cell_angle_alpha 118.086067
_cell_angle_beta 58.662894
_cell_angle_gamma 83.235669
_cell_volume 748.143959
_symmetry_space_group_name_H-M "P -1"
_symmetry_group_IT_number 2
_symmetry_cell_setting 'triclinic'
loop_
_space_group_symop_operation_xyz
x,y,z
-x,-y,-z
loop_
_atom_site_type_symbol
_atom_site_label
_atom_site_fract_x
_atom_site_fract_y
_atom_site_fract_z
Si Si1 0.575954 0.627015 0.146434
Si Si2 0.123611 0.820144 0.651541
Si Si3 0.328539 0.142861 0.686101
Si Si4 0.721584 0.063287 0.599963
Si Si5 0.796809 0.986122 0.062551
Si Si6 0.574156 0.117126 0.023723
Si Si7 0.623289 0.525029 0.745317
O O1 0.680302 0.675860 0.207440
O O2 0.435796 0.799998 0.288046
O O3 0.515761 0.516426 0.209159
O O4 0.660928 0.533028 0.894111
O O5 0.150335 0.890493 0.517842
O O6 0.219356 0.621673 0.498259
O O7 0.946277 0.873877 0.808452
O O8 0.178400 0.890173 0.785267
O O9 0.500000 0.000000 0.500000
O O10 0.248925 0.114323 0.579816
O O11 0.241026 0.135291 0.883757
O O12 0.704230 0.070716 0.788882
O O13 0.655198 0.097204 0.112543
O O14 0.432179 0.301893 0.205849
O O15 0.500000 0.000000 0.000000
#
# Coordination Sequence:
#
# PCOD8001514 Si02
#       7
#     2   2   2   2   2   2   2
#     4   8  14  27  48  73  94 128 174 206 234 292
#     4   9  19  36  53  73 100 140 174 196 243 308
#     4   9  15  29  51  72  95 132 171 203 241 295
#     4   8  16  30  50  70  98 134 167 201 246 298
#     4  10  20  33  53  78 105 130 166 211 249 297
#     4  11  21  33  50  80 106 126 165 218 258 288
#     4   9  17  30  50  73 101 130 167 210 249 292
#
# _framework density 18.712976999999999
#
# number of rings (size 3 to 8) (size 9 to 14) (size 15 to 20)
#    0.000    2.857    0.000    4.286    0.000    1.143 
#    0.000    2.857    0.000    0.000    0.000   10.000 
#    0.000    0.000    0.000    0.000    0.000    0.000 
#
# Total GULP energy -173471.877255 kJ/mol
# GULP energy per Si atom -12390.848375 kJ/mol
# Density = 1.867039 g / cm^3
# Si number density = 18.712977 Si / 1000 Ang^3
#
#
#
# Elastic Constant Matrix: (Units=GPa)
#
#
# Indices 1 2 3 4 5 6 
#
# 1 37.7617 17.3546 12.2400 8.8654 -1.5266 11.6350
# 2 17.3546 68.6487 25.8392 13.9816 1.7961 15.5771
# 3 12.2400 25.8392 89.3198 4.5138 -13.7433 12.4915
# 4 8.8654 13.9816 4.5138 31.4329 5.0255 4.8469
# 5 -1.5266 1.7961 -13.7433 5.0255 25.4877 0.5897
# 6 11.6350 15.5771 12.4915 4.8469 0.5897 27.1188
#
#
#
# Elastic Compliance Matrix: (Units=1/GPa)
#
#
# Indices 1 2 3 4 5 6 
#
# 1 0.033703 -0.004612 -0.001028 -0.006240 0.003258 -0.010293
# 2 -0.004612 0.020067 -0.004426 -0.005540 -0.002835 -0.006457
# 3 -0.001028 -0.004426 0.014435 -0.000552 0.008229 -0.003746
# 4 -0.006240 -0.005540 -0.000552 0.037402 -0.007646 -0.000404
# 5 0.003258 -0.002835 0.008229 -0.007646 0.045648 -0.003186
# 6 -0.010293 -0.006457 -0.003746 -0.000404 -0.003186 0.046867
#
#
# Mechanical properties :
#
#
# Convention : Reuss Voigt Hill
#
# Bulk Modulus (GPa) = 20.80235 34.06642 27.43439
# Shear Modulus (GPa) = 21.34212 26.16096 23.75154
#
# Velocity S-wave (km/s) = 3.38079 3.74306 3.56653
# Velocity P-wave (km/s) = 5.13618 6.07658 5.62606
#
# Compressibility (1/GPa) = 0.04807149
#
# Stress axis : x y z
#
# Youngs Moduli (GPa) = 29.67120 49.83415 69.27554
#
# Poissons Ratio (x) = 0.22983 0.07124
# Poissons Ratio (y) = 0.13684 0.30663
# Poissons Ratio (z) = 0.03051 0.22058
#
# Static dielectric constant tensor:
#      x y z
#    x 3.481160 0.443450 0.286790 
#    y 0.443450 3.497750 -0.085550 
#    z 0.286790 -0.085550 3.919620 
# 
# 
# High freq. dielectric constant tensor:
#      x y z
#    x 1.699670 0.034010 0.018220 
#    y 0.034010 1.699520 -0.006770 
#    z 0.018220 -0.006770 1.732230 
# 
# From -- ./inp_files/195077.got.cif
#   From: 2010.06.25/outbox.cif.g09.slc.cpg/sg2_98_cif.got.tgz:195077.got - 2010.06.27 13:26:56.
