data_PCOD8001393
_publ_section_title
;
Structure prediction by ZEFSAII (Michael W. Deem and Ramdas Pophale) SiO2 
 PCOD8001393
Probable space group: P -1
;
_chemical_formula_sum "Si O2"
_cell_formula_units_Z 10
_cell_length_a 7.091966
_cell_length_b 11.984527
_cell_length_c 12.131310
_cell_angle_alpha 56.966616
_cell_angle_beta 136.590597
_cell_angle_gamma 111.805022
_cell_volume 593.491458
_symmetry_space_group_name_H-M "P -1"
_symmetry_group_IT_number 2
_symmetry_cell_setting 'triclinic'
loop_
_space_group_symop_operation_xyz
x,y,z
-x,-y,-z
loop_
_atom_site_type_symbol
_atom_site_label
_atom_site_fract_x
_atom_site_fract_y
_atom_site_fract_z
Si Si1 0.630406 0.183193 0.504901
Si Si2 0.823485 0.471701 0.777835
Si Si3 0.917715 0.707785 0.842622
Si Si4 0.137407 0.031550 0.427641
Si Si5 0.201285 0.557592 0.465372
O O1 0.451097 0.078537 0.555243
O O2 0.780439 0.283376 0.595500
O O3 0.412163 0.269437 0.288710
O O4 0.856392 0.102491 0.571058
O O5 0.495106 0.480604 0.642952
O O6 0.919341 0.465394 0.695145
O O7 0.965004 0.596650 0.827016
O O8 0.929633 0.336313 0.956974
O O9 0.034405 0.847711 0.772651
O O10 0.000000 0.000000 0.500000
O O11 0.000000 0.500000 0.500000
#
# Coordination Sequence:
#
# PCOD8001393 Si02
#       5
#     2   2   2   2   2
#     4   8  18  33  48  76  97 124 172 197 241 290
#     4   9  18  34  49  73 106 124 162 210 241 288
#     4   8  16  34  51  74  99 127 162 212 240 275
#     4   9  17  31  55  72  95 131 164 204 241 288
#     4  10  20  32  51  73 102 137 158 196 253 299
#
# _framework density 16.849440999999999
#
# number of rings (size 3 to 8) (size 9 to 14) (size 15 to 20)
#    1.200    2.000    0.000    0.000    2.800    0.000 
#    3.600    4.000    0.000    2.400    0.000    0.000 
#    0.000    0.000    0.000    0.000    0.000    0.000 
#
# Total GULP energy -123893.478085 kJ/mol
# GULP energy per Si atom -12389.347809 kJ/mol
# Density = 1.681109 g / cm^3
# Si number density = 16.849441 Si / 1000 Ang^3
#
#
#
# Elastic Constant Matrix: (Units=GPa)
#
#
# Indices 1 2 3 4 5 6 
#
# 1 133.7105 46.4534 43.2229 -4.7366 -17.2748 -12.8674
# 2 46.4534 95.5011 38.0640 -12.5896 -11.3917 -15.2093
# 3 43.2229 38.0640 79.1223 -12.5133 -27.5766 -9.6638
# 4 -4.7366 -12.5896 -12.5133 28.0149 2.7892 0.1677
# 5 -17.2748 -11.3917 -27.5766 2.7892 22.1279 1.3801
# 6 -12.8674 -15.2093 -9.6638 0.1677 1.3801 20.5728
#
#
#
# Elastic Compliance Matrix: (Units=1/GPa)
#
#
# Indices 1 2 3 4 5 6 
#
# 1 0.010066 -0.003198 -0.003028 -0.001347 0.002461 0.002355
# 2 -0.003198 0.015432 -0.004473 0.004466 -0.001148 0.007348
# 3 -0.003028 -0.004473 0.028786 0.007322 0.029894 0.006256
# 4 -0.001347 0.004466 0.007322 0.040218 0.004976 0.005237
# 5 0.002461 -0.001148 0.029894 0.004976 0.082579 0.009153
# 6 0.002355 0.007348 0.006256 0.005237 0.009153 0.057795
#
#
# Mechanical properties :
#
#
# Convention : Reuss Voigt Hill
#
# Bulk Modulus (GPa) = 30.40902 62.64605 46.52754
# Shear Modulus (GPa) = 18.71018 26.18271 22.44644
#
# Velocity S-wave (km/s) = 3.33593 3.94626 3.65386
# Velocity P-wave (km/s) = 5.73800 7.61738 6.74348
#
# Compressibility (1/GPa) = 0.03288498
#
# Stress axis : x y z
#
# Youngs Moduli (GPa) = 99.34874 64.80208 34.73968
#
# Poissons Ratio (x) = 0.20726 0.10517
# Poissons Ratio (y) = 0.31775 0.15539
# Poissons Ratio (z) = 0.30078 0.28986
#
# Static dielectric constant tensor:
#      x y z
#    x 2.884530 -0.126540 -0.034780 
#    y -0.126540 3.300910 -0.161350 
#    z -0.034780 -0.161350 2.962520 
# 
# 
# High freq. dielectric constant tensor:
#      x y z
#    x 1.630660 -0.011550 -0.002570 
#    y -0.011550 1.656940 -0.015270 
#    z -0.002570 -0.015270 1.619000 
# 
# From -- ./inp_files/23651.got.cif
#   From: 2010.06.25/outbox.cif.g09.slc.cpg/sg2_12_cif.got.tgz:23651.got - 2010.06.27 13:26:56.
