data_PCOD8001806
_publ_section_title
;
Structure prediction by ZEFSAII (Michael W. Deem and Ramdas Pophale) SiO2 
 PCOD8001806
Probable space group: P -1
;
_chemical_formula_sum "Si O2"
_cell_formula_units_Z 16
_cell_length_a 12.138203
_cell_length_b 14.716007
_cell_length_c 5.134336
_cell_angle_alpha 69.623233
_cell_angle_beta 96.316684
_cell_angle_gamma 74.464204
_cell_volume 807.068733
_symmetry_space_group_name_H-M "P -1"
_symmetry_group_IT_number 2
_symmetry_cell_setting 'triclinic'
loop_
_space_group_symop_operation_xyz
x,y,z
-x,-y,-z
loop_
_atom_site_type_symbol
_atom_site_label
_atom_site_fract_x
_atom_site_fract_y
_atom_site_fract_z
Si Si1 0.819728 0.054903 0.539427
Si Si2 0.878019 0.716031 0.498767
Si Si3 0.098480 0.882221 0.005901
Si Si4 0.291616 0.737994 0.497075
Si Si5 0.853629 0.400469 0.325565
Si Si6 0.219816 0.467239 0.310867
Si Si7 0.863030 0.839467 0.885657
Si Si8 0.518626 0.559911 0.692744
O O1 0.878642 0.045199 0.283672
O O2 0.712055 0.162090 0.429450
O O3 0.919400 0.054126 0.787411
O O4 0.779329 0.955640 0.679309
O O5 0.817061 0.630712 0.539197
O O6 0.821084 0.803212 0.180178
O O7 0.014871 0.670048 0.508819
O O8 0.855482 0.762711 0.733284
O O9 0.215593 0.780690 0.172232
O O10 0.995396 0.840314 0.939798
O O11 0.227530 0.668017 0.701995
O O12 0.426281 0.674774 0.540321
O O13 0.797463 0.466328 0.498621
O O14 0.858880 0.469775 0.009044
O O15 0.353728 0.429527 0.287811
O O16 0.500000 0.500000 0.500000
O O17 0.500000 0.500000 0.000000
#
# Coordination Sequence:
#
# PCOD8001806 Si02
#       8
#     2   2   2   2   2   2   2   2
#     4  10  22  34  58  89 123 153 192 243 298 360
#     4  12  25  38  61  86 122 167 197 238 285 356
#     4  10  20  34  56  88 124 148 194 237 304 342
#     4  10  23  35  63  87 122 149 195 242 308 336
#     4  12  22  40  61  88 124 155 197 241 298 360
#     4  12  25  42  59  87 122 160 203 240 290 355
#     4  12  21  38  59  87 123 158 199 239 293 350
#     4  12  24  40  63  88 117 154 197 250 299 343
#
# _framework density 19.824829999999999
#
# number of rings (size 3 to 8) (size 9 to 14) (size 15 to 20)
#    0.750    0.000    3.750    5.250    3.500    0.000 
#    0.000    0.000    0.000    1.500    0.000    0.000 
#    0.000    0.000    0.000    0.000    0.000    0.000 
#
# Total GULP energy -198381.002155 kJ/mol
# GULP energy per Si atom -12398.812635 kJ/mol
# Density = 1.977971 g / cm^3
# Si number density = 19.824830 Si / 1000 Ang^3
#
#
#
# Elastic Constant Matrix: (Units=GPa)
#
#
# Indices 1 2 3 4 5 6 
#
# 1 47.0842 33.7100 4.4099 -5.9731 -4.8389 -5.8749
# 2 33.7100 102.4579 34.7132 -10.0760 -2.8835 -5.7737
# 3 4.4099 34.7132 134.7682 -1.5829 -11.4616 2.8017
# 4 -5.9731 -10.0760 -1.5829 36.5156 6.4708 -4.9205
# 5 -4.8389 -2.8835 -11.4616 6.4708 18.9986 -1.2358
# 6 -5.8749 -5.7737 2.8017 -4.9205 -1.2358 19.5543
#
#
#
# Elastic Compliance Matrix: (Units=1/GPa)
#
#
# Indices 1 2 3 4 5 6 
#
# 1 0.029832 -0.009729 0.002018 0.001929 0.007120 0.006736
# 2 -0.009729 0.014593 -0.003749 0.003225 -0.003460 0.002516
# 3 0.002018 -0.003749 0.008822 -0.001572 0.005686 -0.001801
# 4 0.001929 0.003225 -0.001572 0.031536 -0.010120 0.009053
# 5 0.007120 -0.003460 0.005686 -0.010120 0.060905 0.001606
# 6 0.006736 0.002516 -0.001801 0.009053 0.001606 0.056544
#
#
# Mechanical properties :
#
#
# Convention : Reuss Voigt Hill
#
# Bulk Modulus (GPa) = 32.97415 47.77515 40.37465
# Shear Modulus (GPa) = 21.25292 29.11217 25.18254
#
# Velocity S-wave (km/s) = 3.27775 3.83622 3.56793
# Velocity P-wave (km/s) = 5.56720 6.61612 6.11420
#
# Compressibility (1/GPa) = 0.03032678
#
# Stress axis : x y z
#
# Youngs Moduli (GPa) = 33.52090 68.52647 113.34891
#
# Poissons Ratio (x) = 0.66671 -0.22874
# Poissons Ratio (y) = 0.32613 0.42496
# Poissons Ratio (z) = -0.06765 0.25691
#
# Static dielectric constant tensor:
#      x y z
#    x 3.388010 -0.190210 0.002540 
#    y -0.190210 3.812510 -0.129380 
#    z 0.002540 -0.129380 3.883420 
# 
# 
# High freq. dielectric constant tensor:
#      x y z
#    x 1.722210 -0.002080 0.001420 
#    y -0.002080 1.784820 -0.005020 
#    z 0.001420 -0.005020 1.796530 
# 
# From -- ./inp_files/77132.got.cif
#   From: 2010.06.25/outbox.cif.g09.slc.cpg/sg2_39_cif.got.tgz:77132.got - 2010.06.27 13:26:56.
