data_PCOD8001269
_publ_section_title
;
Structure prediction by ZEFSAII (Michael W. Deem and Ramdas Pophale) SiO2 
 PCOD8001269
Probable space group: P -1
;
_chemical_formula_sum "Si O2"
_cell_formula_units_Z 16
_cell_length_a 8.725156
_cell_length_b 14.532601
_cell_length_c 12.211808
_cell_angle_alpha 149.620963
_cell_angle_beta 104.861332
_cell_angle_gamma 85.285533
_cell_volume 725.601047
_symmetry_space_group_name_H-M "P -1"
_symmetry_group_IT_number 2
_symmetry_cell_setting 'triclinic'
loop_
_space_group_symop_operation_xyz
x,y,z
-x,-y,-z
loop_
_atom_site_type_symbol
_atom_site_label
_atom_site_fract_x
_atom_site_fract_y
_atom_site_fract_z
Si Si1 0.245240 0.369600 0.224706
Si Si2 0.179555 0.637692 0.649844
Si Si3 0.258878 0.197937 0.491758
Si Si4 0.959094 0.345216 0.987870
Si Si5 0.526706 0.568671 0.868399
Si Si6 0.177511 0.349416 0.841763
Si Si7 0.074462 0.959055 0.858428
Si Si8 0.668677 0.162073 0.894058
O O1 0.284484 0.510466 0.481093
O O2 0.408081 0.414276 0.226095
O O3 0.096439 0.418046 0.181334
O O4 0.196233 0.149763 0.026113
O O5 0.176118 0.807615 0.740925
O O6 0.000000 0.500000 0.500000
O O7 0.263001 0.726826 0.868700
O O8 0.354003 0.405653 0.677489
O O9 0.076023 0.128604 0.339474
O O10 0.374115 0.065697 0.337368
O O11 0.231883 0.200942 0.621469
O O12 0.037556 0.252413 0.806724
O O13 0.895432 0.518356 0.112967
O O14 0.806011 0.190908 0.853615
O O15 0.659333 0.531016 0.939548
O O16 0.487961 0.767339 0.097516
O O17 0.000000 0.000000 0.000000
#
# Coordination Sequence:
#
# PCOD8001269 Si02
#       8
#     2   2   2   2   2   2   2   2
#     4  11  24  44  67  99 133 171 216 280 321 385
#     4  12  21  39  70  97 127 174 217 270 324 383
#     4  12  23  42  69  97 129 179 214 270 330 389
#     4  10  19  43  67  99 126 164 229 269 313 388
#     4  11  27  46  62  97 141 172 214 271 337 385
#     4  10  23  41  71  94 132 176 219 270 328 384
#     4  12  22  41  70 101 125 168 228 266 319 392
#     4  12  24  40  66  96 133 171 223 264 325 398
#
# _framework density 22.050687
#
# number of rings (size 3 to 8) (size 9 to 14) (size 15 to 20)
#    0.000    0.750    6.250    1.875    0.000    2.500 
#    0.000    1.250    0.000    0.000    0.000    0.000 
#    0.000    0.000    0.000    0.000    0.000    0.000 
#
# Total GULP energy -198365.105034 kJ/mol
# GULP energy per Si atom -12397.819065 kJ/mol
# Density = 2.200050 g / cm^3
# Si number density = 22.050687 Si / 1000 Ang^3
#
#
#
# Elastic Constant Matrix: (Units=GPa)
#
#
# Indices 1 2 3 4 5 6 
#
# 1 91.7773 33.3524 35.6232 2.8153 -24.4301 20.3265
# 2 33.3524 106.7780 47.9622 3.3636 -8.8266 6.9011
# 3 35.6232 47.9622 106.5895 -2.1270 -19.5103 15.3301
# 4 2.8153 3.3636 -2.1270 29.9560 -1.0852 -16.6451
# 5 -24.4301 -8.8266 -19.5103 -1.0852 23.3070 -3.0207
# 6 20.3265 6.9011 15.3301 -16.6451 -3.0207 42.3269
#
#
#
# Elastic Compliance Matrix: (Units=1/GPa)
#
#
# Indices 1 2 3 4 5 6 
#
# 1 0.019197 -0.003578 -0.000450 -0.006224 0.016841 -0.009719
# 2 -0.003578 0.012517 -0.005189 -0.001052 -0.003285 0.000909
# 3 -0.000450 -0.005189 0.013963 0.000084 0.008824 -0.003332
# 4 -0.006224 -0.001052 0.000084 0.045654 -0.002012 0.020940
# 5 0.016841 -0.003285 0.008824 -0.002012 0.065720 -0.006849
# 6 -0.009719 0.000909 -0.003332 0.020940 -0.006849 0.037097
#
#
# Mechanical properties :
#
#
# Convention : Reuss Voigt Hill
#
# Bulk Modulus (GPa) = 36.70678 59.89116 48.29897
# Shear Modulus (GPa) = 22.55683 31.66512 27.11098
#
# Velocity S-wave (km/s) = 3.20183 3.79359 3.51020
# Velocity P-wave (km/s) = 5.50924 6.81235 6.19515
#
# Compressibility (1/GPa) = 0.02724293
#
# Stress axis : x y z
#
# Youngs Moduli (GPa) = 52.09131 79.89426 71.61645
#
# Poissons Ratio (x) = 0.28586 0.03220
# Poissons Ratio (y) = 0.18638 0.37165
# Poissons Ratio (z) = 0.02342 0.41460
#
# Static dielectric constant tensor:
#      x y z
#    x 4.051630 0.010680 -0.348140 
#    y 0.010680 4.638870 -0.631630 
#    z -0.348140 -0.631630 5.158220 
# 
# 
# High freq. dielectric constant tensor:
#      x y z
#    x 1.863120 -0.000790 -0.018830 
#    y -0.000790 1.880290 -0.009000 
#    z -0.018830 -0.009000 1.857370 
# 
# From -- ./inp_files/400112.got.cif
#   From: 2010.06.25/outbox.cif.g09.slc.cpg/sg2_201_cif.got.tgz:400112.got - 2010.06.27 13:26:56.
