data_PCOD8001127
_publ_section_title
;
Structure prediction by ZEFSAII (Michael W. Deem and Ramdas Pophale) SiO2 
 PCOD8001127
Probable space group: P -1
;
_chemical_formula_sum "Si O2"
_cell_formula_units_Z 14
_cell_length_a 13.427161
_cell_length_b 15.183865
_cell_length_c 14.602060
_cell_angle_alpha 27.364551
_cell_angle_beta 45.313098
_cell_angle_gamma 28.664959
_cell_volume 616.146347
_symmetry_space_group_name_H-M "P -1"
_symmetry_group_IT_number 2
_symmetry_cell_setting 'triclinic'
loop_
_space_group_symop_operation_xyz
x,y,z
-x,-y,-z
loop_
_atom_site_type_symbol
_atom_site_label
_atom_site_fract_x
_atom_site_fract_y
_atom_site_fract_z
Si Si1 0.565336 0.088598 0.952297
Si Si2 0.017925 0.807882 0.874702
Si Si3 0.798205 0.365017 0.414841
Si Si4 0.080798 0.632862 0.326193
Si Si5 0.882896 0.672907 0.821339
Si Si6 0.245336 0.719989 0.984007
Si Si7 0.581877 0.734945 0.389901
O O1 0.367842 0.456352 0.730827
O O2 0.795109 0.947567 0.923864
O O3 0.500000 0.000000 0.000000
O O4 0.576743 0.967872 0.153155
O O5 0.128204 0.819193 0.870693
O O6 0.951447 0.013700 0.641161
O O7 0.181658 0.463749 0.056073
O O8 0.654984 0.520942 0.457157
O O9 0.947680 0.397310 0.289587
O O10 0.263164 0.471333 0.434757
O O11 0.000000 0.500000 0.500000
O O12 0.200887 0.574521 0.207907
O O13 0.863419 0.988379 0.160203
O O14 0.673528 0.035464 0.632017
O O15 0.000000 0.500000 0.000000
O O16 0.500000 0.500000 0.000000
#
# Coordination Sequence:
#
# PCOD8001127 Si02
#       7
#     2   2   2   2   2   2   2
#     4  10  19  41  68  96 138 180 223 279 344 418
#     4  12  24  44  74  97 144 190 223 293 357 402
#     4  11  23  45  68 100 141 183 228 282 352 421
#     4  11  26  48  76 102 137 187 244 300 357 423
#     4  12  25  44  66 106 144 180 238 282 335 437
#     4  11  28  50  70 109 144 179 249 302 352 425
#     4  11  22  43  70  97 138 182 226 284 350 407
#
# _framework density 22.721876000000002
#
# number of rings (size 3 to 8) (size 9 to 14) (size 15 to 20)
#    0.000    0.857    5.714    2.143    4.000    1.143 
#    2.571    0.000    0.000    0.000    0.000    0.000 
#    0.000    0.000    0.000    0.000    0.000    0.000 
#
# Total GULP energy -173514.008391 kJ/mol
# GULP energy per Si atom -12393.857742 kJ/mol
# Density = 2.267016 g / cm^3
# Si number density = 22.721876 Si / 1000 Ang^3
#
#
#
# Elastic Constant Matrix: (Units=GPa)
#
#
# Indices 1 2 3 4 5 6 
#
# 1 56.4798 23.0392 7.8744 -5.1706 -0.3659 -24.4923
# 2 23.0392 110.5616 36.7233 -8.6515 -3.3660 -22.0173
# 3 7.8744 36.7233 98.8899 2.0950 6.6494 -12.1573
# 4 -5.1706 -8.6515 2.0950 32.7657 0.5549 3.3577
# 5 -0.3659 -3.3660 6.6494 0.5549 42.5257 -2.3752
# 6 -24.4923 -22.0173 -12.1573 3.3577 -2.3752 31.3529
#
#
#
# Elastic Compliance Matrix: (Units=1/GPa)
#
#
# Indices 1 2 3 4 5 6 
#
# 1 0.027268 -0.001765 0.000872 0.001683 0.001070 0.020301
# 2 -0.001765 0.012024 -0.003831 0.002553 0.001806 0.005443
# 3 0.000872 -0.003831 0.011969 -0.001880 -0.001993 0.002683
# 4 0.001683 0.002553 -0.001880 0.031683 0.000041 -0.001012
# 5 0.001070 0.001806 -0.001993 0.000041 0.024155 0.003157
# 6 0.020301 0.005443 0.002683 -0.001012 0.003157 0.052964
#
#
# Mechanical properties :
#
#
# Convention : Reuss Voigt Hill
#
# Bulk Modulus (GPa) = 23.91554 44.57834 34.24694
# Shear Modulus (GPa) = 27.25579 34.54848 30.90214
#
# Velocity S-wave (km/s) = 3.46719 3.90358 3.69184
# Velocity P-wave (km/s) = 5.15527 6.32289 5.76870
#
# Compressibility (1/GPa) = 0.04181383
#
# Stress axis : x y z
#
# Youngs Moduli (GPa) = 36.67257 83.16996 83.54875
#
# Poissons Ratio (x) = 0.14679 -0.07288
# Poissons Ratio (y) = 0.06472 0.32007
# Poissons Ratio (z) = -0.03199 0.31862
#
# Static dielectric constant tensor:
#      x y z
#    x 3.785790 -0.157870 0.247410 
#    y -0.157870 4.278570 0.080750 
#    z 0.247410 0.080750 4.653840 
# 
# 
# High freq. dielectric constant tensor:
#      x y z
#    x 1.872970 -0.016230 0.002550 
#    y -0.016230 1.896140 0.000500 
#    z 0.002550 0.000500 1.916890 
# 
# From -- ./inp_files/534111.got.cif
#   From: 2010.06.25/outbox.cif.g09.slc.cpg/sg2_268_cif.got.tgz:534111.got - 2010.06.27 13:26:56.
