data_PCOD8001939
_publ_section_title
;
Structure prediction by ZEFSAII (Michael W. Deem and Ramdas Pophale) SiO2 
 PCOD8001939
Probable space group: P -1
;
_chemical_formula_sum "Si O2"
_cell_formula_units_Z 14
_cell_length_a 9.159275
_cell_length_b 12.288363
_cell_length_c 8.870235
_cell_angle_alpha 58.128261
_cell_angle_beta 99.250371
_cell_angle_gamma 122.626574
_cell_volume 703.254914
_symmetry_space_group_name_H-M "P -1"
_symmetry_group_IT_number 2
_symmetry_cell_setting 'triclinic'
loop_
_space_group_symop_operation_xyz
x,y,z
-x,-y,-z
loop_
_atom_site_type_symbol
_atom_site_label
_atom_site_fract_x
_atom_site_fract_y
_atom_site_fract_z
Si Si1 0.813181 0.159569 0.556657
Si Si2 0.088616 0.147740 0.806749
Si Si3 0.171714 0.631646 0.843788
Si Si4 0.512746 0.076867 0.186408
Si Si5 0.123947 0.424784 0.744492
Si Si6 0.402672 0.124106 0.829502
Si Si7 0.222626 0.642026 0.348423
O O1 0.867126 0.254304 0.339770
O O2 0.772837 0.247256 0.607475
O O3 0.969319 0.140603 0.653330
O O4 0.621639 0.996761 0.637829
O O5 0.135384 0.277305 0.846710
O O6 0.260185 0.167197 0.743571
O O7 0.000000 0.000000 0.000000
O O8 0.339034 0.744556 0.893449
O O9 0.237453 0.545781 0.806807
O O10 0.000000 0.500000 0.000000
O O11 0.610406 0.989193 0.221493
O O12 0.381541 0.049887 0.044881
O O13 0.175739 0.487274 0.536072
O O14 0.927071 0.388322 0.774855
O O15 0.590298 0.283480 0.752902
#
# Coordination Sequence:
#
# PCOD8001939 Si02
#       7
#     2   2   2   2   2   2   2
#     4   9  19  38  58  84 110 150 189 231 281 327
#     4  11  21  35  60  83 115 147 182 234 283 333
#     4  11  22  35  60  84 113 148 191 236 276 330
#     4  10  20  36  59  84 112 147 194 232 267 338
#     4   9  19  35  55  82 112 146 182 231 286 324
#     4  10  20  34  60  87 107 146 195 229 273 332
#     4   8  16  34  58  81 108 141 192 235 264 327
#
# _framework density 19.907433000000001
#
# number of rings (size 3 to 8) (size 9 to 14) (size 15 to 20)
#    0.000    2.286    1.429    2.143    4.000    0.571 
#    0.000    1.429    0.000    0.000    0.000    0.000 
#    0.000    0.000    0.000    0.000    0.000    0.000 
#
# Total GULP energy -173440.791997 kJ/mol
# GULP energy per Si atom -12388.628000 kJ/mol
# Density = 1.986212 g / cm^3
# Si number density = 19.907433 Si / 1000 Ang^3
#
#
#
# Elastic Constant Matrix: (Units=GPa)
#
#
# Indices 1 2 3 4 5 6 
#
# 1 117.7362 40.8152 45.8375 -11.8980 1.1803 0.9017
# 2 40.8152 114.6642 23.0552 -12.5092 0.5682 -0.3893
# 3 45.8375 23.0552 85.1327 -16.3679 -0.5976 6.4819
# 4 -11.8980 -12.5092 -16.3679 33.5746 6.8203 -2.3364
# 5 1.1803 0.5682 -0.5976 6.8203 27.2852 -10.2961
# 6 0.9017 -0.3893 6.4819 -2.3364 -10.2961 28.6392
#
#
#
# Elastic Compliance Matrix: (Units=1/GPa)
#
#
# Indices 1 2 3 4 5 6 
#
# 1 0.011709 -0.003013 -0.005449 0.000506 -0.000420 0.000714
# 2 -0.003013 0.010214 -0.000687 0.002549 -0.000589 0.000385
# 3 -0.005449 -0.000687 0.016292 0.005962 -0.002349 -0.003883
# 4 0.000506 0.002549 0.005962 0.035631 -0.009552 -0.001858
# 5 -0.000420 -0.000589 -0.002349 -0.009552 0.045035 0.015948
# 6 0.000714 0.000385 -0.003883 -0.001858 0.015948 0.041361
#
#
# Mechanical properties :
#
#
# Convention : Reuss Voigt Hill
#
# Bulk Modulus (GPa) = 50.20718 59.66101 54.93409
# Shear Modulus (GPa) = 27.00107 31.75481 29.37794
#
# Velocity S-wave (km/s) = 3.68684 3.99823 3.84569
# Velocity P-wave (km/s) = 6.58777 7.16580 6.88286
#
# Compressibility (1/GPa) = 0.01991747
#
# Stress axis : x y z
#
# Youngs Moduli (GPa) = 85.40366 97.90439 61.38094
#
# Poissons Ratio (x) = 0.29495 0.33444
# Poissons Ratio (y) = 0.25729 0.04219
# Poissons Ratio (z) = 0.46534 0.06729
#
# Static dielectric constant tensor:
#      x y z
#    x 3.709570 0.304930 -0.031990 
#    y 0.304930 3.852450 -0.295780 
#    z -0.031990 -0.295780 3.880420 
# 
# 
# High freq. dielectric constant tensor:
#      x y z
#    x 1.744500 0.016260 -0.011750 
#    y 0.016260 1.777570 -0.019960 
#    z -0.011750 -0.019960 1.774200 
# 
# From -- ./inp_files/175400.got.cif
#   From: 2010.06.25/outbox.cif.g09.slc.cpg/sg2_88_cif.got.tgz:175400.got - 2010.06.27 13:26:56.
