data_PCOD8001707
_publ_section_title
;
Structure prediction by ZEFSAII (Michael W. Deem and Ramdas Pophale) SiO2 
 PCOD8001707
Probable space group: P -1
;
_chemical_formula_sum "Si O2"
_cell_formula_units_Z 12
_cell_length_a 5.082677
_cell_length_b 13.368368
_cell_length_c 13.327339
_cell_angle_alpha 54.706762
_cell_angle_beta 113.027207
_cell_angle_gamma 113.561591
_cell_volume 661.781602
_symmetry_space_group_name_H-M "P -1"
_symmetry_group_IT_number 2
_symmetry_cell_setting 'triclinic'
loop_
_space_group_symop_operation_xyz
x,y,z
-x,-y,-z
loop_
_atom_site_type_symbol
_atom_site_label
_atom_site_fract_x
_atom_site_fract_y
_atom_site_fract_z
Si Si1 0.856813 0.165771 0.919377
Si Si2 0.358948 0.165620 0.414983
Si Si3 0.143560 0.582762 0.335425
Si Si4 0.691864 0.081813 0.335425
Si Si5 0.556036 0.419396 0.414983
Si Si6 0.437436 0.085148 0.080623
O O1 0.817234 0.300267 0.800576
O O2 0.688044 0.061955 0.876089
O O3 0.725383 0.138615 0.026575
O O4 0.198808 0.165190 0.973425
O O5 0.590218 0.157396 0.367585
O O6 0.445395 0.304604 0.390791
O O7 0.035539 0.137536 0.335252
O O8 0.372047 0.066379 0.562830
O O9 0.277366 0.475019 0.367585
O O10 0.309216 0.629209 0.437170
O O11 0.799713 0.527211 0.335252
O O12 0.516658 0.100843 0.199424
#
# Coordination Sequence:
#
# PCOD8001707 Si02
#       6
#     2   2   2   2   2   2
#     4  10  20  34  54  78 104 134 168 210 256 302
#     4  10  20  34  54  78 104 134 168 210 256 302
#     4  10  20  34  54  78 104 134 168 210 256 302
#     4  10  20  34  54  78 104 134 168 210 256 302
#     4  10  20  34  54  78 104 134 168 210 256 302
#     4  10  20  34  54  78 104 134 168 210 256 302
#
# _framework density 18.13287
#
# number of rings (size 3 to 8) (size 9 to 14) (size 15 to 20)
#    0.000    2.000    0.000    4.000    0.000    0.000 
#    0.000   10.000    0.000   20.000    0.000    0.000 
#    0.000    0.000    0.000    0.000    0.000    0.000 
#
# Total GULP energy -148862.792554 kJ/mol
# GULP energy per Si atom -12405.232713 kJ/mol
# Density = 1.809160 g / cm^3
# Si number density = 18.132870 Si / 1000 Ang^3
#
#
#
# Elastic Constant Matrix: (Units=GPa)
#
#
# Indices 1 2 3 4 5 6 
#
# 1 71.6379 -0.5262 4.3492 0.1431 -4.0770 -4.5540
# 2 -0.5262 69.2428 40.8035 1.1000 3.6525 -6.9896
# 3 4.3492 40.8035 80.5689 0.5778 5.3417 4.6815
# 4 0.1431 1.1000 0.5778 17.2688 -3.2961 0.9949
# 5 -4.0770 3.6525 5.3417 -3.2961 9.2437 0.1875
# 6 -4.5540 -6.9896 4.6815 0.9949 0.1875 13.0161
#
#
#
# Elastic Compliance Matrix: (Units=1/GPa)
#
#
# Indices 1 2 3 4 5 6 
#
# 1 0.015031 0.002069 -0.002786 0.000870 0.007587 0.007196
# 2 0.002069 0.024434 -0.013411 -0.002657 -0.002323 0.018905
# 3 -0.002786 -0.013411 0.020773 -0.000406 -0.007764 -0.015505
# 4 0.000870 -0.002657 -0.000406 0.063073 0.024284 -0.006147
# 5 0.007587 -0.002323 -0.007764 0.024284 0.125581 0.000535
# 6 0.007196 0.018905 -0.015505 -0.006147 0.000535 0.095537
#
#
# Mechanical properties :
#
#
# Convention : Reuss Voigt Hill
#
# Bulk Modulus (GPa) = 31.27029 34.52252 32.89640
# Shear Modulus (GPa) = 13.04302 19.69390 16.36846
#
# Velocity S-wave (km/s) = 2.68489 3.29916 3.00775
# Velocity P-wave (km/s) = 5.18595 5.79591 5.49939
#
# Compressibility (1/GPa) = 0.03197924
#
# Stress axis : x y z
#
# Youngs Moduli (GPa) = 66.52941 40.92684 48.13965
#
# Poissons Ratio (x) = -0.08466 0.13414
# Poissons Ratio (y) = -0.13762 0.64562
# Poissons Ratio (z) = 0.18538 0.54889
#
# Static dielectric constant tensor:
#      x y z
#    x 3.526620 -0.023020 -0.033710 
#    y -0.023020 3.120830 0.001870 
#    z -0.033710 0.001870 3.121930 
# 
# 
# High freq. dielectric constant tensor:
#      x y z
#    x 1.724630 -0.003750 -0.002570 
#    y -0.003750 1.691820 0.000330 
#    z -0.002570 0.000330 1.692060 
# 
# From -- ./inp_files/60843.got.cif
#   From: 2010.06.25/outbox.cif.g09.slc.cpg/sg2_31_cif.got.tgz:60843.got - 2010.06.27 13:26:56.
