data_PCOD8001575
_publ_section_title
;
Structure prediction by ZEFSAII (Michael W. Deem and Ramdas Pophale) SiO2 
 PCOD8001575
Probable space group: P -1
;
_chemical_formula_sum "Si O2"
_cell_formula_units_Z 16
_cell_length_a 12.699794
_cell_length_b 16.386293
_cell_length_c 13.541249
_cell_angle_alpha 23.029063
_cell_angle_beta 66.816963
_cell_angle_gamma 54.372559
_cell_volume 801.136840
_symmetry_space_group_name_H-M "P -1"
_symmetry_group_IT_number 2
_symmetry_cell_setting 'triclinic'
loop_
_space_group_symop_operation_xyz
x,y,z
-x,-y,-z
loop_
_atom_site_type_symbol
_atom_site_label
_atom_site_fract_x
_atom_site_fract_y
_atom_site_fract_z
Si Si1 0.835811 0.812257 0.999153
Si Si2 0.403386 0.992481 0.408627
Si Si3 0.975258 0.991916 0.632627
Si Si4 0.768057 0.535443 0.196918
Si Si5 0.422847 0.631613 0.483570
Si Si6 0.660879 0.001591 0.359942
Si Si7 0.854657 0.458273 0.794623
Si Si8 0.394741 0.488774 0.264973
O O1 0.804731 0.609780 0.203834
O O2 0.986224 0.658245 0.178847
O O3 0.858984 0.933481 0.757721
O O4 0.702061 0.056672 0.838055
O O5 0.513110 0.049923 0.335605
O O6 0.326070 0.981780 0.545374
O O7 0.483025 0.715893 0.630407
O O8 0.282789 0.231831 0.119009
O O9 0.913519 0.270142 0.395795
O O10 0.000000 0.000000 0.500000
O O11 0.124628 0.757548 0.894099
O O12 0.642029 0.508632 0.292088
O O13 0.500000 0.500000 0.500000
O O14 0.540519 0.596636 0.554159
O O15 0.798047 0.720114 0.584125
O O16 0.661341 0.219739 0.061722
O O17 0.743280 0.514188 0.687713
#
# Coordination Sequence:
#
# PCOD8001575 Si02
#       8
#     2   2   2   2   2   2   2   2
#     4   9  22  40  57  86 119 151 201 244 293 359
#     4  10  20  34  54  90 120 160 199 234 287 360
#     4   9  20  35  56  89 125 164 200 232 285 356
#     4  11  20  38  63  82 124 158 197 251 293 343
#     4  11  24  43  66  88 110 153 209 263 311 349
#     4  10  20  33  56  84 128 163 191 229 293 353
#     4   9  22  36  55  87 123 156 197 229 289 358
#     4  11  21  39  58  85 123 157 197 250 291 354
#
# _framework density 19.971620000000001
#
# number of rings (size 3 to 8) (size 9 to 14) (size 15 to 20)
#    0.750    1.250    2.500    1.125    1.750    2.000 
#    0.000    0.625    0.000    1.500    0.000    0.000 
#    0.000    0.000    0.000    0.000    0.000    0.000 
#
# Total GULP energy -198332.459424 kJ/mol
# GULP energy per Si atom -12395.778714 kJ/mol
# Density = 1.992616 g / cm^3
# Si number density = 19.971620 Si / 1000 Ang^3
#
#
#
# Elastic Constant Matrix: (Units=GPa)
#
#
# Indices 1 2 3 4 5 6 
#
# 1 101.8165 46.2540 30.2013 -17.1820 14.4522 15.4042
# 2 46.2540 115.3539 38.7068 -30.5146 6.8905 13.9709
# 3 30.2013 38.7068 95.4610 -40.3419 10.1981 -0.4679
# 4 -17.1820 -30.5146 -40.3419 34.6865 0.2535 -0.2347
# 5 14.4522 6.8905 10.1981 0.2535 25.2767 -4.6183
# 6 15.4042 13.9709 -0.4679 -0.2347 -4.6183 18.3071
#
#
#
# Elastic Compliance Matrix: (Units=1/GPa)
#
#
# Indices 1 2 3 4 5 6 
#
# 1 0.015524 -0.002450 -0.001083 0.004258 -0.010330 -0.013772
# 2 -0.002450 0.013992 0.000402 0.011531 -0.004441 -0.009579
# 3 -0.001083 0.000402 0.022752 0.026340 -0.009074 -0.000766
# 4 0.004258 0.011531 0.026340 0.071756 -0.019809 -0.015786
# 5 -0.010330 -0.004441 -0.009074 -0.019809 0.055202 0.025522
# 6 -0.013772 -0.009579 -0.000766 -0.015786 0.025522 0.079738
#
#
# Mechanical properties :
#
#
# Convention : Reuss Voigt Hill
#
# Bulk Modulus (GPa) = 21.73561 60.32838 41.03200
# Shear Modulus (GPa) = 17.82142 28.81868 23.32005
#
# Velocity S-wave (km/s) = 2.99044 3.80278 3.42081
# Velocity P-wave (km/s) = 4.77813 7.03947 6.01601
#
# Compressibility (1/GPa) = 0.04600744
#
# Stress axis : x y z
#
# Youngs Moduli (GPa) = 64.41526 71.46830 43.95237
#
# Poissons Ratio (x) = 0.17512 0.04758
# Poissons Ratio (y) = 0.15784 -0.01769
# Poissons Ratio (z) = 0.06973 -0.02876
#
# Static dielectric constant tensor:
#      x y z
#    x 3.650240 0.036040 0.054710 
#    y 0.036040 3.325410 -0.321860 
#    z 0.054710 -0.321860 3.594320 
# 
# 
# High freq. dielectric constant tensor:
#      x y z
#    x 1.781080 0.004230 0.000890 
#    y 0.004230 1.747610 -0.033270 
#    z 0.000890 -0.033270 1.779640 
# 
# From -- ./inp_files/523408.got.cif
#   From: 2010.06.25/outbox.cif.g09.slc.cpg/sg2_262_cif.got.tgz:523408.got - 2010.06.27 13:26:56.
