data_PCOD8001274
_publ_section_title
;
Structure prediction by ZEFSAII (Michael W. Deem and Ramdas Pophale) SiO2 
 PCOD8001274
Probable space group: P -1
;
_chemical_formula_sum "Si O2"
_cell_formula_units_Z 16
_cell_length_a 8.939720
_cell_length_b 10.830313
_cell_length_c 11.700145
_cell_angle_alpha 63.542716
_cell_angle_beta 129.657492
_cell_angle_gamma 122.955317
_cell_volume 723.257542
_symmetry_space_group_name_H-M "P -1"
_symmetry_group_IT_number 2
_symmetry_cell_setting 'triclinic'
loop_
_space_group_symop_operation_xyz
x,y,z
-x,-y,-z
loop_
_atom_site_type_symbol
_atom_site_label
_atom_site_fract_x
_atom_site_fract_y
_atom_site_fract_z
Si Si1 0.378564 0.203991 0.103115
Si Si2 0.070081 0.302238 0.030514
Si Si3 0.437746 0.293846 0.337944
Si Si4 0.984142 0.214861 0.456027
Si Si5 0.204095 0.562858 0.832494
Si Si6 0.679953 0.895276 0.429552
Si Si7 0.384688 0.927701 0.089605
Si Si8 0.822529 0.560767 0.364689
O O1 0.485211 0.218676 0.275930
O O2 0.556317 0.330464 0.062276
O O3 0.325539 0.044419 0.087507
O O4 0.160651 0.229952 0.000666
O O5 0.830844 0.208970 0.985883
O O6 0.097194 0.467481 0.932176
O O7 0.210788 0.309135 0.209021
O O8 0.454698 0.192956 0.492538
O O9 0.612074 0.458612 0.370629
O O10 0.930808 0.340793 0.310872
O O11 0.138804 0.167691 0.473172
O O12 0.096864 0.273701 0.609509
O O13 0.773888 0.070441 0.432926
O O14 0.213688 0.446615 0.786254
O O15 0.533666 0.865910 0.259046
O O16 0.500000 0.000000 0.000000
O O17 0.000000 0.500000 0.500000
#
# Coordination Sequence:
#
# PCOD8001274 Si02
#       8
#     2   2   2   2   2   2   2   2
#     4   9  21  44  69  98 138 173 224 279 333 406
#     4  10  24  42  69 100 133 177 224 284 332 404
#     4   9  23  42  67 100 131 169 227 271 344 391
#     4  10  23  41  67  94 137 183 215 282 335 403
#     4  10  19  43  69  99 134 174 227 278 342 395
#     4  11  25  44  66  95 139 180 225 272 335 405
#     4  12  27  45  66 100 139 183 231 274 339 404
#     4   9  20  38  64 100 130 168 223 279 332 401
#
# _framework density 22.122135
#
# number of rings (size 3 to 8) (size 9 to 14) (size 15 to 20)
#    0.750    1.250    1.250    0.750    7.000    3.000 
#    0.000    1.250    0.000    0.000    0.000    0.000 
#    0.000    0.000    0.000    0.000    0.000    0.000 
#
# Total GULP energy -198300.864422 kJ/mol
# GULP energy per Si atom -12393.804026 kJ/mol
# Density = 2.207178 g / cm^3
# Si number density = 22.122135 Si / 1000 Ang^3
#
#
#
# Elastic Constant Matrix: (Units=GPa)
#
#
# Indices 1 2 3 4 5 6 
#
# 1 72.5615 33.0997 35.2548 -7.0860 4.0425 28.0607
# 2 33.0997 83.2782 49.5868 7.4644 2.8986 23.5802
# 3 35.2548 49.5868 114.1334 -12.6453 -4.0438 26.6371
# 4 -7.0860 7.4644 -12.6453 36.4308 8.4339 5.3785
# 5 4.0425 2.8986 -4.0438 8.4339 33.7744 0.1682
# 6 28.0607 23.5802 26.6371 5.3785 0.1682 48.3226
#
#
#
# Elastic Compliance Matrix: (Units=1/GPa)
#
#
# Indices 1 2 3 4 5 6 
#
# 1 0.021764 -0.005556 -0.001303 0.007339 -0.004067 -0.010011
# 2 -0.005556 0.019652 -0.007288 -0.007403 -0.000038 -0.001522
# 3 -0.001303 -0.007288 0.014058 0.006537 0.000853 -0.004166
# 4 0.007339 -0.007403 0.006537 0.035810 -0.008362 -0.008209
# 5 -0.004067 -0.000038 0.000853 -0.008362 0.032275 0.002728
# 6 -0.010011 -0.001522 -0.004166 -0.008209 0.002728 0.030451
#
#
# Mechanical properties :
#
#
# Convention : Reuss Voigt Hill
#
# Bulk Modulus (GPa) = 36.79432 56.20620 46.50026
# Shear Modulus (GPa) = 26.12839 33.84101 29.98470
#
# Velocity S-wave (km/s) = 3.44044 3.91543 3.68559
# Velocity P-wave (km/s) = 5.69654 6.77518 6.25914
#
# Compressibility (1/GPa) = 0.02717811
#
# Stress axis : x y z
#
# Youngs Moduli (GPa) = 45.94818 50.88669 71.13607
#
# Poissons Ratio (x) = 0.28271 0.09272
# Poissons Ratio (y) = 0.25527 0.51846
# Poissons Ratio (z) = 0.05989 0.37088
#
# Static dielectric constant tensor:
#      x y z
#    x 3.829840 -0.099960 -0.039880 
#    y -0.099960 4.159420 0.213220 
#    z -0.039880 0.213220 3.837390 
# 
# 
# High freq. dielectric constant tensor:
#      x y z
#    x 1.860540 0.009150 0.008920 
#    y 0.009150 1.865510 0.003190 
#    z 0.008920 0.003190 1.862730 
# 
# From -- ./inp_files/389585.got.cif
#   From: 2010.06.25/outbox.cif.g09.slc.cpg/sg2_195_cif.got.tgz:389585.got - 2010.06.27 13:26:56.
