data_PCOD8001351
_publ_section_title
;
Structure prediction by ZEFSAII (Michael W. Deem and Ramdas Pophale) SiO2 
 PCOD8001351
Probable space group: P -1
;
_chemical_formula_sum "Si O2"
_cell_formula_units_Z 16
_cell_length_a 19.113085
_cell_length_b 8.765887
_cell_length_c 8.751010
_cell_angle_alpha 33.199007
_cell_angle_beta 71.011300
_cell_angle_gamma 67.740637
_cell_volume 742.872278
_symmetry_space_group_name_H-M "P -1"
_symmetry_group_IT_number 2
_symmetry_cell_setting 'triclinic'
loop_
_space_group_symop_operation_xyz
x,y,z
-x,-y,-z
loop_
_atom_site_type_symbol
_atom_site_label
_atom_site_fract_x
_atom_site_fract_y
_atom_site_fract_z
Si Si1 0.866038 0.360342 0.615351
Si Si2 0.015980 0.162401 0.502303
Si Si3 0.894750 0.362021 0.948069
Si Si4 0.646451 0.130549 0.569249
Si Si5 0.776191 0.871453 0.078986
Si Si6 0.516524 0.675354 0.488787
Si Si7 0.743697 0.580239 0.036521
Si Si8 0.386975 0.870115 0.049271
O O1 0.890329 0.369286 0.764146
O O2 0.807269 0.650644 0.375580
O O3 0.938793 0.346601 0.469031
O O4 0.830110 0.090809 0.830420
O O5 0.069026 0.378752 0.236095
O O6 0.000000 0.000000 0.500000
O O7 0.055214 0.940438 0.787422
O O8 0.812387 0.388429 0.058059
O O9 0.564843 0.181131 0.498604
O O10 0.685102 0.390250 0.285892
O O11 0.632121 0.112689 0.773778
O O12 0.701231 0.828833 0.743093
O O13 0.774356 0.705042 0.061690
O O14 0.693521 0.040484 0.053941
O O15 0.500000 0.500000 0.500000
O O16 0.568893 0.451597 0.754210
O O17 0.559426 0.918079 0.208044
#
# Coordination Sequence:
#
# PCOD8001351 Si02
#       8
#     2   2   2   2   2   2   2   2
#     4  12  24  40  61  86 117 153 190 235 284 340
#     4  12  24  43  66  90 116 149 188 236 286 340
#     4  12  25  42  61  88 118 152 191 234 283 341
#     4  10  18  30  51  81 116 152 188 238 293 340
#     4  11  21  37  57  85 115 152 192 235 286 340
#     4  10  16  27  46  78 116 149 182 235 296 339
#     4  11  21  36  56  83 116 152 193 239 285 341
#     4  10  18  29  49  79 115 149 186 236 288 339
#
# _framework density 21.538024
#
# number of rings (size 3 to 8) (size 9 to 14) (size 15 to 20)
#    0.000    1.000    0.000   12.375    0.000    0.000 
#    0.000    0.000    0.000    0.000    0.000   17.500 
#    0.000    0.000    0.000    0.000    0.000    0.000 
#
# Total GULP energy -198426.907858 kJ/mol
# GULP energy per Si atom -12401.681741 kJ/mol
# Density = 2.148900 g / cm^3
# Si number density = 21.538024 Si / 1000 Ang^3
#
#
#
# Elastic Constant Matrix: (Units=GPa)
#
#
# Indices 1 2 3 4 5 6 
#
# 1 124.1403 26.7065 45.2396 2.9991 9.5704 -48.8613
# 2 26.7065 45.4643 3.7010 -0.3316 -5.4594 -1.5871
# 3 45.2396 3.7010 121.8024 -18.6932 -5.0414 -22.1189
# 4 2.9991 -0.3316 -18.6932 24.0024 -10.0179 2.9868
# 5 9.5704 -5.4594 -5.0414 -10.0179 56.2631 -10.0104
# 6 -48.8613 -1.5871 -22.1189 2.9868 -10.0104 29.4867
#
#
#
# Elastic Compliance Matrix: (Units=1/GPa)
#
#
# Indices 1 2 3 4 5 6 
#
# 1 0.038691 -0.020485 -0.005600 -0.017586 -0.001513 0.060078
# 2 -0.020485 0.033250 0.002942 0.010497 0.003540 -0.029809
# 3 -0.005600 0.002942 0.012353 0.012224 0.004605 0.000471
# 4 -0.017586 0.010497 0.012224 0.061288 0.012197 -0.021473
# 5 -0.001513 0.003540 0.004605 0.012197 0.022288 0.007469
# 6 0.060078 -0.029809 0.000471 -0.021473 0.007469 0.136926
#
#
# Mechanical properties :
#
#
# Convention : Reuss Voigt Hill
#
# Bulk Modulus (GPa) = 26.30920 49.18904 37.74912
# Shear Modulus (GPa) = 13.74573 36.33443 25.04008
#
# Velocity S-wave (km/s) = 2.52902 4.11175 3.41339
# Velocity P-wave (km/s) = 4.55737 6.74017 5.75324
#
# Compressibility (1/GPa) = 0.03800952
#
# Stress axis : x y z
#
# Youngs Moduli (GPa) = 25.84573 30.07530 80.95502
#
# Poissons Ratio (x) = 0.61608 0.45332
# Poissons Ratio (y) = 0.52944 -0.23820
# Poissons Ratio (z) = 0.14473 -0.08849
#
# Static dielectric constant tensor:
#      x y z
#    x 5.266840 -0.790690 0.779550 
#    y -0.790690 3.894170 -0.522070 
#    z 0.779550 -0.522070 4.480110 
# 
# 
# High freq. dielectric constant tensor:
#      x y z
#    x 1.861740 -0.033740 -0.001970 
#    y -0.033740 1.809350 -0.019720 
#    z -0.001970 -0.019720 1.865720 
# 
# From -- ./inp_files/217603.got.cif
#   From: 2010.06.25/outbox.cif.g09.slc.cpg/sg2_109_cif.got.tgz:217603.got - 2010.06.27 13:26:56.
