data_PCOD8001639
_publ_section_title
;
Structure prediction by ZEFSAII (Michael W. Deem and Ramdas Pophale) SiO2 
 PCOD8001639
Probable space group: P -1
;
_chemical_formula_sum "Si O2"
_cell_formula_units_Z 16
_cell_length_a 8.666966
_cell_length_b 22.672501
_cell_length_c 11.025957
_cell_angle_alpha 122.236113
_cell_angle_beta 117.475672
_cell_angle_gamma 25.264157
_cell_volume 780.834673
_symmetry_space_group_name_H-M "P -1"
_symmetry_group_IT_number 2
_symmetry_cell_setting 'triclinic'
loop_
_space_group_symop_operation_xyz
x,y,z
-x,-y,-z
loop_
_atom_site_type_symbol
_atom_site_label
_atom_site_fract_x
_atom_site_fract_y
_atom_site_fract_z
Si Si1 0.002306 0.789358 0.714020
Si Si2 0.202775 0.382244 0.320498
Si Si3 0.296373 0.343291 0.884687
Si Si4 0.781758 0.146992 0.070355
Si Si5 0.191016 0.286915 0.420385
Si Si6 0.481229 0.702621 0.329799
Si Si7 0.720264 0.460120 0.665555
Si Si8 0.302693 0.684732 0.454714
O O1 0.931924 0.888176 0.863263
O O2 0.399347 0.628996 0.736222
O O3 0.007108 0.798351 0.578625
O O4 0.709002 0.831467 0.686397
O O5 0.530130 0.245795 0.203474
O O6 0.101258 0.349167 0.324214
O O7 0.326755 0.402433 0.476308
O O8 0.873307 0.526886 0.281894
O O9 0.583979 0.273496 0.812585
O O10 0.076164 0.360194 0.755499
O O11 0.542980 0.225194 0.949333
O O12 0.000000 0.500000 0.000000
O O13 0.000000 0.000000 0.000000
O O14 0.501288 0.224362 0.528782
O O15 0.824247 0.411900 0.507700
O O16 0.188964 0.759756 0.364820
O O17 0.607433 0.427955 0.655191
#
# Coordination Sequence:
#
# PCOD8001639 Si02
#       8
#     2   2   2   2   2   2   2   2
#     4  10  16  29  51  75 105 128 165 206 241 299
#     4  10  16  29  51  75 105 128 165 206 241 299
#     4  11  19  35  49  71 103 132 170 202 248 293
#     4  11  23  37  51  67  97 143 175 200 241 295
#     4   9  16  26  50  84 102 126 158 207 262 285
#     4  10  16  27  52  78 106 126 154 210 254 297
#     4  10  16  27  52  78 106 126 154 210 254 297
#     4   9  16  26  48  86 106 121 157 206 263 289
#
# _framework density 20.490893
#
# number of rings (size 3 to 8) (size 9 to 14) (size 15 to 20)
#    0.000    2.000    2.500    7.500    0.000    0.000 
#    0.000    2.500    0.000   24.000    0.000    0.000 
#    0.000    0.000    0.000    0.000    0.000    0.000 
#
# Total GULP energy -198229.694966 kJ/mol
# GULP energy per Si atom -12389.355935 kJ/mol
# Density = 2.044426 g / cm^3
# Si number density = 20.490893 Si / 1000 Ang^3
#
#
#
# Elastic Constant Matrix: (Units=GPa)
#
#
# Indices 1 2 3 4 5 6 
#
# 1 118.9330 29.1453 38.4781 -4.0223 10.7261 44.7424
# 2 29.1453 79.6478 48.6524 -2.1725 2.8734 25.9943
# 3 38.4781 48.6524 88.4185 1.2120 13.1084 23.7074
# 4 -4.0223 -2.1725 1.2120 27.2448 16.2526 -0.6784
# 5 10.7261 2.8734 13.1084 16.2526 24.3490 5.4197
# 6 44.7424 25.9943 23.7074 -0.6784 5.4197 27.8773
#
#
#
# Elastic Compliance Matrix: (Units=1/GPa)
#
#
# Indices 1 2 3 4 5 6 
#
# 1 0.023515 0.006351 -0.002170 0.005952 -0.004847 -0.040731
# 2 0.006351 0.024686 -0.010393 -0.000999 0.006252 -0.025613
# 3 -0.002170 -0.010393 0.020003 0.004729 -0.011408 -0.001504
# 4 0.005952 -0.000999 0.004729 0.066589 -0.049171 -0.001463
# 5 -0.004847 0.006252 -0.011408 -0.049171 0.082680 -0.005620
# 6 -0.040731 -0.025613 -0.001504 -0.001463 -0.005620 0.127462
#
#
# Mechanical properties :
#
#
# Convention : Reuss Voigt Hill
#
# Bulk Modulus (GPa) = 17.92765 57.72788 37.82776
# Shear Modulus (GPa) = 13.29952 27.27578 20.28765
#
# Velocity S-wave (km/s) = 2.55040 3.65241 3.14997
# Velocity P-wave (km/s) = 4.17622 6.78383 5.63299
#
# Compressibility (1/GPa) = 0.05577976
#
# Stress axis : x y z
#
# Youngs Moduli (GPa) = 42.52615 40.50815 49.99331
#
# Poissons Ratio (x) = -0.25727 0.10849
# Poissons Ratio (y) = -0.27008 0.51959
# Poissons Ratio (z) = 0.09228 0.42101
#
# Static dielectric constant tensor:
#      x y z
#    x 4.113500 0.511030 0.161460 
#    y 0.511030 3.298990 -0.218980 
#    z 0.161460 -0.218980 3.870730 
# 
# 
# High freq. dielectric constant tensor:
#      x y z
#    x 1.809260 0.043910 0.007240 
#    y 0.043910 1.747440 -0.011800 
#    z 0.007240 -0.011800 1.786300 
# 
# From -- ./inp_files/282142.got.cif
#   From: 2010.06.25/outbox.cif.g09.slc.cpg/sg2_142_cif.got.tgz:282142.got - 2010.06.27 13:26:56.
