data_PCOD8001517
_publ_section_title
;
Structure prediction by ZEFSAII (Michael W. Deem and Ramdas Pophale) SiO2 
 PCOD8001517
Probable space group: P -1
;
_chemical_formula_sum "Si O2"
_cell_formula_units_Z 16
_cell_length_a 14.303607
_cell_length_b 7.964241
_cell_length_c 17.056581
_cell_angle_alpha 90.318580
_cell_angle_beta 158.799963
_cell_angle_gamma 90.866355
_cell_volume 701.533204
_symmetry_space_group_name_H-M "P -1"
_symmetry_group_IT_number 2
_symmetry_cell_setting 'triclinic'
loop_
_space_group_symop_operation_xyz
x,y,z
-x,-y,-z
loop_
_atom_site_type_symbol
_atom_site_label
_atom_site_fract_x
_atom_site_fract_y
_atom_site_fract_z
Si Si1 0.768695 0.452894 0.037527
Si Si2 0.036394 0.741764 0.673814
Si Si3 0.252154 0.059366 0.929281
Si Si4 0.167156 0.742759 0.123936
Si Si5 0.377431 0.410481 0.327247
Si Si6 0.533956 0.137742 0.774892
Si Si7 0.565629 0.374924 0.119333
Si Si8 0.130925 0.751699 0.276525
O O1 0.940141 0.414008 0.248711
O O2 0.924214 0.593187 0.108810
O O3 0.736190 0.284690 0.962991
O O4 0.484817 0.521777 0.839722
O O5 0.146117 0.687392 0.673297
O O6 0.750720 0.799877 0.444379
O O7 0.219786 0.898780 0.847728
O O8 0.977933 0.100995 0.754842
O O9 0.363930 0.212585 0.964177
O O10 0.447727 0.023021 0.154503
O O11 0.303546 0.565411 0.215098
O O12 0.345457 0.887776 0.217822
O O13 0.172710 0.805581 0.218675
O O14 0.875982 0.716870 0.861126
O O15 0.500000 0.500000 0.500000
O O16 0.605844 0.297977 0.473890
O O17 0.500000 0.500000 0.000000
#
# Coordination Sequence:
#
# PCOD8001517 Si02
#       8
#     2   2   2   2   2   2   2   2
#     4   9  19  36  58  86 112 139 189 240 270 320
#     4  10  21  38  60  81 112 152 180 221 288 339
#     4  10  23  39  56  84 116 143 183 231 273 332
#     4  10  20  33  53  81 114 150 188 230 272 319
#     4   9  17  31  54  80 106 144 192 234 272 312
#     4  11  22  36  54  83 119 150 183 224 276 333
#     4   9  19  40  65  84 107 141 182 233 283 329
#     4  10  20  36  57  81 112 151 192 232 271 317
#
# _framework density 22.807188
#
# number of rings (size 3 to 8) (size 9 to 14) (size 15 to 20)
#    0.000    2.250    0.000    3.375    0.000    5.500 
#    0.000    7.500    0.000    0.000    0.000    0.000 
#    0.000    0.000    0.000    0.000    0.000    0.000 
#
# Total GULP energy -198229.272817 kJ/mol
# GULP energy per Si atom -12389.329551 kJ/mol
# Density = 2.275528 g / cm^3
# Si number density = 22.807188 Si / 1000 Ang^3
#
#
#
# Elastic Constant Matrix: (Units=GPa)
#
#
# Indices 1 2 3 4 5 6 
#
# 1 105.7265 29.5880 38.0220 -16.6545 25.6314 12.8617
# 2 29.5880 66.6300 4.1331 -14.6486 4.1963 13.3620
# 3 38.0220 4.1331 96.6935 -26.9882 20.8316 4.8550
# 4 -16.6545 -14.6486 -26.9882 25.5191 -6.1600 7.7034
# 5 25.6314 4.1963 20.8316 -6.1600 29.6664 -3.1992
# 6 12.8617 13.3620 4.8550 7.7034 -3.1992 34.4645
#
#
#
# Elastic Compliance Matrix: (Units=1/GPa)
#
#
# Indices 1 2 3 4 5 6 
#
# 1 0.015402 -0.003519 -0.001614 0.005562 -0.011216 -0.006441
# 2 -0.003519 0.024873 0.008806 0.025224 -0.003095 -0.015496
# 3 -0.001614 0.008806 0.021295 0.027941 -0.010407 -0.013023
# 4 0.005562 0.025224 0.027941 0.095425 -0.012306 -0.038263
# 5 -0.011216 -0.003095 -0.010407 -0.012306 0.050126 0.014255
# 6 -0.006441 -0.015496 -0.013023 -0.038263 0.014255 0.049137
#
#
# Mechanical properties :
#
#
# Convention : Reuss Voigt Hill
#
# Bulk Modulus (GPa) = 14.51043 45.83735 30.17389
# Shear Modulus (GPa) = 18.39021 31.08379 24.73700
#
# Velocity S-wave (km/s) = 2.84268 3.69574 3.29692
# Velocity P-wave (km/s) = 4.14131 6.19296 5.26798
#
# Compressibility (1/GPa) = 0.06891595
#
# Stress axis : x y z
#
# Youngs Moduli (GPa) = 64.92525 40.20503 46.95992
#
# Poissons Ratio (x) = 0.14147 0.07578
# Poissons Ratio (y) = 0.22845 -0.41351
# Poissons Ratio (z) = 0.10478 -0.35403
#
# Static dielectric constant tensor:
#      x y z
#    x 4.466970 -0.110110 0.269130 
#    y -0.110110 4.191290 -0.464930 
#    z 0.269130 -0.464930 4.125450 
# 
# 
# High freq. dielectric constant tensor:
#      x y z
#    x 1.905010 -0.002040 0.019430 
#    y -0.002040 1.893010 -0.020220 
#    z 0.019430 -0.020220 1.878750 
# 
# From -- ./inp_files/54935.got.cif
#   From: 2010.06.25/outbox.cif.g09.slc.cpg/sg2_28_cif.got.tgz:54935.got - 2010.06.27 13:26:56.
