data_PCOD8001092
_publ_section_title
;
Structure prediction by ZEFSAII (Michael W. Deem and Ramdas Pophale) SiO2 
 PCOD8001092
Probable space group: P -1
;
_chemical_formula_sum "Si O2"
_cell_formula_units_Z 16
_cell_length_a 15.295584
_cell_length_b 8.954617
_cell_length_c 8.319952
_cell_angle_alpha 64.438861
_cell_angle_beta 112.045352
_cell_angle_gamma 135.013752
_cell_volume 722.331823
_symmetry_space_group_name_H-M "P -1"
_symmetry_group_IT_number 2
_symmetry_cell_setting 'triclinic'
loop_
_space_group_symop_operation_xyz
x,y,z
-x,-y,-z
loop_
_atom_site_type_symbol
_atom_site_label
_atom_site_fract_x
_atom_site_fract_y
_atom_site_fract_z
Si Si1 0.691466 0.444126 0.548271
Si Si2 0.872522 0.727324 0.807671
Si Si3 0.475207 0.102937 0.799113
Si Si4 0.259256 0.786198 0.559059
Si Si5 0.472189 0.458409 0.687476
Si Si6 0.890612 0.439693 0.146516
Si Si7 0.883535 0.157502 0.034692
Si Si8 0.266277 0.129976 0.214385
O O1 0.815117 0.651864 0.624736
O O2 0.597733 0.278481 0.698641
O O3 0.725393 0.329727 0.514675
O O4 0.635162 0.528210 0.359185
O O5 0.836830 0.858084 0.804621
O O6 0.820937 0.517723 0.981374
O O7 0.023277 0.884394 0.826088
O O8 0.429349 0.220780 0.800476
O O9 0.373681 0.907899 0.703304
O O10 0.500000 0.000000 0.000000
O O11 0.135592 0.603170 0.661799
O O12 0.253356 0.960207 0.400440
O O13 0.500000 0.500000 0.500000
O O14 0.594527 0.639037 0.792911
O O15 0.039712 0.629803 0.132121
O O16 0.839319 0.213332 0.131333
O O17 0.764175 0.950863 0.953967
#
# Coordination Sequence:
#
# PCOD8001092 Si02
#       8
#     2   2   2   2   2   2   2   2
#     4  11  21  41  63  91 133 167 203 251 314 372
#     4  10  19  41  66  86 121 166 200 262 314 361
#     4  11  22  40  65  91 126 165 209 257 307 369
#     4  12  24  37  65  97 124 169 211 252 312 379
#     4  10  20  41  62  90 129 167 200 258 315 363
#     4   9  22  44  62  91 125 157 219 262 306 367
#     4   9  22  43  68  88 119 169 212 259 318 361
#     4  12  21  38  69  90 127 165 209 256 314 376
#
# _framework density 22.150486000000001
#
# number of rings (size 3 to 8) (size 9 to 14) (size 15 to 20)
#    0.750    0.750    5.000    2.250    0.000    0.500 
#    0.000    5.000    0.000    0.000    0.000    0.000 
#    0.000    0.000    0.000    0.000    0.000    0.000 
#
# Total GULP energy -198354.402386 kJ/mol
# GULP energy per Si atom -12397.150149 kJ/mol
# Density = 2.210007 g / cm^3
# Si number density = 22.150486 Si / 1000 Ang^3
#
#
#
# Elastic Constant Matrix: (Units=GPa)
#
#
# Indices 1 2 3 4 5 6 
#
# 1 75.8935 7.9111 37.6036 -7.2889 3.9510 -32.3653
# 2 7.9111 72.8513 22.1718 24.8934 -4.5152 -14.7275
# 3 37.6036 22.1718 74.2631 3.7952 12.2448 -11.1079
# 4 -7.2889 24.8934 3.7952 40.0296 -3.6296 8.7505
# 5 3.9510 -4.5152 12.2448 -3.6296 27.6603 0.1479
# 6 -32.3653 -14.7275 -11.1079 8.7505 0.1479 43.0437
#
#
#
# Elastic Compliance Matrix: (Units=1/GPa)
#
#
# Indices 1 2 3 4 5 6 
#
# 1 0.026663 0.005278 -0.012595 -0.001133 0.002380 0.018826
# 2 0.005278 0.023794 -0.007724 -0.015603 0.004431 0.013273
# 3 -0.012595 -0.007724 0.022685 0.000913 -0.009350 -0.006413
# 4 -0.001133 -0.015603 0.000913 0.037565 0.002212 -0.013599
# 5 0.002380 0.004431 -0.009350 0.002212 0.040964 0.000302
# 6 0.018826 0.013273 -0.006413 -0.013599 0.000302 0.043038
#
#
# Mechanical properties :
#
#
# Convention : Reuss Voigt Hill
#
# Bulk Modulus (GPa) = 23.22389 39.82010 31.52200
# Shear Modulus (GPa) = 20.90786 32.50149 26.70467
#
# Velocity S-wave (km/s) = 3.07563 3.83470 3.47595
# Velocity P-wave (km/s) = 4.80833 6.13373 5.51102
#
# Compressibility (1/GPa) = 0.04305910
#
# Stress axis : x y z
#
# Youngs Moduli (GPa) = 37.50584 42.02769 44.08144
#
# Poissons Ratio (x) = -0.22184 0.55521
# Poissons Ratio (y) = -0.19797 0.34050
# Poissons Ratio (z) = 0.47239 0.32464
#
# Static dielectric constant tensor:
#      x y z
#    x 4.259300 -0.517760 0.246300 
#    y -0.517760 4.417330 0.178240 
#    z 0.246300 0.178240 4.077610 
# 
# 
# High freq. dielectric constant tensor:
#      x y z
#    x 1.869410 -0.017190 0.019490 
#    y -0.017190 1.868560 0.014610 
#    z 0.019490 0.014610 1.858700 
# 
# From -- ./inp_files/294930.got.cif
#   From: 2010.06.25/outbox.cif.g09.slc.cpg/sg2_148_cif.got.tgz:294930.got - 2010.06.27 13:26:56.
