data_PCOD8001859
_publ_section_title
;
Structure prediction by ZEFSAII (Michael W. Deem and Ramdas Pophale) SiO2 
 PCOD8001859
Probable space group: P -1
;
_chemical_formula_sum "Si O2"
_cell_formula_units_Z 16
_cell_length_a 6.558137
_cell_length_b 12.346041
_cell_length_c 12.970184
_cell_angle_alpha 64.505867
_cell_angle_beta 122.196380
_cell_angle_gamma 106.482518
_cell_volume 800.104882
_symmetry_space_group_name_H-M "P -1"
_symmetry_group_IT_number 2
_symmetry_cell_setting 'triclinic'
loop_
_space_group_symop_operation_xyz
x,y,z
-x,-y,-z
loop_
_atom_site_type_symbol
_atom_site_label
_atom_site_fract_x
_atom_site_fract_y
_atom_site_fract_z
Si Si1 0.187077 0.090025 0.952377
Si Si2 0.741133 0.097711 0.109645
Si Si3 0.437601 0.178178 0.640454
Si Si4 0.161088 0.746799 0.124740
Si Si5 0.055502 0.714548 0.576659
Si Si6 0.796356 0.064684 0.360072
Si Si7 0.328633 0.619079 0.505697
Si Si8 0.802706 0.499090 0.688723
O O1 0.062095 0.215647 0.878390
O O2 0.212367 0.035822 0.866331
O O3 0.459754 0.106335 0.061881
O O4 0.000000 0.000000 0.000000
O O5 0.885034 0.110073 0.251286
O O6 0.838544 0.200010 0.012859
O O7 0.584091 0.206144 0.774099
O O8 0.169808 0.223825 0.560884
O O9 0.564666 0.247314 0.550597
O O10 0.430764 0.034457 0.673372
O O11 0.129843 0.601279 0.168553
O O12 0.974360 0.622045 0.685615
O O13 0.250391 0.815906 0.634930
O O14 0.164461 0.632606 0.554089
O O15 0.000000 0.000000 0.500000
O O16 0.530942 0.529753 0.627296
O O17 0.177268 0.561057 0.393862
#
# Coordination Sequence:
#
# PCOD8001859 Si02
#       8
#     2   2   2   2   2   2   2   2
#     4   9  18  33  56  81 106 136 173 221 269 311
#     4  10  20  36  53  78 112 139 173 220 265 314
#     4   9  19  34  52  85 111 132 180 221 260 321
#     4  10  20  34  58  83 106 138 178 225 270 308
#     4  10  20  35  54  78 112 148 175 212 264 316
#     4  10  21  36  54  77 110 144 174 211 261 325
#     4   9  18  33  54  77 109 140 173 226 268 302
#     4   9  19  34  52  81 106 133 185 226 258 310
#
# _framework density 19.997378000000001
#
# number of rings (size 3 to 8) (size 9 to 14) (size 15 to 20)
#    0.000    2.500    0.000    3.375    0.000    7.500 
#    0.000   10.625    0.000    1.500    0.000    0.000 
#    0.000    0.000    0.000    0.000    0.000    0.000 
#
# Total GULP energy -198221.697882 kJ/mol
# GULP energy per Si atom -12388.856118 kJ/mol
# Density = 1.995186 g / cm^3
# Si number density = 19.997378 Si / 1000 Ang^3
#
#
#
# Elastic Constant Matrix: (Units=GPa)
#
#
# Indices 1 2 3 4 5 6 
#
# 1 69.3541 34.6964 27.0415 -3.7702 -2.6532 -14.7750
# 2 34.6964 98.4450 31.5216 -15.8936 2.0137 5.7903
# 3 27.0415 31.5216 106.0327 -12.3970 -9.5393 -7.0627
# 4 -3.7702 -15.8936 -12.3970 32.0823 2.7996 -4.6110
# 5 -2.6532 2.0137 -9.5393 2.7996 13.3703 -3.6981
# 6 -14.7750 5.7903 -7.0627 -4.6110 -3.6981 25.3315
#
#
#
# Elastic Compliance Matrix: (Units=1/GPa)
#
#
# Indices 1 2 3 4 5 6 
#
# 1 0.023381 -0.009108 -0.001353 -0.000752 0.009805 0.016637
# 2 -0.009108 0.016166 -0.003585 0.004960 -0.010793 -0.010680
# 3 -0.001353 -0.003585 0.012438 0.002779 0.010079 0.005475
# 4 -0.000752 0.004960 0.002779 0.035766 -0.005026 0.004979
# 5 0.009805 -0.010793 0.010079 -0.005026 0.093157 0.023681
# 6 0.016637 -0.010680 0.005475 0.004979 0.023681 0.057512
#
#
# Mechanical properties :
#
#
# Convention : Reuss Voigt Hill
#
# Bulk Modulus (GPa) = 41.85378 51.15007 46.50193
# Shear Modulus (GPa) = 18.21648 26.19498 22.20573
#
# Velocity S-wave (km/s) = 3.02146 3.62321 3.33593
# Velocity P-wave (km/s) = 5.75737 6.56791 6.17595
#
# Compressibility (1/GPa) = 0.02389270
#
# Stress axis : x y z
#
# Youngs Moduli (GPa) = 42.76930 61.85949 80.39707
#
# Poissons Ratio (x) = 0.56341 0.10877
# Poissons Ratio (y) = 0.38954 0.28826
# Poissons Ratio (z) = 0.05786 0.22180
#
# Static dielectric constant tensor:
#      x y z
#    x 3.636090 0.017150 0.065940 
#    y 0.017150 4.033120 -0.266120 
#    z 0.065940 -0.266120 3.557950 
# 
# 
# High freq. dielectric constant tensor:
#      x y z
#    x 1.764540 0.001010 -0.006390 
#    y 0.001010 1.774670 -0.024310 
#    z -0.006390 -0.024310 1.761090 
# 
# From -- ./inp_files/364120.got.cif
#   From: 2010.06.25/outbox.cif.g09.slc.cpg/sg2_183_cif.got.tgz:364120.got - 2010.06.27 13:26:56.
