data_PCOD8001662
_publ_section_title
;
Structure prediction by ZEFSAII (Michael W. Deem and Ramdas Pophale) SiO2 
 PCOD8001662
Probable space group: P -1
;
_chemical_formula_sum "Si O2"
_cell_formula_units_Z 14
_cell_length_a 17.581815
_cell_length_b 14.175121
_cell_length_c 11.519478
_cell_angle_alpha 31.700470
_cell_angle_beta 150.441429
_cell_angle_gamma 141.348004
_cell_volume 734.907733
_symmetry_space_group_name_H-M "P -1"
_symmetry_group_IT_number 2
_symmetry_cell_setting 'triclinic'
loop_
_space_group_symop_operation_xyz
x,y,z
-x,-y,-z
loop_
_atom_site_type_symbol
_atom_site_label
_atom_site_fract_x
_atom_site_fract_y
_atom_site_fract_z
Si Si1 0.929481 0.885238 0.803879
Si Si2 0.848617 0.774712 0.352771
Si Si3 0.783273 0.223050 0.593703
Si Si4 0.318324 0.905528 0.158457
Si Si5 0.665106 0.909506 0.598288
Si Si6 0.004599 0.795324 0.758346
Si Si7 0.678016 0.576153 0.129803
O O1 0.761153 0.892562 0.626299
O O2 0.909054 0.763292 0.786537
O O3 0.018294 0.088267 0.681874
O O4 0.034616 0.792153 0.132079
O O5 0.770825 0.614408 0.334128
O O6 0.924801 0.678128 0.665466
O O7 0.715232 0.886900 0.104822
O O8 0.682721 0.157600 0.643171
O O9 0.759764 0.429707 0.320978
O O10 0.716603 0.105769 0.517762
O O11 0.485041 0.890077 0.340910
O O12 0.185426 0.775391 0.043923
O O13 0.695356 0.758612 0.888138
O O14 0.000000 0.000000 0.500000
O O15 0.500000 0.500000 0.000000
#
# Coordination Sequence:
#
# PCOD8001662 Si02
#       7
#     2   2   2   2   2   2   2
#     4   9  19  35  55  80 108 144 174 221 272 309
#     4   9  18  37  57  77 109 140 183 221 254 323
#     4  10  20  34  51  79 112 143 179 205 271 327
#     4   9  16  32  54  76 107 140 174 220 258 314
#     4  12  20  34  55  83 115 135 172 228 271 311
#     4   7  15  34  57  77 100 142 188 213 254 321
#     4  12  22  32  57  86 106 140 181 217 266 320
#
# _framework density 19.05001
#
# number of rings (size 3 to 8) (size 9 to 14) (size 15 to 20)
#    0.000    2.857    4.286    1.714    0.000    0.571 
#    0.000    9.286    0.000    0.857    0.000    0.000 
#    0.000    0.000    0.000    0.000    0.000    0.000 
#
# Total GULP energy -173508.518938 kJ/mol
# GULP energy per Si atom -12393.465638 kJ/mol
# Density = 1.900665 g / cm^3
# Si number density = 19.050010 Si / 1000 Ang^3
#
#
#
# Elastic Constant Matrix: (Units=GPa)
#
#
# Indices 1 2 3 4 5 6 
#
# 1 106.5979 51.5469 49.2549 31.8083 22.4915 4.0506
# 2 51.5469 82.9707 35.4118 14.3504 3.5736 -20.0593
# 3 49.2549 35.4118 81.4523 20.0809 16.5225 -7.6647
# 4 31.8083 14.3504 20.0809 31.8149 -0.1051 2.6888
# 5 22.4915 3.5736 16.5225 -0.1051 30.8492 11.6593
# 6 4.0506 -20.0593 -7.6647 2.6888 11.6593 24.8237
#
#
#
# Elastic Compliance Matrix: (Units=1/GPa)
#
#
# Indices 1 2 3 4 5 6 
#
# 1 0.024681 -0.012339 -0.004150 -0.015829 -0.011270 -0.008271
# 2 -0.012339 0.026295 -0.000820 -0.001085 -0.002864 0.024471
# 3 -0.004150 -0.000820 0.022060 -0.010693 -0.014284 0.014693
# 4 -0.015829 -0.001085 -0.010693 0.056216 0.024911 -0.019385
# 5 -0.011270 -0.002864 -0.014284 0.024911 0.062694 -0.037030
# 6 -0.008271 0.024471 0.014693 -0.019385 -0.037030 0.085437
#
#
# Mechanical properties :
#
#
# Convention : Reuss Voigt Hill
#
# Bulk Modulus (GPa) = 26.02928 60.38313 43.20620
# Shear Modulus (GPa) = 15.39381 26.48472 20.93927
#
# Velocity S-wave (km/s) = 2.84575 3.73268 3.31898
# Velocity P-wave (km/s) = 4.94884 7.09529 6.11695
#
# Compressibility (1/GPa) = 0.03841827
#
# Stress axis : x y z
#
# Youngs Moduli (GPa) = 40.51781 38.03015 45.33190
#
# Poissons Ratio (x) = 0.46924 0.18814
# Poissons Ratio (y) = 0.49993 0.03715
# Poissons Ratio (z) = 0.16816 0.03117
#
# Static dielectric constant tensor:
#      x y z
#    x 3.418800 -0.294330 -0.137670 
#    y -0.294330 3.518880 0.332940 
#    z -0.137670 0.332940 3.773770 
# 
# 
# High freq. dielectric constant tensor:
#      x y z
#    x 1.713760 -0.010770 0.003430 
#    y -0.010770 1.720220 0.014160 
#    z 0.003430 0.014160 1.742420 
# 
# From -- ./inp_files/276050.got.cif
#   From: 2010.06.25/outbox.cif.g09.slc.cpg/sg2_139_cif.got.tgz:276050.got - 2010.06.27 13:26:56.
