data_PCOD8001137
_publ_section_title
;
Structure prediction by ZEFSAII (Michael W. Deem and Ramdas Pophale) SiO2 
 PCOD8001137
Probable space group: P -1
;
_chemical_formula_sum "Si O2"
_cell_formula_units_Z 16
_cell_length_a 18.923711
_cell_length_b 7.199990
_cell_length_c 12.319978
_cell_angle_alpha 133.395590
_cell_angle_beta 30.009401
_cell_angle_gamma 132.862212
_cell_volume 592.988221
_symmetry_space_group_name_H-M "P -1"
_symmetry_group_IT_number 2
_symmetry_cell_setting 'triclinic'
loop_
_space_group_symop_operation_xyz
x,y,z
-x,-y,-z
loop_
_atom_site_type_symbol
_atom_site_label
_atom_site_fract_x
_atom_site_fract_y
_atom_site_fract_z
Si Si1 0.802854 0.932092 0.015092
Si Si2 0.537128 0.503395 0.132866
Si Si3 0.402013 0.985603 0.499896
Si Si4 0.063205 0.416353 0.601724
Si Si5 0.885606 0.470852 0.043856
Si Si6 0.083166 0.938888 0.535929
Si Si7 0.411635 0.484254 0.502850
Si Si8 0.320299 0.830548 0.325393
O O1 0.750326 0.016438 0.236672
O O2 0.800224 0.163463 0.024178
O O3 0.702799 0.662240 0.996356
O O4 0.972170 0.911015 0.776438
O O5 0.432797 0.698431 0.322606
O O6 0.471075 0.342617 0.265530
O O7 0.545968 0.290364 0.943251
O O8 0.381521 0.064453 0.428490
O O9 0.535324 0.192057 0.467069
O O10 0.212018 0.610868 0.451083
O O11 0.977682 0.299939 0.561002
O O12 0.101263 0.206342 0.551482
O O13 0.959170 0.566378 0.868691
O O14 0.761644 0.624360 0.298924
O O15 0.000000 0.500000 0.000000
O O16 0.240133 0.928416 0.369742
O O17 0.500000 0.500000 0.500000
#
# Coordination Sequence:
#
# PCOD8001137 Si02
#       8
#     2   2   2   2   2   2   2   2
#     4  10  19  41  69  91 131 178 230 274 336 411
#     4  11  22  44  70  93 134 186 226 271 343 418
#     4  11  23  44  68  98 132 188 226 282 342 406
#     4  10  23  40  67  99 137 180 221 281 350 400
#     4  11  22  40  69  98 133 176 230 284 340 414
#     4  10  23  41  65 104 136 181 228 283 341 412
#     4  11  25  43  70 102 137 179 231 285 352 410
#     4  12  25  42  70 105 140 176 236 279 343 414
#
# _framework density 26.981987
#
# number of rings (size 3 to 8) (size 9 to 14) (size 15 to 20)
#    0.000    1.250    3.750    2.250    1.750    3.500 
#    0.000    0.625    0.000    0.000    0.000    0.000 
#    0.000    0.000    0.000    0.000    0.000    0.000 
#
# Total GULP energy -198334.285653 kJ/mol
# GULP energy per Si atom -12395.892853 kJ/mol
# Density = 2.692057 g / cm^3
# Si number density = 26.981987 Si / 1000 Ang^3
#
#
#
# Elastic Constant Matrix: (Units=GPa)
#
#
# Indices 1 2 3 4 5 6 
#
# 1 113.6126 18.6930 73.2326 0.0446 13.4051 17.6127
# 2 18.6930 59.0319 42.8664 3.1805 8.1966 18.9677
# 3 73.2326 42.8664 211.9571 5.6698 31.6653 13.5676
# 4 0.0446 3.1805 5.6698 38.5287 2.0490 8.0600
# 5 13.4051 8.1966 31.6653 2.0490 53.1954 -1.3065
# 6 17.6127 18.9677 13.5676 8.0600 -1.3065 36.1430
#
#
#
# Elastic Compliance Matrix: (Units=1/GPa)
#
#
# Indices 1 2 3 4 5 6 
#
# 1 0.012123 0.000722 -0.003888 0.001649 -0.001044 -0.005232
# 2 0.000722 0.023518 -0.004043 0.001149 -0.001726 -0.011495
# 3 -0.003888 -0.004043 0.007203 -0.000878 -0.002616 0.001414
# 4 0.001649 0.001149 -0.000878 0.027579 -0.001311 -0.007274
# 5 -0.001044 -0.001726 -0.002616 -0.001311 0.021020 0.003449
# 6 -0.005232 -0.011495 0.001414 -0.007274 0.003449 0.037466
#
#
# Mechanical properties :
#
#
# Convention : Reuss Voigt Hill
#
# Bulk Modulus (GPa) = 35.17917 72.68729 53.93323
# Shear Modulus (GPa) = 32.72216 42.22740 37.47478
#
# Velocity S-wave (km/s) = 3.48622 3.96033 3.73081
# Velocity P-wave (km/s) = 5.41030 6.92170 6.21213
#
# Compressibility (1/GPa) = 0.02842591
#
# Stress axis : x y z
#
# Youngs Moduli (GPa) = 82.49030 42.51988 138.83840
#
# Poissons Ratio (x) = -0.03068 0.53975
# Poissons Ratio (y) = -0.05952 0.56129
# Poissons Ratio (z) = 0.32069 0.17190
#
# Static dielectric constant tensor:
#      x y z
#    x 4.845510 0.073690 0.333780 
#    y 0.073690 3.970440 0.100580 
#    z 0.333780 0.100580 5.162390 
# 
# 
# High freq. dielectric constant tensor:
#      x y z
#    x 2.083040 -0.008430 0.015780 
#    y -0.008430 2.101450 -0.002150 
#    z 0.015780 -0.002150 2.095540 
# 
# From -- ./inp_files/261687.got.cif
#   From: 2010.06.25/outbox.cif.g09.slc.cpg/sg2_131_cif.got.tgz:261687.got - 2010.06.27 13:26:56.
