data_PCOD8001940
_publ_section_title
;
Structure prediction by ZEFSAII (Michael W. Deem and Ramdas Pophale) SiO2 
 PCOD8001940
Probable space group: P -1
;
_chemical_formula_sum "Si O2"
_cell_formula_units_Z 16
_cell_length_a 14.898136
_cell_length_b 7.839138
_cell_length_c 14.359411
_cell_angle_alpha 81.114053
_cell_angle_beta 138.834989
_cell_angle_gamma 129.695546
_cell_volume 649.513843
_symmetry_space_group_name_H-M "P -1"
_symmetry_group_IT_number 2
_symmetry_cell_setting 'triclinic'
loop_
_space_group_symop_operation_xyz
x,y,z
-x,-y,-z
loop_
_atom_site_type_symbol
_atom_site_label
_atom_site_fract_x
_atom_site_fract_y
_atom_site_fract_z
Si Si1 0.798968 0.420630 0.943686
Si Si2 0.735132 0.742666 0.216117
Si Si3 0.807258 0.060576 0.906583
Si Si4 0.993275 0.911512 0.775586
Si Si5 0.799841 0.441054 0.251674
Si Si6 0.510353 0.326873 0.476879
Si Si7 0.440331 0.134087 0.829154
Si Si8 0.121829 0.807792 0.320814
O O1 0.569513 0.275455 0.818806
O O2 0.934288 0.685459 0.956718
O O3 0.730163 0.176897 0.857768
O O4 0.972221 0.546436 0.152403
O O5 0.802195 0.612960 0.306269
O O6 0.707594 0.839993 0.276163
O O7 0.500000 0.500000 0.000000
O O8 0.923035 0.017105 0.271132
O O9 0.806740 0.948064 0.010003
O O10 0.624099 0.798325 0.714643
O O11 0.777058 0.559885 0.645609
O O12 0.943212 0.056764 0.752338
O O13 0.054337 0.676611 0.383566
O O14 0.735044 0.206342 0.279285
O O15 0.622449 0.296381 0.040964
O O16 0.500000 0.500000 0.500000
O O17 0.391200 0.067399 0.478448
#
# Coordination Sequence:
#
# PCOD8001940 Si02
#       8
#     2   2   2   2   2   2   2   2
#     4   9  19  34  50  80 118 147 187 235 288 342
#     4   9  18  30  50  89 112 140 204 237 270 359
#     4  10  21  36  58  83 116 149 184 242 287 341
#     4  10  20  34  60  87 110 148 194 233 289 343
#     4   8  15  26  47  77 111 144 187 240 280 333
#     4   9  19  36  56  83 115 149 186 238 288 343
#     4   9  16  28  51  76 112 155 183 236 294 331
#     4   8  16  32  51  80 115 142 187 239 279 341
#
# _framework density 24.633807999999998
#
# number of rings (size 3 to 8) (size 9 to 14) (size 15 to 20)
#    0.000    3.000    0.000    0.750    7.000    4.500 
#    0.000    5.625    0.000    1.500    0.000    0.000 
#    0.000    0.000    0.000    0.000    0.000    0.000 
#
# Total GULP energy -198269.893329 kJ/mol
# GULP energy per Si atom -12391.868333 kJ/mol
# Density = 2.457774 g / cm^3
# Si number density = 24.633808 Si / 1000 Ang^3
#
#
#
# Elastic Constant Matrix: (Units=GPa)
#
#
# Indices 1 2 3 4 5 6 
#
# 1 157.3000 49.3092 30.4510 24.0861 0.0712 7.7758
# 2 49.3092 82.1670 26.3028 21.7803 0.0406 3.1952
# 3 30.4510 26.3028 60.1777 26.9248 -2.7235 0.7965
# 4 24.0861 21.7803 26.9248 31.8543 8.6618 6.5217
# 5 0.0712 0.0406 -2.7235 8.6618 24.8353 12.6501
# 6 7.7758 3.1952 0.7965 6.5217 12.6501 25.3853
#
#
#
# Elastic Compliance Matrix: (Units=1/GPa)
#
#
# Indices 1 2 3 4 5 6 
#
# 1 0.008311 -0.003786 -0.001201 -0.002747 0.001989 -0.002317
# 2 -0.003786 0.017165 -0.001916 -0.007930 0.002653 -0.000226
# 3 -0.001201 -0.001916 0.030934 -0.027479 0.012827 0.000306
# 4 -0.002747 -0.007930 -0.027479 0.069683 -0.026205 -0.002142
# 5 0.001989 0.002653 0.012827 -0.026205 0.064405 -0.026708
# 6 -0.002317 -0.000226 0.000306 -0.002142 -0.026708 0.053981
#
#
# Mechanical properties :
#
#
# Convention : Reuss Voigt Hill
#
# Bulk Modulus (GPa) = 23.47179 56.86339 40.16759
# Shear Modulus (GPa) = 18.34967 29.32045 23.83506
#
# Velocity S-wave (km/s) = 2.73224 3.45375 3.11396
# Velocity P-wave (km/s) = 4.41616 6.24805 5.41020
#
# Compressibility (1/GPa) = 0.04260434
#
# Stress axis : x y z
#
# Youngs Moduli (GPa) = 120.32678 58.25846 32.32713
#
# Poissons Ratio (x) = 0.22054 0.03883
# Poissons Ratio (y) = 0.45551 0.06193
# Poissons Ratio (z) = 0.14452 0.11161
#
# Static dielectric constant tensor:
#      x y z
#    x 3.989680 0.008440 0.203490 
#    y 0.008440 4.441310 0.813990 
#    z 0.203490 0.813990 4.296660 
# 
# 
# High freq. dielectric constant tensor:
#      x y z
#    x 1.988350 0.010470 -0.002060 
#    y 0.010470 1.963050 0.037620 
#    z -0.002060 0.037620 1.946720 
# 
# From -- ./inp_files/528637.got.cif
#   From: 2010.06.25/outbox.cif.g09.slc.cpg/sg2_265_cif.got.tgz:528637.got - 2010.06.27 13:26:56.
