data_PCOD8001632
_publ_section_title
;
Structure prediction by ZEFSAII (Michael W. Deem and Ramdas Pophale) SiO2 
 PCOD8001632
Probable space group: P -1
;
_chemical_formula_sum "Si O2"
_cell_formula_units_Z 16
_cell_length_a 11.390127
_cell_length_b 11.642348
_cell_length_c 19.779240
_cell_angle_alpha 65.454989
_cell_angle_beta 147.407707
_cell_angle_gamma 137.332705
_cell_volume 793.907568
_symmetry_space_group_name_H-M "P -1"
_symmetry_group_IT_number 2
_symmetry_cell_setting 'triclinic'
loop_
_space_group_symop_operation_xyz
x,y,z
-x,-y,-z
loop_
_atom_site_type_symbol
_atom_site_label
_atom_site_fract_x
_atom_site_fract_y
_atom_site_fract_z
Si Si1 0.091835 0.766883 0.671837
Si Si2 0.401940 0.400272 0.642152
Si Si3 0.611660 0.346943 0.369849
Si Si4 0.898853 0.641497 0.147733
Si Si5 0.277141 0.043043 0.162469
Si Si6 0.548916 0.157885 0.517092
Si Si7 0.085952 0.043495 0.431271
Si Si8 0.842284 0.478517 0.741938
O O1 0.421113 0.860195 0.767398
O O2 0.755403 0.603545 0.499763
O O3 0.155886 0.940063 0.687664
O O4 0.995585 0.642001 0.720734
O O5 0.463242 0.535767 0.695175
O O6 0.788591 0.522391 0.777967
O O7 0.123821 0.165402 0.584117
O O8 0.376880 0.174145 0.242285
O O9 0.577274 0.275033 0.444988
O O10 0.000000 0.500000 0.500000
O O11 0.100969 0.688513 0.302941
O O12 0.885626 0.513826 0.122868
O O13 0.500000 0.500000 0.000000
O O14 0.114106 0.845032 0.163963
O O15 0.000000 0.000000 0.000000
O O16 0.189508 0.036371 0.410029
O O17 0.500000 0.000000 0.500000
O O18 0.454635 0.243496 0.597067
#
# Coordination Sequence:
#
# PCOD8001632 Si02
#       8
#     2   2   2   2   2   2   2   2
#     4  11  19  37  59  88 122 160 207 252 303 365
#     4  11  19  35  59  92 123 154 206 257 307 356
#     4  12  24  38  64  93 126 162 206 259 308 360
#     4  11  23  41  64  91 124 166 205 251 308 372
#     4  12  26  42  62  90 128 167 206 252 310 374
#     4  11  21  40  62  94 125 156 207 255 309 357
#     4  10  20  33  60  90 122 158 201 259 303 361
#     4  10  20  34  60  89 121 160 205 252 303 366
#
# _framework density 20.153479000000001
#
# number of rings (size 3 to 8) (size 9 to 14) (size 15 to 20)
#    0.000    1.000    2.500    9.000    1.750    0.000 
#    0.000    0.000    2.750    3.750    0.000    0.000 
#    0.000    0.000    0.000    0.000    0.000    0.000 
#
# Total GULP energy -198241.083937 kJ/mol
# GULP energy per Si atom -12390.067746 kJ/mol
# Density = 2.010761 g / cm^3
# Si number density = 20.153479 Si / 1000 Ang^3
#
#
#
# Elastic Constant Matrix: (Units=GPa)
#
#
# Indices 1 2 3 4 5 6 
#
# 1 175.7064 70.6493 48.3848 -7.1005 39.5467 -10.5004
# 2 70.6493 142.4492 27.3259 -5.7151 11.1907 -7.3188
# 3 48.3848 27.3259 78.8500 -14.9606 17.1338 0.2502
# 4 -7.1005 -5.7151 -14.9606 15.6630 2.6567 13.6072
# 5 39.5467 11.1907 17.1338 2.6567 36.0315 -8.9037
# 6 -10.5004 -7.3188 0.2502 13.6072 -8.9037 42.7286
#
#
#
# Elastic Compliance Matrix: (Units=1/GPa)
#
#
# Indices 1 2 3 4 5 6 
#
# 1 0.009945 -0.003721 -0.001934 0.004236 -0.009527 -0.001516
# 2 -0.003721 0.009017 -0.001972 -0.002574 0.002922 0.002070
# 3 -0.001934 -0.001972 0.026410 0.042263 -0.017400 -0.018053
# 4 0.004236 -0.002574 0.042263 0.170479 -0.052551 -0.064888
# 5 -0.009527 0.002922 -0.017400 -0.052551 0.056042 0.026674
# 6 -0.001516 0.002070 -0.018053 -0.064888 0.026674 0.049714
#
#
# Mechanical properties :
#
#
# Convention : Reuss Voigt Hill
#
# Bulk Modulus (GPa) = 33.20270 76.63617 54.91944
# Shear Modulus (GPa) = 14.41342 35.59434 25.00388
#
# Velocity S-wave (km/s) = 2.67719 4.20713 3.52614
# Velocity P-wave (km/s) = 5.10560 7.85549 6.62480
#
# Compressibility (1/GPa) = 0.03011803
#
# Stress axis : x y z
#
# Youngs Moduli (GPa) = 100.55541 110.89987 37.86484
#
# Poissons Ratio (x) = 0.41263 0.07324
# Poissons Ratio (y) = 0.37414 0.07466
# Poissons Ratio (z) = 0.19451 0.21867
#
# Static dielectric constant tensor:
#      x y z
#    x 4.470390 -0.281200 0.461470 
#    y -0.281200 3.972550 -0.167840 
#    z 0.461470 -0.167840 3.348010 
# 
# 
# High freq. dielectric constant tensor:
#      x y z
#    x 1.817770 -0.004850 0.030600 
#    y -0.004850 1.811560 -0.010850 
#    z 0.030600 -0.010850 1.732480 
# 
# From -- ./inp_files/403446.got.cif
#   From: 2010.06.25/outbox.cif.g09.slc.cpg/sg2_202_cif.got.tgz:403446.got - 2010.06.27 13:26:56.
