data_PCOD8001358
_publ_section_title
;
Structure prediction by ZEFSAII (Michael W. Deem and Ramdas Pophale) SiO2 
 PCOD8001358
Probable space group: P -1
;
_chemical_formula_sum "Si O2"
_cell_formula_units_Z 16
_cell_length_a 13.908117
_cell_length_b 14.396801
_cell_length_c 10.148839
_cell_angle_alpha 125.985876
_cell_angle_beta 56.492031
_cell_angle_gamma 150.593436
_cell_volume 803.228578
_symmetry_space_group_name_H-M "P -1"
_symmetry_group_IT_number 2
_symmetry_cell_setting 'triclinic'
loop_
_space_group_symop_operation_xyz
x,y,z
-x,-y,-z
loop_
_atom_site_type_symbol
_atom_site_label
_atom_site_fract_x
_atom_site_fract_y
_atom_site_fract_z
Si Si1 0.314409 0.755008 0.591641
Si Si2 0.118365 0.475970 0.901552
Si Si3 0.658998 0.711593 0.991751
Si Si4 0.502295 0.779447 0.005621
Si Si5 0.036500 0.875181 0.779645
Si Si6 0.055681 0.368912 0.578177
Si Si7 0.685280 0.186262 0.651846
Si Si8 0.887683 0.207224 0.089731
O O1 0.248522 0.571759 0.522558
O O2 0.246771 0.742577 0.489846
O O3 0.200930 0.739329 0.771715
O O4 0.549909 0.963743 0.592746
O O5 0.105859 0.383582 0.704805
O O6 0.352652 0.681628 0.917217
O O7 0.000000 0.500000 0.000000
O O8 0.055262 0.352101 0.973810
O O9 0.530899 0.672451 0.944009
O O10 0.500000 0.500000 0.000000
O O11 0.837758 0.788500 0.852715
O O12 0.764629 0.886672 0.159995
O O13 0.431559 0.795841 0.199445
O O14 0.716258 0.993350 0.975305
O O15 0.040457 0.812070 0.583712
O O16 0.025197 0.779606 0.832746
O O17 0.889975 0.334332 0.694674
#
# Coordination Sequence:
#
# PCOD8001358 Si02
#       8
#     2   2   2   2   2   2   2   2
#     4  10  20  31  54  87 121 155 185 242 295 345
#     4  12  23  36  55  88 125 168 192 223 289 355
#     4  10  22  41  66  88 110 147 201 257 298 339
#     4  10  22  38  59  84 119 157 198 238 291 351
#     4  10  23  40  63  91 113 148 200 251 297 342
#     4  12  23  35  56  89 126 152 192 239 290 350
#     4  10  20  33  54  88 120 151 193 237 298 347
#     4  10  20  38  59  83 123 157 194 239 285 350
#
# _framework density 19.919611
#
# number of rings (size 3 to 8) (size 9 to 14) (size 15 to 20)
#    0.000    1.500    3.750    1.125    5.250    1.500 
#    0.000    0.625    0.000   10.500    0.000    0.000 
#    0.000    0.000    0.000    0.000    0.000    0.000 
#
# Total GULP energy -198275.862800 kJ/mol
# GULP energy per Si atom -12392.241425 kJ/mol
# Density = 1.987427 g / cm^3
# Si number density = 19.919611 Si / 1000 Ang^3
#
#
#
# Elastic Constant Matrix: (Units=GPa)
#
#
# Indices 1 2 3 4 5 6 
#
# 1 83.2304 22.3601 25.4990 10.8798 4.5962 16.3055
# 2 22.3601 72.8268 35.8583 13.4232 6.3988 -8.0013
# 3 25.4990 35.8583 99.1778 10.3468 21.7430 -2.0363
# 4 10.8798 13.4232 10.3468 22.1425 6.2429 1.3947
# 5 4.5962 6.3988 21.7430 6.2429 24.9696 4.8198
# 6 16.3055 -8.0013 -2.0363 1.3947 4.8198 28.3903
#
#
#
# Elastic Compliance Matrix: (Units=1/GPa)
#
#
# Indices 1 2 3 4 5 6 
#
# 1 0.016891 -0.004278 -0.003539 -0.004576 0.004470 -0.011694
# 2 -0.004278 0.019969 -0.005265 -0.008266 0.000781 0.007980
# 3 -0.003539 -0.005265 0.015632 0.000933 -0.012570 0.003758
# 4 -0.004576 -0.008266 0.000933 0.055280 -0.011600 -0.000381
# 5 0.004470 0.000781 -0.012570 -0.011600 0.055197 -0.012050
# 6 -0.011694 0.007980 0.003758 -0.000381 -0.012050 0.046523
#
#
# Mechanical properties :
#
#
# Convention : Reuss Voigt Hill
#
# Bulk Modulus (GPa) = 37.98182 46.96331 42.47257
# Shear Modulus (GPa) = 20.45575 26.53499 23.49537
#
# Velocity S-wave (km/s) = 3.20803 3.65376 3.43812
# Velocity P-wave (km/s) = 5.72982 6.43642 6.09337
#
# Compressibility (1/GPa) = 0.02632838
#
# Stress axis : x y z
#
# Youngs Moduli (GPa) = 59.20480 50.07830 63.97201
#
# Poissons Ratio (x) = 0.21422 0.22638
# Poissons Ratio (y) = 0.25326 0.33681
# Poissons Ratio (z) = 0.20951 0.26366
#
# Static dielectric constant tensor:
#      x y z
#    x 3.467770 0.115740 0.022750 
#    y 0.115740 3.856950 0.136310 
#    z 0.022750 0.136310 3.475330 
# 
# 
# High freq. dielectric constant tensor:
#      x y z
#    x 1.753630 0.016350 0.004940 
#    y 0.016350 1.792960 0.006330 
#    z 0.004940 0.006330 1.755780 
# 
# From -- ./inp_files/315736.got.cif
#   From: 2010.06.25/outbox.cif.g09.slc.cpg/sg2_158_cif.got.tgz:315736.got - 2010.06.27 13:26:56.
