data_PCOD8001024
_publ_section_title
;
Structure prediction by ZEFSAII (Michael W. Deem and Ramdas Pophale) SiO2 
 PCOD8001024
Probable space group: P -1
;
_chemical_formula_sum "Si O2"
_cell_formula_units_Z 16
_cell_length_a 9.026597
_cell_length_b 15.935620
_cell_length_c 17.482039
_cell_angle_alpha 26.715296
_cell_angle_beta 139.651072
_cell_angle_gamma 140.777365
_cell_volume 692.767103
_symmetry_space_group_name_H-M "P -1"
_symmetry_group_IT_number 2
_symmetry_cell_setting 'triclinic'
loop_
_space_group_symop_operation_xyz
x,y,z
-x,-y,-z
loop_
_atom_site_type_symbol
_atom_site_label
_atom_site_fract_x
_atom_site_fract_y
_atom_site_fract_z
Si Si1 0.802685 0.429768 0.312918
Si Si2 0.422995 0.064338 0.801938
Si Si3 0.962590 0.113008 0.968977
Si Si4 0.148741 0.603086 0.813348
Si Si5 0.859468 0.105879 0.309395
Si Si6 0.302730 0.409207 0.159692
Si Si7 0.834104 0.765632 0.314137
Si Si8 0.634322 0.366982 0.848462
O O1 0.783159 0.343204 0.290475
O O2 0.534277 0.334486 0.320446
O O3 0.848910 0.666091 0.133917
O O4 0.988211 0.359004 0.494328
O O5 0.710633 0.158483 0.836384
O O6 0.296420 0.196634 0.691019
O O7 0.341074 0.050117 0.693064
O O8 0.355185 0.849904 0.989522
O O9 0.980821 0.973184 0.161483
O O10 0.000000 0.000000 0.000000
O O11 0.260884 0.789853 0.760710
O O12 0.855345 0.526822 0.763193
O O13 0.268333 0.450993 0.022353
O O14 0.049756 0.250835 0.209382
O O15 0.000000 0.000000 0.500000
O O16 0.344840 0.596542 0.081405
O O17 0.624903 0.626413 0.289772
#
# Coordination Sequence:
#
# PCOD8001024 Si02
#       8
#     2   2   2   2   2   2   2   2
#     4  12  26  44  66 100 143 172 221 277 334 401
#     4  11  20  42  65  95 134 170 223 277 326 393
#     4  11  26  43  70 100 131 178 215 276 347 393
#     4  11  21  42  67  96 126 183 225 264 335 396
#     4  11  23  39  67  99 128 176 229 272 326 393
#     4  11  23  43  66  94 132 182 218 273 336 392
#     4  11  25  42  67 102 131 177 223 279 332 387
#     4  10  19  40  71  90 126 170 232 278 323 396
#
# _framework density 23.095783999999998
#
# number of rings (size 3 to 8) (size 9 to 14) (size 15 to 20)
#    0.000    1.000    2.500    6.375    0.000    7.000 
#    0.000    1.250    0.000    0.000    0.000    0.000 
#    0.000    0.000    0.000    0.000    0.000    0.000 
#
# Total GULP energy -198327.973419 kJ/mol
# GULP energy per Si atom -12395.498339 kJ/mol
# Density = 2.304322 g / cm^3
# Si number density = 23.095784 Si / 1000 Ang^3
#
#
#
# Elastic Constant Matrix: (Units=GPa)
#
#
# Indices 1 2 3 4 5 6 
#
# 1 82.8352 14.1388 12.1388 -0.0569 15.5464 -11.7519
# 2 14.1388 71.3773 16.1245 17.3214 -4.4779 -10.6012
# 3 12.1388 16.1245 100.3631 22.2647 5.0847 -0.5797
# 4 -0.0569 17.3214 22.2647 31.2750 1.3470 0.8225
# 5 15.5464 -4.4779 5.0847 1.3470 28.1304 12.6562
# 6 -11.7519 -10.6012 -0.5797 0.8225 12.6562 24.0510
#
#
#
# Elastic Compliance Matrix: (Units=1/GPa)
#
#
# Indices 1 2 3 4 5 6 
#
# 1 0.018718 -0.002620 -0.001430 0.002839 -0.018573 0.017633
# 2 -0.002620 0.018046 -0.000463 -0.009920 0.002265 0.005810
# 3 -0.001430 -0.000463 0.012123 -0.008333 -0.001217 0.000315
# 4 0.002839 -0.009920 -0.008333 0.043591 -0.002129 -0.003556
# 5 -0.018573 0.002265 -0.001217 -0.002129 0.065653 -0.042581
# 6 0.017633 0.005810 0.000315 -0.003556 -0.042581 0.075292
#
#
# Mechanical properties :
#
#
# Convention : Reuss Voigt Hill
#
# Bulk Modulus (GPa) = 25.08693 37.70887 31.39790
# Shear Modulus (GPa) = 19.55134 30.83619 25.19376
#
# Velocity S-wave (km/s) = 2.91268 3.65793 3.30637
# Velocity P-wave (km/s) = 4.71140 5.84835 5.31039
#
# Compressibility (1/GPa) = 0.03986140
#
# Stress axis : x y z
#
# Youngs Moduli (GPa) = 53.42401 55.41375 82.48665
#
# Poissons Ratio (x) = 0.14518 0.11796
# Poissons Ratio (y) = 0.13997 0.03818
# Poissons Ratio (z) = 0.07640 0.02565
#
# Static dielectric constant tensor:
#      x y z
#    x 4.113260 -0.103250 0.101700 
#    y -0.103250 4.269600 0.255980 
#    z 0.101700 0.255980 3.920250 
# 
# 
# High freq. dielectric constant tensor:
#      x y z
#    x 1.908110 -0.009360 0.006030 
#    y -0.009360 1.916680 0.018570 
#    z 0.006030 0.018570 1.902220 
# 
# From -- ./inp_files/328949.got.cif
#   From: 2010.06.25/outbox.cif.g09.slc.cpg/sg2_165_cif.got.tgz:328949.got - 2010.06.27 13:26:56.
