data_PCOD8001065
_publ_section_title
;
Structure prediction by ZEFSAII (Michael W. Deem and Ramdas Pophale) SiO2 
 PCOD8001065
Probable space group: P -1
;
_chemical_formula_sum "Si O2"
_cell_formula_units_Z 16
_cell_length_a 15.547773
_cell_length_b 12.690349
_cell_length_c 15.375386
_cell_angle_alpha 38.032168
_cell_angle_beta 151.648104
_cell_angle_gamma 121.906223
_cell_volume 733.695874
_symmetry_space_group_name_H-M "P -1"
_symmetry_group_IT_number 2
_symmetry_cell_setting 'triclinic'
loop_
_space_group_symop_operation_xyz
x,y,z
-x,-y,-z
loop_
_atom_site_type_symbol
_atom_site_label
_atom_site_fract_x
_atom_site_fract_y
_atom_site_fract_z
Si Si1 0.753878 0.559008 0.717322
Si Si2 0.577663 0.004082 0.290594
Si Si3 0.239097 0.857531 0.767088
Si Si4 0.211110 0.622089 0.743534
Si Si5 0.632456 0.204959 0.355081
Si Si6 0.796541 0.229798 0.657339
Si Si7 0.865460 0.569851 0.422429
Si Si8 0.535694 0.533300 0.374412
O O1 0.572399 0.803536 0.410527
O O2 0.719404 0.514458 0.615755
O O3 0.674110 0.445087 0.780576
O O4 0.000000 0.500000 0.000000
O O5 0.751008 0.978317 0.390171
O O6 0.638408 0.015706 0.437626
O O7 0.365683 0.220670 0.932889
O O8 0.279510 0.667572 0.866829
O O9 0.428210 0.742126 0.084498
O O10 0.000000 0.000000 0.500000
O O11 0.180793 0.786307 0.536654
O O12 0.994267 0.626666 0.566310
O O13 0.390813 0.408862 0.994680
O O14 0.663927 0.186993 0.497595
O O15 0.853644 0.386396 0.569304
O O16 0.662006 0.324586 0.564776
O O17 0.000000 0.000000 0.000000
O O18 0.000000 0.500000 0.500000
#
# Coordination Sequence:
#
# PCOD8001065 Si02
#       8
#     2   2   2   2   2   2   2   2
#     4  11  28  50  72  97 138 192 237 280 346 415
#     4  11  24  43  72  99 132 175 231 280 336 415
#     4  11  23  43  68 100 133 179 228 287 344 398
#     4  10  20  37  68  93 136 172 219 282 335 410
#     4  10  19  41  63  96 133 173 217 277 345 400
#     4  12  26  43  67 100 141 177 221 283 350 410
#     4  12  22  40  66 103 132 173 224 274 343 411
#     4  11  26  50  69 100 145 180 232 293 342 408
#
# _framework density 21.807402
#
# number of rings (size 3 to 8) (size 9 to 14) (size 15 to 20)
#    0.000    1.000    5.000    1.500    5.250    2.500 
#    0.000    1.250    0.000    0.000    0.000    0.000 
#    0.000    0.000    0.000    0.000    0.000    0.000 
#
# Total GULP energy -198219.530948 kJ/mol
# GULP energy per Si atom -12388.720684 kJ/mol
# Density = 2.175777 g / cm^3
# Si number density = 21.807402 Si / 1000 Ang^3
#
#
#
# Elastic Constant Matrix: (Units=GPa)
#
#
# Indices 1 2 3 4 5 6 
#
# 1 84.7221 40.3471 21.8769 8.9909 5.3982 -27.7199
# 2 40.3471 105.8611 36.2126 13.9376 -12.2959 -13.5662
# 3 21.8769 36.2126 91.6131 1.0034 -0.0783 -10.7888
# 4 8.9909 13.9376 1.0034 43.7639 -1.8303 -1.4012
# 5 5.3982 -12.2959 -0.0783 -1.8303 32.3248 5.4880
# 6 -27.7199 -13.5662 -10.7888 -1.4012 5.4880 34.5459
#
#
#
# Elastic Compliance Matrix: (Units=1/GPa)
#
#
# Indices 1 2 3 4 5 6 
#
# 1 0.020820 -0.006514 -0.000585 -0.002063 -0.008663 0.015258
# 2 -0.006514 0.014290 -0.004308 -0.002902 0.006713 -0.002145
# 3 -0.000585 -0.004308 0.013007 0.001189 -0.001822 0.002239
# 4 -0.002063 -0.002902 0.001189 0.024157 0.000880 -0.001583
# 5 -0.008663 0.006713 -0.001822 0.000880 0.036797 -0.010695
# 6 0.015258 -0.002145 0.002239 -0.001583 -0.010695 0.042681
#
#
# Mechanical properties :
#
#
# Convention : Reuss Voigt Hill
#
# Bulk Modulus (GPa) = 39.52196 53.22996 46.37596
# Shear Modulus (GPa) = 27.32243 34.37757 30.85000
#
# Velocity S-wave (km/s) = 3.54347 3.97472 3.76527
# Velocity P-wave (km/s) = 5.90797 6.74734 6.34156
#
# Compressibility (1/GPa) = 0.02530239
#
# Stress axis : x y z
#
# Youngs Moduli (GPa) = 48.03158 69.98064 76.88178
#
# Poissons Ratio (x) = 0.45588 0.04495
# Poissons Ratio (y) = 0.31290 0.33120
# Poissons Ratio (z) = 0.02808 0.30147
#
# Static dielectric constant tensor:
#      x y z
#    x -5.006100 -3.669400 10.807090 
#    y -3.669400 2.743400 4.305420 
#    z 10.807090 4.305420 -8.089460 
# 
# 
# High freq. dielectric constant tensor:
#      x y z
#    x 1.857980 -0.016540 0.005390 
#    y -0.016540 1.861060 0.004280 
#    z 0.005390 0.004280 1.849510 
# 
# From -- ./inp_files/532369.got.cif
#   From: 2010.06.25/outbox.cif.g09.slc.cpg/sg2_267_cif.got.tgz:532369.got - 2010.06.27 13:26:56.
