data_PCOD8001270
_publ_section_title
;
Structure prediction by ZEFSAII (Michael W. Deem and Ramdas Pophale) SiO2 
 PCOD8001270
Probable space group: P -1
;
_chemical_formula_sum "Si O2"
_cell_formula_units_Z 16
_cell_length_a 9.132631
_cell_length_b 10.073603
_cell_length_c 14.873788
_cell_angle_alpha 69.500937
_cell_angle_beta 66.278789
_cell_angle_gamma 120.481798
_cell_volume 768.345902
_symmetry_space_group_name_H-M "P -1"
_symmetry_group_IT_number 2
_symmetry_cell_setting 'triclinic'
loop_
_space_group_symop_operation_xyz
x,y,z
-x,-y,-z
loop_
_atom_site_type_symbol
_atom_site_label
_atom_site_fract_x
_atom_site_fract_y
_atom_site_fract_z
Si Si1 0.095089 0.109689 0.263978
Si Si2 0.914153 0.457123 0.131493
Si Si3 0.752185 0.819744 0.983908
Si Si4 0.673982 0.690197 0.558274
Si Si5 0.033734 0.389329 0.452057
Si Si6 0.846206 0.702376 0.161491
Si Si7 0.348479 0.098336 0.337765
Si Si8 0.199597 0.483852 0.199892
O O1 0.159916 0.197221 0.125126
O O2 0.282142 0.111703 0.251221
O O3 0.143859 0.279832 0.272763
O O4 0.815530 0.862000 0.399445
O O5 0.988137 0.657787 0.106334
O O6 0.625528 0.246799 0.252468
O O7 0.041286 0.425441 0.168252
O O8 0.000000 0.500000 0.000000
O O9 0.737181 0.701659 0.098735
O O10 0.485639 0.707651 0.061008
O O11 0.952049 0.073160 0.891233
O O12 0.379179 0.483707 0.670723
O O13 0.744908 0.838500 0.589194
O O14 0.766552 0.590432 0.567364
O O15 0.000000 0.500000 0.500000
O O16 0.118680 0.507316 0.306388
O O17 0.779631 0.138229 0.559621
#
# Coordination Sequence:
#
# PCOD8001270 Si02
#       8
#     2   2   2   2   2   2   2   2
#     4  11  20  38  72  92 116 170 222 253 311 390
#     4  11  24  39  62  93 131 166 209 267 325 375
#     4  11  23  39  67  91 124 166 221 259 312 389
#     4  10  19  43  68  86 127 170 214 259 309 380
#     4  11  22  38  64  97 126 166 210 265 325 370
#     4  10  23  44  61  88 131 173 206 263 324 367
#     4  10  20  42  64  86 130 169 207 259 315 374
#     4  12  22  40  63  96 128 163 217 267 314 383
#
# _framework density 20.823951999999998
#
# number of rings (size 3 to 8) (size 9 to 14) (size 15 to 20)
#    0.000    1.250    3.750    3.375    0.000    4.500 
#    2.250    0.000    0.000    0.000    0.000    0.000 
#    0.000    0.000    0.000    0.000    0.000    0.000 
#
# Total GULP energy -198338.894093 kJ/mol
# GULP energy per Si atom -12396.180881 kJ/mol
# Density = 2.077656 g / cm^3
# Si number density = 20.823952 Si / 1000 Ang^3
#
#
#
# Elastic Constant Matrix: (Units=GPa)
#
#
# Indices 1 2 3 4 5 6 
#
# 1 90.2118 36.1238 49.6165 -4.7091 -15.1779 5.1498
# 2 36.1238 106.6611 55.1974 -0.4543 -8.3899 -15.2898
# 3 49.6165 55.1974 124.2984 5.5663 -7.8429 8.4222
# 4 -4.7091 -0.4543 5.5663 39.9610 2.8508 -6.6506
# 5 -15.1779 -8.3899 -7.8429 2.8508 22.0338 3.4984
# 6 5.1498 -15.2898 8.4222 -6.6506 3.4984 23.5847
#
#
#
# Elastic Compliance Matrix: (Units=1/GPa)
#
#
# Indices 1 2 3 4 5 6 
#
# 1 0.016778 -0.003590 -0.004161 0.000897 0.009492 -0.005660
# 2 -0.003590 0.016304 -0.007081 0.003372 -0.001615 0.015073
# 3 -0.004161 -0.007081 0.013818 -0.004275 0.001504 -0.010045
# 4 0.000897 0.003372 -0.004275 0.028171 -0.005207 0.012233
# 5 0.009492 -0.001615 0.001504 -0.005207 0.054617 -0.013227
# 6 -0.005660 0.015073 -0.010045 0.012233 -0.013227 0.062407
#
#
# Mechanical properties :
#
#
# Convention : Reuss Voigt Hill
#
# Bulk Modulus (GPa) = 58.02069 67.00518 62.51294
# Shear Modulus (GPa) = 21.97759 29.13147 25.55453
#
# Velocity S-wave (km/s) = 3.25222 3.74430 3.50690
# Velocity P-wave (km/s) = 6.48271 7.13722 6.81782
#
# Compressibility (1/GPa) = 0.01723523
#
# Stress axis : x y z
#
# Youngs Moduli (GPa) = 59.60198 61.33459 72.37163
#
# Poissons Ratio (x) = 0.22020 0.30112
# Poissons Ratio (y) = 0.21398 0.51249
# Poissons Ratio (z) = 0.24799 0.43433
#
# Static dielectric constant tensor:
#      x y z
#    x 3.285810 0.014710 0.271300 
#    y 0.014710 3.686050 -0.151950 
#    z 0.271300 -0.151950 3.491630 
# 
# 
# High freq. dielectric constant tensor:
#      x y z
#    x 1.798480 -0.000060 -0.003870 
#    y -0.000060 1.812360 -0.005950 
#    z -0.003870 -0.005950 1.829180 
# 
# From -- ./inp_files/494836.got.cif
#   From: 2010.06.25/outbox.cif.g09.slc.cpg/sg2_248_cif.got.tgz:494836.got - 2010.06.27 13:26:56.
