data_PCOD8001593
_publ_section_title
;
Structure prediction by ZEFSAII (Michael W. Deem and Ramdas Pophale) SiO2 
 PCOD8001593
Probable space group: P -1
;
_chemical_formula_sum "Si O2"
_cell_formula_units_Z 14
_cell_length_a 13.668628
_cell_length_b 8.663185
_cell_length_c 8.653161
_cell_angle_alpha 92.097839
_cell_angle_beta 54.231733
_cell_angle_gamma 116.395002
_cell_volume 708.719229
_symmetry_space_group_name_H-M "P -1"
_symmetry_group_IT_number 2
_symmetry_cell_setting 'triclinic'
loop_
_space_group_symop_operation_xyz
x,y,z
-x,-y,-z
loop_
_atom_site_type_symbol
_atom_site_label
_atom_site_fract_x
_atom_site_fract_y
_atom_site_fract_z
Si Si1 0.276408 0.928908 0.639735
Si Si2 0.409416 0.579401 0.147080
Si Si3 0.891199 0.603174 0.487596
Si Si4 0.671855 0.200139 0.983108
Si Si5 0.843658 0.208511 0.563421
Si Si6 0.500828 0.854727 0.335658
Si Si7 0.070140 0.668339 0.051763
O O1 0.205015 0.929731 0.542702
O O2 0.348436 0.807677 0.539501
O O3 0.398159 0.120478 0.609391
O O4 0.152541 0.845956 0.877428
O O5 0.256619 0.412532 0.337732
O O6 0.397522 0.694192 0.022842
O O7 0.487078 0.700891 0.230301
O O8 0.500000 0.500000 0.000000
O O9 0.863022 0.401342 0.511837
O O10 0.005449 0.746769 0.509682
O O11 0.951324 0.677953 0.262898
O O12 0.716742 0.110700 0.801927
O O13 0.818388 0.344643 0.938823
O O14 0.563736 0.044692 0.192074
O O15 0.000000 0.500000 0.000000
#
# Coordination Sequence:
#
# PCOD8001593 Si02
#       7
#     2   2   2   2   2   2   2
#     4  10  18  27  52  81 103 130 161 223 264 291
#     4  11  21  34  53  76 107 141 171 205 252 315
#     4   9  17  29  47  74 106 126 171 213 256 295
#     4   9  19  31  52  81 101 132 173 215 254 298
#     4   9  15  28  49  79  98 124 171 224 252 289
#     4  10  19  33  50  81 109 129 171 212 260 304
#     4  10  16  27  50  81 106 125 164 224 266 289
#
# _framework density 19.753944000000001
#
# number of rings (size 3 to 8) (size 9 to 14) (size 15 to 20)
#    0.000    2.286    4.286    1.286    0.000    0.000 
#    0.000    0.000    0.000   22.286    0.000    0.000 
#    0.000    0.000    0.000    0.000    0.000    0.000 
#
# Total GULP energy -173448.517183 kJ/mol
# GULP energy per Si atom -12389.179799 kJ/mol
# Density = 1.970898 g / cm^3
# Si number density = 19.753944 Si / 1000 Ang^3
#
#
#
# Elastic Constant Matrix: (Units=GPa)
#
#
# Indices 1 2 3 4 5 6 
#
# 1 99.5995 47.6503 48.9804 22.8139 2.5540 37.2903
# 2 47.6503 51.6835 27.9695 21.0289 -3.4177 23.9383
# 3 48.9804 27.9695 138.5781 9.3823 -10.3733 9.4677
# 4 22.8139 21.0289 9.3823 29.4585 6.2925 8.0106
# 5 2.5540 -3.4177 -10.3733 6.2925 36.1125 9.5661
# 6 37.2903 23.9383 9.4677 8.0106 9.5661 31.7148
#
#
#
# Elastic Compliance Matrix: (Units=1/GPa)
#
#
# Indices 1 2 3 4 5 6 
#
# 1 0.026788 -0.007421 -0.005588 -0.008076 0.003350 -0.023199
# 2 -0.007421 0.053530 -0.003067 -0.027252 0.017155 -0.029054
# 3 -0.005588 -0.003067 0.009405 0.001853 0.001084 0.005282
# 4 -0.008076 -0.027252 0.001853 0.057172 -0.016770 0.020130
# 5 0.003350 0.017155 0.001084 -0.016770 0.038853 -0.024695
# 6 -0.023199 -0.029054 0.005282 0.020130 -0.024695 0.081525
#
#
# Mechanical properties :
#
#
# Convention : Reuss Voigt Hill
#
# Bulk Modulus (GPa) = 17.36993 59.89572 38.63282
# Shear Modulus (GPa) = 15.69289 30.47457 23.08373
#
# Velocity S-wave (km/s) = 2.82160 3.93199 3.42213
# Velocity P-wave (km/s) = 4.40766 7.14149 5.93415
#
# Compressibility (1/GPa) = 0.05757076
#
# Stress axis : x y z
#
# Youngs Moduli (GPa) = 37.32980 18.68117 106.32674
#
# Poissons Ratio (x) = 0.13864 0.59415
# Poissons Ratio (y) = 0.27704 0.32608
# Poissons Ratio (z) = 0.20860 0.05729
#
# Static dielectric constant tensor:
#      x y z
#    x 3.700050 0.734760 0.070910 
#    y 0.734760 3.197430 -0.207670 
#    z 0.070910 -0.207670 4.240400 
# 
# 
# High freq. dielectric constant tensor:
#      x y z
#    x 1.749780 0.070010 0.006650 
#    y 0.070010 1.711510 -0.007650 
#    z 0.006650 -0.007650 1.795340 
# 
# From -- ./inp_files/163981.got.cif
#   From: 2010.06.25/outbox.cif.g09.slc.cpg/sg2_82_cif.got.tgz:163981.got - 2010.06.27 13:26:56.
