data_PCOD8001609
_publ_section_title
;
Structure prediction by ZEFSAII (Michael W. Deem and Ramdas Pophale) SiO2 
 PCOD8001609
Probable space group: P -1
;
_chemical_formula_sum "Si O2"
_cell_formula_units_Z 16
_cell_length_a 11.409523
_cell_length_b 13.782506
_cell_length_c 12.803579
_cell_angle_alpha 121.580645
_cell_angle_beta 103.898258
_cell_angle_gamma 30.823779
_cell_volume 771.009190
_symmetry_space_group_name_H-M "P -1"
_symmetry_group_IT_number 2
_symmetry_cell_setting 'triclinic'
loop_
_space_group_symop_operation_xyz
x,y,z
-x,-y,-z
loop_
_atom_site_type_symbol
_atom_site_label
_atom_site_fract_x
_atom_site_fract_y
_atom_site_fract_z
Si Si1 0.024162 0.973902 0.658446
Si Si2 0.180770 0.459691 0.518587
Si Si3 0.320746 0.032516 0.552039
Si Si4 0.149083 0.705859 0.345813
Si Si5 0.723898 0.844147 0.041330
Si Si6 0.536642 0.237123 0.277596
Si Si7 0.785892 0.966283 0.694743
Si Si8 0.719735 0.717933 0.186012
O O1 0.820171 0.236107 0.714284
O O2 0.862708 0.035007 0.742948
O O3 0.130507 0.797374 0.496534
O O4 0.280526 0.816755 0.670454
O O5 0.397907 0.260773 0.541584
O O6 0.324889 0.364779 0.385797
O O7 0.000000 0.500000 0.500000
O O8 0.009161 0.711094 0.661918
O O9 0.213631 0.102860 0.453511
O O10 0.331678 0.156873 0.654635
O O11 0.118235 0.139756 0.647625
O O12 0.383460 0.420110 0.248797
O O13 0.682574 0.819539 0.129803
O O14 0.719757 0.983232 0.132166
O O15 0.002516 0.573395 0.903428
O O16 0.500000 0.000000 0.000000
O O17 0.501937 0.194419 0.814869
#
# Coordination Sequence:
#
# PCOD8001609 Si02
#       8
#     2   2   2   2   2   2   2   2
#     4  10  21  35  58  87 120 160 195 242 299 356
#     4  12  22  33  57  92 125 153 190 240 309 355
#     4  11  20  36  61  89 126 155 189 245 310 360
#     4  10  20  33  58  87 120 157 199 235 293 368
#     4  11  25  41  65  85 115 165 205 251 290 352
#     4  12  21  39  59  84 120 158 202 248 292 350
#     4  11  24  37  61  95 126 158 185 251 309 365
#     4  11  23  41  60  90 122 154 206 241 302 359
#
# _framework density 20.752022
#
# number of rings (size 3 to 8) (size 9 to 14) (size 15 to 20)
#    0.000    1.000    6.250    1.500    0.000    2.000 
#    0.000    0.625    0.000    1.500    0.000    0.000 
#    0.000    0.000    0.000    0.000    0.000    0.000 
#
# Total GULP energy -198379.153400 kJ/mol
# GULP energy per Si atom -12398.697088 kJ/mol
# Density = 2.070479 g / cm^3
# Si number density = 20.752022 Si / 1000 Ang^3
#
#
#
# Elastic Constant Matrix: (Units=GPa)
#
#
# Indices 1 2 3 4 5 6 
#
# 1 159.3024 53.9833 23.4020 25.5006 6.7676 -10.0063
# 2 53.9833 120.9082 31.6441 38.9282 4.4707 -7.7808
# 3 23.4020 31.6441 44.0393 26.4005 0.7912 -1.9122
# 4 25.5006 38.9282 26.4005 35.0401 -0.6838 6.9749
# 5 6.7676 4.4707 0.7912 -0.6838 19.7818 4.6171
# 6 -10.0063 -7.7808 -1.9122 6.9749 4.6171 34.4824
#
#
#
# Elastic Compliance Matrix: (Units=1/GPa)
#
#
# Indices 1 2 3 4 5 6 
#
# 1 0.007941 -0.001755 -0.000072 -0.004484 -0.003230 0.003244
# 2 -0.001755 0.015250 0.001323 -0.018237 -0.005256 0.007398
# 3 -0.000072 0.001323 0.044938 -0.037618 -0.005981 0.011180
# 4 -0.004484 -0.018237 -0.037618 0.086127 0.016469 -0.027129
# 5 -0.003230 -0.005256 -0.005981 0.016469 0.056778 -0.013389
# 6 0.003244 0.007398 0.011180 -0.027129 -0.013389 0.039511
#
#
# Mechanical properties :
#
#
# Convention : Reuss Voigt Hill
#
# Bulk Modulus (GPa) = 14.89811 60.25652 37.57732
# Shear Modulus (GPa) = 18.25301 32.20890 25.23096
#
# Velocity S-wave (km/s) = 2.96898 3.94393 3.49066
# Velocity P-wave (km/s) = 4.35291 7.05967 5.86459
#
# Compressibility (1/GPa) = 0.06712260
#
# Stress axis : x y z
#
# Youngs Moduli (GPa) = 125.92186 65.57324 22.25268
#
# Poissons Ratio (x) = 0.11507 0.00160
# Poissons Ratio (y) = 0.22098 -0.02944
# Poissons Ratio (z) = 0.00904 -0.08676
#
# Static dielectric constant tensor:
#      x y z
#    x 4.166670 0.060920 0.079140 
#    y 0.060920 3.926130 0.246160 
#    z 0.079140 0.246160 3.428380 
# 
# 
# High freq. dielectric constant tensor:
#      x y z
#    x 1.826190 0.001150 0.008750 
#    y 0.001150 1.829790 0.021780 
#    z 0.008750 0.021780 1.760780 
# 
# From -- ./inp_files/464701.got.cif
#   From: 2010.06.25/outbox.cif.g09.slc.cpg/sg2_233_cif.got.tgz:464701.got - 2010.06.27 13:26:56.
