data_PCOD8001810
_publ_section_title
;
Structure prediction by ZEFSAII (Michael W. Deem and Ramdas Pophale) SiO2 
 PCOD8001810
Probable space group: P -1
;
_chemical_formula_sum "Si O2"
_cell_formula_units_Z 16
_cell_length_a 11.695888
_cell_length_b 11.636902
_cell_length_c 10.908884
_cell_angle_alpha 37.583038
_cell_angle_beta 93.103191
_cell_angle_gamma 108.543447
_cell_volume 806.705002
_symmetry_space_group_name_H-M "P -1"
_symmetry_group_IT_number 2
_symmetry_cell_setting 'triclinic'
loop_
_space_group_symop_operation_xyz
x,y,z
-x,-y,-z
loop_
_atom_site_type_symbol
_atom_site_label
_atom_site_fract_x
_atom_site_fract_y
_atom_site_fract_z
Si Si1 0.844879 0.187640 0.701053
Si Si2 0.502083 0.504202 0.241546
Si Si3 0.579398 0.338717 0.173415
Si Si4 0.299542 0.631773 0.082569
Si Si5 0.284019 0.220599 0.808283
Si Si6 0.377627 0.917731 0.396734
Si Si7 0.140829 0.427056 0.472015
Si Si8 0.409660 0.099027 0.713854
O O1 0.759554 0.117248 0.632164
O O2 0.818901 0.356949 0.634057
O O3 0.990031 0.283127 0.584483
O O4 0.817374 0.984309 0.953697
O O5 0.535376 0.501520 0.100308
O O6 0.430880 0.649399 0.138077
O O7 0.633128 0.591723 0.252538
O O8 0.403338 0.263303 0.475526
O O9 0.638372 0.254742 0.356431
O O10 0.457776 0.149677 0.261454
O O11 0.695537 0.452051 0.984886
O O12 0.179978 0.476775 0.288844
O O13 0.301577 0.860648 0.880836
O O14 0.208836 0.297484 0.645280
O O15 0.387034 0.165954 0.790167
O O16 0.450937 0.892783 0.300991
#
# Coordination Sequence:
#
# PCOD8001810 Si02
#       8
#     2   2   2   2   2   2   2   2
#     4  11  24  41  60  82 120 159 197 238 286 346
#     4  11  22  34  60  91 122 151 186 241 294 351
#     4   9  19  37  58  89 116 151 189 242 293 342
#     4  11  21  36  59  86 119 156 193 234 294 343
#     4  12  22  37  61  90 120 150 192 241 296 347
#     4   9  19  37  62  86 116 151 192 239 295 344
#     4  11  24  40  58  86 119 159 197 236 283 348
#     4  10  20  34  56  91 119 145 182 244 297 344
#
# _framework density 19.833767000000002
#
# number of rings (size 3 to 8) (size 9 to 14) (size 15 to 20)
#    0.000    1.500    2.500    4.875    1.750    1.000 
#    0.000    0.625    0.000    3.000    0.000    0.000 
#    0.000    0.000    0.000    0.000    0.000    0.000 
#
# Total GULP energy -198305.180963 kJ/mol
# GULP energy per Si atom -12394.073810 kJ/mol
# Density = 1.978862 g / cm^3
# Si number density = 19.833767 Si / 1000 Ang^3
#
#
#
# Elastic Constant Matrix: (Units=GPa)
#
#
# Indices 1 2 3 4 5 6 
#
# 1 84.8813 52.4712 47.0338 6.0993 -11.4192 -5.8109
# 2 52.4712 103.8043 43.6382 11.6013 -17.6864 -13.0555
# 3 47.0338 43.6382 143.5246 8.6957 -13.1004 -6.4580
# 4 6.0993 11.6013 8.6957 26.2694 -15.5270 2.0716
# 5 -11.4192 -17.6864 -13.1004 -15.5270 27.3311 4.3822
# 6 -5.8109 -13.0555 -6.4580 2.0716 4.3822 30.8656
#
#
#
# Elastic Compliance Matrix: (Units=1/GPa)
#
#
# Indices 1 2 3 4 5 6 
#
# 1 0.018822 -0.007907 -0.003720 0.001646 0.002057 -0.000982
# 2 -0.007907 0.015794 -0.001485 -0.002650 0.003979 0.004494
# 3 -0.003720 -0.001485 0.008812 -0.000683 0.001259 0.000382
# 4 0.001646 -0.002650 -0.000683 0.060217 0.034440 -0.009885
# 5 0.002057 0.003979 0.001259 0.034440 0.061590 -0.008722
# 6 -0.000982 0.004494 0.000382 -0.009885 -0.008722 0.036096
#
#
# Mechanical properties :
#
#
# Convention : Reuss Voigt Hill
#
# Bulk Modulus (GPa) = 58.12969 68.72184 63.42577
# Shear Modulus (GPa) = 21.43257 29.49768 25.46512
#
# Velocity S-wave (km/s) = 3.29083 3.86067 3.58708
# Velocity P-wave (km/s) = 6.61902 7.38899 7.01458
#
# Compressibility (1/GPa) = 0.01720291
#
# Stress axis : x y z
#
# Youngs Moduli (GPa) = 53.13030 63.31479 113.48794
#
# Poissons Ratio (x) = 0.50065 0.42218
# Poissons Ratio (y) = 0.42011 0.16852
# Poissons Ratio (z) = 0.19764 0.09402
#
# Static dielectric constant tensor:
#      x y z
#    x 3.421290 -0.311220 0.122840 
#    y -0.311220 3.532530 0.145050 
#    z 0.122840 0.145050 3.927730 
# 
# 
# High freq. dielectric constant tensor:
#      x y z
#    x 1.748340 -0.027710 0.019850 
#    y -0.027710 1.760600 0.012290 
#    z 0.019850 0.012290 1.798410 
# 
# From -- ./inp_files/425023.got.cif
#   From: 2010.06.25/outbox.cif.g09.slc.cpg/sg2_213_cif.got.tgz:425023.got - 2010.06.27 13:26:56.
