data_PCOD8001012
_publ_section_title
;
Structure prediction by ZEFSAII (Michael W. Deem and Ramdas Pophale) SiO2 
 PCOD8001012
Probable space group: P -1
;
_chemical_formula_sum "Si O2"
_cell_formula_units_Z 16
_cell_length_a 11.044485
_cell_length_b 8.535865
_cell_length_c 12.105377
_cell_angle_alpha 67.336027
_cell_angle_beta 77.684502
_cell_angle_gamma 123.656328
_cell_volume 728.761104
_symmetry_space_group_name_H-M "P -1"
_symmetry_group_IT_number 2
_symmetry_cell_setting 'triclinic'
loop_
_space_group_symop_operation_xyz
x,y,z
-x,-y,-z
loop_
_atom_site_type_symbol
_atom_site_label
_atom_site_fract_x
_atom_site_fract_y
_atom_site_fract_z
Si Si1 0.409899 0.237909 0.787859
Si Si2 0.623965 0.769078 0.946350
Si Si3 0.739751 0.768698 0.559708
Si Si4 0.521023 0.973379 0.771671
Si Si5 0.916077 0.912812 0.714737
Si Si6 0.938480 0.183886 0.118227
Si Si7 0.680524 0.110515 0.486808
Si Si8 0.814503 0.404955 0.184065
O O1 0.555360 0.504637 0.637254
O O2 0.471809 0.105949 0.794844
O O3 0.228568 0.099255 0.795592
O O4 0.369855 0.235349 0.923024
O O5 0.820418 0.947067 0.809083
O O6 0.554317 0.885577 0.892852
O O7 0.500000 0.500000 0.000000
O O8 0.786795 0.760171 0.677980
O O9 0.722361 0.953730 0.495554
O O10 0.893193 0.840854 0.431851
O O11 0.687570 0.151760 0.606180
O O12 0.380589 0.742763 0.781856
O O13 0.943194 0.764924 0.817180
O O14 0.866023 0.296612 0.128708
O O15 0.056823 0.314561 0.947631
O O16 0.500000 0.000000 0.500000
O O17 0.823233 0.364056 0.323826
#
# Coordination Sequence:
#
# PCOD8001012 Si02
#       8
#     2   2   2   2   2   2   2   2
#     4  11  25  43  66 100 133 171 220 284 329 389
#     4  12  22  42  68  95 130 181 226 270 329 404
#     4  11  23  44  69 101 129 176 226 265 334 398
#     4  10  21  40  64  99 133 170 223 271 335 385
#     4  11  23  41  69  94 132 178 222 267 325 407
#     4  10  21  40  63  97 132 169 217 268 338 377
#     4  10  19  40  69  99 125 176 226 266 320 407
#     4   9  19  37  65  94 130 174 215 266 321 404
#
# _framework density 21.955068000000001
#
# number of rings (size 3 to 8) (size 9 to 14) (size 15 to 20)
#    0.000    1.500    3.750    1.125    0.000    2.000 
#    4.500    0.625    0.000    0.000    0.000    0.000 
#    0.000    0.000    0.000    0.000    0.000    0.000 
#
# Total GULP energy -198262.051001 kJ/mol
# GULP energy per Si atom -12391.378188 kJ/mol
# Density = 2.190510 g / cm^3
# Si number density = 21.955068 Si / 1000 Ang^3
#
#
#
# Elastic Constant Matrix: (Units=GPa)
#
#
# Indices 1 2 3 4 5 6 
#
# 1 89.3465 19.7429 31.2384 -5.6862 0.2981 1.6109
# 2 19.7429 54.0484 27.4750 -5.3105 -11.5541 2.6127
# 3 31.2384 27.4750 134.8949 -8.3365 -15.1165 8.1549
# 4 -5.6862 -5.3105 -8.3365 28.4739 -1.8957 -7.2726
# 5 0.2981 -11.5541 -15.1165 -1.8957 42.6358 7.8974
# 6 1.6109 2.6127 8.1549 -7.2726 7.8974 26.2648
#
#
#
# Elastic Compliance Matrix: (Units=1/GPa)
#
#
# Indices 1 2 3 4 5 6 
#
# 1 0.012983 -0.003900 -0.002462 0.001354 -0.002219 0.001398
# 2 -0.003900 0.022952 -0.002839 0.002491 0.005760 -0.002205
# 3 -0.002462 -0.002839 0.009161 0.001091 0.003108 -0.003044
# 4 0.001354 0.002491 0.001091 0.038733 0.000966 0.009765
# 5 -0.002219 0.005760 0.003108 0.000966 0.027942 -0.009536
# 6 0.001398 -0.002205 -0.003044 0.009765 -0.009536 0.044724
#
#
# Mechanical properties :
#
#
# Convention : Reuss Voigt Hill
#
# Bulk Modulus (GPa) = 37.46018 48.35583 42.90801
# Shear Modulus (GPa) = 27.20414 32.79713 30.00063
#
# Velocity S-wave (km/s) = 3.52388 3.86920 3.70057
# Velocity P-wave (km/s) = 5.80140 6.48334 6.15182
#
# Compressibility (1/GPa) = 0.02669501
#
# Stress axis : x y z
#
# Youngs Moduli (GPa) = 77.02217 43.56842 109.15570
#
# Poissons Ratio (x) = 0.16992 0.26872
# Poissons Ratio (y) = 0.30040 0.30990
# Poissons Ratio (z) = 0.18961 0.12369
#
# Static dielectric constant tensor:
#      x y z
#    x 4.116390 0.164530 -0.299370 
#    y 0.164530 3.595520 0.027840 
#    z -0.299370 0.027840 4.621500 
# 
# 
# High freq. dielectric constant tensor:
#      x y z
#    x 1.872130 0.002410 -0.008190 
#    y 0.002410 1.809320 0.013670 
#    z -0.008190 0.013670 1.892610 
# 
# From -- ./inp_files/419174.got.cif
#   From: 2010.06.25/outbox.cif.g09.slc.cpg/sg2_210_cif.got.tgz:419174.got - 2010.06.27 13:26:56.
