data_PCOD8001217
_publ_section_title
;
Structure prediction by ZEFSAII (Michael W. Deem and Ramdas Pophale) SiO2 
 PCOD8001217
Probable space group: P -1
;
_chemical_formula_sum "Si O2"
_cell_formula_units_Z 12
_cell_length_a 12.206947
_cell_length_b 9.585428
_cell_length_c 11.478867
_cell_angle_alpha 139.836690
_cell_angle_beta 137.204902
_cell_angle_gamma 71.107374
_cell_volume 495.037256
_symmetry_space_group_name_H-M "P -1"
_symmetry_group_IT_number 2
_symmetry_cell_setting 'triclinic'
loop_
_space_group_symop_operation_xyz
x,y,z
-x,-y,-z
loop_
_atom_site_type_symbol
_atom_site_label
_atom_site_fract_x
_atom_site_fract_y
_atom_site_fract_z
Si Si1 0.798231 0.448565 0.285452
Si Si2 0.294349 0.636687 0.587921
Si Si3 0.835253 0.552201 0.874547
Si Si4 0.696084 0.746603 0.264466
Si Si5 0.279397 0.113993 0.890399
Si Si6 0.540636 0.036336 0.417999
O O1 0.721264 0.478327 0.369305
O O2 0.850305 0.687053 0.393524
O O3 0.000000 0.500000 0.500000
O O4 0.650350 0.166996 0.933795
O O5 0.176854 0.430683 0.263819
O O6 0.203334 0.813777 0.630133
O O7 0.517492 0.775015 0.814849
O O8 0.630186 0.327420 0.628648
O O9 0.865005 0.821410 0.115546
O O10 0.000000 0.500000 0.000000
O O11 0.700541 0.765862 0.143233
O O12 0.712955 0.992899 0.495019
O O13 0.500000 0.500000 0.000000
O O14 0.500000 0.000000 0.500000
#
# Coordination Sequence:
#
# PCOD8001217 Si02
#       6
#     2   2   2   2   2   2
#     4  11  25  43  71 102 138 184 232 288 353 414
#     4  11  23  44  69 101 142 181 238 288 351 419
#     4  12  27  42  71 108 138 184 239 294 353 417
#     4  10  19  42  67  97 133 185 225 277 354 415
#     4  11  22  45  72  96 139 186 233 289 352 421
#     4  11  23  44  71  99 140 182 236 284 346 424
#
# _framework density 24.240597999999999
#
# number of rings (size 3 to 8) (size 9 to 14) (size 15 to 20)
#    0.000    1.000    5.000    3.500    4.667    2.000 
#    0.000    0.833    0.000    0.000    0.000    0.000 
#    0.000    0.000    0.000    0.000    0.000    0.000 
#
# Total GULP energy -148658.119466 kJ/mol
# GULP energy per Si atom -12388.176622 kJ/mol
# Density = 2.418543 g / cm^3
# Si number density = 24.240598 Si / 1000 Ang^3
#
#
#
# Elastic Constant Matrix: (Units=GPa)
#
#
# Indices 1 2 3 4 5 6 
#
# 1 114.4495 34.4898 31.6922 -14.2471 -39.8830 -9.2009
# 2 34.4898 134.7853 31.0209 -12.4610 -14.2274 -12.9561
# 3 31.6922 31.0209 63.1516 -11.9959 -22.1535 8.4208
# 4 -14.2471 -12.4610 -11.9959 44.1778 1.1023 -1.6139
# 5 -39.8830 -14.2274 -22.1535 1.1023 40.8931 -10.3124
# 6 -9.2009 -12.9561 8.4208 -1.6139 -10.3124 62.3357
#
#
#
# Elastic Compliance Matrix: (Units=1/GPa)
#
#
# Indices 1 2 3 4 5 6 
#
# 1 0.015777 -0.001146 -0.001964 0.004037 0.015065 0.004953
# 2 -0.001146 0.008959 -0.003714 0.001220 0.000539 0.002315
# 3 -0.001964 -0.003714 0.022709 0.004181 0.008315 -0.002646
# 4 0.004037 0.001220 0.004181 0.025330 0.006450 0.002007
# 5 0.015065 0.000539 0.008315 0.006450 0.045929 0.008978
# 6 0.004953 0.002315 -0.002646 0.002007 0.008978 0.019149
#
#
# Mechanical properties :
#
#
# Convention : Reuss Voigt Hill
#
# Bulk Modulus (GPa) = 29.58723 56.31023 42.94873
# Shear Modulus (GPa) = 30.71911 43.82690 37.27301
#
# Velocity S-wave (km/s) = 3.56372 4.25667 3.92551
# Velocity P-wave (km/s) = 5.40052 6.88760 6.18889
#
# Compressibility (1/GPa) = 0.03379836
#
# Stress axis : x y z
#
# Youngs Moduli (GPa) = 63.38373 111.61448 44.03616
#
# Poissons Ratio (x) = 0.12788 0.08647
# Poissons Ratio (y) = 0.07262 0.16355
# Poissons Ratio (z) = 0.12446 0.41453
#
# Static dielectric constant tensor:
#      x y z
#    x 4.200700 -0.284930 -0.098250 
#    y -0.284930 6.196540 0.087560 
#    z -0.098250 0.087560 4.243240 
# 
# 
# High freq. dielectric constant tensor:
#      x y z
#    x 1.965220 0.002780 -0.003870 
#    y 0.002780 1.976340 -0.011620 
#    z -0.003870 -0.011620 1.948130 
# 
# From -- ./inp_files/379373.got.cif
#   From: 2010.06.25/outbox.cif.g09.slc.cpg/sg2_190_cif.got.tgz:379373.got - 2010.06.27 13:26:56.
