data_PCOD8001795
_publ_section_title
;
Structure prediction by ZEFSAII (Michael W. Deem and Ramdas Pophale) SiO2 
 PCOD8001795
Probable space group: P -1
;
_chemical_formula_sum "Si O2"
_cell_formula_units_Z 14
_cell_length_a 8.980796
_cell_length_b 9.071326
_cell_length_c 12.711212
_cell_angle_alpha 121.883686
_cell_angle_beta 124.107571
_cell_angle_gamma 81.445790
_cell_volume 711.868126
_symmetry_space_group_name_H-M "P -1"
_symmetry_group_IT_number 2
_symmetry_cell_setting 'triclinic'
loop_
_space_group_symop_operation_xyz
x,y,z
-x,-y,-z
loop_
_atom_site_type_symbol
_atom_site_label
_atom_site_fract_x
_atom_site_fract_y
_atom_site_fract_z
Si Si1 0.792533 0.308745 0.846753
Si Si2 0.464370 0.020659 0.692959
Si Si3 0.815145 0.690905 0.954190
Si Si4 0.882902 0.195630 0.616150
Si Si5 0.212268 0.052772 0.783012
Si Si6 0.860420 0.339079 0.435673
Si Si7 0.474277 0.340346 0.348587
O O1 0.606746 0.177602 0.755592
O O2 0.770840 0.509202 0.937007
O O3 0.830888 0.302302 0.735247
O O4 0.964189 0.261112 0.961225
O O5 0.405939 0.078484 0.807178
O O6 0.280881 0.976125 0.532175
O O7 0.549543 0.845162 0.668222
O O8 0.709310 0.667085 0.793713
O O9 0.752984 0.847427 0.054377
O O10 0.905978 0.323205 0.571489
O O11 0.070266 0.131389 0.685294
O O12 0.129416 0.843194 0.689723
O O13 0.653328 0.371679 0.355771
O O14 0.000000 0.500000 0.500000
O O15 0.500000 0.500000 0.500000
#
# Coordination Sequence:
#
# PCOD8001795 Si02
#       7
#     2   2   2   2   2   2   2
#     4  10  21  36  57  81 109 147 188 230 271 324
#     4  10  20  34  56  85 109 143 188 227 274 328
#     4  10  21  38  54  77 114 149 183 228 281 328
#     4   9  18  37  58  80 113 143 184 231 270 324
#     4   9  20  37  56  81 115 147 181 230 277 325
#     4  10  21  36  58  86 111 144 186 228 273 327
#     4  10  22  39  57  80 113 146 183 231 280 333
#
# _framework density 19.666564000000001
#
# number of rings (size 3 to 8) (size 9 to 14) (size 15 to 20)
#    0.000    2.571    0.000    3.857    0.000    8.000 
#    0.000    8.571    0.000    0.000    0.000    0.000 
#    0.000    0.000    0.000    0.000    0.000    0.000 
#
# Total GULP energy -173569.300419 kJ/mol
# GULP energy per Si atom -12397.807173 kJ/mol
# Density = 1.962180 g / cm^3
# Si number density = 19.666564 Si / 1000 Ang^3
#
#
#
# Elastic Constant Matrix: (Units=GPa)
#
#
# Indices 1 2 3 4 5 6 
#
# 1 81.3724 53.3395 38.6096 14.4640 3.1077 14.1195
# 2 53.3395 84.4111 38.6540 20.4583 -5.1220 8.4418
# 3 38.6096 38.6540 122.6781 0.0445 -7.6931 -1.0336
# 4 14.4640 20.4583 0.0445 34.2238 -9.9668 6.5372
# 5 3.1077 -5.1220 -7.6931 -9.9668 26.5429 12.8005
# 6 14.1195 8.4418 -1.0336 6.5372 12.8005 37.4462
#
#
#
# Elastic Compliance Matrix: (Units=1/GPa)
#
#
# Indices 1 2 3 4 5 6 
#
# 1 0.023756 -0.012264 -0.004017 -0.003760 -0.005988 -0.003600
# 2 -0.012264 0.023203 -0.003333 -0.008169 0.001831 0.000102
# 3 -0.004017 -0.003333 0.010768 0.005084 0.004849 0.000018
# 4 -0.003760 -0.008169 0.005084 0.044755 0.023075 -0.012302
# 5 -0.005988 0.001831 0.004849 0.023075 0.059616 -0.022428
# 6 -0.003600 0.000102 0.000018 -0.012302 -0.022428 0.037855
#
#
# Mechanical properties :
#
#
# Convention : Reuss Voigt Hill
#
# Bulk Modulus (GPa) = 54.05283 61.07421 57.56352
# Shear Modulus (GPa) = 20.37941 30.16647 25.27294
#
# Velocity S-wave (km/s) = 3.22257 3.92075 3.58868
# Velocity P-wave (km/s) = 6.43358 7.18461 6.81944
#
# Compressibility (1/GPa) = 0.01850042
#
# Stress axis : x y z
#
# Youngs Moduli (GPa) = 42.09519 43.09717 92.86792
#
# Poissons Ratio (x) = 0.52854 0.37302
# Poissons Ratio (y) = 0.51625 0.30950
# Poissons Ratio (z) = 0.16908 0.14363
#
# Static dielectric constant tensor:
#      x y z
#    x 3.543360 -0.317350 0.019600 
#    y -0.317350 3.487890 0.124730 
#    z 0.019600 0.124730 3.683250 
# 
# 
# High freq. dielectric constant tensor:
#      x y z
#    x 1.756940 -0.023920 0.003360 
#    y -0.023920 1.759280 0.010060 
#    z 0.003360 0.010060 1.772120 
# 
# From -- ./inp_files/167853.got.cif
#   From: 2010.06.25/outbox.cif.g09.slc.cpg/sg2_84_cif.got.tgz:167853.got - 2010.06.27 13:26:56.
