data_PCOD8001604
_publ_section_title
;
Structure prediction by ZEFSAII (Michael W. Deem and Ramdas Pophale) SiO2 
 PCOD8001604
Probable space group: P -1
;
_chemical_formula_sum "Si O2"
_cell_formula_units_Z 16
_cell_length_a 15.925431
_cell_length_b 18.624640
_cell_length_c 8.930037
_cell_angle_alpha 131.554536
_cell_angle_beta 61.456591
_cell_angle_gamma 156.099160
_cell_volume 727.201170
_symmetry_space_group_name_H-M "P -1"
_symmetry_group_IT_number 2
_symmetry_cell_setting 'triclinic'
loop_
_space_group_symop_operation_xyz
x,y,z
-x,-y,-z
loop_
_atom_site_type_symbol
_atom_site_label
_atom_site_fract_x
_atom_site_fract_y
_atom_site_fract_z
Si Si1 0.255857 0.724937 0.146044
Si Si2 0.161510 0.881538 0.852680
Si Si3 0.337249 0.561721 0.432583
Si Si4 0.798714 0.688977 0.522120
Si Si5 0.520948 0.909241 0.906725
Si Si6 0.641675 0.733090 0.864403
Si Si7 0.680363 0.836303 0.290943
Si Si8 0.563522 0.928559 0.394385
O O1 0.312148 0.727611 0.263296
O O2 0.363087 0.929633 0.342933
O O3 0.365841 0.755267 0.972461
O O4 0.000000 0.500000 0.000000
O O5 0.888151 0.637525 0.752093
O O6 0.247983 0.896674 0.658934
O O7 0.228951 0.894997 0.973931
O O8 0.265572 0.082896 0.025838
O O9 0.274132 0.457844 0.500662
O O10 0.435616 0.758939 0.643891
O O11 0.533057 0.673882 0.339367
O O12 0.796792 0.791066 0.742644
O O13 0.624522 0.525436 0.306129
O O14 0.053294 0.901746 0.536052
O O15 0.500000 0.000000 0.000000
O O16 0.661891 0.744335 0.043068
O O17 0.548353 0.811631 0.318494
#
# Coordination Sequence:
#
# PCOD8001604 Si02
#       8
#     2   2   2   2   2   2   2   2
#     4  10  20  33  58  82 113 163 205 255 309 365
#     4  10  21  40  65  88 130 170 210 261 321 381
#     4  12  24  40  67  96 130 172 209 265 320 378
#     4  11  23  44  69  93 131 167 214 264 320 386
#     4  11  24  40  58  92 130 166 215 262 319 375
#     4  10  22  44  67  95 127 171 210 263 324 381
#     4  11  24  39  65  96 127 168 212 261 317 385
#     4   9  19  36  54  85 118 156 212 251 304 372
#
# _framework density 22.002165999999999
#
# number of rings (size 3 to 8) (size 9 to 14) (size 15 to 20)
#    0.000    1.500    3.750    1.875    0.000    3.000 
#    0.000    1.250    0.000    0.000    0.000    0.000 
#    0.000    0.000    0.000    0.000    0.000    0.000 
#
# Total GULP energy -198336.742278 kJ/mol
# GULP energy per Si atom -12396.046392 kJ/mol
# Density = 2.195209 g / cm^3
# Si number density = 22.002166 Si / 1000 Ang^3
#
#
#
# Elastic Constant Matrix: (Units=GPa)
#
#
# Indices 1 2 3 4 5 6 
#
# 1 64.7400 8.6729 16.5999 9.5196 -8.7344 14.7748
# 2 8.6729 108.4624 35.0883 10.6607 10.0574 21.5769
# 3 16.5999 35.0883 117.3293 9.9701 0.5364 13.6829
# 4 9.5196 10.6607 9.9701 21.8044 11.3123 6.6953
# 5 -8.7344 10.0574 0.5364 11.3123 31.0164 4.9984
# 6 14.7748 21.5769 13.6829 6.6953 4.9984 23.7952
#
#
#
# Elastic Compliance Matrix: (Units=1/GPa)
#
#
# Indices 1 2 3 4 5 6 
#
# 1 0.022055 0.001269 -0.000954 -0.012105 0.012406 -0.013497
# 2 0.001269 0.012138 -0.002545 -0.001668 -0.001384 -0.009571
# 3 -0.000954 -0.002545 0.009952 -0.003167 0.001916 -0.002333
# 4 -0.012105 -0.001668 -0.003167 0.068408 -0.027335 -0.002656
# 5 0.012406 -0.001384 0.001916 -0.027335 0.047712 -0.009881
# 6 -0.013497 -0.009571 -0.002333 -0.002656 -0.009881 0.063249
#
#
# Mechanical properties :
#
#
# Convention : Reuss Voigt Hill
#
# Bulk Modulus (GPa) = 25.19872 45.69489 35.44681
# Shear Modulus (GPa) = 20.72956 30.66791 25.69874
#
# Velocity S-wave (km/s) = 3.07279 3.73749 3.42132
# Velocity P-wave (km/s) = 4.90582 6.28001 5.63497
#
# Compressibility (1/GPa) = 0.03968456
#
# Stress axis : x y z
#
# Youngs Moduli (GPa) = 45.34154 82.38615 100.48583
#
# Poissons Ratio (x) = -0.10459 0.09588
# Poissons Ratio (y) = -0.05756 0.25577
# Poissons Ratio (z) = 0.04326 0.20970
#
# Static dielectric constant tensor:
#      x y z
#    x 4.223150 0.413010 0.122430 
#    y 0.413010 3.935300 -0.149790 
#    z 0.122430 -0.149790 4.246610 
# 
# 
# High freq. dielectric constant tensor:
#      x y z
#    x 1.867310 0.022460 0.004120 
#    y 0.022460 1.840000 -0.003150 
#    z 0.004120 -0.003150 1.877480 
# 
# From -- ./inp_files/337802.got.cif
#   From: 2010.06.25/outbox.cif.g09.slc.cpg/sg2_169_cif.got.tgz:337802.got - 2010.06.27 13:26:56.
