data_PCOD8001252
_publ_section_title
;
Structure prediction by ZEFSAII (Michael W. Deem and Ramdas Pophale) SiO2 
 PCOD8001252
Probable space group: P -1
;
_chemical_formula_sum "Si O2"
_cell_formula_units_Z 12
_cell_length_a 11.853270
_cell_length_b 9.225056
_cell_length_c 9.322265
_cell_angle_alpha 131.693149
_cell_angle_beta 49.804620
_cell_angle_gamma 101.869316
_cell_volume 534.884085
_symmetry_space_group_name_H-M "P -1"
_symmetry_group_IT_number 2
_symmetry_cell_setting 'triclinic'
loop_
_space_group_symop_operation_xyz
x,y,z
-x,-y,-z
loop_
_atom_site_type_symbol
_atom_site_label
_atom_site_fract_x
_atom_site_fract_y
_atom_site_fract_z
Si Si1 0.896184 0.050179 0.762011
Si Si2 0.164078 0.013448 0.718706
Si Si3 0.432893 0.120820 0.488984
Si Si4 0.572755 0.442449 0.248822
Si Si5 0.351441 0.520290 0.235535
Si Si6 0.758649 0.842190 0.947405
O O1 0.988497 0.113148 0.856911
O O2 0.856555 0.856862 0.734013
O O3 0.733060 0.237794 0.978029
O O4 0.000000 0.000000 0.500000
O O5 0.275199 0.075602 0.554883
O O6 0.227136 0.760530 0.510712
O O7 0.159106 0.111712 0.945677
O O8 0.383224 0.366922 0.719913
O O9 0.500000 0.000000 0.500000
O O10 0.577389 0.021986 0.191265
O O11 0.500000 0.500000 0.500000
O O12 0.432012 0.420843 0.254935
O O13 0.248949 0.386701 0.180063
O O14 0.500000 0.500000 0.000000
#
# Coordination Sequence:
#
# PCOD8001252 Si02
#       6
#     2   2   2   2   2   2
#     4  12  28  44  65 109 156 178 227 306 370 406
#     4  11  23  46  70 104 144 182 236 301 349 422
#     4  10  19  42  74 101 128 186 246 279 339 425
#     4  12  24  45  73 106 140 191 239 293 358 423
#     4  12  22  41  77 104 136 187 248 288 342 437
#     4  11  23  44  75 102 134 195 245 281 348 434
#
# _framework density 22.434767999999998
#
# number of rings (size 3 to 8) (size 9 to 14) (size 15 to 20)
#    0.000    0.667    6.667    2.500    0.000    3.333 
#    0.000    1.667    0.000    0.000    0.000    0.000 
#    0.000    0.000    0.000    0.000    0.000    0.000 
#
# Total GULP energy -148735.217131 kJ/mol
# GULP energy per Si atom -12394.601428 kJ/mol
# Density = 2.238371 g / cm^3
# Si number density = 22.434768 Si / 1000 Ang^3
#
#
#
# Elastic Constant Matrix: (Units=GPa)
#
#
# Indices 1 2 3 4 5 6 
#
# 1 92.2563 39.7439 15.2793 9.4287 12.5196 -0.4560
# 2 39.7439 133.0021 38.5733 -9.7759 19.0024 19.2117
# 3 15.2793 38.5733 77.8124 -11.0218 20.2189 -3.4445
# 4 9.4287 -9.7759 -11.0218 56.0004 2.0607 3.0965
# 5 12.5196 19.0024 20.2189 2.0607 32.7835 4.2773
# 6 -0.4560 19.2117 -3.4445 3.0965 4.2773 39.4390
#
#
#
# Elastic Compliance Matrix: (Units=1/GPa)
#
#
# Indices 1 2 3 4 5 6 
#
# 1 0.013361 -0.004171 -0.000154 -0.003057 -0.002751 0.002711
# 2 -0.004171 0.011258 -0.004277 0.002213 -0.001664 -0.005899
# 3 -0.000154 -0.004277 0.018044 0.002929 -0.009354 0.004442
# 4 -0.003057 0.002213 0.002929 0.019556 -0.002880 -0.002081
# 5 -0.002751 -0.001664 -0.009354 -0.002880 0.038996 -0.004041
# 6 0.002711 -0.005899 0.004442 -0.002081 -0.004041 0.029250
#
#
# Mechanical properties :
#
#
# Convention : Reuss Voigt Hill
#
# Bulk Modulus (GPa) = 39.27875 54.47374 46.87625
# Shear Modulus (GPa) = 32.01943 39.60954 35.81448
#
# Velocity S-wave (km/s) = 3.78196 4.20639 3.99981
# Velocity P-wave (km/s) = 6.05119 6.92281 6.50163
#
# Compressibility (1/GPa) = 0.02545906
#
# Stress axis : x y z
#
# Youngs Moduli (GPa) = 74.84508 88.82499 55.42000
#
# Poissons Ratio (x) = 0.37050 0.00853
# Poissons Ratio (y) = 0.31219 0.23703
# Poissons Ratio (z) = 0.01152 0.37991
#
# Static dielectric constant tensor:
#      x y z
#    x 4.329790 0.131650 -0.356900 
#    y 0.131650 4.270810 -0.968210 
#    z -0.356900 -0.968210 4.813590 
# 
# 
# High freq. dielectric constant tensor:
#      x y z
#    x 1.883520 0.008150 -0.004670 
#    y 0.008150 1.895300 -0.009990 
#    z -0.004670 -0.009990 1.874430 
# 
# From -- ./inp_files/245733.got.cif
#   From: 2010.06.25/outbox.cif.g09.slc.cpg/sg2_123_cif.got.tgz:245733.got - 2010.06.27 13:26:56.
