data_PCOD8001066
_publ_section_title
;
Structure prediction by ZEFSAII (Michael W. Deem and Ramdas Pophale) SiO2 
 PCOD8001066
Probable space group: P -1
;
_chemical_formula_sum "Si O2"
_cell_formula_units_Z 16
_cell_length_a 12.830950
_cell_length_b 7.761055
_cell_length_c 11.167005
_cell_angle_alpha 71.189510
_cell_angle_beta 139.251101
_cell_angle_gamma 108.669073
_cell_volume 681.909289
_symmetry_space_group_name_H-M "P -1"
_symmetry_group_IT_number 2
_symmetry_cell_setting 'triclinic'
loop_
_space_group_symop_operation_xyz
x,y,z
-x,-y,-z
loop_
_atom_site_type_symbol
_atom_site_label
_atom_site_fract_x
_atom_site_fract_y
_atom_site_fract_z
Si Si1 0.960262 0.009146 0.207831
Si Si2 0.338129 0.933794 0.209278
Si Si3 0.674247 0.494844 0.357633
Si Si4 0.834777 0.215043 0.697470
Si Si5 0.922094 0.677877 0.914808
Si Si6 0.402977 0.536598 0.290059
Si Si7 0.432554 0.852787 0.802391
Si Si8 0.730379 0.889692 0.233324
O O1 0.890996 0.989243 0.286487
O O2 0.095883 0.871117 0.341351
O O3 0.058467 0.206172 0.217633
O O4 0.807283 0.969760 0.995033
O O5 0.314075 0.912150 0.337400
O O6 0.332693 0.730582 0.191806
O O7 0.505387 0.055063 0.291508
O O8 0.780597 0.410565 0.571531
O O9 0.505000 0.532675 0.258567
O O10 0.645844 0.353700 0.251987
O O11 0.767542 0.690042 0.355386
O O12 0.981377 0.218517 0.916458
O O13 0.737670 0.632421 0.803263
O O14 0.000000 0.500000 0.000000
O O15 0.500000 0.500000 0.500000
O O16 0.303318 0.975041 0.718110
O O17 0.578042 0.851213 0.021637
#
# Coordination Sequence:
#
# PCOD8001066 Si02
#       8
#     2   2   2   2   2   2   2   2
#     4  10  23  42  66  93 136 181 224 278 330 415
#     4  10  19  41  63  99 137 172 220 286 344 397
#     4  12  25  42  69 106 136 182 233 280 345 401
#     4  11  24  42  63 101 140 175 223 283 342 416
#     4  11  21  41  69 100 130 180 221 270 358 406
#     4  12  23  40  68 106 141 168 221 293 342 405
#     4  10  23  41  69  99 135 185 230 286 342 397
#     4  10  23  47  66  94 144 180 241 280 327 409
#
# _framework density 23.463531
#
# number of rings (size 3 to 8) (size 9 to 14) (size 15 to 20)
#    0.000    1.250    5.000    1.875    5.250    2.000 
#    4.500    0.625    0.000    0.000    0.000    0.000 
#    0.000    0.000    0.000    0.000    0.000    0.000 
#
# Total GULP energy -198326.904594 kJ/mol
# GULP energy per Si atom -12395.431537 kJ/mol
# Density = 2.341013 g / cm^3
# Si number density = 23.463531 Si / 1000 Ang^3
#
#
#
# Elastic Constant Matrix: (Units=GPa)
#
#
# Indices 1 2 3 4 5 6 
#
# 1 168.2109 48.9889 31.1842 -21.6037 4.9242 3.8279
# 2 48.9889 82.9053 11.4703 -26.7412 -1.3616 2.9557
# 3 31.1842 11.4703 52.0897 -19.6860 -8.3287 3.0491
# 4 -21.6037 -26.7412 -19.6860 37.7164 -4.8737 -6.6040
# 5 4.9242 -1.3616 -8.3287 -4.8737 28.7641 -5.5828
# 6 3.8279 2.9557 3.0491 -6.6040 -5.5828 44.1496
#
#
#
# Elastic Compliance Matrix: (Units=1/GPa)
#
#
# Indices 1 2 3 4 5 6 
#
# 1 0.008152 -0.004783 -0.005107 -0.001989 -0.003590 -0.000785
# 2 -0.004783 0.018838 0.004944 0.014253 0.005885 0.001688
# 3 -0.005107 0.004944 0.030165 0.018502 0.013462 0.002498
# 4 -0.001989 0.014253 0.018502 0.048465 0.015984 0.007211
# 5 -0.003590 0.005885 0.013462 0.015984 0.043603 0.006892
# 6 -0.000785 0.001688 0.002498 0.007211 0.006892 0.024383
#
#
# Mechanical properties :
#
#
# Convention : Reuss Voigt Hill
#
# Bulk Modulus (GPa) = 21.15801 54.05476 37.60639
# Shear Modulus (GPa) = 25.09384 36.23017 30.66201
#
# Velocity S-wave (km/s) = 3.27384 3.93377 3.61888
# Velocity P-wave (km/s) = 4.82988 6.61215 5.79000
#
# Compressibility (1/GPa) = 0.04726341
#
# Stress axis : x y z
#
# Youngs Moduli (GPa) = 122.66643 53.08407 33.15128
#
# Poissons Ratio (x) = 0.25390 0.16930
# Poissons Ratio (y) = 0.58671 -0.16390
# Poissons Ratio (z) = 0.62643 -0.26244
#
# Static dielectric constant tensor:
#      x y z
#    x 4.633810 0.304900 0.105820 
#    y 0.304900 4.057740 -0.531820 
#    z 0.105820 -0.531820 3.680410 
# 
# 
# High freq. dielectric constant tensor:
#      x y z
#    x 1.940160 0.000590 0.008490 
#    y 0.000590 1.917880 -0.018060 
#    z 0.008490 -0.018060 1.918320 
# 
# From -- ./inp_files/419233.got.cif
#   From: 2010.06.25/outbox.cif.g09.slc.cpg/sg2_210_cif.got.tgz:419233.got - 2010.06.27 13:26:56.
