data_PCOD8001063
_publ_section_title
;
Structure prediction by ZEFSAII (Michael W. Deem and Ramdas Pophale) SiO2 
 PCOD8001063
Probable space group: P -1
;
_chemical_formula_sum "Si O2"
_cell_formula_units_Z 16
_cell_length_a 12.564057
_cell_length_b 14.653172
_cell_length_c 15.578836
_cell_angle_alpha 41.604244
_cell_angle_beta 152.267819
_cell_angle_gamma 118.459453
_cell_volume 709.086421
_symmetry_space_group_name_H-M "P -1"
_symmetry_group_IT_number 2
_symmetry_cell_setting 'triclinic'
loop_
_space_group_symop_operation_xyz
x,y,z
-x,-y,-z
loop_
_atom_site_type_symbol
_atom_site_label
_atom_site_fract_x
_atom_site_fract_y
_atom_site_fract_z
Si Si1 0.054470 0.838670 0.540682
Si Si2 0.844172 0.633320 0.566064
Si Si3 0.713187 0.182708 0.846156
Si Si4 0.127094 0.804356 0.808612
Si Si5 0.602367 0.656550 0.747396
Si Si6 0.567208 0.902732 0.418512
Si Si7 0.326848 0.883013 0.558594
Si Si8 0.367068 0.546661 0.528998
O O1 0.874809 0.765301 0.443235
O O2 0.213747 0.766168 0.797050
O O3 0.289134 0.775006 0.677563
O O4 0.845005 0.046576 0.246721
O O5 0.546550 0.737720 0.329697
O O6 0.860872 0.497590 0.606667
O O7 0.107903 0.529078 0.894154
O O8 0.696419 0.064243 0.847563
O O9 0.685805 0.340315 0.670812
O O10 0.017795 0.064061 0.193335
O O11 0.803737 0.867946 0.543922
O O12 0.324091 0.639101 0.125525
O O13 0.687948 0.739688 0.680566
O O14 0.467370 0.774192 0.651162
O O15 0.365878 0.636796 0.552252
O O16 0.473080 0.067327 0.294129
#
# Coordination Sequence:
#
# PCOD8001063 Si02
#       8
#     2   2   2   2   2   2   2   2
#     4  10  22  39  64  87 128 166 206 250 304 375
#     4  12  22  40  64  95 120 168 207 252 314 361
#     4  11  23  39  65  97 123 156 210 264 311 359
#     4  10  19  41  63  95 123 159 204 266 310 351
#     4  11  24  41  63  91 131 164 204 253 311 372
#     4  10  20  39  66  90 120 162 205 258 310 358
#     4  11  25  42  60  94 129 168 203 249 309 372
#     4  11  23  38  64  93 127 157 207 265 308 359
#
# _framework density 22.564247000000002
#
# number of rings (size 3 to 8) (size 9 to 14) (size 15 to 20)
#    0.000    1.250    2.500    3.750    0.000    7.500 
#    0.000    0.625    0.000    0.000    0.000    0.000 
#    0.000    0.000    0.000    0.000    0.000    0.000 
#
# Total GULP energy -198323.058260 kJ/mol
# GULP energy per Si atom -12395.191141 kJ/mol
# Density = 2.251289 g / cm^3
# Si number density = 22.564247 Si / 1000 Ang^3
#
#
#
# Elastic Constant Matrix: (Units=GPa)
#
#
# Indices 1 2 3 4 5 6 
#
# 1 72.0074 38.1266 21.0909 -6.3538 -16.3735 3.3410
# 2 38.1266 182.6163 10.5897 6.1365 -14.2954 14.2591
# 3 21.0909 10.5897 31.8326 -2.2696 -2.4674 1.8819
# 4 -6.3538 6.1365 -2.2696 31.2735 -3.5144 -7.0232
# 5 -16.3735 -14.2954 -2.4674 -3.5144 17.2399 -2.6264
# 6 3.3410 14.2591 1.8819 -7.0232 -2.6264 31.9096
#
#
#
# Elastic Compliance Matrix: (Units=1/GPa)
#
#
# Indices 1 2 3 4 5 6 
#
# 1 0.024870 -0.003271 -0.013386 0.007783 0.021049 0.003093
# 2 -0.003271 0.006583 0.000089 -0.002474 0.001398 -0.003034
# 3 -0.013386 0.000089 0.039705 -0.001107 -0.007462 -0.001838
# 4 0.007783 -0.002474 -0.001107 0.037793 0.014388 0.009858
# 5 0.021049 0.001398 -0.007462 0.014388 0.082170 0.007541
# 6 0.003093 -0.003034 -0.001838 0.009858 0.007541 0.035269
#
#
# Mechanical properties :
#
#
# Convention : Reuss Voigt Hill
#
# Bulk Modulus (GPa) = 26.30100 47.34118 36.82109
# Shear Modulus (GPa) = 18.36879 30.52788 24.44833
#
# Velocity S-wave (km/s) = 2.85628 3.68221 3.29523
# Velocity P-wave (km/s) = 4.74965 6.25335 5.55264
#
# Compressibility (1/GPa) = 0.03802137
#
# Stress axis : x y z
#
# Youngs Moduli (GPa) = 40.20934 151.89949 25.18587
#
# Poissons Ratio (x) = 0.49692 0.33713
# Poissons Ratio (y) = 0.13154 -0.00224
# Poissons Ratio (z) = 0.53823 -0.01348
#
# Static dielectric constant tensor:
#      x y z
#    x 3.889400 -0.004680 -0.343350 
#    y -0.004680 4.777830 0.118330 
#    z -0.343350 0.118330 3.870780 
# 
# 
# High freq. dielectric constant tensor:
#      x y z
#    x 1.871690 -0.002000 -0.029230 
#    y -0.002000 1.924040 0.001580 
#    z -0.029230 0.001580 1.859900 
# 
# From -- ./inp_files/455808.got.cif
#   From: 2010.06.25/outbox.cif.g09.slc.cpg/sg2_228_cif.got.tgz:455808.got - 2010.06.27 13:26:56.
