data_PCOD8001038
_publ_section_title
;
Structure prediction by ZEFSAII (Michael W. Deem and Ramdas Pophale) SiO2 
 PCOD8001038
Probable space group: P -1
;
_chemical_formula_sum "Si O2"
_cell_formula_units_Z 12
_cell_length_a 17.162605
_cell_length_b 9.097592
_cell_length_c 9.968253
_cell_angle_alpha 47.662519
_cell_angle_beta 53.300710
_cell_angle_gamma 28.224023
_cell_volume 544.053781
_symmetry_space_group_name_H-M "P -1"
_symmetry_group_IT_number 2
_symmetry_cell_setting 'triclinic'
loop_
_space_group_symop_operation_xyz
x,y,z
-x,-y,-z
loop_
_atom_site_type_symbol
_atom_site_label
_atom_site_fract_x
_atom_site_fract_y
_atom_site_fract_z
Si Si1 0.665881 0.318278 0.604818
Si Si2 0.294048 0.367197 0.774637
Si Si3 0.519582 0.609333 0.039504
Si Si4 0.812350 0.369072 0.979499
Si Si5 0.114519 0.326650 0.361614
Si Si6 0.989198 0.676552 0.786794
O O1 0.608783 0.626605 0.416452
O O2 0.735489 0.080822 0.549465
O O3 0.813190 0.082689 0.710412
O O4 0.514942 0.457121 0.747667
O O5 0.130827 0.603691 0.708332
O O6 0.395614 0.998597 0.913293
O O7 0.246884 0.528361 0.869359
O O8 0.703733 0.390550 0.995271
O O9 0.500000 0.500000 0.000000
O O10 0.793796 0.614397 0.780048
O O11 0.000000 0.000000 0.000000
O O12 0.988059 0.492460 0.267337
O O13 0.000000 0.500000 0.500000
O O14 0.000000 0.500000 0.000000
#
# Coordination Sequence:
#
# PCOD8001038 Si02
#       6
#     2   2   2   2   2   2
#     4  10  24  43  73 106 144 195 242 297 364 435
#     4  12  23  47  76 104 146 196 241 303 366 433
#     4  12  29  48  72 105 152 191 245 309 366 427
#     4  12  27  45  76 106 145 196 245 298 372 440
#     4  10  22  42  70 109 147 184 245 299 352 438
#     4  10  19  40  75 101 146 189 236 290 365 418
#
# _framework density 22.056643999999999
#
# number of rings (size 3 to 8) (size 9 to 14) (size 15 to 20)
#    1.000    0.000    5.000    2.000    4.667    2.667 
#    3.000    0.000    0.000    0.000    0.000    0.000 
#    0.000    0.000    0.000    0.000    0.000    0.000 
#
# Total GULP energy -148720.565648 kJ/mol
# GULP energy per Si atom -12393.380471 kJ/mol
# Density = 2.200644 g / cm^3
# Si number density = 22.056644 Si / 1000 Ang^3
#
#
#
# Elastic Constant Matrix: (Units=GPa)
#
#
# Indices 1 2 3 4 5 6 
#
# 1 160.5684 36.3481 48.0255 14.0141 -3.5488 -0.3874
# 2 36.3481 72.0400 22.3164 8.4847 3.2970 10.6669
# 3 48.0255 22.3164 159.0204 11.5582 -20.1589 17.8564
# 4 14.0141 8.4847 11.5582 35.2185 8.5482 0.4855
# 5 -3.5488 3.2970 -20.1589 8.5482 41.2890 2.2279
# 6 -0.3874 10.6669 17.8564 0.4855 2.2279 37.2640
#
#
#
# Elastic Compliance Matrix: (Units=1/GPa)
#
#
# Indices 1 2 3 4 5 6 
#
# 1 0.007735 -0.003410 -0.001925 -0.001711 0.000244 0.001987
# 2 -0.003410 0.016814 -0.000879 -0.002002 -0.001418 -0.004316
# 3 -0.001925 -0.000879 0.008243 -0.002820 0.004727 -0.003964
# 4 -0.001711 -0.002002 -0.002820 0.032443 -0.008187 0.001973
# 5 0.000244 -0.001418 0.004727 -0.008187 0.028543 -0.003456
# 6 0.001987 -0.004316 -0.003964 0.001973 -0.003456 0.030172
#
#
# Mechanical properties :
#
#
# Convention : Reuss Voigt Hill
#
# Bulk Modulus (GPa) = 49.11054 67.22319 58.16686
# Shear Modulus (GPa) = 34.92428 41.75021 38.33724
#
# Velocity S-wave (km/s) = 3.98350 4.35542 4.17361
# Velocity P-wave (km/s) = 6.59331 7.47239 7.04657
#
# Compressibility (1/GPa) = 0.02036223
#
# Stress axis : x y z
#
# Youngs Moduli (GPa) = 129.27816 59.47442 121.32049
#
# Poissons Ratio (x) = 0.20282 0.23358
# Poissons Ratio (y) = 0.44087 0.10667
# Poissons Ratio (z) = 0.24890 0.05229
#
# Static dielectric constant tensor:
#      x y z
#    x 4.534550 0.192430 -0.179490 
#    y 0.192430 3.772970 -0.049280 
#    z -0.179490 -0.049280 4.006160 
# 
# 
# High freq. dielectric constant tensor:
#      x y z
#    x 1.875690 0.000750 -0.010250 
#    y 0.000750 1.849270 -0.003100 
#    z -0.010250 -0.003100 1.876300 
# 
# From -- ./inp_files/324469.got.cif
#   From: 2010.06.25/outbox.cif.g09.slc.cpg/sg2_163_cif.got.tgz:324469.got - 2010.06.27 13:26:56.
