data_PCOD8001305
_publ_section_title
;
Structure prediction by ZEFSAII (Michael W. Deem and Ramdas Pophale) SiO2 
 PCOD8001305
Probable space group: P -1
;
_chemical_formula_sum "Si O2"
_cell_formula_units_Z 14
_cell_length_a 12.097547
_cell_length_b 7.168618
_cell_length_c 14.771296
_cell_angle_alpha 139.116143
_cell_angle_beta 131.807700
_cell_angle_gamma 60.900438
_cell_volume 624.562476
_symmetry_space_group_name_H-M "P -1"
_symmetry_group_IT_number 2
_symmetry_cell_setting 'triclinic'
loop_
_space_group_symop_operation_xyz
x,y,z
-x,-y,-z
loop_
_atom_site_type_symbol
_atom_site_label
_atom_site_fract_x
_atom_site_fract_y
_atom_site_fract_z
Si Si1 0.869480 0.525817 0.057211
Si Si2 0.654557 0.489399 0.528277
Si Si3 0.643794 0.297571 0.257024
Si Si4 0.062084 0.873038 0.725914
Si Si5 0.091254 0.074692 0.166234
Si Si6 0.435180 0.357342 0.001668
Si Si7 0.083754 0.866917 0.412669
O O1 0.862908 0.811006 0.096973
O O2 0.715624 0.480736 0.009063
O O3 0.998315 0.571442 0.222705
O O4 0.884917 0.247516 0.900321
O O5 0.500000 0.500000 0.500000
O O6 0.628634 0.498782 0.409885
O O7 0.752342 0.768269 0.712693
O O8 0.746508 0.205413 0.498930
O O9 0.812699 0.320112 0.319532
O O10 0.593732 0.981913 0.147484
O O11 0.541478 0.419989 0.168125
O O12 0.927945 0.901078 0.589837
O O13 0.996799 0.751963 0.740666
O O14 0.000000 0.000000 0.000000
O O15 0.500000 0.500000 0.000000
O O16 0.000000 0.000000 0.500000
#
# Coordination Sequence:
#
# PCOD8001305 Si02
#       7
#     2   2   2   2   2   2   2
#     4   9  21  40  64  98 126 179 233 277 337 416
#     4  12  27  44  66 105 147 178 219 300 356 407
#     4  10  23  45  65 103 141 179 234 295 346 405
#     4   9  21  40  69  93 127 176 238 283 326 416
#     4  12  24  41  67 100 132 183 230 274 349 417
#     4  10  22  40  71  97 138 188 227 284 353 423
#     4  10  19  45  70  92 133 179 228 278 348 403
#
# _framework density 22.415692
#
# number of rings (size 3 to 8) (size 9 to 14) (size 15 to 20)
#    0.857    0.857    2.857    0.429    4.000    4.000 
#    5.143    1.429    0.000    0.000    0.000    0.000 
#    0.000    0.000    0.000    0.000    0.000    0.000 
#
# Total GULP energy -173485.925852 kJ/mol
# GULP energy per Si atom -12391.851847 kJ/mol
# Density = 2.236467 g / cm^3
# Si number density = 22.415692 Si / 1000 Ang^3
#
#
#
# Elastic Constant Matrix: (Units=GPa)
#
#
# Indices 1 2 3 4 5 6 
#
# 1 178.6724 41.3864 52.7965 -17.7944 -13.0352 -16.5322
# 2 41.3864 51.9451 35.3237 -23.0113 1.2904 -7.8367
# 3 52.7965 35.3237 121.1831 -15.1008 -12.6203 -3.9978
# 4 -17.7944 -23.0113 -15.1008 44.6974 1.2143 -0.5851
# 5 -13.0352 1.2904 -12.6203 1.2143 31.9560 -4.6795
# 6 -16.5322 -7.8367 -3.9978 -0.5851 -4.6795 37.4004
#
#
#
# Elastic Compliance Matrix: (Units=1/GPa)
#
#
# Indices 1 2 3 4 5 6 
#
# 1 0.007603 -0.004671 -0.001540 0.000053 0.003061 0.002601
# 2 -0.004671 0.034416 -0.006767 0.013784 -0.005920 0.003898
# 3 -0.001540 -0.006767 0.011253 -0.000410 0.004047 -0.000396
# 4 0.000053 0.013784 -0.000410 0.029430 -0.001353 0.003159
# 5 0.003061 -0.005920 0.004047 -0.001353 0.035151 0.004922
# 6 0.002601 0.003898 -0.000396 0.003159 0.004922 0.029327
#
#
# Mechanical properties :
#
#
# Convention : Reuss Voigt Hill
#
# Bulk Modulus (GPa) = 36.60862 67.86820 52.23841
# Shear Modulus (GPa) = 27.43640 37.63035 32.53337
#
# Velocity S-wave (km/s) = 3.50234 4.10170 3.81381
# Velocity P-wave (km/s) = 5.72034 7.26462 6.53824
#
# Compressibility (1/GPa) = 0.02731597
#
# Stress axis : x y z
#
# Youngs Moduli (GPa) = 131.52763 29.05657 88.86785
#
# Poissons Ratio (x) = 0.13571 0.13684
# Poissons Ratio (y) = 0.61430 0.60139
# Poissons Ratio (z) = 0.20253 0.19663
#
# Static dielectric constant tensor:
#      x y z
#    x 3.915580 -0.153740 -0.027140 
#    y -0.153740 4.186330 0.144860 
#    z -0.027140 0.144860 4.154960 
# 
# 
# High freq. dielectric constant tensor:
#      x y z
#    x 1.877220 -0.001360 -0.004230 
#    y -0.001360 1.878550 -0.000520 
#    z -0.004230 -0.000520 1.882910 
# 
# From -- ./inp_files/512525.got.cif
#   From: 2010.06.25/outbox.cif.g09.slc.cpg/sg2_257_cif.got.tgz:512525.got - 2010.06.27 13:26:56.
