data_PCOD8001599
_publ_section_title
;
Structure prediction by ZEFSAII (Michael W. Deem and Ramdas Pophale) SiO2 
 PCOD8001599
Probable space group: P -1
;
_chemical_formula_sum "Si O2"
_cell_formula_units_Z 14
_cell_length_a 14.807546
_cell_length_b 13.966859
_cell_length_c 11.898296
_cell_angle_alpha 121.002356
_cell_angle_beta 140.100676
_cell_angle_gamma 29.210254
_cell_volume 669.877165
_symmetry_space_group_name_H-M "P -1"
_symmetry_group_IT_number 2
_symmetry_cell_setting 'triclinic'
loop_
_space_group_symop_operation_xyz
x,y,z
-x,-y,-z
loop_
_atom_site_type_symbol
_atom_site_label
_atom_site_fract_x
_atom_site_fract_y
_atom_site_fract_z
Si Si1 0.141724 0.792278 0.958367
Si Si2 0.341441 0.986564 0.705509
Si Si3 0.770118 0.347405 0.275136
Si Si4 0.308459 0.261418 0.896031
Si Si5 0.703142 0.936907 0.731606
Si Si6 0.273841 0.384812 0.710982
Si Si7 0.175239 0.350256 0.186609
O O1 0.178605 0.781613 0.851100
O O2 0.958907 0.808857 0.823645
O O3 0.464026 0.549932 0.166425
O O4 0.000000 0.000000 0.000000
O O5 0.388174 0.087711 0.814837
O O6 0.015546 0.171432 0.498013
O O7 0.502748 0.835549 0.652625
O O8 0.483305 0.841397 0.866796
O O9 0.798005 0.442497 0.290740
O O10 0.343777 0.332406 0.878964
O O11 0.977483 0.478216 0.753408
O O12 0.828696 0.777541 0.858390
O O13 0.500000 0.000000 0.500000
O O14 0.536511 0.158177 0.753055
O O15 0.000000 0.500000 0.500000
O O16 0.000000 0.500000 0.000000
#
# Coordination Sequence:
#
# PCOD8001599 Si02
#       7
#     2   2   2   2   2   2   2
#     4  11  24  42  62  93 127 165 206 261 318 373
#     4  10  20  36  56  91 122 162 203 249 309 372
#     4  11  23  39  63  88 126 166 208 254 315 376
#     4  10  20  33  57  90 128 157 201 257 307 360
#     4  12  23  38  63  94 125 156 210 265 307 371
#     4  12  20  35  60  96 125 159 206 259 311 363
#     4  10  20  35  57  87 123 159 197 252 307 355
#
# _framework density 20.899355
#
# number of rings (size 3 to 8) (size 9 to 14) (size 15 to 20)
#    0.000    1.143    4.286    3.429    0.000    1.143 
#    0.000    0.000    0.000   16.286    0.000    0.000 
#    0.000    0.000    0.000    0.000    0.000    0.000 
#
# Total GULP energy -173499.675733 kJ/mol
# GULP energy per Si atom -12392.833981 kJ/mol
# Density = 2.085179 g / cm^3
# Si number density = 20.899355 Si / 1000 Ang^3
#
#
#
# Elastic Constant Matrix: (Units=GPa)
#
#
# Indices 1 2 3 4 5 6 
#
# 1 78.6608 25.3403 38.9028 -12.6672 2.5899 -14.9944
# 2 25.3403 110.6381 36.6611 -10.4801 -4.1135 -24.0110
# 3 38.9028 36.6611 120.0706 -24.1731 7.5122 -14.8907
# 4 -12.6672 -10.4801 -24.1731 32.1991 -4.8086 5.2490
# 5 2.5899 -4.1135 7.5122 -4.8086 34.1072 -7.2392
# 6 -14.9944 -24.0110 -14.8907 5.2490 -7.2392 38.3537
#
#
#
# Elastic Compliance Matrix: (Units=1/GPa)
#
#
# Indices 1 2 3 4 5 6 
#
# 1 0.016167 -0.001339 -0.003905 0.002474 0.000614 0.003743
# 2 -0.001339 0.011759 -0.002379 0.000994 0.003553 0.006449
# 3 -0.003905 -0.002379 0.011712 0.006179 -0.001618 0.000380
# 4 0.002474 0.000994 0.006179 0.037630 0.003781 -0.000448
# 5 0.000614 0.003553 -0.001618 0.003781 0.032159 0.007389
# 6 0.003743 0.006449 0.000380 -0.000448 0.007389 0.033178
#
#
# Mechanical properties :
#
#
# Convention : Reuss Voigt Hill
#
# Bulk Modulus (GPa) = 40.99712 56.79752 48.89732
# Shear Modulus (GPa) = 30.12343 34.82967 32.47655
#
# Velocity S-wave (km/s) = 3.80064 4.08676 3.94629
# Velocity P-wave (km/s) = 6.23850 7.03594 6.64919
#
# Compressibility (1/GPa) = 0.02439196
#
# Stress axis : x y z
#
# Youngs Moduli (GPa) = 61.85255 85.03846 85.37910
#
# Poissons Ratio (x) = 0.11389 0.33344
# Poissons Ratio (y) = 0.08284 0.20311
# Poissons Ratio (z) = 0.24156 0.20230
#
# Static dielectric constant tensor:
#      x y z
#    x 4.591430 5.188180 4.787680 
#    y 5.188180 58.976820 49.115430 
#    z 4.787680 49.115430 48.444320 
# 
# 
# High freq. dielectric constant tensor:
#      x y z
#    x 1.803900 -0.021540 -0.010470 
#    y -0.021540 1.839830 -0.021500 
#    z -0.010470 -0.021500 1.796800 
# 
# From -- ./inp_files/454773.got.cif
#   From: 2010.06.25/outbox.cif.g09.slc.cpg/sg2_228_cif.got.tgz:454773.got - 2010.06.27 13:26:56.
