data_PCOD8001947
_publ_section_title
;
Structure prediction by ZEFSAII (Michael W. Deem and Ramdas Pophale) SiO2 
 PCOD8001947
Probable space group: P -1
;
_chemical_formula_sum "Si O2"
_cell_formula_units_Z 14
_cell_length_a 11.829852
_cell_length_b 14.122050
_cell_length_c 14.390108
_cell_angle_alpha 20.261255
_cell_angle_beta 101.349066
_cell_angle_gamma 113.265271
_cell_volume 640.670674
_symmetry_space_group_name_H-M "P -1"
_symmetry_group_IT_number 2
_symmetry_cell_setting 'triclinic'
loop_
_space_group_symop_operation_xyz
x,y,z
-x,-y,-z
loop_
_atom_site_type_symbol
_atom_site_label
_atom_site_fract_x
_atom_site_fract_y
_atom_site_fract_z
Si Si1 0.376089 0.148459 0.913915
Si Si2 0.625991 0.375812 0.984428
Si Si3 0.305702 0.474627 0.460635
Si Si4 0.040187 0.501525 0.899006
Si Si5 0.569038 0.439889 0.278005
Si Si6 0.673382 0.314280 0.244748
Si Si7 0.880418 0.727736 0.557947
O O1 0.283698 0.171673 0.798131
O O2 0.548716 0.373057 0.715362
O O3 0.353700 0.286362 0.877381
O O4 0.317434 0.752773 0.275435
O O5 0.711910 0.517291 0.966293
O O6 0.537511 0.961281 0.334703
O O7 0.518446 0.473240 0.878171
O O8 0.740169 0.591940 0.722146
O O9 0.170498 0.342156 0.492940
O O10 0.215541 0.784392 0.645268
O O11 0.006948 0.134744 0.215076
O O12 0.000000 0.500000 0.000000
O O13 0.946097 0.536040 0.778521
O O14 0.695917 0.515733 0.158657
O O15 0.500000 0.000000 0.500000
#
# Coordination Sequence:
#
# PCOD8001947 Si02
#       7
#     2   2   2   2   2   2   2
#     4  10  20  34  60  90 125 156 214 257 311 358
#     4  11  22  37  62  93 128 167 198 256 314 373
#     4  10  21  35  58  91 124 162 202 265 310 361
#     4  12  26  42  65  93 129 169 209 253 308 380
#     4  11  22  38  61  93 128 163 208 258 316 361
#     4  10  25  43  65  92 129 166 210 254 311 376
#     4  12  24  40  65  90 135 161 208 254 325 363
#
# _framework density 21.852098999999999
#
# number of rings (size 3 to 8) (size 9 to 14) (size 15 to 20)
#    0.000    1.143    2.857    3.429    6.000    2.286 
#    0.000    0.000    0.000    5.143    0.000    0.000 
#    0.000    0.000    0.000    0.000    0.000    0.000 
#
# Total GULP energy -173506.024316 kJ/mol
# GULP energy per Si atom -12393.287451 kJ/mol
# Density = 2.180236 g / cm^3
# Si number density = 21.852099 Si / 1000 Ang^3
#
#
#
# Elastic Constant Matrix: (Units=GPa)
#
#
# Indices 1 2 3 4 5 6 
#
# 1 132.0270 63.2076 17.0113 1.1545 12.0507 2.1189
# 2 63.2076 101.7253 5.8599 4.1719 -10.8162 3.4174
# 3 17.0113 5.8599 59.3559 -3.7800 19.1488 2.3476
# 4 1.1545 4.1719 -3.7800 25.1430 6.0084 13.3332
# 5 12.0507 -10.8162 19.1488 6.0084 22.1318 5.5934
# 6 2.1189 3.4174 2.3476 13.3332 5.5934 44.5118
#
#
#
# Elastic Compliance Matrix: (Units=1/GPa)
#
#
# Indices 1 2 3 4 5 6 
#
# 1 0.013873 -0.010821 0.002866 0.005342 -0.016910 0.000544
# 2 -0.010821 0.020061 -0.007504 -0.009430 0.024987 -0.000945
# 3 0.002866 -0.007504 0.028458 0.013915 -0.033366 -0.001036
# 4 0.005342 -0.009430 0.013915 0.058033 -0.031864 -0.013643
# 5 -0.016910 0.024987 -0.033366 -0.031864 0.104878 -0.002988
# 6 0.000544 -0.000945 -0.001036 -0.013643 -0.002988 0.027030
#
#
# Mechanical properties :
#
#
# Convention : Reuss Voigt Hill
#
# Bulk Modulus (GPa) = 31.76994 51.69622 41.73308
# Shear Modulus (GPa) = 17.02173 32.15929 24.59051
#
# Velocity S-wave (km/s) = 2.79400 3.84041 3.35821
# Velocity P-wave (km/s) = 4.99788 6.58587 5.84604
#
# Compressibility (1/GPa) = 0.03147629
#
# Stress axis : x y z
#
# Youngs Moduli (GPa) = 72.08116 49.84682 35.13919
#
# Poissons Ratio (x) = 0.53937 -0.10071
# Poissons Ratio (y) = 0.77996 0.26368
# Poissons Ratio (z) = -0.20659 0.37404
#
# Static dielectric constant tensor:
#      x y z
#    x 4.016360 -0.105320 0.217110 
#    y -0.105320 4.102870 0.073900 
#    z 0.217110 0.073900 4.069790 
# 
# 
# High freq. dielectric constant tensor:
#      x y z
#    x 1.852260 0.001240 0.028510 
#    y 0.001240 1.865590 0.008020 
#    z 0.028510 0.008020 1.841280 
# 
# From -- ./inp_files/126302.got.cif
#   From: 2010.06.25/outbox.cif.g09.slc.cpg/sg2_64_cif.got.tgz:126302.got - 2010.06.27 13:26:56.
