data_PCOD8001436
_publ_section_title
;
Structure prediction by ZEFSAII (Michael W. Deem and Ramdas Pophale) SiO2 
 PCOD8001436
Probable space group: P -1
;
_chemical_formula_sum "Si O2"
_cell_formula_units_Z 16
_cell_length_a 13.780986
_cell_length_b 25.456358
_cell_length_c 14.069653
_cell_angle_alpha 147.763742
_cell_angle_beta 21.299457
_cell_angle_gamma 148.569454
_cell_volume 900.593778
_symmetry_space_group_name_H-M "P -1"
_symmetry_group_IT_number 2
_symmetry_cell_setting 'triclinic'
loop_
_space_group_symop_operation_xyz
x,y,z
-x,-y,-z
loop_
_atom_site_type_symbol
_atom_site_label
_atom_site_fract_x
_atom_site_fract_y
_atom_site_fract_z
Si Si1 0.201282 0.406974 0.740759
Si Si2 0.160991 0.459365 0.653375
Si Si3 0.972420 0.405792 0.543580
Si Si4 0.066345 0.631702 0.761924
Si Si5 0.422581 0.199508 0.530405
Si Si6 0.035784 0.238534 0.782311
Si Si7 0.674238 0.662611 0.027392
Si Si8 0.718315 0.012979 0.737385
O O1 0.139383 0.385443 0.651877
O O2 0.514203 0.488299 0.594785
O O3 0.173713 0.298411 0.651985
O O4 0.973040 0.452050 0.063794
O O5 0.996606 0.387939 0.606701
O O6 0.647290 0.387055 0.788312
O O7 0.145821 0.527182 0.543949
O O8 0.115099 0.332216 0.245339
O O9 0.268273 0.711997 0.624311
O O10 0.089101 0.687062 0.927826
O O11 0.755039 0.600352 0.947474
O O12 0.265194 0.211092 0.594897
O O13 0.279260 0.221816 0.792798
O O14 0.422782 0.080011 0.352806
O O15 0.791879 0.130184 0.807248
O O16 0.000000 0.000000 0.500000
O O17 0.500000 0.000000 0.000000
#
# Coordination Sequence:
#
# PCOD8001436 Si02
#       8
#     2   2   2   2   2   2   2   2
#     4  10  20  36  53  78 102 134 169 210 262 303
#     4  10  21  35  54  74 105 134 171 214 251 307
#     4  12  22  33  49  73 101 140 171 205 249 294
#     4  11  20  32  50  73 106 136 171 203 248 304
#     4  10  21  35  50  74 106 140 169 211 248 298
#     4  10  20  32  55  78 104 139 166 211 260 311
#     4  11  24  33  48  70 104 138 177 205 239 301
#     4  10  20  34  51  75 103 135 172 209 254 306
#
# _framework density 17.766057
#
# number of rings (size 3 to 8) (size 9 to 14) (size 15 to 20)
#    0.000    1.500    3.750    2.250    3.500    0.000 
#    0.000    0.000    0.000    0.000    0.000    1.750 
#    0.000    0.125    0.000    0.000    0.000    0.000 
#
# Total GULP energy -198268.869732 kJ/mol
# GULP energy per Si atom -12391.804358 kJ/mol
# Density = 1.772562 g / cm^3
# Si number density = 17.766057 Si / 1000 Ang^3
#
#
#
# Elastic Constant Matrix: (Units=GPa)
#
#
# Indices 1 2 3 4 5 6 
#
# 1 110.0308 50.4053 36.1093 6.7966 16.8222 3.8265
# 2 50.4053 71.6110 26.0809 3.1359 7.8084 -0.9384
# 3 36.1093 26.0809 92.5043 -1.6026 11.2909 7.7224
# 4 6.7966 3.1359 -1.6026 23.4917 7.9240 3.9364
# 5 16.8222 7.8084 11.2909 7.9240 25.2211 -3.2429
# 6 3.8265 -0.9384 7.7224 3.9364 -3.2429 19.1211
#
#
#
# Elastic Compliance Matrix: (Units=1/GPa)
#
#
# Indices 1 2 3 4 5 6 
#
# 1 0.015197 -0.009186 -0.002246 -0.000496 -0.006595 -0.003601
# 2 -0.009186 0.021509 -0.003190 -0.001990 0.002159 0.004958
# 3 -0.002246 -0.003190 0.014123 0.005537 -0.006562 -0.007664
# 4 -0.000496 -0.001990 0.005537 0.052986 -0.020312 -0.016587
# 5 -0.006595 0.002159 -0.006562 -0.020312 0.054959 0.017578
# 6 -0.003601 0.004958 -0.007664 -0.016587 0.017578 0.062753
#
#
# Mechanical properties :
#
#
# Convention : Reuss Voigt Hill
#
# Bulk Modulus (GPa) = 46.32685 55.48190 50.90437
# Shear Modulus (GPa) = 19.38244 24.33682 21.85963
#
# Velocity S-wave (km/s) = 3.30658 3.70516 3.51153
# Velocity P-wave (km/s) = 6.38049 7.04282 6.71982
#
# Compressibility (1/GPa) = 0.02158576
#
# Stress axis : x y z
#
# Youngs Moduli (GPa) = 65.80087 46.49301 70.80654
#
# Poissons Ratio (x) = 0.42707 0.15900
# Poissons Ratio (y) = 0.60442 0.22590
# Poissons Ratio (z) = 0.14776 0.14833
#
# Static dielectric constant tensor:
#      x y z
#    x 3.352380 0.209110 0.079180 
#    y 0.209110 3.497300 0.072160 
#    z 0.079180 0.072160 3.449590 
# 
# 
# High freq. dielectric constant tensor:
#      x y z
#    x 1.664620 0.023670 0.003070 
#    y 0.023670 1.654400 -0.007760 
#    z 0.003070 -0.007760 1.705670 
# 
# From -- ./inp_files/96421.got.cif
#   From: 2010.06.25/outbox.cif.g09.slc.cpg/sg2_49_cif.got.tgz:96421.got - 2010.06.27 13:26:56.
