data_PCOD8001652
_publ_section_title
;
Structure prediction by ZEFSAII (Michael W. Deem and Ramdas Pophale) SiO2 
 PCOD8001652
Probable space group: P -1
;
_chemical_formula_sum "Si O2"
_cell_formula_units_Z 16
_cell_length_a 13.134935
_cell_length_b 5.232199
_cell_length_c 13.601933
_cell_angle_alpha 86.654708
_cell_angle_beta 98.721840
_cell_angle_gamma 92.762089
_cell_volume 921.669758
_symmetry_space_group_name_H-M "P -1"
_symmetry_group_IT_number 2
_symmetry_cell_setting 'triclinic'
loop_
_space_group_symop_operation_xyz
x,y,z
-x,-y,-z
loop_
_atom_site_type_symbol
_atom_site_label
_atom_site_fract_x
_atom_site_fract_y
_atom_site_fract_z
Si Si1 0.465449 0.299821 0.223144
Si Si2 0.981051 0.050309 0.882503
Si Si3 0.678402 0.482733 0.660496
Si Si4 0.587123 0.976684 0.593590
Si Si5 0.680600 0.414750 0.159828
Si Si6 0.146305 0.453173 0.169458
Si Si7 0.209699 0.079688 0.857205
Si Si8 0.691664 0.667014 0.961690
O O1 0.405182 0.529029 0.261807
O O2 0.580736 0.393010 0.213861
O O3 0.402088 0.220740 0.116906
O O4 0.464558 0.060849 0.304583
O O5 0.935098 0.328746 0.859064
O O6 0.086912 0.052931 0.837515
O O7 0.907777 0.828872 0.829491
O O8 0.000000 0.000000 0.000000
O O9 0.661898 0.229892 0.597992
O O10 0.793627 0.503513 0.719933
O O11 0.657152 0.733779 0.585095
O O12 0.500000 0.000000 0.500000
O O13 0.751909 0.659978 0.200176
O O14 0.744474 0.160680 0.186003
O O15 0.648227 0.457788 0.039784
O O16 0.225226 0.470505 0.090043
O O17 0.250783 0.097417 0.976186
#
# Coordination Sequence:
#
# PCOD8001652 Si02
#       8
#     2   2   2   2   2   2   2   2
#     4   9  21  32  53  71 102 138 166 197 248 300
#     4  12  20  32  47  70  97 142 176 216 254 280
#     4   9  21  35  53  77 103 130 163 204 253 309
#     4  10  20  35  55  78 107 128 156 205 261 312
#     4  10  20  34  45  68 100 139 179 202 234 283
#     4  11  21  32  52  68 102 135 178 206 256 293
#     4  10  22  31  47  66 103 134 181 213 235 276
#     4   9  20  32  46  72  98 141 171 210 232 291
#
# _framework density 17.359798999999999
#
# number of rings (size 3 to 8) (size 9 to 14) (size 15 to 20)
#    1.500    0.500    1.250    3.375    1.750    1.500 
#    0.000    0.000    0.000    0.000    0.000    0.000 
#    0.000   20.000    0.000    0.000    0.000    0.000 
#
# Total GULP energy -198260.587651 kJ/mol
# GULP energy per Si atom -12391.286728 kJ/mol
# Density = 1.732029 g / cm^3
# Si number density = 17.359799 Si / 1000 Ang^3
#
#
#
# Elastic Constant Matrix: (Units=GPa)
#
#
# Indices 1 2 3 4 5 6 
#
# 1 85.7896 26.0214 10.6406 0.3839 9.3198 -2.0153
# 2 26.0214 113.8405 22.9889 6.8541 9.1601 1.2232
# 3 10.6406 22.9889 45.3077 -1.0674 20.3238 3.2878
# 4 0.3839 6.8541 -1.0674 21.6479 1.9054 10.0606
# 5 9.3198 9.1601 20.3238 1.9054 19.1682 3.0508
# 6 -2.0153 1.2232 3.2878 10.0606 3.0508 24.0524
#
#
#
# Elastic Compliance Matrix: (Units=1/GPa)
#
#
# Indices 1 2 3 4 5 6 
#
# 1 0.013102 -0.002746 0.001175 0.000481 -0.006624 0.001716
# 2 -0.002746 0.010730 -0.006528 -0.004744 0.003334 0.001678
# 3 0.001175 -0.006528 0.047089 0.010609 -0.047736 -0.004389
# 4 0.000481 -0.004744 0.010609 0.060924 -0.011257 -0.025224
# 5 -0.006624 0.003334 -0.047736 -0.011257 0.105997 -0.002935
# 6 0.001716 0.001678 -0.004389 -0.025224 -0.002935 0.053157
#
#
# Mechanical properties :
#
#
# Convention : Reuss Voigt Hill
#
# Bulk Modulus (GPa) = 18.27468 40.47109 29.37288
# Shear Modulus (GPa) = 15.36392 25.32614 20.34503
#
# Velocity S-wave (km/s) = 2.97817 3.82369 3.42711
# Velocity P-wave (km/s) = 4.73031 6.54659 5.71112
#
# Compressibility (1/GPa) = 0.05472052
#
# Stress axis : x y z
#
# Youngs Moduli (GPa) = 76.32713 93.20033 21.23634
#
# Poissons Ratio (x) = 0.25596 -0.02495
# Poissons Ratio (y) = 0.20962 0.13864
# Poissons Ratio (z) = -0.08967 0.60844
#
# Static dielectric constant tensor:
#      x y z
#    x 3.146560 0.011300 0.200860 
#    y 0.011300 3.222660 0.019060 
#    z 0.200860 0.019060 2.873110 
# 
# 
# High freq. dielectric constant tensor:
#      x y z
#    x 1.658010 -0.000070 0.021740 
#    y -0.000070 1.677930 0.003260 
#    z 0.021740 0.003260 1.626600 
# 
# From -- ./inp_files/510443.got.cif
#   From: 2010.06.25/outbox.cif.g09.slc.cpg/sg2_256_cif.got.tgz:510443.got - 2010.06.27 13:26:56.
