data_PCOD8001401
_publ_section_title
;
Structure prediction by ZEFSAII (Michael W. Deem and Ramdas Pophale) SiO2 
 PCOD8001401
Probable space group: P -1
;
_chemical_formula_sum "Si O2"
_cell_formula_units_Z 16
_cell_length_a 12.201197
_cell_length_b 19.009151
_cell_length_c 14.193096
_cell_angle_alpha 51.769414
_cell_angle_beta 159.854268
_cell_angle_gamma 128.267757
_cell_volume 881.587925
_symmetry_space_group_name_H-M "P -1"
_symmetry_group_IT_number 2
_symmetry_cell_setting 'triclinic'
loop_
_space_group_symop_operation_xyz
x,y,z
-x,-y,-z
loop_
_atom_site_type_symbol
_atom_site_label
_atom_site_fract_x
_atom_site_fract_y
_atom_site_fract_z
Si Si1 0.882830 0.427607 0.833302
Si Si2 0.908778 0.137827 0.650731
Si Si3 0.510054 0.452501 0.689732
Si Si4 0.410214 0.833207 0.436992
Si Si5 0.486698 0.605532 0.906210
Si Si6 0.309852 0.023522 0.165330
Si Si7 0.816732 0.665828 0.314693
Si Si8 0.921495 0.720872 0.009964
O O1 0.609903 0.407830 0.709870
O O2 0.754226 0.481578 0.597670
O O3 0.977209 0.332791 0.954035
O O4 0.191037 0.488597 0.070802
O O5 0.827406 0.164908 0.668456
O O6 0.580337 0.097278 0.368410
O O7 0.075010 0.228905 0.659974
O O8 0.171227 0.067021 0.923819
O O9 0.374138 0.372598 0.715674
O O10 0.247551 0.759336 0.294110
O O11 0.466435 0.932098 0.350055
O O12 0.747872 0.804834 0.765742
O O13 0.121163 0.616071 0.581759
O O14 0.500000 0.500000 0.000000
O O15 0.591763 0.650527 0.053912
O O16 0.695668 0.654158 0.950486
O O17 0.000000 0.000000 0.000000
#
# Coordination Sequence:
#
# PCOD8001401 Si02
#       8
#     2   2   2   2   2   2   2   2
#     4  10  22  38  58  75 104 139 185 227 255 297
#     4  11  19  34  49  77 107 140 174 214 255 320
#     4  10  21  40  56  77 101 140 187 225 256 296
#     4  11  20  33  50  76 109 138 173 214 255 323
#     4  12  23  34  49  75 114 144 170 204 266 327
#     4  10  20  32  52  72 105 146 173 206 264 310
#     4  12  22  35  54  78 107 141 176 217 261 310
#     4  12  20  34  51  79 107 140 173 214 263 309
#
# _framework density 18.149068
#
# number of rings (size 3 to 8) (size 9 to 14) (size 15 to 20)
#    0.000    1.000    2.500    7.875    0.000    0.000 
#    0.000    0.000    0.000    0.000    0.000    5.250 
#    0.000    0.000    0.000    0.000    0.000    0.000 
#
# Total GULP energy -198421.750239 kJ/mol
# GULP energy per Si atom -12401.359390 kJ/mol
# Density = 1.810776 g / cm^3
# Si number density = 18.149068 Si / 1000 Ang^3
#
#
#
# Elastic Constant Matrix: (Units=GPa)
#
#
# Indices 1 2 3 4 5 6 
#
# 1 56.3818 23.2490 16.4573 -0.7735 5.8813 -2.3432
# 2 23.2490 98.5058 28.5857 -3.5317 11.3988 11.5563
# 3 16.4573 28.5857 87.8653 -8.5820 -15.7665 7.0590
# 4 -0.7735 -3.5317 -8.5820 39.4978 -4.2410 -6.0648
# 5 5.8813 11.3988 -15.7665 -4.2410 18.4064 2.4855
# 6 -2.3432 11.5563 7.0590 -6.0648 2.4855 22.7466
#
#
#
# Elastic Compliance Matrix: (Units=1/GPa)
#
#
# Indices 1 2 3 4 5 6 
#
# 1 0.022137 -0.003012 -0.005871 -0.001337 -0.011426 0.006525
# 2 -0.003012 0.014856 -0.006573 -0.002396 -0.013751 -0.004955
# 3 -0.005871 -0.006573 0.020041 0.005616 0.025045 -0.004724
# 4 -0.001337 -0.002396 0.005616 0.028498 0.012536 0.005565
# 5 -0.011426 -0.013751 0.025045 0.012536 0.092008 -0.008674
# 6 0.006525 -0.004955 -0.004724 0.005565 -0.008674 0.051050
#
#
# Mechanical properties :
#
#
# Convention : Reuss Voigt Hill
#
# Bulk Modulus (GPa) = 38.28132 42.14856 40.21494
# Shear Modulus (GPa) = 18.64217 27.76090 23.20154
#
# Velocity S-wave (km/s) = 3.20843 3.91526 3.57933
# Velocity P-wave (km/s) = 5.90456 6.61158 6.26805
#
# Compressibility (1/GPa) = 0.02612240
#
# Stress axis : x y z
#
# Youngs Moduli (GPa) = 45.17372 67.31094 49.89745
#
# Poissons Ratio (x) = 0.20274 0.29297
# Poissons Ratio (y) = 0.13606 0.32795
# Poissons Ratio (z) = 0.26523 0.44241
#
# Static dielectric constant tensor:
#      x y z
#    x 3.174480 0.103270 -0.190970 
#    y 0.103270 3.627150 -0.251840 
#    z -0.190970 -0.251840 3.722810 
# 
# 
# High freq. dielectric constant tensor:
#      x y z
#    x 1.658940 0.001290 -0.023420 
#    y 0.001290 1.710960 -0.002540 
#    z -0.023420 -0.002540 1.724950 
# 
# From -- ./inp_files/80567.got.cif
#   From: 2010.06.25/outbox.cif.g09.slc.cpg/sg2_41_cif.got.tgz:80567.got - 2010.06.27 13:26:56.
