data_PCOD8001793
_publ_section_title
;
Structure prediction by ZEFSAII (Michael W. Deem and Ramdas Pophale) SiO2 
 PCOD8001793
Probable space group: P -1
;
_chemical_formula_sum "Si O2"
_cell_formula_units_Z 16
_cell_length_a 14.412477
_cell_length_b 11.649005
_cell_length_c 15.526434
_cell_angle_alpha 151.427636
_cell_angle_beta 129.471150
_cell_angle_gamma 70.014154
_cell_volume 779.592993
_symmetry_space_group_name_H-M "P -1"
_symmetry_group_IT_number 2
_symmetry_cell_setting 'triclinic'
loop_
_space_group_symop_operation_xyz
x,y,z
-x,-y,-z
loop_
_atom_site_type_symbol
_atom_site_label
_atom_site_fract_x
_atom_site_fract_y
_atom_site_fract_z
Si Si1 0.072857 0.696819 0.394233
Si Si2 0.638919 0.508197 0.495278
Si Si3 0.191154 0.853872 0.912960
Si Si4 0.744116 0.306136 0.980663
Si Si5 0.687308 0.695309 0.108879
Si Si6 0.139003 0.548707 0.510063
Si Si7 0.524367 0.332662 0.606290
Si Si8 0.655117 0.182931 0.436460
O O1 0.113872 0.715516 0.531141
O O2 0.165191 0.602346 0.331870
O O3 0.139045 0.035453 0.630078
O O4 0.898007 0.460836 0.119669
O O5 0.763017 0.557768 0.535382
O O6 0.503873 0.454972 0.323693
O O7 0.577672 0.233550 0.343946
O O8 0.705900 0.795219 0.783744
O O9 0.223743 0.776240 0.788534
O O10 0.020163 0.739043 0.742839
O O11 0.230949 0.699899 0.906898
O O12 0.632526 0.971281 0.659760
O O13 0.679833 0.497365 0.052364
O O14 0.599730 0.839377 0.176095
O O15 0.616999 0.490257 0.849188
O O16 0.616216 0.251720 0.549736
#
# Coordination Sequence:
#
# PCOD8001793 Si02
#       8
#     2   2   2   2   2   2   2   2
#     4   8  19  39  64  83 115 153 191 241 289 338
#     4  10  20  34  56  83 120 149 190 240 287 346
#     4   9  19  32  59  86 120 146 189 240 294 338
#     4  10  20  40  63  85 116 157 194 238 290 341
#     4  10  22  40  63  81 121 156 194 237 289 345
#     4   9  17  35  55  91 113 150 190 238 294 343
#     4  11  23  37  60  88 116 156 195 238 291 343
#     4   9  22  38  58  88 116 156 189 242 293 341
#
# _framework density 20.523530000000001
#
# number of rings (size 3 to 8) (size 9 to 14) (size 15 to 20)
#    0.750    1.750    0.000    1.500    1.750    4.000 
#    0.000    3.125    2.750    0.000    0.000    0.000 
#    0.000    0.000    0.000    0.000    0.000    0.000 
#
# Total GULP energy -198299.331513 kJ/mol
# GULP energy per Si atom -12393.708220 kJ/mol
# Density = 2.047682 g / cm^3
# Si number density = 20.523530 Si / 1000 Ang^3
#
#
#
# Elastic Constant Matrix: (Units=GPa)
#
#
# Indices 1 2 3 4 5 6 
#
# 1 85.6231 38.4279 44.5419 -9.6906 -17.1062 -6.4703
# 2 38.4279 111.2034 29.6826 9.5497 -12.8974 -18.3148
# 3 44.5419 29.6826 75.7105 -5.8098 -5.8420 -1.2678
# 4 -9.6906 9.5497 -5.8098 21.5276 3.9532 -1.7697
# 5 -17.1062 -12.8974 -5.8420 3.9532 27.7351 3.5801
# 6 -6.4703 -18.3148 -1.2678 -1.7697 3.5801 19.9542
#
#
#
# Elastic Compliance Matrix: (Units=1/GPa)
#
#
# Indices 1 2 3 4 5 6 
#
# 1 0.021039 -0.004201 -0.009533 0.007475 0.007738 0.001635
# 2 -0.004201 0.014113 -0.003321 -0.008819 0.003236 0.010018
# 3 -0.009533 -0.003321 0.020029 0.002819 -0.003082 -0.004063
# 4 0.007475 -0.008819 0.002819 0.055823 -0.006944 0.000706
# 5 0.007738 0.003236 -0.003082 -0.006944 0.043069 -0.003059
# 6 0.001635 0.010018 -0.004063 0.000706 -0.003059 0.060193
#
#
# Mechanical properties :
#
#
# Convention : Reuss Voigt Hill
#
# Bulk Modulus (GPa) = 47.45588 55.31574 51.38581
# Shear Modulus (GPa) = 19.57725 24.50234 22.03980
#
# Velocity S-wave (km/s) = 3.09187 3.45898 3.28056
# Velocity P-wave (km/s) = 5.99325 6.55466 6.28023
#
# Compressibility (1/GPa) = 0.02107220
#
# Stress axis : x y z
#
# Youngs Moduli (GPa) = 47.53084 70.85565 49.92809
#
# Poissons Ratio (x) = 0.29767 0.47594
# Poissons Ratio (y) = 0.19968 0.16580
# Poissons Ratio (z) = 0.45309 0.23530
#
# Static dielectric constant tensor:
#      x y z
#    x 3.682040 -0.039870 0.156440 
#    y -0.039870 3.778190 0.086160 
#    z 0.156440 0.086160 3.507340 
# 
# 
# High freq. dielectric constant tensor:
#      x y z
#    x 1.796860 -0.001200 0.011440 
#    y -0.001200 1.803850 0.005680 
#    z 0.011440 0.005680 1.781770 
# 
# From -- ./inp_files/532174.got.cif
#   From: 2010.06.25/outbox.cif.g09.slc.cpg/sg2_267_cif.got.tgz:532174.got - 2010.06.27 13:26:56.
