data_PCOD8001090
_publ_section_title
;
Structure prediction by ZEFSAII (Michael W. Deem and Ramdas Pophale) SiO2 
 PCOD8001090
Probable space group: P -1
;
_chemical_formula_sum "Si O2"
_cell_formula_units_Z 16
_cell_length_a 9.026111
_cell_length_b 11.914346
_cell_length_c 17.749335
_cell_angle_alpha 53.615904
_cell_angle_beta 29.954480
_cell_angle_gamma 53.573466
_cell_volume 751.992838
_symmetry_space_group_name_H-M "P -1"
_symmetry_group_IT_number 2
_symmetry_cell_setting 'triclinic'
loop_
_space_group_symop_operation_xyz
x,y,z
-x,-y,-z
loop_
_atom_site_type_symbol
_atom_site_label
_atom_site_fract_x
_atom_site_fract_y
_atom_site_fract_z
Si Si1 0.036244 0.298689 0.521391
Si Si2 0.643379 0.003427 0.161254
Si Si3 0.381773 0.285383 0.787817
Si Si4 0.167539 0.493990 0.676382
Si Si5 0.845328 0.424519 0.705394
Si Si6 0.780678 0.993986 0.527839
Si Si7 0.212592 0.358262 0.991577
Si Si8 0.900049 0.779908 0.753318
O O1 0.213193 0.412671 0.363037
O O2 0.163807 0.141169 0.498026
O O3 0.688621 0.346397 0.630116
O O4 0.042167 0.312710 0.604285
O O5 0.551364 0.000967 0.291432
O O6 0.436790 0.135333 0.154823
O O7 0.557368 0.864862 0.218887
O O8 0.000000 0.000000 0.000000
O O9 0.152371 0.405173 0.795157
O O10 0.268723 0.259694 0.931795
O O11 0.500000 0.500000 0.500000
O O12 0.016689 0.409093 0.714850
O O13 0.978004 0.652511 0.709417
O O14 0.520175 0.389660 0.877702
O O15 0.000000 0.000000 0.500000
O O16 0.834006 0.127901 0.402046
O O17 0.071709 0.276162 0.151312
O O18 0.000000 0.500000 0.000000
#
# Coordination Sequence:
#
# PCOD8001090 Si02
#       8
#     2   2   2   2   2   2   2   2
#     4  10  19  41  66 101 135 185 226 296 348 420
#     4  11  25  43  68 107 144 183 237 295 355 427
#     4  11  22  42  68  95 143 183 230 294 357 414
#     4  12  23  40  72 105 133 183 241 297 353 423
#     4  10  23  37  66 101 143 178 240 287 360 414
#     4  10  19  41  71  98 133 180 237 279 351 428
#     4  11  25  45  64 102 143 188 236 299 356 417
#     4  11  24  44  72  98 140 192 239 281 367 423
#
# _framework density 21.276799
#
# number of rings (size 3 to 8) (size 9 to 14) (size 15 to 20)
#    0.000    1.250    5.000    2.250    1.750    3.000 
#    0.000    0.000    0.000    4.500    0.000    0.000 
#    0.000    0.000    0.000    0.000    0.000    0.000 
#
# Total GULP energy -198337.766618 kJ/mol
# GULP energy per Si atom -12396.110414 kJ/mol
# Density = 2.122837 g / cm^3
# Si number density = 21.276799 Si / 1000 Ang^3
#
#
#
# Elastic Constant Matrix: (Units=GPa)
#
#
# Indices 1 2 3 4 5 6 
#
# 1 115.8194 54.7128 51.8225 -4.1270 14.2039 11.0229
# 2 54.7128 138.1402 42.3953 4.1227 14.2208 17.3476
# 3 51.8225 42.3953 128.5832 -4.0846 23.4215 -5.6524
# 4 -4.1270 4.1227 -4.0846 31.9133 -6.1173 2.2394
# 5 14.2039 14.2208 23.4215 -6.1173 26.8804 0.2576
# 6 11.0229 17.3476 -5.6524 2.2394 0.2576 43.9241
#
#
#
# Elastic Compliance Matrix: (Units=1/GPa)
#
#
# Indices 1 2 3 4 5 6 
#
# 1 0.012289 -0.003376 -0.003687 0.001497 -0.001133 -0.002295
# 2 -0.003376 0.009779 -0.001625 -0.002157 -0.002435 -0.003100
# 3 -0.003687 -0.001625 0.011211 -0.000405 -0.007082 0.003072
# 4 0.001497 -0.002157 -0.000405 0.033445 0.008327 -0.001330
# 5 -0.001133 -0.002435 -0.007082 0.008327 0.047158 -0.000366
# 6 -0.002295 -0.003100 0.003072 -0.001330 -0.000366 0.025032
#
#
# Mechanical properties :
#
#
# Convention : Reuss Voigt Hill
#
# Bulk Modulus (GPa) = 62.87731 75.60043 69.23887
# Shear Modulus (GPa) = 30.94242 36.11768 33.53005
#
# Velocity S-wave (km/s) = 3.81764 4.12456 3.97406
# Velocity P-wave (km/s) = 7.00348 7.63490 7.32599
#
# Compressibility (1/GPa) = 0.01590399
#
# Stress axis : x y z
#
# Youngs Moduli (GPa) = 81.37258 102.25899 89.19872
#
# Poissons Ratio (x) = 0.34520 0.32886
# Poissons Ratio (y) = 0.27469 0.14495
# Poissons Ratio (z) = 0.30001 0.16617
#
# Static dielectric constant tensor:
#      x y z
#    x 4.269210 0.321820 0.124480 
#    y 0.321820 3.896230 -0.011440 
#    z 0.124480 -0.011440 4.398990 
# 
# 
# High freq. dielectric constant tensor:
#      x y z
#    x 1.828800 0.017810 0.013620 
#    y 0.017810 1.832420 0.001400 
#    z 0.013620 0.001400 1.839330 
# 
# From -- ./inp_files/280297.got.cif
#   From: 2010.06.25/outbox.cif.g09.slc.cpg/sg2_141_cif.got.tgz:280297.got - 2010.06.27 13:26:56.
