data_PCOD8001095
_publ_section_title
;
Structure prediction by ZEFSAII (Michael W. Deem and Ramdas Pophale) SiO2 
 PCOD8001095
Probable space group: P -1
;
_chemical_formula_sum "Si O2"
_cell_formula_units_Z 16
_cell_length_a 23.491070
_cell_length_b 14.789333
_cell_length_c 20.323714
_cell_angle_alpha 20.924660
_cell_angle_beta 163.262262
_cell_angle_gamma 153.228603
_cell_volume 726.131649
_symmetry_space_group_name_H-M "P -1"
_symmetry_group_IT_number 2
_symmetry_cell_setting 'triclinic'
loop_
_space_group_symop_operation_xyz
x,y,z
-x,-y,-z
loop_
_atom_site_type_symbol
_atom_site_label
_atom_site_fract_x
_atom_site_fract_y
_atom_site_fract_z
Si Si1 0.873176 0.284913 0.596744
Si Si2 0.111084 0.416765 0.459644
Si Si3 0.251171 0.265133 0.187288
Si Si4 0.373978 0.188010 0.615385
Si Si5 0.480818 0.647686 0.097632
Si Si6 0.798488 0.384064 0.305158
Si Si7 0.432144 0.712047 0.371978
Si Si8 0.975955 0.019481 0.247580
O O1 0.807593 0.420024 0.499641
O O2 0.749065 0.386833 0.326266
O O3 0.102914 0.352757 0.789197
O O4 0.836914 0.988769 0.768701
O O5 0.284155 0.374883 0.627303
O O6 0.034774 0.151652 0.582475
O O7 0.936209 0.550474 0.133620
O O8 0.399578 0.398816 0.210842
O O9 0.373448 0.203437 0.430560
O O10 0.409043 0.407072 0.559074
O O11 0.535508 0.212700 0.718959
O O12 0.149517 0.219676 0.317836
O O13 0.411858 0.910052 0.878498
O O14 0.401151 0.663450 0.923493
O O15 0.960370 0.157169 0.623822
O O16 0.233970 0.844247 0.091819
#
# Coordination Sequence:
#
# PCOD8001095 Si02
#       8
#     2   2   2   2   2   2   2   2
#     4  10  21  40  63  88 126 163 209 251 299 353
#     4  11  23  40  64  87 128 169 200 248 310 360
#     4  12  24  41  58  93 129 159 200 264 299 359
#     4  10  21  43  67  92 121 157 207 255 302 370
#     4  11  22  40  62  89 126 164 201 250 314 362
#     4   9  20  40  65  91 122 163 205 256 295 362
#     4  11  24  39  69  94 118 159 209 254 306 362
#     4  10  19  41  66  90 121 162 201 252 305 364
#
# _framework density 22.034573000000002
#
# number of rings (size 3 to 8) (size 9 to 14) (size 15 to 20)
#    0.000    1.500    5.000    2.250    0.000    3.500 
#    4.500    0.625    0.000    0.000    0.000    0.000 
#    0.000    0.000    0.000    0.000    0.000    0.000 
#
# Total GULP energy -198349.265735 kJ/mol
# GULP energy per Si atom -12396.829108 kJ/mol
# Density = 2.198442 g / cm^3
# Si number density = 22.034573 Si / 1000 Ang^3
#
#
#
# Elastic Constant Matrix: (Units=GPa)
#
#
# Indices 1 2 3 4 5 6 
#
# 1 33.0980 2.3446 25.7116 -0.7348 11.0715 5.5038
# 2 2.3446 104.5223 28.0687 -9.6574 14.0858 5.8938
# 3 25.7116 28.0687 95.7589 12.3067 15.4139 4.7823
# 4 -0.7348 -9.6574 12.3067 34.2921 11.7843 -5.9551
# 5 11.0715 14.0858 15.4139 11.7843 21.2347 1.3088
# 6 5.5038 5.8938 4.7823 -5.9551 1.3088 28.2650
#
#
#
# Elastic Compliance Matrix: (Units=1/GPa)
#
#
# Indices 1 2 3 4 5 6 
#
# 1 0.052801 0.009172 -0.013658 0.019714 -0.034385 -0.004138
# 2 0.009172 0.014201 -0.005412 0.011811 -0.016794 -0.000566
# 3 -0.013658 -0.005412 0.016282 -0.009261 0.004100 -0.001108
# 4 0.019714 0.011811 -0.009261 0.051534 -0.040483 0.007998
# 5 -0.034385 -0.016794 0.004100 -0.040483 0.095864 -0.003464
# 6 -0.004138 -0.000566 -0.001108 0.007998 -0.003464 0.038336
#
#
# Mechanical properties :
#
#
# Convention : Reuss Voigt Hill
#
# Bulk Modulus (GPa) = 15.75075 38.40323 27.07699
# Shear Modulus (GPa) = 16.13020 28.57529 22.35275
#
# Velocity S-wave (km/s) = 2.70856 3.60507 3.18848
# Velocity P-wave (km/s) = 4.11648 5.89874 5.08629
#
# Compressibility (1/GPa) = 0.06348906
#
# Stress axis : x y z
#
# Youngs Moduli (GPa) = 18.93890 70.41636 61.41737
#
# Poissons Ratio (x) = -0.64586 0.83883
# Poissons Ratio (y) = -0.17371 0.33238
# Poissons Ratio (z) = 0.25867 0.38108
#
# Static dielectric constant tensor:
#      x y z
#    x 3.628150 0.084460 -0.012370 
#    y 0.084460 4.254080 -0.091940 
#    z -0.012370 -0.091940 3.848240 
# 
# 
# High freq. dielectric constant tensor:
#      x y z
#    x 1.838650 0.015080 -0.002990 
#    y 0.015080 1.884390 -0.004600 
#    z -0.002990 -0.004600 1.847430 
# 
# From -- ./inp_files/602109.got.cif
#   From: 2010.06.25/outbox.cif.g09.slc.cpg/sg2_302_cif.got.tgz:602109.got - 2010.06.27 13:26:56.
