data_PCOD8001586
_publ_section_title
;
Structure prediction by ZEFSAII (Michael W. Deem and Ramdas Pophale) SiO2 
 PCOD8001586
Probable space group: P -1
;
_chemical_formula_sum "Si O2"
_cell_formula_units_Z 16
_cell_length_a 8.815333
_cell_length_b 9.474322
_cell_length_c 11.183369
_cell_angle_alpha 58.535106
_cell_angle_beta 65.486347
_cell_angle_gamma 84.784127
_cell_volume 715.310538
_symmetry_space_group_name_H-M "P -1"
_symmetry_group_IT_number 2
_symmetry_cell_setting 'triclinic'
loop_
_space_group_symop_operation_xyz
x,y,z
-x,-y,-z
loop_
_atom_site_type_symbol
_atom_site_label
_atom_site_fract_x
_atom_site_fract_y
_atom_site_fract_z
Si Si1 0.624938 0.615098 0.571377
Si Si2 0.316282 0.003772 0.607271
Si Si3 0.799708 0.941857 0.733861
Si Si4 0.402429 0.914004 0.870340
Si Si5 0.279138 0.192978 0.941787
Si Si6 0.562359 0.412340 0.902530
Si Si7 0.254585 0.492815 0.664801
Si Si8 0.068098 0.789577 0.601414
O O1 0.712588 0.805910 0.455977
O O2 0.669016 0.541541 0.718370
O O3 0.422229 0.594419 0.627702
O O4 0.707387 0.519409 0.482328
O O5 0.500000 0.000000 0.500000
O O6 0.299004 0.920883 0.780171
O O7 0.176362 0.905380 0.612553
O O8 0.601538 0.920719 0.778748
O O9 0.874242 0.798853 0.695642
O O10 0.886446 0.127719 0.580612
O O11 0.841840 0.918215 0.872368
O O12 0.381746 0.069638 0.892323
O O13 0.329286 0.733022 0.032144
O O14 0.400187 0.323962 0.923438
O O15 0.193266 0.308385 0.825884
O O16 0.500000 0.500000 0.000000
O O17 0.102787 0.599793 0.680315
#
# Coordination Sequence:
#
# PCOD8001586 Si02
#       8
#     2   2   2   2   2   2   2   2
#     4  10  20  33  56  88 123 143 196 254 284 344
#     4  12  20  36  61  91 116 151 201 250 284 337
#     4  10  22  40  58  88 122 157 194 237 300 360
#     4  11  21  39  64  90 116 156 198 242 295 349
#     4  10  22  38  62  87 117 157 199 243 291 353
#     4  10  21  31  53  91 121 144 186 248 302 329
#     4  10  20  36  58  90 112 157 200 239 292 345
#     4  11  24  37  63  87 119 161 196 239 296 354
#
# _framework density 22.367909000000001
#
# number of rings (size 3 to 8) (size 9 to 14) (size 15 to 20)
#    0.000    1.500    3.750    2.250    8.750    0.500 
#    0.000    0.625    0.000    6.000    0.000    0.000 
#    0.000    0.000    0.000    0.000    0.000    0.000 
#
# Total GULP energy -198322.791695 kJ/mol
# GULP energy per Si atom -12395.174481 kJ/mol
# Density = 2.231700 g / cm^3
# Si number density = 22.367909 Si / 1000 Ang^3
#
#
#
# Elastic Constant Matrix: (Units=GPa)
#
#
# Indices 1 2 3 4 5 6 
#
# 1 37.0907 37.4619 38.3316 -1.0500 11.4767 -19.3714
# 2 37.4619 138.0995 48.1235 -8.3458 22.7994 -30.6748
# 3 38.3316 48.1235 171.2880 -4.1790 48.1068 -21.8634
# 4 -1.0500 -8.3458 -4.1790 34.9166 -7.5591 12.3914
# 5 11.4767 22.7994 48.1068 -7.5591 30.2890 -0.3790
# 6 -19.3714 -30.6748 -21.8634 12.3914 -0.3790 39.2156
#
#
#
# Elastic Compliance Matrix: (Units=1/GPa)
#
#
# Indices 1 2 3 4 5 6 
#
# 1 0.052432 -0.007003 -0.004714 -0.010106 -0.009369 0.020897
# 2 -0.007003 0.011470 0.001734 -0.001681 -0.009067 0.006923
# 3 -0.004714 0.001734 0.013671 -0.005933 -0.022609 0.008306
# 4 -0.010106 -0.001681 -0.005933 0.040339 0.024309 -0.022126
# 5 -0.009369 -0.009067 -0.022609 0.024309 0.084976 -0.031185
# 6 0.020897 0.006923 0.008306 -0.022126 -0.031185 0.052558
#
#
# Mechanical properties :
#
#
# Convention : Reuss Voigt Hill
#
# Bulk Modulus (GPa) = 17.35897 66.03469 41.69683
# Shear Modulus (GPa) = 16.97135 35.72164 26.34649
#
# Velocity S-wave (km/s) = 2.75751 4.00059 3.43573
# Velocity P-wave (km/s) = 4.23272 7.13623 5.86693
#
# Compressibility (1/GPa) = 0.05760711
#
# Stress axis : x y z
#
# Youngs Moduli (GPa) = 19.07226 87.18762 73.14620
#
# Poissons Ratio (x) = 0.61055 0.34480
# Poissons Ratio (y) = 0.13356 -0.12681
# Poissons Ratio (z) = 0.08990 -0.15116
#
# Static dielectric constant tensor:
#      x y z
#    x 3.410820 1.002960 -1.541460 
#    y 1.002960 1.624900 3.968420 
#    z -1.541460 3.968420 -1.940970 
# 
# 
# High freq. dielectric constant tensor:
#      x y z
#    x 1.841030 -0.010870 0.032280 
#    y -0.010870 1.885850 0.000590 
#    z 0.032280 0.000590 1.897040 
# 
# From -- ./inp_files/350309.got.cif
#   From: 2010.06.25/outbox.cif.g09.slc.cpg/sg2_176_cif.got.tgz:350309.got - 2010.06.27 13:26:56.
