data_PCOD8001120
_publ_section_title
;
Structure prediction by ZEFSAII (Michael W. Deem and Ramdas Pophale) SiO2 
 PCOD8001120
Probable space group: P -1
;
_chemical_formula_sum "Si O2"
_cell_formula_units_Z 14
_cell_length_a 11.154896
_cell_length_b 17.252094
_cell_length_c 7.259660
_cell_angle_alpha 137.696553
_cell_angle_beta 36.993583
_cell_angle_gamma 139.964518
_cell_volume 510.309767
_symmetry_space_group_name_H-M "P -1"
_symmetry_group_IT_number 2
_symmetry_cell_setting 'triclinic'
loop_
_space_group_symop_operation_xyz
x,y,z
-x,-y,-z
loop_
_atom_site_type_symbol
_atom_site_label
_atom_site_fract_x
_atom_site_fract_y
_atom_site_fract_z
Si Si1 0.308306 0.466075 0.024089
Si Si2 0.450107 0.831535 0.785486
Si Si3 0.289369 0.897451 0.479688
Si Si4 0.074080 0.991496 0.638460
Si Si5 0.048001 0.820260 0.059744
Si Si6 0.332324 0.567427 0.605339
Si Si7 0.117536 0.618907 0.319185
O O1 0.457263 0.462154 0.656697
O O2 0.096071 0.329165 0.072218
O O3 0.500000 0.500000 0.000000
O O4 0.220324 0.573548 0.283691
O O5 0.693762 0.932159 0.615700
O O6 0.439979 0.692140 0.563292
O O7 0.366749 0.858102 0.128405
O O8 0.295259 0.839568 0.826746
O O9 0.177546 0.770138 0.522844
O O10 0.500000 0.000000 0.500000
O O11 0.113965 0.954303 0.732204
O O12 0.943895 0.082648 0.949922
O O13 0.950621 0.864254 0.437995
O O14 0.150016 0.460686 0.503585
O O15 0.211984 0.584959 0.960383
#
# Coordination Sequence:
#
# PCOD8001120 Si02
#       7
#     2   2   2   2   2   2   2
#     4  12  25  40  62  96 130 158 207 267 313 357
#     4  10  19  41  68  89 114 166 214 247 301 364
#     4  10  22  38  61  91 126 156 195 261 313 359
#     4  10  21  39  66  87 118 166 210 249 298 367
#     4  10  20  37  62  91 118 155 212 253 293 365
#     4  10  21  42  67  89 121 168 210 254 302 377
#     4  10  23  43  65  88 124 168 211 247 311 378
#
# _framework density 27.434315000000002
#
# number of rings (size 3 to 8) (size 9 to 14) (size 15 to 20)
#    0.000    1.714    2.857    2.143    4.000    0.571 
#    5.143    0.000    0.000   14.571    0.000    0.000 
#    0.000    0.000    0.000    0.000    0.000    0.000 
#
# Total GULP energy -173573.817048 kJ/mol
# GULP energy per Si atom -12398.129789 kJ/mol
# Density = 2.737187 g / cm^3
# Si number density = 27.434315 Si / 1000 Ang^3
#
#
#
# Elastic Constant Matrix: (Units=GPa)
#
#
# Indices 1 2 3 4 5 6 
#
# 1 173.3092 69.8141 42.4919 16.2453 -14.7444 -13.2986
# 2 69.8141 176.2963 46.0716 18.8651 -11.2887 -4.3922
# 3 42.4919 46.0716 94.1915 23.1345 -36.9723 -4.7814
# 4 16.2453 18.8651 23.1345 56.4261 4.4550 -0.6033
# 5 -14.7444 -11.2887 -36.9723 4.4550 47.9763 8.3251
# 6 -13.2986 -4.3922 -4.7814 -0.6033 8.3251 46.1064
#
#
#
# Elastic Compliance Matrix: (Units=1/GPa)
#
#
# Indices 1 2 3 4 5 6 
#
# 1 0.007361 -0.002296 -0.002023 -0.000497 -0.000086 0.001704
# 2 -0.002296 0.007310 -0.002857 -0.000523 -0.001127 -0.000065
# 3 -0.002023 -0.002857 0.021276 -0.008481 0.016182 -0.001682
# 4 -0.000497 -0.000523 -0.008481 0.022239 -0.009024 0.000848
# 5 -0.000086 -0.001127 0.016182 -0.009024 0.034699 -0.004838
# 6 0.001704 -0.000065 -0.001682 0.000848 -0.004838 0.022884
#
#
# Mechanical properties :
#
#
# Convention : Reuss Voigt Hill
#
# Bulk Modulus (GPa) = 46.30758 84.50578 65.40668
# Shear Modulus (GPa) = 36.41103 49.12973 42.77038
#
# Velocity S-wave (km/s) = 3.64704 4.23639 3.95271
# Velocity P-wave (km/s) = 5.88648 7.40265 6.68767
#
# Compressibility (1/GPa) = 0.02159474
#
# Stress axis : x y z
#
# Youngs Moduli (GPa) = 135.85160 136.79096 47.00118
#
# Poissons Ratio (x) = 0.31410 0.09508
# Poissons Ratio (y) = 0.31195 0.13429
# Poissons Ratio (z) = 0.27482 0.39084
#
# Static dielectric constant tensor:
#      x y z
#    x 5.446520 -0.232560 -0.156990 
#    y -0.232560 5.273210 0.260960 
#    z -0.156990 0.260960 6.297450 
# 
# 
# High freq. dielectric constant tensor:
#      x y z
#    x 2.124880 -0.006870 0.011070 
#    y -0.006870 2.103330 -0.001030 
#    z 0.011070 -0.001030 2.167620 
# 
# From -- ./inp_files/280037.got.cif
#   From: 2010.06.25/outbox.cif.g09.slc.cpg/sg2_141_cif.got.tgz:280037.got - 2010.06.27 13:26:56.
