data_PCOD8001406
_publ_section_title
;
Structure prediction by ZEFSAII (Michael W. Deem and Ramdas Pophale) SiO2 
 PCOD8001406
Probable space group: P -1
;
_chemical_formula_sum "Si O2"
_cell_formula_units_Z 16
_cell_length_a 27.292563
_cell_length_b 12.019022
_cell_length_c 5.195095
_cell_angle_alpha 108.274490
_cell_angle_beta 67.783665
_cell_angle_gamma 151.195952
_cell_volume 759.527085
_symmetry_space_group_name_H-M "P -1"
_symmetry_group_IT_number 2
_symmetry_cell_setting 'triclinic'
loop_
_space_group_symop_operation_xyz
x,y,z
-x,-y,-z
loop_
_atom_site_type_symbol
_atom_site_label
_atom_site_fract_x
_atom_site_fract_y
_atom_site_fract_z
Si Si1 0.355491 0.921764 0.022384
Si Si2 0.688108 0.428192 0.099173
Si Si3 0.055145 0.731519 0.524770
Si Si4 0.563744 0.226503 0.670825
Si Si5 0.940709 0.701838 0.432138
Si Si6 0.917178 0.890001 0.882577
Si Si7 0.748959 0.188530 0.336549
Si Si8 0.116555 0.775804 0.933446
O O1 0.325703 0.917487 0.356194
O O2 0.307919 0.700986 0.922552
O O3 0.312418 0.924993 0.890644
O O4 0.480850 0.160753 0.903980
O O5 0.632068 0.399100 0.414591
O O6 0.634936 0.328950 0.849959
O O7 0.803626 0.704002 0.082593
O O8 0.114448 0.867695 0.773937
O O9 0.000000 0.500000 0.500000
O O10 0.975106 0.685623 0.594109
O O11 0.139594 0.885231 0.236059
O O12 0.500000 0.000000 0.500000
O O13 0.896863 0.744933 0.621989
O O14 0.847045 0.460670 0.297284
O O15 0.038616 0.909274 0.198210
O O16 0.000000 0.000000 0.000000
O O17 0.793468 0.143865 0.258196
O O18 0.000000 0.500000 0.000000
#
# Coordination Sequence:
#
# PCOD8001406 Si02
#       8
#     2   2   2   2   2   2   2   2
#     4  11  21  33  54  81 109 143 192 229 297 343
#     4  11  21  37  56  74 113 153 194 239 285 330
#     4  10  20  35  54  76 109 156 186 236 279 332
#     4  10  21  36  56  78 105 144 197 248 291 340
#     4  11  24  36  54  79 120 163 197 227 275 336
#     4  11  26  38  55  82 121 165 208 226 267 344
#     4  12  21  33  56  82 116 152 179 232 287 348
#     4  10  20  32  52  79 111 146 183 222 294 337
#
# _framework density 21.065736999999999
#
# number of rings (size 3 to 8) (size 9 to 14) (size 15 to 20)
#    0.000    1.250    3.750    5.250    7.000    0.000 
#    0.000    0.000    0.000    0.000    0.000    0.000 
#    0.000   20.000    0.000    0.000    0.000    0.000 
#
# Total GULP energy -198212.546261 kJ/mol
# GULP energy per Si atom -12388.284141 kJ/mol
# Density = 2.101779 g / cm^3
# Si number density = 21.065737 Si / 1000 Ang^3
#
#
#
# Elastic Constant Matrix: (Units=GPa)
#
#
# Indices 1 2 3 4 5 6 
#
# 1 101.7602 25.3235 41.2564 -6.3314 16.9743 21.2547
# 2 25.3235 59.8131 36.0991 -22.2825 4.8155 23.9335
# 3 41.2564 36.0991 156.6797 -19.2457 10.6011 12.4503
# 4 -6.3314 -22.2825 -19.2457 30.4922 8.9056 -4.3583
# 5 16.9743 4.8155 10.6011 8.9056 48.5803 2.8372
# 6 21.2547 23.9335 12.4503 -4.3583 2.8372 27.9470
#
#
#
# Elastic Compliance Matrix: (Units=1/GPa)
#
#
# Indices 1 2 3 4 5 6 
#
# 1 0.013287 -0.000106 -0.002419 0.001070 -0.003811 -0.008384
# 2 -0.000106 0.039629 -0.003470 0.024515 -0.006000 -0.027879
# 3 -0.002419 -0.003470 0.008085 0.002654 -0.001163 0.001741
# 4 0.001070 0.024515 0.002654 0.054390 -0.012581 -0.013230
# 5 -0.003811 -0.006000 -0.001163 -0.012581 0.024833 0.004072
# 6 -0.008384 -0.027879 0.001741 -0.013230 0.004072 0.062781
#
#
# Mechanical properties :
#
#
# Convention : Reuss Voigt Hill
#
# Bulk Modulus (GPa) = 20.40327 58.17900 39.29114
# Shear Modulus (GPa) = 21.61391 35.77550 28.69470
#
# Velocity S-wave (km/s) = 3.20663 4.12549 3.69474
# Velocity P-wave (km/s) = 4.83906 7.09723 6.07401
#
# Compressibility (1/GPa) = 0.04901175
#
# Stress axis : x y z
#
# Youngs Moduli (GPa) = 75.25935 25.23410 123.68238
#
# Poissons Ratio (x) = 0.00267 0.29919
# Poissons Ratio (y) = 0.00796 0.42919
# Poissons Ratio (z) = 0.18205 0.08757
#
# Static dielectric constant tensor:
#      x y z
#    x 3.901260 0.139060 -0.090600 
#    y 0.139060 3.452840 -0.450020 
#    z -0.090600 -0.450020 4.103580 
# 
# 
# High freq. dielectric constant tensor:
#      x y z
#    x 1.824190 0.020670 0.008740 
#    y 0.020670 1.763670 -0.004890 
#    z 0.008740 -0.004890 1.855200 
# 
# From -- ./inp_files/126876.got.cif
#   From: 2010.06.25/outbox.cif.g09.slc.cpg/sg2_64_cif.got.tgz:126876.got - 2010.06.27 13:26:56.
