data_PCOD8001888
_publ_section_title
;
Structure prediction by ZEFSAII (Michael W. Deem and Ramdas Pophale) SiO2 
 PCOD8001888
Probable space group: P -1
;
_chemical_formula_sum "Si O2"
_cell_formula_units_Z 12
_cell_length_a 15.438090
_cell_length_b 9.254425
_cell_length_c 13.355894
_cell_angle_alpha 61.419993
_cell_angle_beta 27.481310
_cell_angle_gamma 81.325181
_cell_volume 570.430845
_symmetry_space_group_name_H-M "P -1"
_symmetry_group_IT_number 2
_symmetry_cell_setting 'triclinic'
loop_
_space_group_symop_operation_xyz
x,y,z
-x,-y,-z
loop_
_atom_site_type_symbol
_atom_site_label
_atom_site_fract_x
_atom_site_fract_y
_atom_site_fract_z
Si Si1 0.988714 0.820103 0.018484
Si Si2 0.994540 0.117109 0.234496
Si Si3 0.166668 0.658249 0.041793
Si Si4 0.537763 0.375852 0.388915
Si Si5 0.310737 0.848361 0.332844
Si Si6 0.342734 0.033866 0.877552
O O1 0.681736 0.614191 0.394740
O O2 0.125645 0.760777 0.959126
O O3 0.134216 0.927708 0.727230
O O4 0.000000 0.000000 0.000000
O O5 0.807528 0.048553 0.540686
O O6 0.212439 0.382073 0.917225
O O7 0.099430 0.994419 0.179803
O O8 0.906666 0.400197 0.405937
O O9 0.404551 0.684064 0.755822
O O10 0.235701 0.792754 0.029783
O O11 0.472899 0.201047 0.595940
O O12 0.458744 0.858059 0.271398
O O13 0.500000 0.000000 0.000000
#
# Coordination Sequence:
#
# PCOD8001888 Si02
#       6
#     2   2   2   2   2   2
#     4  11  19  32  60  93 123 140 178 233 301 363
#     4  10  21  38  59  87 119 154 188 236 297 350
#     4  11  22  37  61  90 118 154 191 234 295 352
#     4  10  20  34  58  92 124 148 179 234 302 364
#     4  11  26  43  58  80 116 161 209 245 273 325
#     4  11  21  37  62  85 119 150 192 239 296 347
#
# _framework density 21.036729999999999
#
# number of rings (size 3 to 8) (size 9 to 14) (size 15 to 20)
#    0.000    1.333    3.333    5.500    2.333    4.000 
#    0.000    0.833    0.000    0.000    0.000    0.000 
#    0.000    0.000    0.000    0.000    0.000    0.000 
#
# Total GULP energy -148717.483038 kJ/mol
# GULP energy per Si atom -12393.123587 kJ/mol
# Density = 2.098885 g / cm^3
# Si number density = 21.036730 Si / 1000 Ang^3
#
#
#
# Elastic Constant Matrix: (Units=GPa)
#
#
# Indices 1 2 3 4 5 6 
#
# 1 40.4736 7.2825 18.9559 2.7269 -6.1200 10.3947
# 2 7.2825 118.4053 37.8909 19.1992 11.1304 17.9061
# 3 18.9559 37.8909 94.4020 22.6212 12.7901 15.9231
# 4 2.7269 19.1992 22.6212 31.2072 -0.6421 -3.9122
# 5 -6.1200 11.1304 12.7901 -0.6421 15.7722 6.9121
# 6 10.3947 17.9061 15.9231 -3.9122 6.9121 26.5436
#
#
#
# Elastic Compliance Matrix: (Units=1/GPa)
#
#
# Indices 1 2 3 4 5 6 
#
# 1 0.037580 0.000088 -0.009194 0.001845 0.029338 -0.016629
# 2 0.000088 0.011433 -0.001107 -0.007208 -0.004357 -0.007011
# 3 -0.009194 -0.001107 0.019153 -0.013338 -0.016785 -0.004738
# 4 0.001845 -0.007208 -0.013338 0.048261 0.011453 0.016272
# 5 0.029338 -0.004357 -0.016785 0.011453 0.102196 -0.023405
# 6 -0.016629 -0.007011 -0.004738 0.016272 -0.023405 0.060251
#
#
# Mechanical properties :
#
#
# Convention : Reuss Voigt Hill
#
# Bulk Modulus (GPa) = 20.94589 42.39328 31.66959
# Shear Modulus (GPa) = 15.86238 27.31470 21.58854
#
# Velocity S-wave (km/s) = 2.74894 3.60728 3.20696
# Velocity P-wave (km/s) = 4.47817 6.12746 5.36655
#
# Compressibility (1/GPa) = 0.04774206
#
# Stress axis : x y z
#
# Youngs Moduli (GPa) = 26.60988 87.46730 52.21214
#
# Poissons Ratio (x) = -0.00774 0.48002
# Poissons Ratio (y) = -0.00235 0.05777
# Poissons Ratio (z) = 0.24464 0.09678
#
# Static dielectric constant tensor:
#      x y z
#    x 3.310770 0.557890 -0.095530 
#    y 0.557890 4.277030 0.078240 
#    z -0.095530 0.078240 3.671490 
# 
# 
# High freq. dielectric constant tensor:
#      x y z
#    x 1.797720 0.020590 -0.032190 
#    y 0.020590 1.847920 0.016620 
#    z -0.032190 0.016620 1.809430 
# 
# From -- ./inp_files/144862.got.cif
#   From: 2010.06.25/outbox.cif.g09.slc.cpg/sg2_73_cif.got.tgz:144862.got - 2010.06.27 13:26:56.
