data_PCOD8001231
_publ_section_title
;
Structure prediction by ZEFSAII (Michael W. Deem and Ramdas Pophale) SiO2 
 PCOD8001231
Probable space group: P -1
;
_chemical_formula_sum "Si O2"
_cell_formula_units_Z 16
_cell_length_a 9.251539
_cell_length_b 13.727954
_cell_length_c 9.324813
_cell_angle_alpha 94.693556
_cell_angle_beta 57.172801
_cell_angle_gamma 58.520990
_cell_volume 730.450773
_symmetry_space_group_name_H-M "P -1"
_symmetry_group_IT_number 2
_symmetry_cell_setting 'triclinic'
loop_
_space_group_symop_operation_xyz
x,y,z
-x,-y,-z
loop_
_atom_site_type_symbol
_atom_site_label
_atom_site_fract_x
_atom_site_fract_y
_atom_site_fract_z
Si Si1 0.915078 0.685296 0.822388
Si Si2 0.369029 0.259386 0.595490
Si Si3 0.579505 0.920544 0.231779
Si Si4 0.108125 0.526185 0.234267
Si Si5 0.178899 0.979393 0.792555
Si Si6 0.702827 0.519333 0.182146
Si Si7 0.947718 0.918825 0.438789
Si Si8 0.797007 0.350428 0.586830
O O1 0.114974 0.601353 0.824855
O O2 0.007795 0.717040 0.648364
O O3 0.843052 0.607296 0.789202
O O4 0.687554 0.824156 0.025372
O O5 0.361333 0.155814 0.659496
O O6 0.317956 0.357558 0.759113
O O7 0.169799 0.344736 0.592612
O O8 0.625126 0.176153 0.377707
O O9 0.684650 0.987831 0.193467
O O10 0.301701 0.028244 0.371750
O O11 0.227097 0.539269 0.299806
O O12 0.207649 0.528453 0.032143
O O13 0.040787 0.069959 0.737462
O O14 0.000000 0.000000 0.000000
O O15 0.452668 0.566187 0.343672
O O16 0.144344 0.763899 0.355951
O O17 0.000000 0.000000 0.500000
#
# Coordination Sequence:
#
# PCOD8001231 Si02
#       8
#     2   2   2   2   2   2   2   2
#     4  11  24  41  68  95 130 178 226 260 330 399
#     4  10  19  42  69  92 127 171 223 265 326 397
#     4  11  21  43  70  93 132 179 223 266 330 402
#     4  11  21  43  65  99 123 176 218 272 335 388
#     4  11  25  43  70 101 127 176 232 273 323 403
#     4  11  22  42  69  93 128 178 222 267 325 397
#     4  11  26  46  67  99 136 177 219 276 343 389
#     4  12  25  41  63  98 140 165 214 286 332 381
#
# _framework density 21.904281999999998
#
# number of rings (size 3 to 8) (size 9 to 14) (size 15 to 20)
#    0.000    1.000    2.500    6.375    3.500    0.500 
#    2.250    0.000    0.000    0.000    0.000    0.000 
#    0.000    0.000    0.000    0.000    0.000    0.000 
#
# Total GULP energy -198486.261250 kJ/mol
# GULP energy per Si atom -12405.391328 kJ/mol
# Density = 2.185443 g / cm^3
# Si number density = 21.904282 Si / 1000 Ang^3
#
#
#
# Elastic Constant Matrix: (Units=GPa)
#
#
# Indices 1 2 3 4 5 6 
#
# 1 107.7984 14.9584 11.7769 -3.8514 -11.8257 11.9859
# 2 14.9584 48.4035 28.6784 -4.0736 -0.3862 -1.3074
# 3 11.7769 28.6784 121.3058 -9.9505 -11.0672 4.1796
# 4 -3.8514 -4.0736 -9.9505 33.8775 3.8021 -4.3034
# 5 -11.8257 -0.3862 -11.0672 3.8021 21.8195 -2.3945
# 6 11.9859 -1.3074 4.1796 -4.3034 -2.3945 16.4106
#
#
#
# Elastic Compliance Matrix: (Units=1/GPa)
#
#
# Indices 1 2 3 4 5 6 
#
# 1 0.011258 -0.004064 0.000598 -0.000683 0.005567 -0.008066
# 2 -0.004064 0.025906 -0.006191 0.002173 -0.004548 0.006515
# 3 0.000598 -0.006191 0.010304 0.001488 0.004913 -0.002447
# 4 -0.000683 0.002173 0.001488 0.031624 -0.004213 0.007971
# 5 0.005567 -0.004548 0.004913 -0.004213 0.052083 0.000815
# 6 -0.008066 0.006515 -0.002447 0.007971 0.000815 0.070179
#
#
# Mechanical properties :
#
#
# Convention : Reuss Voigt Hill
#
# Bulk Modulus (GPa) = 35.52031 43.14837 39.33434
# Shear Modulus (GPa) = 21.73402 29.22778 25.48090
#
# Velocity S-wave (km/s) = 3.15338 3.65683 3.41440
# Velocity P-wave (km/s) = 5.43229 6.12953 5.79141
#
# Compressibility (1/GPa) = 0.02815291
#
# Stress axis : x y z
#
# Youngs Moduli (GPa) = 88.82308 38.60043 97.05073
#
# Poissons Ratio (x) = 0.15688 -0.05800
# Poissons Ratio (y) = 0.36099 0.60087
# Poissons Ratio (z) = -0.05308 0.23899
#
# Static dielectric constant tensor:
#      x y z
#    x 4.037080 0.009430 -0.025490 
#    y 0.009430 3.804900 0.165660 
#    z -0.025490 0.165660 4.073210 
# 
# 
# High freq. dielectric constant tensor:
#      x y z
#    x 1.866120 0.005450 0.000540 
#    y 0.005450 1.849240 0.009010 
#    z 0.000540 0.009010 1.867750 
# 
# From -- ./inp_files/178237.got.cif
#   From: 2010.06.25/outbox.cif.g09.slc.cpg/sg2_90_cif.got.tgz:178237.got - 2010.06.27 13:26:56.
