data_PCOD8001556
_publ_section_title
;
Structure prediction by ZEFSAII (Michael W. Deem and Ramdas Pophale) SiO2 
 PCOD8001556
Probable space group: P -1
;
_chemical_formula_sum "Si O2"
_cell_formula_units_Z 14
_cell_length_a 18.310979
_cell_length_b 5.007888
_cell_length_c 11.717071
_cell_angle_alpha 97.511449
_cell_angle_beta 43.075922
_cell_angle_gamma 86.798139
_cell_volume 709.109794
_symmetry_space_group_name_H-M "P -1"
_symmetry_group_IT_number 2
_symmetry_cell_setting 'triclinic'
loop_
_space_group_symop_operation_xyz
x,y,z
-x,-y,-z
loop_
_atom_site_type_symbol
_atom_site_label
_atom_site_fract_x
_atom_site_fract_y
_atom_site_fract_z
Si Si1 0.198669 0.675342 0.481097
Si Si2 0.342245 0.095807 0.277979
Si Si3 0.420010 0.101193 0.931210
Si Si4 0.900268 0.257651 0.631956
Si Si5 0.998842 0.939640 0.865696
Si Si6 0.893950 0.477048 0.882436
Si Si7 0.699111 0.332151 0.002397
O O1 0.292844 0.410606 0.389284
O O2 0.124498 0.604993 0.456490
O O3 0.118194 0.759563 0.685100
O O4 0.251164 0.927408 0.400064
O O5 0.376162 0.074063 0.106541
O O6 0.448731 0.983321 0.228007
O O7 0.384274 0.412032 0.945924
O O8 0.370079 0.892856 0.894931
O O9 0.926273 0.474849 0.709511
O O10 0.788818 0.174742 0.798840
O O11 0.000000 0.000000 0.500000
O O12 0.974159 0.224503 0.840433
O O13 0.094418 0.232770 0.062497
O O14 0.000000 0.000000 0.000000
O O15 0.767090 0.439067 0.034401
#
# Coordination Sequence:
#
# PCOD8001556 Si02
#       7
#     2   2   2   2   2   2   2
#     4  12  22  37  55  85 117 154 186 232 283 334
#     4  11  21  33  54  81 117 157 184 224 279 343
#     4  11  19  34  52  84 121 150 184 221 281 351
#     4  10  20  34  56  86 121 145 188 223 288 344
#     4  12  25  41  58  82 115 155 197 234 278 340
#     4  10  22  37  59  84 112 148 190 230 288 336
#     4  10  20  33  55  82 116 148 182 222 282 333
#
# _framework density 19.743062999999999
#
# number of rings (size 3 to 8) (size 9 to 14) (size 15 to 20)
#    0.857    0.286    4.286    3.000    0.000    4.000 
#    0.000    0.000    0.000    0.000    0.000   20.000 
#    0.000    0.000    0.000    0.000    0.000    0.000 
#
# Total GULP energy -173510.826270 kJ/mol
# GULP energy per Si atom -12393.630448 kJ/mol
# Density = 1.969813 g / cm^3
# Si number density = 19.743063 Si / 1000 Ang^3
#
#
#
# Elastic Constant Matrix: (Units=GPa)
#
#
# Indices 1 2 3 4 5 6 
#
# 1 95.0892 17.2669 48.5830 10.4490 6.5887 6.7106
# 2 17.2669 85.9763 21.9357 15.8568 -3.6954 -5.0663
# 3 48.5830 21.9357 65.3761 6.4801 9.4171 -11.0778
# 4 10.4490 15.8568 6.4801 19.3937 0.4388 -16.8970
# 5 6.5887 -3.6954 9.4171 0.4388 29.1532 7.7767
# 6 6.7106 -5.0663 -11.0778 -16.8970 7.7767 34.9375
#
#
#
# Elastic Compliance Matrix: (Units=1/GPa)
#
#
# Indices 1 2 3 4 5 6 
#
# 1 0.034745 0.010508 -0.034405 -0.058393 0.018380 -0.048391
# 2 0.010508 0.020365 -0.017185 -0.040529 0.013608 -0.027144
# 3 -0.034405 -0.017185 0.054389 0.068006 -0.029201 0.060752
# 4 -0.058393 -0.040529 0.068006 0.223173 -0.056595 0.147433
# 5 0.018380 0.013608 -0.029201 -0.056595 0.055648 -0.050574
# 6 -0.048391 -0.027144 0.060752 0.147433 -0.050574 0.135805
#
#
# Mechanical properties :
#
#
# Convention : Reuss Voigt Hill
#
# Bulk Modulus (GPa) = 36.58161 46.89030 41.73595
# Shear Modulus (GPa) = 8.12480 27.27395 17.69938
#
# Velocity S-wave (km/s) = 2.03081 3.72081 2.99739
# Velocity P-wave (km/s) = 4.90592 6.50085 5.75887
#
# Compressibility (1/GPa) = 0.02733614
#
# Stress axis : x y z
#
# Youngs Moduli (GPa) = 28.78148 49.10298 18.38602
#
# Poissons Ratio (x) = -0.51598 0.63257
# Poissons Ratio (y) = -0.30244 0.31596
# Poissons Ratio (z) = 0.99023 0.84382
#
# Static dielectric constant tensor:
#      x y z
#    x 3.724830 -0.010090 -0.247630 
#    y -0.010090 3.571510 0.123180 
#    z -0.247630 0.123180 3.252510 
# 
# 
# High freq. dielectric constant tensor:
#      x y z
#    x 1.770620 0.003920 -0.032910 
#    y 0.003920 1.776560 0.012410 
#    z -0.032910 0.012410 1.722000 
# 
# From -- ./inp_files/468051.got.cif
#   From: 2010.06.25/outbox.cif.g09.slc.cpg/sg2_235_cif.got.tgz:468051.got - 2010.06.27 13:26:56.
