data_PCOD8001078
_publ_section_title
;
Structure prediction by ZEFSAII (Michael W. Deem and Ramdas Pophale) SiO2 
 PCOD8001078
Probable space group: P -1
;
_chemical_formula_sum "Si O2"
_cell_formula_units_Z 16
_cell_length_a 15.491257
_cell_length_b 14.369787
_cell_length_c 15.406087
_cell_angle_alpha 143.775275
_cell_angle_beta 28.051817
_cell_angle_gamma 123.182493
_cell_volume 767.855367
_symmetry_space_group_name_H-M "P -1"
_symmetry_group_IT_number 2
_symmetry_cell_setting 'triclinic'
loop_
_space_group_symop_operation_xyz
x,y,z
-x,-y,-z
loop_
_atom_site_type_symbol
_atom_site_label
_atom_site_fract_x
_atom_site_fract_y
_atom_site_fract_z
Si Si1 0.487232 0.378632 0.292200
Si Si2 0.874991 0.783454 0.264343
Si Si3 0.010813 0.628087 0.849875
Si Si4 0.234803 0.471721 0.275674
Si Si5 0.325382 0.453671 0.987438
Si Si6 0.358355 0.400007 0.603616
Si Si7 0.817388 0.226365 0.337493
Si Si8 0.357859 0.782330 0.151525
O O1 0.538459 0.297582 0.285421
O O2 0.522069 0.552290 0.391897
O O3 0.228687 0.445135 0.566600
O O4 0.623016 0.232855 0.982070
O O5 0.685074 0.753504 0.439799
O O6 0.812738 0.988592 0.506899
O O7 0.862685 0.795071 0.178924
O O8 0.121212 0.611019 0.952223
O O9 0.125370 0.684624 0.722541
O O10 0.871840 0.560350 0.878560
O O11 0.171467 0.684214 0.514750
O O12 0.000000 0.500000 0.500000
O O13 0.363187 0.406953 0.021206
O O14 0.399587 0.316478 0.088217
O O15 0.560102 0.290485 0.606338
O O16 0.253488 0.670280 0.193993
O O17 0.000000 0.000000 0.000000
#
# Coordination Sequence:
#
# PCOD8001078 Si02
#       8
#     2   2   2   2   2   2   2   2
#     4  10  19  41  65  84 122 160 202 250 313 375
#     4  10  23  38  62  94 121 158 208 254 314 373
#     4  11  22  41  62  90 125 166 208 248 303 370
#     4  11  22  43  59  89 130 168 204 254 306 354
#     4  11  23  42  64  86 132 171 199 259 305 353
#     4   9  21  42  62  87 124 161 192 264 322 363
#     4  11  24  38  61  93 121 168 212 252 303 363
#     4  11  22  38  63  93 119 162 210 252 302 371
#
# _framework density 20.837259
#
# number of rings (size 3 to 8) (size 9 to 14) (size 15 to 20)
#    0.000    1.500    3.750    2.250    3.500    2.500 
#    0.000    5.000    0.000    0.000    0.000    0.000 
#    0.000    0.000    0.000    0.000    0.000    0.000 
#
# Total GULP energy -198231.327205 kJ/mol
# GULP energy per Si atom -12389.457950 kJ/mol
# Density = 2.078983 g / cm^3
# Si number density = 20.837259 Si / 1000 Ang^3
#
#
#
# Elastic Constant Matrix: (Units=GPa)
#
#
# Indices 1 2 3 4 5 6 
#
# 1 96.9699 30.4291 37.4751 -8.9569 23.2803 11.5315
# 2 30.4291 67.7666 50.1624 -24.1501 10.9353 -9.6705
# 3 37.4751 50.1624 96.1621 7.6028 24.3501 -11.6587
# 4 -8.9569 -24.1501 7.6028 38.1815 -3.1148 0.5663
# 5 23.2803 10.9353 24.3501 -3.1148 36.0995 -6.1347
# 6 11.5315 -9.6705 -11.6587 0.5663 -6.1347 21.1397
#
#
#
# Elastic Compliance Matrix: (Units=1/GPa)
#
#
# Indices 1 2 3 4 5 6 
#
# 1 0.018336 -0.006802 -0.003045 -0.000006 -0.010755 -0.017914
# 2 -0.006802 0.055047 -0.031194 0.040418 0.014772 0.014892
# 3 -0.003045 -0.031194 0.033834 -0.028315 -0.013353 0.002934
# 4 -0.000006 0.040418 -0.028315 0.058357 0.012747 0.005013
# 5 -0.010755 0.014772 -0.013353 0.012747 0.043237 0.017465
# 6 -0.017914 0.014892 0.002934 0.005013 0.017465 0.070441
#
#
# Mechanical properties :
#
#
# Convention : Reuss Voigt Hill
#
# Bulk Modulus (GPa) = 39.78903 55.22576 47.50739
# Shear Modulus (GPa) = 13.52399 28.60628 21.06514
#
# Velocity S-wave (km/s) = 2.55037 3.70921 3.18297
# Velocity P-wave (km/s) = 5.27343 6.70114 6.02969
#
# Compressibility (1/GPa) = 0.02513256
#
# Stress axis : x y z
#
# Youngs Moduli (GPa) = 54.53895 18.16630 29.55613
#
# Poissons Ratio (x) = 0.12357 0.09001
# Poissons Ratio (y) = 0.37099 0.92199
# Poissons Ratio (z) = 0.16608 0.56669
#
# Static dielectric constant tensor:
#      x y z
#    x 3.915470 0.093010 0.429000 
#    y 0.093010 3.840210 -0.358020 
#    z 0.429000 -0.358020 3.657140 
# 
# 
# High freq. dielectric constant tensor:
#      x y z
#    x 1.826890 0.011870 0.025570 
#    y 0.011870 1.815280 -0.030690 
#    z 0.025570 -0.030690 1.799000 
# 
# From -- ./inp_files/329584.got.cif
#   From: 2010.06.25/outbox.cif.g09.slc.cpg/sg2_165_cif.got.tgz:329584.got - 2010.06.27 13:26:56.
