data_PCOD8001660
_publ_section_title
;
Structure prediction by ZEFSAII (Michael W. Deem and Ramdas Pophale) SiO2 
 PCOD8001660
Probable space group: P -1
;
_chemical_formula_sum "Si O2"
_cell_formula_units_Z 16
_cell_length_a 21.924541
_cell_length_b 8.394491
_cell_length_c 21.892036
_cell_angle_alpha 138.001823
_cell_angle_beta 18.760323
_cell_angle_gamma 138.983843
_cell_volume 842.488272
_symmetry_space_group_name_H-M "P -1"
_symmetry_group_IT_number 2
_symmetry_cell_setting 'triclinic'
loop_
_space_group_symop_operation_xyz
x,y,z
-x,-y,-z
loop_
_atom_site_type_symbol
_atom_site_label
_atom_site_fract_x
_atom_site_fract_y
_atom_site_fract_z
Si Si1 0.919929 0.477433 0.662817
Si Si2 0.107443 0.898551 0.518796
Si Si3 0.400434 0.101767 0.398829
Si Si4 0.282900 0.614057 0.438565
Si Si5 0.709136 0.577414 0.007269
Si Si6 0.153575 0.466582 0.759857
Si Si7 0.020331 0.410999 0.737805
Si Si8 0.807170 0.141672 0.067618
O O1 0.951042 0.710102 0.654582
O O2 0.121794 0.468895 0.502599
O O3 0.848596 0.227119 0.621320
O O4 0.751507 0.493497 0.875147
O O5 0.311930 0.988440 0.386152
O O6 0.013673 0.124425 0.657450
O O7 0.341498 0.356095 0.540039
O O8 0.329381 0.904661 0.464229
O O9 0.634003 0.159552 0.190148
O O10 0.197957 0.569032 0.574277
O O11 0.477140 0.511621 0.218810
O O12 0.810035 0.440315 0.922949
O O13 0.806932 0.864291 0.004187
O O14 0.054840 0.510249 0.802178
O O15 0.008346 0.264725 0.880097
O O16 0.218458 0.723862 0.806222
#
# Coordination Sequence:
#
# PCOD8001660 Si02
#       8
#     2   2   2   2   2   2   2   2
#     4   9  18  37  56  74 102 135 171 211 252 296
#     4   9  18  34  57  78 100 132 172 214 252 296
#     4   9  18  36  54  73 103 136 169 212 253 295
#     4   9  19  34  52  73 105 140 170 201 252 308
#     4  10  20  35  52  74 107 141 166 204 255 305
#     4  10  20  34  55  79 100 131 172 217 254 293
#     4  10  20  34  51  75 106 133 166 212 255 298
#     4  10  20  35  55  77 101 133 174 208 254 307
#
# _framework density 18.991364000000001
#
# number of rings (size 3 to 8) (size 9 to 14) (size 15 to 20)
#    0.000    2.500    0.000    3.375    0.000    4.500 
#    0.000   18.750    0.000    0.000    0.000    0.000 
#    0.000    0.000    0.000    0.000    0.000    0.000 
#
# Total GULP energy -198424.486215 kJ/mol
# GULP energy per Si atom -12401.530388 kJ/mol
# Density = 1.894814 g / cm^3
# Si number density = 18.991364 Si / 1000 Ang^3
#
#
#
# Elastic Constant Matrix: (Units=GPa)
#
#
# Indices 1 2 3 4 5 6 
#
# 1 94.4486 40.3120 30.5391 22.6220 1.4107 4.6096
# 2 40.3120 66.5642 17.9987 18.7487 -2.2184 11.1202
# 3 30.5391 17.9987 80.1728 9.4345 -12.8602 6.0312
# 4 22.6220 18.7487 9.4345 27.2720 0.0513 1.7850
# 5 1.4107 -2.2184 -12.8602 0.0513 26.3955 9.1206
# 6 4.6096 11.1202 6.0312 1.7850 9.1206 29.5100
#
#
#
# Elastic Compliance Matrix: (Units=1/GPa)
#
#
# Indices 1 2 3 4 5 6 
#
# 1 0.017184 -0.007668 -0.005014 -0.007452 -0.005118 0.003263
# 2 -0.007668 0.024027 0.000266 -0.009665 0.005720 -0.009094
# 3 -0.005014 0.000266 0.016595 -0.001402 0.010395 -0.005836
# 4 -0.007452 -0.009665 -0.001402 0.049803 -0.002141 0.002742
# 5 -0.005118 0.005720 0.010395 -0.002141 0.050230 -0.018875
# 6 0.003263 -0.009094 -0.005836 0.002742 -0.018875 0.043665
#
#
# Mechanical properties :
#
#
# Convention : Reuss Voigt Hill
#
# Bulk Modulus (GPa) = 30.32706 46.54281 38.43493
# Shear Modulus (GPa) = 21.06808 26.79122 23.92965
#
# Velocity S-wave (km/s) = 3.33430 3.76001 3.55354
# Velocity P-wave (km/s) = 5.55221 6.58869 6.09253
#
# Compressibility (1/GPa) = 0.03297385
#
# Stress axis : x y z
#
# Youngs Moduli (GPa) = 58.19500 41.61993 60.26038
#
# Poissons Ratio (x) = 0.31913 0.30213
# Poissons Ratio (y) = 0.44622 -0.01600
# Poissons Ratio (z) = 0.29177 -0.01105
#
# Static dielectric constant tensor:
#      x y z
#    x 3.578660 0.021090 -0.024330 
#    y 0.021090 3.422950 0.097850 
#    z -0.024330 0.097850 3.449930 
# 
# 
# High freq. dielectric constant tensor:
#      x y z
#    x 1.740370 -0.000490 -0.004830 
#    y -0.000490 1.729720 0.009050 
#    z -0.004830 0.009050 1.733630 
# 
# From -- ./inp_files/270579.got.cif
#   From: 2010.06.25/outbox.cif.g09.slc.cpg/sg2_136_cif.got.tgz:270579.got - 2010.06.27 13:26:56.
