data_PCOD8001965
_publ_section_title
;
Structure prediction by ZEFSAII (Michael W. Deem and Ramdas Pophale) SiO2 
 PCOD8001965
Probable space group: P -1
;
_chemical_formula_sum "Si O2"
_cell_formula_units_Z 16
_cell_length_a 11.580737
_cell_length_b 10.970440
_cell_length_c 6.273736
_cell_angle_alpha 86.696046
_cell_angle_beta 87.389577
_cell_angle_gamma 96.621368
_cell_volume 789.323848
_symmetry_space_group_name_H-M "P -1"
_symmetry_group_IT_number 2
_symmetry_cell_setting 'triclinic'
loop_
_space_group_symop_operation_xyz
x,y,z
-x,-y,-z
loop_
_atom_site_type_symbol
_atom_site_label
_atom_site_fract_x
_atom_site_fract_y
_atom_site_fract_z
Si Si1 0.520352 0.907778 0.821175
Si Si2 0.004308 0.365786 0.605321
Si Si3 0.416706 0.252729 0.814994
Si Si4 0.176694 0.793765 0.624084
Si Si5 0.666598 0.985035 0.419520
Si Si6 0.656507 0.357934 0.617229
Si Si7 0.243454 0.433583 0.720964
Si Si8 0.820374 0.370800 0.978097
O O1 0.413115 0.909564 0.665981
O O2 0.636640 0.947938 0.670185
O O3 0.533934 0.778465 0.951461
O O4 0.500000 0.000000 0.000000
O O5 0.948225 0.259529 0.458947
O O6 0.936080 0.365099 0.833034
O O7 0.000000 0.500000 0.500000
O O8 0.139654 0.344889 0.623152
O O9 0.519863 0.310470 0.645380
O O10 0.326901 0.351699 0.847815
O O11 0.348049 0.132966 0.720595
O O12 0.201575 0.943572 0.602451
O O13 0.276179 0.747549 0.474108
O O14 0.190803 0.753080 0.870020
O O15 0.678709 0.481649 0.462932
O O16 0.705211 0.381587 0.848597
O O17 0.172140 0.512764 0.877179
#
# Coordination Sequence:
#
# PCOD8001965 Si02
#       8
#     2   2   2   2   2   2   2   2
#     4   9  18  34  57  78 111 150 196 224 268 327
#     4  11  20  39  59  86 109 143 195 241 276 328
#     4  11  23  36  55  85 123 154 183 223 282 348
#     4  10  20  34  61  87 106 144 196 238 274 325
#     4  10  20  37  58  81 114 151 189 233 277 326
#     4  10  20  35  55  85 117 147 185 231 278 338
#     4  11  23  37  55  85 120 151 185 231 286 335
#     4  10  20  35  63  82 111 143 192 234 290 323
#
# _framework density 20.270512
#
# number of rings (size 3 to 8) (size 9 to 14) (size 15 to 20)
#    0.000    1.750    3.750    3.750    0.000    5.500 
#    0.000    0.625    0.000    1.500    0.000    0.000 
#    0.000    0.000    0.000    0.000    0.000    0.000 
#
# Total GULP energy -198305.759616 kJ/mol
# GULP energy per Si atom -12394.109976 kJ/mol
# Density = 2.022438 g / cm^3
# Si number density = 20.270512 Si / 1000 Ang^3
#
#
#
# Elastic Constant Matrix: (Units=GPa)
#
#
# Indices 1 2 3 4 5 6 
#
# 1 68.5041 34.4728 7.8583 -15.9202 6.9220 9.0113
# 2 34.4728 80.6870 31.8608 -16.0692 -1.5623 25.9089
# 3 7.8583 31.8608 103.8574 -16.1122 6.1392 0.2523
# 4 -15.9202 -16.0692 -16.1122 23.5519 1.9863 3.9255
# 5 6.9220 -1.5623 6.1392 1.9863 21.7155 -1.9420
# 6 9.0113 25.9089 0.2523 3.9255 -1.9420 34.8035
#
#
#
# Elastic Compliance Matrix: (Units=1/GPa)
#
#
# Indices 1 2 3 4 5 6 
#
# 1 0.022571 -0.007807 0.003378 0.013452 -0.010133 -0.002139
# 2 -0.007807 0.026436 -0.005872 0.011586 0.003315 -0.018738
# 3 0.003378 -0.005872 0.012572 0.006954 -0.005483 0.002315
# 4 0.013452 0.011586 0.006954 0.068805 -0.013563 -0.020676
# 5 -0.010133 0.003315 -0.005483 -0.013563 0.052727 0.004667
# 6 -0.002139 -0.018738 0.002315 -0.020676 0.004667 0.045811
#
#
# Mechanical properties :
#
#
# Convention : Reuss Voigt Hill
#
# Bulk Modulus (GPa) = 24.40432 44.60358 34.50395
# Shear Modulus (GPa) = 18.99818 27.93794 23.46806
#
# Velocity S-wave (km/s) = 3.06475 3.71651 3.40625
# Velocity P-wave (km/s) = 4.95873 6.36149 5.70340
#
# Compressibility (1/GPa) = 0.04097635
#
# Stress axis : x y z
#
# Youngs Moduli (GPa) = 44.30554 37.82665 79.54357
#
# Poissons Ratio (x) = 0.29532 -0.26874
# Poissons Ratio (y) = 0.34591 0.46710
# Poissons Ratio (z) = -0.14968 0.22213
#
# Static dielectric constant tensor:
#      x y z
#    x 3.974820 0.373180 0.007420 
#    y 0.373180 3.592470 -0.194030 
#    z 0.007420 -0.194030 4.184590 
# 
# 
# High freq. dielectric constant tensor:
#      x y z
#    x 1.766820 0.030350 0.005060 
#    y 0.030350 1.772980 -0.009710 
#    z 0.005060 -0.009710 1.804900 
# 
# From -- ./inp_files/66256.got.cif
#   From: 2010.06.25/outbox.cif.g09.slc.cpg/sg2_34_cif.got.tgz:66256.got - 2010.06.27 13:26:56.
