data_PCOD8001924
_publ_section_title
;
Structure prediction by ZEFSAII (Michael W. Deem and Ramdas Pophale) SiO2 
 PCOD8001924
Probable space group: P -1
;
_chemical_formula_sum "Si O2"
_cell_formula_units_Z 16
_cell_length_a 14.951872
_cell_length_b 5.301037
_cell_length_c 16.265427
_cell_angle_alpha 58.756603
_cell_angle_beta 134.389762
_cell_angle_gamma 105.327544
_cell_volume 777.350700
_symmetry_space_group_name_H-M "P -1"
_symmetry_group_IT_number 2
_symmetry_cell_setting 'triclinic'
loop_
_space_group_symop_operation_xyz
x,y,z
-x,-y,-z
loop_
_atom_site_type_symbol
_atom_site_label
_atom_site_fract_x
_atom_site_fract_y
_atom_site_fract_z
Si Si1 0.280194 0.187789 0.525355
Si Si2 0.149109 0.361314 0.797987
Si Si3 0.106106 0.771627 0.558205
Si Si4 0.111941 0.652101 0.409160
Si Si5 0.829849 0.346996 0.075166
Si Si6 0.879117 0.704353 0.745704
Si Si7 0.451415 0.759371 0.361292
Si Si8 0.299879 0.381350 0.214065
O O1 0.242452 0.417393 0.537585
O O2 0.209822 0.386555 0.369699
O O3 0.429725 0.107067 0.622990
O O4 0.217398 0.901319 0.556975
O O5 0.184734 0.525614 0.710077
O O6 0.219061 0.486633 0.899242
O O7 0.997255 0.463096 0.697261
O O8 0.179706 0.003418 0.867524
O O9 0.041923 0.658573 0.453417
O O10 0.000000 0.000000 0.500000
O O11 0.144766 0.942344 0.338562
O O12 0.971305 0.418425 0.138728
O O13 0.737207 0.497104 0.920331
O O14 0.826524 0.609780 0.814656
O O15 0.500000 0.500000 0.500000
O O16 0.382325 0.610987 0.268825
O O17 0.368972 0.038202 0.308136
#
# Coordination Sequence:
#
# PCOD8001924 Si02
#       8
#     2   2   2   2   2   2   2   2
#     4  11  22  37  63  97 129 163 210 265 326 382
#     4  11  21  39  60  93 130 167 200 262 321 384
#     4  11  21  35  61  99 134 163 204 266 338 384
#     4  10  20  34  59  96 134 158 201 260 333 386
#     4  11  24  41  64  93 129 173 216 255 318 379
#     4  10  21  38  62  95 129 163 210 268 322 379
#     4  12  26  44  68  92 130 171 215 263 320 372
#     4  12  26  44  66  91 129 175 218 262 308 382
#
# _framework density 20.582730999999999
#
# number of rings (size 3 to 8) (size 9 to 14) (size 15 to 20)
#    0.000    1.000    3.750    4.125    5.250    0.000 
#    0.000    3.125    0.000    4.500    0.000    0.000 
#    0.000    0.000    0.000    0.000    0.000    0.000 
#
# Total GULP energy -198213.231761 kJ/mol
# GULP energy per Si atom -12388.326985 kJ/mol
# Density = 2.053588 g / cm^3
# Si number density = 20.582731 Si / 1000 Ang^3
#
#
#
# Elastic Constant Matrix: (Units=GPa)
#
#
# Indices 1 2 3 4 5 6 
#
# 1 68.1076 17.1225 29.0147 0.4762 -11.0192 4.3273
# 2 17.1225 83.5532 33.8099 10.1775 -7.6665 -17.7696
# 3 29.0147 33.8099 100.9178 8.7954 -20.6336 5.7302
# 4 0.4762 10.1775 8.7954 33.2926 -2.1599 -4.2545
# 5 -11.0192 -7.6665 -20.6336 -2.1599 33.8144 -2.9804
# 6 4.3273 -17.7696 5.7302 -4.2545 -2.9804 25.2933
#
#
#
# Elastic Compliance Matrix: (Units=1/GPa)
#
#
# Indices 1 2 3 4 5 6 
#
# 1 0.017535 -0.002914 -0.003403 0.001237 0.002726 -0.003747
# 2 -0.002914 0.018289 -0.005753 -0.002138 0.000818 0.014387
# 3 -0.003403 -0.005753 0.014578 -0.002502 0.005749 -0.006505
# 4 0.001237 -0.002138 -0.002502 0.031938 0.000813 0.004321
# 5 0.002726 0.000818 0.005749 0.000813 0.034472 0.003005
# 6 -0.003747 0.014387 -0.006505 0.004321 0.003005 0.052839
#
#
# Mechanical properties :
#
#
# Convention : Reuss Voigt Hill
#
# Bulk Modulus (GPa) = 38.07736 45.83031 41.95383
# Shear Modulus (GPa) = 24.68591 29.98884 27.33738
#
# Velocity S-wave (km/s) = 3.46692 3.82120 3.64836
# Velocity P-wave (km/s) = 5.87928 6.46401 6.17856
#
# Compressibility (1/GPa) = 0.02626233
#
# Stress axis : x y z
#
# Youngs Moduli (GPa) = 57.02744 54.67882 68.59828
#
# Poissons Ratio (x) = 0.15933 0.23345
# Poissons Ratio (y) = 0.16617 0.39462
# Poissons Ratio (z) = 0.19407 0.31455
#
# Static dielectric constant tensor:
#      x y z
#    x 3.700930 0.000210 -0.188220 
#    y 0.000210 3.994730 0.147190 
#    z -0.188220 0.147190 3.645640 
# 
# 
# High freq. dielectric constant tensor:
#      x y z
#    x 1.795360 -0.002730 -0.024870 
#    y -0.002730 1.824790 0.005480 
#    z -0.024870 0.005480 1.783120 
# 
# From -- ./inp_files/75532.got.cif
#   From: 2010.06.25/outbox.cif.g09.slc.cpg/sg2_38_cif.got.tgz:75532.got - 2010.06.27 13:26:56.
