data_PCOD8001936
_publ_section_title
;
Structure prediction by ZEFSAII (Michael W. Deem and Ramdas Pophale) SiO2 
 PCOD8001936
Probable space group: P -1
;
_chemical_formula_sum "Si O2"
_cell_formula_units_Z 16
_cell_length_a 15.946724
_cell_length_b 21.890510
_cell_length_c 25.473731
_cell_angle_alpha 163.211719
_cell_angle_beta 161.394424
_cell_angle_gamma 26.966969
_cell_volume 806.903731
_symmetry_space_group_name_H-M "P -1"
_symmetry_group_IT_number 2
_symmetry_cell_setting 'triclinic'
loop_
_space_group_symop_operation_xyz
x,y,z
-x,-y,-z
loop_
_atom_site_type_symbol
_atom_site_label
_atom_site_fract_x
_atom_site_fract_y
_atom_site_fract_z
Si Si1 0.680348 0.340442 0.862023
Si Si2 0.895027 0.639009 0.651167
Si Si3 0.035804 0.509092 0.117378
Si Si4 0.267904 0.959357 0.651000
Si Si5 0.266355 0.959594 0.260411
Si Si6 0.591589 0.374460 0.999288
Si Si7 0.658560 0.659071 0.929009
Si Si8 0.810683 0.051322 0.997701
O O1 0.797342 0.228506 0.888816
O O2 0.594675 0.569591 0.016777
O O3 0.421176 0.179739 0.556390
O O4 0.893037 0.369957 0.965857
O O5 0.650287 0.449682 0.338494
O O6 0.095520 0.551564 0.739137
O O7 0.064192 0.721286 0.767250
O O8 0.781237 0.847596 0.774157
O O9 0.239307 0.702776 0.425447
O O10 0.223246 0.376646 0.087156
O O11 0.818607 0.574135 0.002164
O O12 0.000000 0.000000 0.500000
O O13 0.311660 0.081955 0.833955
O O14 0.512290 0.070436 0.851662
O O15 0.429183 0.875017 0.237562
O O16 0.981931 0.009089 0.114999
O O17 0.500000 0.500000 0.000000
#
# Coordination Sequence:
#
# PCOD8001936 Si02
#       8
#     2   2   2   2   2   2   2   2
#     4  10  20  36  62  82 110 150 191 222 282 342
#     4  10  20  34  60  86 112 148 184 233 286 328
#     4  10  21  38  54  80 114 150 189 226 277 336
#     4  10  22  36  54  78 116 149 183 228 279 334
#     4   9  20  38  56  88 113 144 182 241 278 324
#     4   9  20  36  56  85 116 143 179 233 280 331
#     4  10  21  36  55  81 115 148 184 236 277 323
#     4  10  20  36  57  85 116 141 187 236 283 327
#
# _framework density 19.828883000000001
#
# number of rings (size 3 to 8) (size 9 to 14) (size 15 to 20)
#    0.000    2.250    1.250    0.750    5.250    1.500 
#    0.000    0.625    0.000    0.750    0.000    0.000 
#    0.000    0.000    0.000    0.000    0.000    0.000 
#
# Total GULP energy -198232.549328 kJ/mol
# GULP energy per Si atom -12389.534333 kJ/mol
# Density = 1.978375 g / cm^3
# Si number density = 19.828883 Si / 1000 Ang^3
#
#
#
# Elastic Constant Matrix: (Units=GPa)
#
#
# Indices 1 2 3 4 5 6 
#
# 1 119.4450 48.9814 57.4281 5.6120 8.6513 -13.5551
# 2 48.9814 71.5928 41.6664 -13.6066 -2.7243 -8.7823
# 3 57.4281 41.6664 104.0436 -8.8254 -6.5461 -1.5401
# 4 5.6120 -13.6066 -8.8254 28.6614 -8.3049 -3.4878
# 5 8.6513 -2.7243 -6.5461 -8.3049 32.5708 -2.0258
# 6 -13.5551 -8.7823 -1.5401 -3.4878 -2.0258 26.0891
#
#
#
# Elastic Compliance Matrix: (Units=1/GPa)
#
#
# Indices 1 2 3 4 5 6 
#
# 1 0.018025 -0.010637 -0.007460 -0.013579 -0.010470 0.002716
# 2 -0.010637 0.027524 -0.002945 0.017806 0.009491 0.006683
# 3 -0.007460 -0.002945 0.015823 0.006479 0.006407 -0.002570
# 4 -0.013579 0.017806 0.006479 0.055082 0.020960 0.008312
# 5 -0.010470 0.009491 0.006407 0.020960 0.041166 0.004132
# 6 0.002716 0.006683 -0.002570 0.008312 0.004132 0.043271
#
#
# Mechanical properties :
#
#
# Convention : Reuss Voigt Hill
#
# Bulk Modulus (GPa) = 51.84329 65.69258 58.76793
# Shear Modulus (GPa) = 20.04770 27.26463 23.65616
#
# Velocity S-wave (km/s) = 3.18313 3.71212 3.45775
# Velocity P-wave (km/s) = 6.30173 7.18156 6.75598
#
# Compressibility (1/GPa) = 0.01928890
#
# Stress axis : x y z
#
# Youngs Moduli (GPa) = 55.47812 36.33158 63.19910
#
# Poissons Ratio (x) = 0.38645 0.47146
# Poissons Ratio (y) = 0.59010 0.18613
# Poissons Ratio (z) = 0.41386 0.10700
#
# Static dielectric constant tensor:
#      x y z
#    x 3.792600 -0.316250 -0.358800 
#    y -0.316250 3.658910 0.168870 
#    z -0.358800 0.168870 3.886210 
# 
# 
# High freq. dielectric constant tensor:
#      x y z
#    x 1.767100 -0.023290 -0.023610 
#    y -0.023290 1.760070 -0.002930 
#    z -0.023610 -0.002930 1.772230 
# 
# From -- ./inp_files/257096.got.cif
#   From: 2010.06.25/outbox.cif.g09.slc.cpg/sg2_129_cif.got.tgz:257096.got - 2010.06.27 13:26:56.
