data_PCOD8001760
_publ_section_title
;
Structure prediction by ZEFSAII (Michael W. Deem and Ramdas Pophale) SiO2 
 PCOD8001760
Probable space group: P -1
;
_chemical_formula_sum "Si O2"
_cell_formula_units_Z 12
_cell_length_a 14.980044
_cell_length_b 9.037498
_cell_length_c 14.254697
_cell_angle_alpha 143.877971
_cell_angle_beta 29.151336
_cell_angle_gamma 146.783824
_cell_volume 492.985587
_symmetry_space_group_name_H-M "P -1"
_symmetry_group_IT_number 2
_symmetry_cell_setting 'triclinic'
loop_
_space_group_symop_operation_xyz
x,y,z
-x,-y,-z
loop_
_atom_site_type_symbol
_atom_site_label
_atom_site_fract_x
_atom_site_fract_y
_atom_site_fract_z
Si Si1 0.292048 0.660819 0.775058
Si Si2 0.970797 0.066764 0.768724
Si Si3 0.798908 0.534504 0.529294
Si Si4 0.753384 0.286397 0.814953
Si Si5 0.703406 0.110905 0.564508
Si Si6 0.500323 0.351624 0.233781
O O1 0.132210 0.363013 0.723093
O O2 0.351082 0.565780 0.771084
O O3 0.494836 0.814471 0.604043
O O4 0.189458 0.870833 0.990761
O O5 0.096675 0.944467 0.653501
O O6 0.849555 0.839564 0.684073
O O7 0.700345 0.290308 0.571354
O O8 0.629756 0.472076 0.570604
O O9 0.002830 0.540542 0.300686
O O10 0.711230 0.282619 0.740318
O O11 0.669395 0.971167 0.768699
O O12 0.639102 0.429060 0.051577
#
# Coordination Sequence:
#
# PCOD8001760 Si02
#       6
#     2   2   2   2   2   2
#     4  10  22  38  59  83 112 149 186 228 278 330
#     4  10  20  37  59  83 110 147 192 228 268 330
#     4  11  21  35  61  87 111 143 186 236 278 322
#     4   9  18  33  53  82 112 144 188 228 267 323
#     4  10  21  36  59  86 111 146 187 232 276 326
#     4  10  20  34  55  85 114 144 184 230 277 328
#
# _framework density 24.341481999999999
#
# number of rings (size 3 to 8) (size 9 to 14) (size 15 to 20)
#    0.000    2.000    0.000    6.000    0.000    6.667 
#    0.000    0.833    0.000   16.000    0.000    0.000 
#    0.000    0.000    0.000    0.000    0.000    0.000 
#
# Total GULP energy -148752.202752 kJ/mol
# GULP energy per Si atom -12396.016896 kJ/mol
# Density = 2.428608 g / cm^3
# Si number density = 24.341482 Si / 1000 Ang^3
#
#
#
# Elastic Constant Matrix: (Units=GPa)
#
#
# Indices 1 2 3 4 5 6 
#
# 1 83.4015 37.6882 37.3911 -7.3166 -17.6913 -17.0776
# 2 37.6882 53.2402 24.9115 -5.2804 -0.1301 -6.3198
# 3 37.3911 24.9115 71.2661 -20.6029 -13.1902 -5.9153
# 4 -7.3166 -5.2804 -20.6029 29.9171 2.6465 9.5744
# 5 -17.6913 -0.1301 -13.1902 2.6465 26.4692 -0.2802
# 6 -17.0776 -6.3198 -5.9153 9.5744 -0.2802 23.4923
#
#
#
# Elastic Compliance Matrix: (Units=1/GPa)
#
#
# Indices 1 2 3 4 5 6 
#
# 1 0.029004 -0.015572 -0.007557 -0.008264 0.016566 0.018558
# 2 -0.015572 0.031932 -0.005644 0.000557 -0.013167 -0.004535
# 3 -0.007557 -0.005644 0.025137 0.016278 0.005744 -0.007248
# 4 -0.008264 0.000557 0.016278 0.050048 -0.002647 -0.022188
# 5 0.016566 -0.013167 0.005744 -0.002647 0.052037 0.011646
# 6 0.018558 -0.004535 -0.007248 -0.022188 0.011646 0.062194
#
#
# Mechanical properties :
#
#
# Convention : Reuss Voigt Hill
#
# Bulk Modulus (GPa) = 35.05483 45.32105 40.18794
# Shear Modulus (GPa) = 15.75261 23.17018 19.46139
#
# Velocity S-wave (km/s) = 2.54668 3.08860 2.83064
# Velocity P-wave (km/s) = 4.80416 5.60166 5.21817
#
# Compressibility (1/GPa) = 0.02852674
#
# Stress axis : x y z
#
# Youngs Moduli (GPa) = 34.47819 31.31681 39.78154
#
# Poissons Ratio (x) = 0.48766 0.30062
# Poissons Ratio (y) = 0.53689 0.22454
# Poissons Ratio (z) = 0.26054 0.17676
#
# Static dielectric constant tensor:
#      x y z
#    x 4.182190 0.161230 -0.124570 
#    y 0.161230 4.234040 -0.250880 
#    z -0.124570 -0.250880 4.616350 
# 
# 
# High freq. dielectric constant tensor:
#      x y z
#    x 1.958570 0.010020 -0.014270 
#    y 0.010020 1.948240 -0.017120 
#    z -0.014270 -0.017120 1.971760 
# 
# From -- ./inp_files/238741.got.cif
#   From: 2010.06.25/outbox.cif.g09.slc.cpg/sg2_120_cif.got.tgz:238741.got - 2010.06.27 13:26:56.
