data_PCOD8001700
_publ_section_title
;
Structure prediction by ZEFSAII (Michael W. Deem and Ramdas Pophale) SiO2 
 PCOD8001700
Probable space group: P -1
;
_chemical_formula_sum "Si O2"
_cell_formula_units_Z 14
_cell_length_a 14.299207
_cell_length_b 14.161927
_cell_length_c 11.876677
_cell_angle_alpha 109.270554
_cell_angle_beta 62.220092
_cell_angle_gamma 159.818989
_cell_volume 687.114691
_symmetry_space_group_name_H-M "P -1"
_symmetry_group_IT_number 2
_symmetry_cell_setting 'triclinic'
loop_
_space_group_symop_operation_xyz
x,y,z
-x,-y,-z
loop_
_atom_site_type_symbol
_atom_site_label
_atom_site_fract_x
_atom_site_fract_y
_atom_site_fract_z
Si Si1 0.157127 0.799168 0.693981
Si Si2 0.233485 0.136287 0.059272
Si Si3 0.868790 0.478375 0.946556
Si Si4 0.914422 0.784215 0.874668
Si Si5 0.830508 0.115438 0.883891
Si Si6 0.694854 0.142490 0.599761
Si Si7 0.115281 0.510323 0.724239
O O1 0.104095 0.701180 0.563299
O O2 0.886384 0.523881 0.822287
O O3 0.138674 0.903687 0.734038
O O4 0.484684 0.054139 0.663096
O O5 0.142029 0.169373 0.156451
O O6 0.140390 0.978034 0.150090
O O7 0.594434 0.446920 0.953897
O O8 0.058334 0.949010 0.973166
O O9 0.004660 0.485901 0.879088
O O10 0.077537 0.743774 0.999657
O O11 0.519622 0.168296 0.064821
O O12 0.051018 0.342504 0.744074
O O13 0.928067 0.366199 0.658881
O O14 0.474798 0.850077 0.631245
#
# Coordination Sequence:
#
# PCOD8001700 Si02
#       7
#     2   2   2   2   2   2   2
#     4  10  20  38  57  79 111 141 182 235 260 320
#     4  10  20  34  53  86 104 141 170 220 284 326
#     4  11  21  32  55  82 104 145 176 224 275 321
#     4  10  20  34  56  79 113 130 178 226 275 321
#     4  12  20  35  55  78 114 141 176 220 276 324
#     4  10  24  36  55  79 107 152 190 212 265 313
#     4  11  23  37  50  78 114 147 185 217 254 333
#
# _framework density 20.375055
#
# number of rings (size 3 to 8) (size 9 to 14) (size 15 to 20)
#    0.000    1.429    2.857    3.429    0.000    7.429 
#    0.000    0.000    0.000    1.714    0.000    0.000 
#    0.000    0.000    0.000    0.000    0.000    0.000 
#
# Total GULP energy -173554.722502 kJ/mol
# GULP energy per Si atom -12396.765893 kJ/mol
# Density = 2.032868 g / cm^3
# Si number density = 20.375055 Si / 1000 Ang^3
#
#
#
# Elastic Constant Matrix: (Units=GPa)
#
#
# Indices 1 2 3 4 5 6 
#
# 1 111.3617 -1.2438 19.4064 -4.8545 -6.8450 -31.4135
# 2 -1.2438 79.1949 -1.9391 -4.7516 -0.4575 -0.4386
# 3 19.4064 -1.9391 49.0638 1.7250 -4.9819 -6.2645
# 4 -4.8545 -4.7516 1.7250 28.3304 -4.9255 4.0236
# 5 -6.8450 -0.4575 -4.9819 -4.9255 27.0607 0.6046
# 6 -31.4135 -0.4386 -6.2645 4.0236 0.6046 27.4305
#
#
#
# Elastic Compliance Matrix: (Units=1/GPa)
#
#
# Indices 1 2 3 4 5 6 
#
# 1 0.014049 0.000298 -0.003367 0.000999 0.002783 0.015116
# 2 0.000298 0.012784 0.000424 0.002262 0.000775 0.000293
# 3 -0.003367 0.000424 0.022262 -0.001549 0.002941 0.001397
# 4 0.000999 0.002262 -0.001549 0.037854 0.007005 -0.004880
# 5 0.002783 0.000775 0.002941 0.007005 0.039443 0.001974
# 6 0.015116 0.000293 0.001397 -0.004880 0.001974 0.054763
#
#
# Mechanical properties :
#
#
# Convention : Reuss Voigt Hill
#
# Bulk Modulus (GPa) = 22.82932 30.22971 26.52951
# Shear Modulus (GPa) = 24.86989 31.45746 28.16368
#
# Velocity S-wave (km/s) = 3.49751 3.93354 3.72191
# Velocity P-wave (km/s) = 5.24775 5.95811 5.61418
#
# Compressibility (1/GPa) = 0.04380332
#
# Stress axis : x y z
#
# Youngs Moduli (GPa) = 71.18138 78.22293 44.92021
#
# Poissons Ratio (x) = -0.02330 0.15127
# Poissons Ratio (y) = -0.02121 -0.01905
# Poissons Ratio (z) = 0.23970 -0.03317
#
# Static dielectric constant tensor:
#      x y z
#    x 4.164360 -0.228620 -0.035390 
#    y -0.228620 3.725560 -0.004770 
#    z -0.035390 -0.004770 3.436030 
# 
# 
# High freq. dielectric constant tensor:
#      x y z
#    x 1.797240 -0.005860 0.014860 
#    y -0.005860 1.813090 -0.003230 
#    z 0.014860 -0.003230 1.749410 
# 
# From -- ./inp_files/127184.got.cif
#   From: 2010.06.25/outbox.cif.g09.slc.cpg/sg2_64_cif.got.tgz:127184.got - 2010.06.27 13:26:56.
