data_PCOD8001583
_publ_section_title
;
Structure prediction by ZEFSAII (Michael W. Deem and Ramdas Pophale) SiO2 
 PCOD8001583
Probable space group: P -1
;
_chemical_formula_sum "Si O2"
_cell_formula_units_Z 16
_cell_length_a 9.072673
_cell_length_b 33.133799
_cell_length_c 15.558617
_cell_angle_alpha 162.778907
_cell_angle_beta 142.838506
_cell_angle_gamma 34.062232
_cell_volume 775.113200
_symmetry_space_group_name_H-M "P -1"
_symmetry_group_IT_number 2
_symmetry_cell_setting 'triclinic'
loop_
_space_group_symop_operation_xyz
x,y,z
-x,-y,-z
loop_
_atom_site_type_symbol
_atom_site_label
_atom_site_fract_x
_atom_site_fract_y
_atom_site_fract_z
Si Si1 0.735325 0.651069 0.584621
Si Si2 0.669344 0.151076 0.076753
Si Si3 0.847835 0.830117 0.560420
Si Si4 0.501282 0.665740 0.132125
Si Si5 0.704923 0.376053 0.231490
Si Si6 0.722822 0.383890 0.782107
Si Si7 0.468660 0.294897 0.111512
Si Si8 0.907282 0.342580 0.969910
O O1 0.602798 0.724587 0.762137
O O2 0.493327 0.692729 0.487823
O O3 0.867777 0.472907 0.287084
O O4 0.975094 0.703244 0.780042
O O5 0.674753 0.177678 0.031607
O O6 0.928719 0.166454 0.264381
O O7 0.666651 0.991380 0.771086
O O8 0.665045 0.767723 0.403095
O O9 0.986046 0.730292 0.340081
O O10 0.427156 0.615416 0.904513
O O11 0.666105 0.522916 0.975401
O O12 0.233923 0.754974 0.245272
O O13 0.599327 0.276838 0.041824
O O14 0.611289 0.539193 0.556509
O O15 0.739355 0.419978 0.963949
O O16 0.208314 0.253516 0.904447
#
# Coordination Sequence:
#
# PCOD8001583 Si02
#       8
#     2   2   2   2   2   2   2   2
#     4   9  18  34  56  79 110 141 174 220 268 322
#     4  10  21  39  56  77 110 150 180 215 273 327
#     4  10  22  37  57  80 108 145 186 219 264 332
#     4  11  20  34  56  82 110 139 181 232 270 313
#     4  10  20  33  56  87 108 138 186 226 269 319
#     4  10  20  35  57  83 111 142 178 228 276 312
#     4  10  20  35  55  80 114 144 177 226 271 320
#     4  10  20  34  57  86 110 138 178 226 278 319
#
# _framework density 20.642147000000001
#
# number of rings (size 3 to 8) (size 9 to 14) (size 15 to 20)
#    0.000    2.000    0.000    5.625    0.000    7.500 
#    0.000    6.250    0.000    6.750    0.000    0.000 
#    0.000    0.000    0.000    0.000    0.000    0.000 
#
# Total GULP energy -198268.903411 kJ/mol
# GULP energy per Si atom -12391.806463 kJ/mol
# Density = 2.059516 g / cm^3
# Si number density = 20.642147 Si / 1000 Ang^3
#
#
#
# Elastic Constant Matrix: (Units=GPa)
#
#
# Indices 1 2 3 4 5 6 
#
# 1 142.3475 50.1686 47.4120 -0.6754 35.2485 4.1831
# 2 50.1686 78.6638 21.8527 5.7302 11.4424 11.2917
# 3 47.4120 21.8527 61.6384 0.0774 18.5295 -0.9590
# 4 -0.6754 5.7302 0.0774 15.2371 -2.4339 2.2733
# 5 35.2485 11.4424 18.5295 -2.4339 26.0548 -10.5267
# 6 4.1831 11.2917 -0.9590 2.2733 -10.5267 37.2358
#
#
#
# Elastic Compliance Matrix: (Units=1/GPa)
#
#
# Indices 1 2 3 4 5 6 
#
# 1 0.014372 -0.004948 -0.004612 0.000699 -0.015846 -0.004755
# 2 -0.004948 0.018013 -0.001856 -0.006618 -0.002657 -0.005301
# 3 -0.004612 -0.001856 0.023480 -0.001087 -0.010204 -0.001133
# 4 0.000699 -0.006618 -0.001087 0.069605 0.009354 0.000295
# 5 -0.015846 -0.002657 -0.010204 0.009354 0.078827 0.024037
# 6 -0.004755 -0.005301 -0.001133 0.000295 0.024037 0.035746
#
#
# Mechanical properties :
#
#
# Convention : Reuss Voigt Hill
#
# Bulk Modulus (GPa) = 30.27166 57.94624 44.10895
# Shear Modulus (GPa) = 18.25583 26.58663 22.42123
#
# Velocity S-wave (km/s) = 2.97711 3.59273 3.29931
# Velocity P-wave (km/s) = 5.14921 6.73373 5.99406
#
# Compressibility (1/GPa) = 0.03303420
#
# Stress axis : x y z
#
# Youngs Moduli (GPa) = 69.57956 55.51535 42.58947
#
# Poissons Ratio (x) = 0.27469 0.19641
# Poissons Ratio (y) = 0.34429 0.07903
# Poissons Ratio (z) = 0.32089 0.10301
#
# Static dielectric constant tensor:
#      x y z
#    x 4.196540 -0.160970 0.181560 
#    y -0.160970 3.653550 -0.218620 
#    z 0.181560 -0.218620 3.508840 
# 
# 
# High freq. dielectric constant tensor:
#      x y z
#    x 1.823050 -0.003740 0.008440 
#    y -0.003740 1.805340 -0.026540 
#    z 0.008440 -0.026540 1.766340 
# 
# From -- ./inp_files/260199.got.cif
#   From: 2010.06.25/outbox.cif.g09.slc.cpg/sg2_131_cif.got.tgz:260199.got - 2010.06.27 13:26:56.
