data_PCOD8001377
_publ_section_title
;
Structure prediction by ZEFSAII (Michael W. Deem and Ramdas Pophale) SiO2 
 PCOD8001377
Probable space group: P -1
;
_chemical_formula_sum "Si O2"
_cell_formula_units_Z 14
_cell_length_a 11.555641
_cell_length_b 12.650536
_cell_length_c 5.137969
_cell_angle_alpha 94.937463
_cell_angle_beta 79.521531
_cell_angle_gamma 62.286732
_cell_volume 641.158957
_symmetry_space_group_name_H-M "P -1"
_symmetry_group_IT_number 2
_symmetry_cell_setting 'triclinic'
loop_
_space_group_symop_operation_xyz
x,y,z
-x,-y,-z
loop_
_atom_site_type_symbol
_atom_site_label
_atom_site_fract_x
_atom_site_fract_y
_atom_site_fract_z
Si Si1 0.085035 0.727882 0.426482
Si Si2 0.701565 0.194219 0.511223
Si Si3 0.091155 0.348989 0.224120
Si Si4 0.697685 0.488710 0.000201
Si Si5 0.563710 0.324946 0.102212
Si Si6 0.832864 0.597098 0.296020
Si Si7 0.056019 0.033925 0.732171
O O1 0.188797 0.759129 0.539292
O O2 0.981820 0.729123 0.685984
O O3 0.999469 0.821685 0.246604
O O4 0.165499 0.594183 0.235098
O O5 0.583583 0.262974 0.362338
O O6 0.780391 0.050100 0.373835
O O7 0.636704 0.220985 0.829944
O O8 0.201898 0.332126 0.398379
O O9 0.984733 0.489967 0.254136
O O10 0.171037 0.309491 0.908143
O O11 0.630709 0.410958 0.111871
O O12 0.732517 0.545242 0.248727
O O13 0.594411 0.595909 0.875584
O O14 0.000000 0.000000 0.500000
O O15 0.000000 0.000000 0.000000
#
# Coordination Sequence:
#
# PCOD8001377 Si02
#       7
#     2   2   2   2   2   2   2
#     4  10  20  33  54  79 108 135 166 213 262 309
#     4  10  20  36  51  74 104 135 171 208 246 304
#     4  10  20  32  49  74 103 139 169 202 259 310
#     4  10  20  34  51  76 106 136 167 209 253 304
#     4  10  22  34  52  74 102 139 174 202 249 305
#     4  10  20  33  48  71 107 138 169 207 249 309
#     4  10  20  34  53  76 103 136 169 210 261 304
#
# _framework density 21.835457999999999
#
# number of rings (size 3 to 8) (size 9 to 14) (size 15 to 20)
#    0.000    2.000    0.000    6.000    0.000   13.143 
#    0.000    0.000    0.000    0.000    0.000    6.000 
#    0.000    0.000    0.000    0.000    0.000    0.000 
#
# Total GULP energy -173486.101321 kJ/mol
# GULP energy per Si atom -12391.864380 kJ/mol
# Density = 2.178576 g / cm^3
# Si number density = 21.835458 Si / 1000 Ang^3
#
#
#
# Elastic Constant Matrix: (Units=GPa)
#
#
# Indices 1 2 3 4 5 6 
#
# 1 65.8585 30.7171 25.7621 0.2370 17.8405 -9.5804
# 2 30.7171 91.5199 35.2520 -7.0677 -2.5254 -27.9592
# 3 25.7621 35.2520 109.5224 -28.1172 18.1976 -2.0095
# 4 0.2370 -7.0677 -28.1172 29.8253 -5.2550 -0.2674
# 5 17.8405 -2.5254 18.1976 -5.2550 32.9361 -11.3630
# 6 -9.5804 -27.9592 -2.0095 -0.2674 -11.3630 22.6563
#
#
#
# Elastic Compliance Matrix: (Units=1/GPa)
#
#
# Indices 1 2 3 4 5 6 
#
# 1 0.026925 -0.018691 0.001609 -0.008083 -0.026857 -0.025103
# 2 -0.018691 0.048690 -0.016860 0.005321 0.050221 0.075937
# 3 0.001609 -0.016860 0.019987 0.010787 -0.021494 -0.029006
# 4 -0.008083 0.005321 0.010787 0.046791 0.009551 0.009448
# 5 -0.026857 0.050221 -0.021494 0.009551 0.095535 0.096740
# 6 -0.025103 0.075937 -0.029006 0.009448 0.096740 0.173292
#
#
# Mechanical properties :
#
#
# Convention : Reuss Voigt Hill
#
# Bulk Modulus (GPa) = 36.07732 50.04034 43.05883
# Shear Modulus (GPa) = 10.23870 28.76151 19.50011
#
# Velocity S-wave (km/s) = 2.16777 3.63325 2.99163
# Velocity P-wave (km/s) = 4.77743 6.36926 5.62989
#
# Compressibility (1/GPa) = 0.02771825
#
# Stress axis : x y z
#
# Youngs Moduli (GPa) = 37.14034 20.53822 50.03195
#
# Poissons Ratio (x) = 0.38388 -0.08053
# Poissons Ratio (y) = 0.69419 0.84355
# Poissons Ratio (z) = -0.05978 0.34628
#
# Static dielectric constant tensor:
#      x y z
#    x 3.675740 -0.343500 0.235630 
#    y -0.343500 4.808640 -0.161720 
#    z 0.235630 -0.161720 4.197660 
# 
# 
# High freq. dielectric constant tensor:
#      x y z
#    x 1.827690 -0.012970 0.019370 
#    y -0.012970 1.821190 -0.019700 
#    z 0.019370 -0.019700 1.870570 
# 
# From -- ./inp_files/66714.got.cif
#   From: 2010.06.25/outbox.cif.g09.slc.cpg/sg2_34_cif.got.tgz:66714.got - 2010.06.27 13:26:56.
