data_PCOD8001877
_publ_section_title
;
Structure prediction by ZEFSAII (Michael W. Deem and Ramdas Pophale) SiO2 
 PCOD8001877
Probable space group: P -1
;
_chemical_formula_sum "Si O2"
_cell_formula_units_Z 14
_cell_length_a 24.265436
_cell_length_b 14.441104
_cell_length_c 11.036083
_cell_angle_alpha 29.957942
_cell_angle_beta 31.984446
_cell_angle_gamma 20.463040
_cell_volume 660.246735
_symmetry_space_group_name_H-M "P -1"
_symmetry_group_IT_number 2
_symmetry_cell_setting 'triclinic'
loop_
_space_group_symop_operation_xyz
x,y,z
-x,-y,-z
loop_
_atom_site_type_symbol
_atom_site_label
_atom_site_fract_x
_atom_site_fract_y
_atom_site_fract_z
Si Si1 0.864173 0.822943 0.162327
Si Si2 0.610378 0.265854 0.953758
Si Si3 0.900643 0.250362 0.065739
Si Si4 0.532522 0.835865 0.827091
Si Si5 0.529464 0.674647 0.266563
Si Si6 0.556185 0.198085 0.458772
Si Si7 0.101366 0.640360 0.320839
O O1 0.915838 0.537999 0.385353
O O2 0.730223 0.038623 0.273097
O O3 0.023743 0.726402 0.995857
O O4 0.790588 0.990872 0.979926
O O5 0.586137 0.452285 0.681366
O O6 0.500000 0.500000 0.000000
O O7 0.560693 0.131475 0.147436
O O8 0.712375 0.480269 0.174743
O O9 0.943662 0.298718 0.806224
O O10 0.981602 0.938149 0.277400
O O11 0.718204 0.525140 0.817042
O O12 0.513214 0.084911 0.578246
O O13 0.465234 0.862171 0.053326
O O14 0.500000 0.500000 0.500000
O O15 0.428397 0.881023 0.339030
#
# Coordination Sequence:
#
# PCOD8001877 Si02
#       7
#     2   2   2   2   2   2   2
#     4  10  21  36  59  85 116 145 191 229 283 334
#     4  10  20  34  58  87 118 149 188 235 277 333
#     4  10  21  36  56  83 115 148 184 235 286 334
#     4  10  20  37  59  89 115 147 194 232 285 332
#     4  11  22  39  61  84 116 149 189 238 289 336
#     4  10  21  37  60  88 113 152 188 237 281 337
#     4   9  19  34  57  84 111 149 186 235 280 332
#
# _framework density 21.204194000000001
#
# number of rings (size 3 to 8) (size 9 to 14) (size 15 to 20)
#    0.000    2.000    1.429    2.571    4.000    6.286 
#    2.571    0.714    0.000    1.714    0.000    0.000 
#    0.000    0.000    0.000    0.000    0.000    0.000 
#
# Total GULP energy -173549.854814 kJ/mol
# GULP energy per Si atom -12396.418201 kJ/mol
# Density = 2.115593 g / cm^3
# Si number density = 21.204194 Si / 1000 Ang^3
#
#
#
# Elastic Constant Matrix: (Units=GPa)
#
#
# Indices 1 2 3 4 5 6 
#
# 1 114.9285 16.7196 20.8319 9.9147 -23.8613 -14.9159
# 2 16.7196 43.6129 21.1646 -9.0635 -4.4300 -10.4699
# 3 20.8319 21.1646 63.0226 -4.3252 -16.0320 -9.0798
# 4 9.9147 -9.0635 -4.3252 32.6083 0.2620 -0.0798
# 5 -23.8613 -4.4300 -16.0320 0.2620 35.3589 3.7239
# 6 -14.9159 -10.4699 -9.0798 -0.0798 3.7239 36.1954
#
#
#
# Elastic Compliance Matrix: (Units=1/GPa)
#
#
# Indices 1 2 3 4 5 6 
#
# 1 0.011536 -0.003654 -0.000798 -0.004676 0.006705 0.002796
# 2 -0.003654 0.031437 -0.008725 0.008731 -0.003153 0.005742
# 3 -0.000798 -0.008725 0.021346 0.000590 0.007864 0.001694
# 4 -0.004676 0.008731 0.000590 0.034614 -0.002161 0.001045
# 5 0.006705 -0.003153 0.007864 -0.002161 0.035980 0.000117
# 6 0.002796 0.005742 0.001694 0.001045 0.000117 0.030856
#
#
# Mechanical properties :
#
#
# Convention : Reuss Voigt Hill
#
# Bulk Modulus (GPa) = 26.34087 37.66624 32.00355
# Shear Modulus (GPa) = 24.41656 31.68906 28.05281
#
# Velocity S-wave (km/s) = 3.39705 3.87003 3.64123
# Velocity P-wave (km/s) = 5.27599 6.14587 5.72747
#
# Compressibility (1/GPa) = 0.03796381
#
# Stress axis : x y z
#
# Youngs Moduli (GPa) = 86.68643 31.80993 46.84668
#
# Poissons Ratio (x) = 0.11625 0.03739
# Poissons Ratio (y) = 0.31679 0.40873
# Poissons Ratio (z) = 0.06920 0.27753
#
# Static dielectric constant tensor:
#      x y z
#    x 3.880060 -0.178700 0.141490 
#    y -0.178700 3.686570 -0.322020 
#    z 0.141490 -0.322020 4.044860 
# 
# 
# High freq. dielectric constant tensor:
#      x y z
#    x 1.830610 -0.007280 -0.011730 
#    y -0.007280 1.803260 -0.024000 
#    z -0.011730 -0.024000 1.829460 
# 
# From -- ./inp_files/254451.got.cif
#   From: 2010.06.25/outbox.cif.g09.slc.cpg/sg2_128_cif.got.tgz:254451.got - 2010.06.27 13:26:56.
