data_PCOD8001557
_publ_section_title
;
Structure prediction by ZEFSAII (Michael W. Deem and Ramdas Pophale) SiO2 
 PCOD8001557
Probable space group: P -1
;
_chemical_formula_sum "Si O2"
_cell_formula_units_Z 16
_cell_length_a 11.960798
_cell_length_b 14.380737
_cell_length_c 5.442597
_cell_angle_alpha 117.617289
_cell_angle_beta 87.292301
_cell_angle_gamma 68.852507
_cell_volume 747.119957
_symmetry_space_group_name_H-M "P -1"
_symmetry_group_IT_number 2
_symmetry_cell_setting 'triclinic'
loop_
_space_group_symop_operation_xyz
x,y,z
-x,-y,-z
loop_
_atom_site_type_symbol
_atom_site_label
_atom_site_fract_x
_atom_site_fract_y
_atom_site_fract_z
Si Si1 0.950525 0.437909 0.738541
Si Si2 0.279711 0.337410 0.956117
Si Si3 0.844746 0.144216 0.363573
Si Si4 0.693536 0.354540 0.322264
Si Si5 0.921032 0.260178 0.873663
Si Si6 0.472376 0.423785 0.108586
Si Si7 0.801562 0.728622 0.638511
Si Si8 0.901657 0.894031 0.972751
O O1 0.818339 0.534201 0.784798
O O2 0.932008 0.331388 0.728517
O O3 0.059901 0.377696 0.450424
O O4 0.000000 0.500000 0.000000
O O5 0.410625 0.343226 0.905666
O O6 0.286169 0.259491 0.101494
O O7 0.249102 0.291133 0.645163
O O8 0.725992 0.253965 0.400181
O O9 0.864144 0.171758 0.677681
O O10 0.970926 0.122564 0.184939
O O11 0.820057 0.029570 0.212975
O O12 0.601178 0.337034 0.115326
O O13 0.625110 0.486343 0.582469
O O14 0.821740 0.346647 0.183164
O O15 0.057058 0.186252 0.884008
O O16 0.500000 0.500000 0.000000
O O17 0.817344 0.848922 0.765209
#
# Coordination Sequence:
#
# PCOD8001557 Si02
#       8
#     2   2   2   2   2   2   2   2
#     4  10  20  33  55  82 127 163 196 236 300 375
#     4  11  25  38  62  88 127 165 212 250 313 379
#     4  10  20  37  58  91 119 162 207 258 305 364
#     4  10  23  37  62  90 119 154 206 263 314 367
#     4  11  20  37  57  92 124 162 205 253 306 376
#     4  11  24  41  64  89 119 160 204 265 318 365
#     4  11  23  40  56  92 125 172 206 251 305 382
#     4  10  21  35  60  85 127 164 206 248 309 364
#
# _framework density 21.415572000000001
#
# number of rings (size 3 to 8) (size 9 to 14) (size 15 to 20)
#    0.000    1.500    1.250    4.500    8.750    0.000 
#    0.000    0.000    0.000    1.500    0.000    0.000 
#    0.000    0.000    0.000    0.000    0.000    0.000 
#
# Total GULP energy -198288.324522 kJ/mol
# GULP energy per Si atom -12393.020283 kJ/mol
# Density = 2.136683 g / cm^3
# Si number density = 21.415572 Si / 1000 Ang^3
#
#
#
# Elastic Constant Matrix: (Units=GPa)
#
#
# Indices 1 2 3 4 5 6 
#
# 1 94.7634 24.6995 20.7358 -3.6417 23.6976 9.1488
# 2 24.6995 63.7975 25.4313 0.8373 11.2347 0.2510
# 3 20.7358 25.4313 71.8138 -9.0554 19.8920 9.7755
# 4 -3.6417 0.8373 -9.0554 34.4237 6.4436 3.6564
# 5 23.6976 11.2347 19.8920 6.4436 34.0592 1.1356
# 6 9.1488 0.2510 9.7755 3.6564 1.1356 32.8838
#
#
#
# Elastic Compliance Matrix: (Units=1/GPa)
#
#
# Indices 1 2 3 4 5 6 
#
# 1 0.014552 -0.004425 0.001342 0.004379 -0.010126 -0.004551
# 2 -0.004425 0.020024 -0.007020 -0.003379 0.001096 0.003503
# 3 0.001342 -0.007020 0.021735 0.009210 -0.012809 -0.007363
# 4 0.004379 -0.003379 0.009210 0.035378 -0.013758 -0.007389
# 5 -0.010126 0.001096 -0.012809 -0.013758 0.045909 0.006561
# 6 -0.004551 0.003503 -0.007363 -0.007389 0.006561 0.034433
#
#
# Mechanical properties :
#
#
# Convention : Reuss Voigt Hill
#
# Bulk Modulus (GPa) = 27.69774 41.34532 34.52153
# Shear Modulus (GPa) = 24.47709 30.90722 27.69215
#
# Velocity S-wave (km/s) = 3.38443 3.80308 3.59985
# Velocity P-wave (km/s) = 5.31357 6.21552 5.78216
#
# Compressibility (1/GPa) = 0.03610403
#
# Stress axis : x y z
#
# Youngs Moduli (GPa) = 68.71817 49.94113 46.00876
#
# Poissons Ratio (x) = 0.22100 -0.06172
# Poissons Ratio (y) = 0.30409 0.32297
# Poissons Ratio (z) = -0.09219 0.35058
#
# Static dielectric constant tensor:
#      x y z
#    x 3.894840 -0.039040 0.110200 
#    y -0.039040 3.783770 -0.002720 
#    z 0.110200 -0.002720 3.993970 
# 
# 
# High freq. dielectric constant tensor:
#      x y z
#    x 1.823700 0.011370 0.019560 
#    y 0.011370 1.816520 -0.009220 
#    z 0.019560 -0.009220 1.842760 
# 
# From -- ./inp_files/78604.got.cif
#   From: 2010.06.25/outbox.cif.g09.slc.cpg/sg2_40_cif.got.tgz:78604.got - 2010.06.27 13:26:56.
