data_PCOD8001423
_publ_section_title
;
Structure prediction by ZEFSAII (Michael W. Deem and Ramdas Pophale) SiO2 
 PCOD8001423
Probable space group: P -1
;
_chemical_formula_sum "Si O2"
_cell_formula_units_Z 16
_cell_length_a 18.112927
_cell_length_b 6.493659
_cell_length_c 14.743480
_cell_angle_alpha 71.909209
_cell_angle_beta 39.836272
_cell_angle_gamma 50.562654
_cell_volume 800.988551
_symmetry_space_group_name_H-M "P -1"
_symmetry_group_IT_number 2
_symmetry_cell_setting 'triclinic'
loop_
_space_group_symop_operation_xyz
x,y,z
-x,-y,-z
loop_
_atom_site_type_symbol
_atom_site_label
_atom_site_fract_x
_atom_site_fract_y
_atom_site_fract_z
Si Si1 0.833382 0.379196 0.947642
Si Si2 0.375225 0.005856 0.007187
Si Si3 0.905870 0.617427 0.981651
Si Si4 0.151596 0.757730 0.336441
Si Si5 0.705649 0.300556 0.615929
Si Si6 0.681317 0.872777 0.754136
Si Si7 0.004525 0.881553 0.730614
Si Si8 0.370468 0.772884 0.866224
O O1 0.891359 0.388560 0.990513
O O2 0.771675 0.666834 0.916845
O O3 0.696622 0.375117 0.079835
O O4 0.980185 0.098184 0.798733
O O5 0.531016 0.942782 0.848017
O O6 0.369763 0.805507 0.972318
O O7 0.361486 0.961764 0.131833
O O8 0.990394 0.664742 0.820265
O O9 0.000000 0.500000 0.000000
O O10 0.735195 0.913470 0.122361
O O11 0.288583 0.656869 0.287175
O O12 0.178871 0.470190 0.325125
O O13 0.000000 0.000000 0.500000
O O14 0.134242 0.918492 0.238594
O O15 0.830554 0.285339 0.445746
O O16 0.542225 0.574952 0.694216
O O17 0.728609 0.012105 0.623416
#
# Coordination Sequence:
#
# PCOD8001423 Si02
#       8
#     2   2   2   2   2   2   2   2
#     4  10  20  39  62  85 115 150 203 252 308 356
#     4  10  20  32  53  87 117 162 208 246 281 349
#     4  10  24  44  68  89 112 151 206 263 316 373
#     4  10  22  36  52  84 133 174 200 232 286 363
#     4  11  23  36  58  92 133 165 202 242 296 361
#     4  11  21  32  56  83 125 167 211 237 292 339
#     4  10  23  39  59  87 126 165 201 248 306 355
#     4  10  21  38  62  90 120 157 204 260 302 353
#
# _framework density 19.975315999999999
#
# number of rings (size 3 to 8) (size 9 to 14) (size 15 to 20)
#    0.000    1.750    3.750    0.000    5.250    6.500 
#    0.000    0.625    0.000    1.500    0.000    0.000 
#    0.000    0.000    0.000    0.000    0.000    0.000 
#
# Total GULP energy -198224.701658 kJ/mol
# GULP energy per Si atom -12389.043854 kJ/mol
# Density = 1.992985 g / cm^3
# Si number density = 19.975316 Si / 1000 Ang^3
#
#
#
# Elastic Constant Matrix: (Units=GPa)
#
#
# Indices 1 2 3 4 5 6 
#
# 1 145.2469 45.1526 40.2277 4.7510 -5.2282 -0.4443
# 2 45.1526 76.9352 37.5127 10.0780 -0.3619 1.7682
# 3 40.2277 37.5127 86.2891 10.7818 -17.1441 -4.9204
# 4 4.7510 10.0780 10.7818 28.1881 -0.5485 -1.3756
# 5 -5.2282 -0.3619 -17.1441 -0.5485 18.4265 2.3441
# 6 -0.4443 1.7682 -4.9204 -1.3756 2.3441 31.2325
#
#
#
# Elastic Compliance Matrix: (Units=1/GPa)
#
#
# Indices 1 2 3 4 5 6 
#
# 1 0.008805 -0.004126 -0.002378 0.000905 0.000231 0.000007
# 2 -0.004126 0.019761 -0.007923 -0.003592 -0.008008 -0.001983
# 3 -0.002378 -0.007923 0.020277 -0.004076 0.017647 0.002105
# 4 0.000905 -0.003592 -0.004076 0.038186 -0.002655 0.001455
# 5 0.000231 -0.008008 0.017647 -0.002655 0.070796 -0.002194
# 6 0.000007 -0.001983 0.002105 0.001455 -0.002194 0.032691
#
#
# Mechanical properties :
#
#
# Convention : Reuss Voigt Hill
#
# Bulk Modulus (GPa) = 50.02517 61.58414 55.80465
# Shear Modulus (GPa) = 22.12080 27.94131 25.03105
#
# Velocity S-wave (km/s) = 3.33138 3.74410 3.54375
# Velocity P-wave (km/s) = 6.31628 7.04188 6.68892
#
# Compressibility (1/GPa) = 0.01998994
#
# Stress axis : x y z
#
# Youngs Moduli (GPa) = 113.57598 50.60581 49.31608
#
# Poissons Ratio (x) = 0.20877 0.11728
# Poissons Ratio (y) = 0.46856 0.39072
# Poissons Ratio (z) = 0.27010 0.40093
#
# Static dielectric constant tensor:
#      x y z
#    x 3.910240 0.190130 -0.079940 
#    y 0.190130 3.624230 0.232170 
#    z -0.079940 0.232170 3.340050 
# 
# 
# High freq. dielectric constant tensor:
#      x y z
#    x 1.775500 0.022120 -0.020420 
#    y 0.022120 1.772250 0.021420 
#    z -0.020420 0.021420 1.754310 
# 
# From -- ./inp_files/77305.got.cif
#   From: 2010.06.25/outbox.cif.g09.slc.cpg/sg2_39_cif.got.tgz:77305.got - 2010.06.27 13:26:56.
