data_PCOD8001778
_publ_section_title
;
Structure prediction by ZEFSAII (Michael W. Deem and Ramdas Pophale) SiO2 
 PCOD8001778
Probable space group: P -1
;
_chemical_formula_sum "Si O2"
_cell_formula_units_Z 16
_cell_length_a 17.477166
_cell_length_b 11.903598
_cell_length_c 8.884774
_cell_angle_alpha 51.013863
_cell_angle_beta 32.878467
_cell_angle_gamma 56.700088
_cell_volume 779.020724
_symmetry_space_group_name_H-M "P -1"
_symmetry_group_IT_number 2
_symmetry_cell_setting 'triclinic'
loop_
_space_group_symop_operation_xyz
x,y,z
-x,-y,-z
loop_
_atom_site_type_symbol
_atom_site_label
_atom_site_fract_x
_atom_site_fract_y
_atom_site_fract_z
Si Si1 0.703884 0.095232 0.099998
Si Si2 0.070319 0.594200 0.039507
Si Si3 0.752432 0.519310 0.624393
Si Si4 0.385740 0.215759 0.512696
Si Si5 0.767653 0.311059 0.045447
Si Si6 0.679028 0.623182 0.216502
Si Si7 0.254456 0.732999 0.381654
Si Si8 0.547220 0.329288 0.654378
O O1 0.551355 0.180014 0.276404
O O2 0.696775 0.925351 0.279617
O O3 0.792344 0.164525 0.030294
O O4 0.779193 0.129380 0.787099
O O5 0.091212 0.664470 0.110992
O O6 0.910608 0.565778 0.295087
O O7 0.161614 0.440745 0.013793
O O8 0.123356 0.704641 0.731861
O O9 0.647460 0.661246 0.661877
O O10 0.735100 0.450091 0.874877
O O11 0.712645 0.409357 0.652740
O O12 0.327067 0.265469 0.730296
O O13 0.637440 0.292819 0.386103
O O14 0.573943 0.492729 0.527628
O O15 0.615417 0.696487 0.103361
O O16 0.393441 0.769193 0.221850
#
# Coordination Sequence:
#
# PCOD8001778 Si02
#       8
#     2   2   2   2   2   2   2   2
#     4  10  22  36  53  78 106 140 175 209 265 309
#     4  10  20  34  56  80 107 131 176 221 257 298
#     4  11  20  33  56  83 102 137 177 214 257 305
#     4  11  21  35  54  77 111 136 171 220 256 309
#     4   9  19  35  58  77 107 135 173 216 261 308
#     4   9  17  30  54  77 104 135 159 223 261 299
#     4   9  19  34  56  79 104 134 175 217 255 310
#     4   9  16  32  55  81 103 128 175 215 273 294
#
# _framework density 20.538608
#
# number of rings (size 3 to 8) (size 9 to 14) (size 15 to 20)
#    0.000    2.500    3.750    0.750    0.000    6.000 
#    0.000    1.875   11.000    0.000    0.000    0.000 
#    0.000    0.000    0.000    0.000    0.000    0.000 
#
# Total GULP energy -198268.464031 kJ/mol
# GULP energy per Si atom -12391.779002 kJ/mol
# Density = 2.049186 g / cm^3
# Si number density = 20.538608 Si / 1000 Ang^3
#
#
#
# Elastic Constant Matrix: (Units=GPa)
#
#
# Indices 1 2 3 4 5 6 
#
# 1 77.0538 16.2223 23.0946 2.2002 16.3998 16.9591
# 2 16.2223 54.4614 14.4903 -11.9110 3.2888 15.5636
# 3 23.0946 14.4903 47.8585 -6.3845 10.9381 8.7781
# 4 2.2002 -11.9110 -6.3845 25.8780 -5.4499 -2.3960
# 5 16.3998 3.2888 10.9381 -5.4499 30.1654 8.5787
# 6 16.9591 15.5636 8.7781 -2.3960 8.5787 24.6995
#
#
#
# Elastic Compliance Matrix: (Units=1/GPa)
#
#
# Indices 1 2 3 4 5 6 
#
# 1 0.018600 -0.002912 -0.006128 -0.006506 -0.006744 -0.007047
# 2 -0.002912 0.026504 -0.003882 0.011477 0.006265 -0.014385
# 3 -0.006128 -0.003882 0.026875 0.004240 -0.005012 -0.000745
# 4 -0.006506 0.011477 0.004240 0.047379 0.010226 -0.003227
# 5 -0.006744 0.006265 -0.005012 0.010226 0.043070 -0.011503
# 6 -0.007047 -0.014385 -0.000745 -0.003227 -0.011503 0.058337
#
#
# Mechanical properties :
#
#
# Convention : Reuss Voigt Hill
#
# Bulk Modulus (GPa) = 21.67519 31.88758 26.78138
# Shear Modulus (GPa) = 19.08483 24.51967 21.80225
#
# Velocity S-wave (km/s) = 3.05161 3.45894 3.26164
# Velocity P-wave (km/s) = 4.79508 5.61353 5.22037
#
# Compressibility (1/GPa) = 0.04613569
#
# Stress axis : x y z
#
# Youngs Moduli (GPa) = 53.76403 37.72982 37.20871
#
# Poissons Ratio (x) = 0.10985 0.22802
# Poissons Ratio (y) = 0.15654 0.14445
# Poissons Ratio (z) = 0.32947 0.14648
#
# Static dielectric constant tensor:
#      x y z
#    x 4.212470 0.073250 0.209580 
#    y 0.073250 3.395170 -0.032080 
#    z 0.209580 -0.032080 3.528870 
# 
# 
# High freq. dielectric constant tensor:
#      x y z
#    x 1.824260 0.015320 0.011640 
#    y 0.015320 1.763350 0.008120 
#    z 0.011640 0.008120 1.773440 
# 
# From -- ./inp_files/330666.got.cif
#   From: 2010.06.25/outbox.cif.g09.slc.cpg/sg2_166_cif.got.tgz:330666.got - 2010.06.27 13:26:56.
