data_PCOD8001844
_publ_section_title
;
Structure prediction by ZEFSAII (Michael W. Deem and Ramdas Pophale) SiO2 
 PCOD8001844
Probable space group: P -1
;
_chemical_formula_sum "Si O2"
_cell_formula_units_Z 16
_cell_length_a 15.538296
_cell_length_b 20.578276
_cell_length_c 9.374114
_cell_angle_alpha 36.379854
_cell_angle_beta 36.093916
_cell_angle_gamma 27.718831
_cell_volume 775.989445
_symmetry_space_group_name_H-M "P -1"
_symmetry_group_IT_number 2
_symmetry_cell_setting 'triclinic'
loop_
_space_group_symop_operation_xyz
x,y,z
-x,-y,-z
loop_
_atom_site_type_symbol
_atom_site_label
_atom_site_fract_x
_atom_site_fract_y
_atom_site_fract_z
Si Si1 0.977114 0.617129 0.472887
Si Si2 0.540077 0.352609 0.729789
Si Si3 0.950975 0.647110 0.770460
Si Si4 0.059681 0.767559 0.617603
Si Si5 0.591050 0.931582 0.343326
Si Si6 0.389963 0.955465 0.301257
Si Si7 0.809843 0.471293 0.922639
Si Si8 0.481160 0.190331 0.884742
O O1 0.002951 0.655720 0.524998
O O2 0.792703 0.764029 0.380190
O O3 0.950472 0.499824 0.735436
O O4 0.172751 0.543264 0.247075
O O5 0.500000 0.500000 0.500000
O O6 0.777556 0.220384 0.659352
O O7 0.467775 0.313436 0.764317
O O8 0.414123 0.385358 0.981873
O O9 0.088100 0.655605 0.664846
O O10 0.720456 0.779344 0.880597
O O11 0.000000 0.500000 0.000000
O O12 0.108556 0.685512 0.848614
O O13 0.845298 0.927596 0.609541
O O14 0.452887 0.922759 0.441380
O O15 0.500000 0.000000 0.500000
O O16 0.634848 0.028710 0.040835
O O17 0.466025 0.816528 0.342023
O O18 0.500000 0.000000 0.000000
#
# Coordination Sequence:
#
# PCOD8001844 Si02
#       8
#     2   2   2   2   2   2   2   2
#     4  11  21  33  59  89 119 151 198 250 304 347
#     4  10  21  39  58  85 123 164 199 243 302 361
#     4  12  20  35  59  91 115 150 202 251 297 347
#     4  11  20  37  61  85 121 157 201 246 296 352
#     4  11  19  34  58  88 123 154 192 242 303 352
#     4  10  20  34  57  88 118 150 199 252 284 343
#     4  10  20  36  56  87 117 156 199 246 296 354
#     4  11  21  37  58  86 123 152 203 245 296 352
#
# _framework density 20.618836000000002
#
# number of rings (size 3 to 8) (size 9 to 14) (size 15 to 20)
#    0.000    1.250    6.250    2.250    0.000    0.500 
#    0.000    0.625    0.000   11.250    0.000    0.000 
#    0.000    0.000    0.000    0.000    0.000    0.000 
#
# Total GULP energy -198230.463968 kJ/mol
# GULP energy per Si atom -12389.403998 kJ/mol
# Density = 2.057191 g / cm^3
# Si number density = 20.618836 Si / 1000 Ang^3
#
#
#
# Elastic Constant Matrix: (Units=GPa)
#
#
# Indices 1 2 3 4 5 6 
#
# 1 95.9911 33.2670 43.9015 25.1432 17.4120 17.4760
# 2 33.2670 79.3910 32.1988 26.5451 13.4206 13.3391
# 3 43.9015 32.1988 76.7258 29.5203 13.5524 4.8243
# 4 25.1432 26.5451 29.5203 47.5190 6.0871 2.3636
# 5 17.4120 13.4206 13.5524 6.0871 33.5824 7.1500
# 6 17.4760 13.3391 4.8243 2.3636 7.1500 34.4482
#
#
#
# Elastic Compliance Matrix: (Units=1/GPa)
#
#
# Indices 1 2 3 4 5 6 
#
# 1 0.016490 -0.001672 -0.006627 -0.002944 -0.003422 -0.005878
# 2 -0.001672 0.018102 -0.003316 -0.006571 -0.002847 -0.004655
# 3 -0.006627 -0.003316 0.021593 -0.007793 -0.003138 0.002808
# 4 -0.002944 -0.006571 -0.007793 0.030832 0.001116 0.002782
# 5 -0.003422 -0.002847 -0.003138 0.001116 0.034601 -0.003980
# 6 -0.005878 -0.004655 0.002808 0.002782 -0.003980 0.034056
#
#
# Mechanical properties :
#
#
# Convention : Reuss Voigt Hill
#
# Bulk Modulus (GPa) = 30.34476 52.31584 41.33030
# Shear Modulus (GPa) = 26.33117 32.62594 29.47855
#
# Velocity S-wave (km/s) = 3.57745 3.98217 3.78523
# Velocity P-wave (km/s) = 5.64032 6.82433 6.26038
#
# Compressibility (1/GPa) = 0.03295462
#
# Stress axis : x y z
#
# Youngs Moduli (GPa) = 60.64380 55.24281 46.31087
#
# Poissons Ratio (x) = 0.09234 0.30691
# Poissons Ratio (y) = 0.10137 0.15358
# Poissons Ratio (z) = 0.40189 0.18321
#
# Static dielectric constant tensor:
#      x y z
#    x 4.200500 0.774510 0.338690 
#    y 0.774510 8.249330 1.604930 
#    z 0.338690 1.604930 4.105370 
# 
# 
# High freq. dielectric constant tensor:
#      x y z
#    x 1.796570 0.019290 0.017060 
#    y 0.019290 1.818720 0.014650 
#    z 0.017060 0.014650 1.771830 
# 
# From -- ./inp_files/270294.got.cif
#   From: 2010.06.25/outbox.cif.g09.slc.cpg/sg2_136_cif.got.tgz:270294.got - 2010.06.27 13:26:56.
