data_PCOD8001907
_publ_section_title
;
Structure prediction by ZEFSAII (Michael W. Deem and Ramdas Pophale) SiO2 
 PCOD8001907
Probable space group: P -1
;
_chemical_formula_sum "Si O2"
_cell_formula_units_Z 16
_cell_length_a 10.798420
_cell_length_b 9.183398
_cell_length_c 16.461643
_cell_angle_alpha 35.493605
_cell_angle_beta 89.105613
_cell_angle_gamma 72.024652
_cell_volume 815.356946
_symmetry_space_group_name_H-M "P -1"
_symmetry_group_IT_number 2
_symmetry_cell_setting 'triclinic'
loop_
_space_group_symop_operation_xyz
x,y,z
-x,-y,-z
loop_
_atom_site_type_symbol
_atom_site_label
_atom_site_fract_x
_atom_site_fract_y
_atom_site_fract_z
Si Si1 0.877732 0.147063 0.814433
Si Si2 0.173809 0.407125 0.663942
Si Si3 0.162554 0.253860 0.462244
Si Si4 0.675508 0.083932 0.239885
Si Si5 0.879890 0.021178 0.554412
Si Si6 0.876976 0.788539 0.830575
Si Si7 0.658973 0.571681 0.912173
Si Si8 0.807611 0.078350 0.019826
O O1 0.798045 0.494902 0.650948
O O2 0.840420 0.046276 0.777148
O O3 0.814234 0.064570 0.929351
O O4 0.047468 0.997574 0.898045
O O5 0.227579 0.636105 0.578121
O O6 0.001041 0.609480 0.567089
O O7 0.237167 0.232645 0.659630
O O8 0.228602 0.170464 0.843337
O O9 0.269516 0.976510 0.641327
O O10 0.193853 0.127238 0.427467
O O11 0.508077 0.194222 0.184432
O O12 0.710305 0.322321 0.094556
O O13 0.933748 0.846331 0.718598
O O14 0.000000 0.000000 0.500000
O O15 0.739026 0.754356 0.834165
O O16 0.000000 0.500000 0.000000
O O17 0.688033 0.401310 0.903488
#
# Coordination Sequence:
#
# PCOD8001907 Si02
#       8
#     2   2   2   2   2   2   2   2
#     4  10  20  34  59  88 118 151 200 244 305 344
#     4   9  19  34  60  84 120 152 206 245 298 347
#     4  10  20  35  60  85 117 157 205 247 297 351
#     4  10  21  39  61  86 121 167 196 251 293 368
#     4  10  23  37  58  94 123 150 203 252 302 351
#     4  12  24  36  61  90 123 158 196 251 298 356
#     4  10  22  39  59  89 124 157 208 238 307 357
#     4   9  18  35  57  85 118 156 195 252 287 361
#
# _framework density 19.623308000000002
#
# number of rings (size 3 to 8) (size 9 to 14) (size 15 to 20)
#    0.000    2.000    1.250    1.875    8.750    0.000 
#    0.000    6.250    0.000    4.500    0.000    0.000 
#    0.000    0.000    0.000    0.000    0.000    0.000 
#
# Total GULP energy -198303.968759 kJ/mol
# GULP energy per Si atom -12393.998047 kJ/mol
# Density = 1.957864 g / cm^3
# Si number density = 19.623308 Si / 1000 Ang^3
#
#
#
# Elastic Constant Matrix: (Units=GPa)
#
#
# Indices 1 2 3 4 5 6 
#
# 1 49.1760 30.6087 31.1262 0.2699 -12.4662 6.1362
# 2 30.6087 127.9552 72.8547 10.0496 -8.6848 26.4339
# 3 31.1262 72.8547 109.4355 11.4043 -11.1149 10.7693
# 4 0.2699 10.0496 11.4043 41.5108 0.1116 -9.2124
# 5 -12.4662 -8.6848 -11.1149 0.1116 25.3130 -3.8476
# 6 6.1362 26.4339 10.7693 -9.2124 -3.8476 22.9686
#
#
#
# Elastic Compliance Matrix: (Units=1/GPa)
#
#
# Indices 1 2 3 4 5 6 
#
# 1 0.028274 -0.003906 -0.004805 0.002497 0.010767 0.002000
# 2 -0.003906 0.017576 -0.008441 -0.005894 -0.002306 -0.017977
# 3 -0.004805 -0.008441 0.016235 -0.001705 0.002344 0.003095
# 4 0.002497 -0.005894 -0.001705 0.030239 0.001252 0.019254
# 5 0.010767 -0.002306 0.002344 0.001252 0.046090 0.006901
# 6 0.002000 -0.017977 0.003095 0.019254 0.006901 0.071120
#
#
# Mechanical properties :
#
#
# Convention : Reuss Voigt Hill
#
# Bulk Modulus (GPa) = 35.99552 61.74956 48.87254
# Shear Modulus (GPa) = 19.75532 28.09030 23.92281
#
# Velocity S-wave (km/s) = 3.17634 3.78759 3.49535
# Velocity P-wave (km/s) = 5.64227 7.11783 6.42257
#
# Compressibility (1/GPa) = 0.02778124
#
# Stress axis : x y z
#
# Youngs Moduli (GPa) = 35.36821 56.89676 61.59586
#
# Poissons Ratio (x) = 0.22226 0.29595
# Poissons Ratio (y) = 0.13816 0.51991
# Poissons Ratio (z) = 0.16993 0.48025
#
# Static dielectric constant tensor:
#      x y z
#    x 3.382730 0.215740 -0.340530 
#    y 0.215740 4.068650 -0.137870 
#    z -0.340530 -0.137870 3.681090 
# 
# 
# High freq. dielectric constant tensor:
#      x y z
#    x 1.719050 0.005250 -0.027320 
#    y 0.005250 1.777990 -0.002920 
#    z -0.027320 -0.002920 1.771520 
# 
# From -- ./inp_files/281793.got.cif
#   From: 2010.06.25/outbox.cif.g09.slc.cpg/sg2_141_cif.got.tgz:281793.got - 2010.06.27 13:26:56.
