data_PCOD8001311
_publ_section_title
;
Structure prediction by ZEFSAII (Michael W. Deem and Ramdas Pophale) SiO2 
 PCOD8001311
Probable space group: P -1
;
_chemical_formula_sum "Si O2"
_cell_formula_units_Z 14
_cell_length_a 12.183897
_cell_length_b 23.691210
_cell_length_c 5.391600
_cell_angle_alpha 73.537238
_cell_angle_beta 97.500255
_cell_angle_gamma 40.798777
_cell_volume 814.020348
_symmetry_space_group_name_H-M "P -1"
_symmetry_group_IT_number 2
_symmetry_cell_setting 'triclinic'
loop_
_space_group_symop_operation_xyz
x,y,z
-x,-y,-z
loop_
_atom_site_type_symbol
_atom_site_label
_atom_site_fract_x
_atom_site_fract_y
_atom_site_fract_z
Si Si1 0.362781 0.093536 0.644232
Si Si2 0.221458 0.873724 0.232462
Si Si3 0.064336 0.701735 0.615990
Si Si4 0.231799 0.917126 0.681459
Si Si5 0.894323 0.204072 0.752306
Si Si6 0.265984 0.616152 0.288952
Si Si7 0.714091 0.982472 0.602714
O O1 0.496217 0.081707 0.549343
O O2 0.172140 0.211428 0.563604
O O3 0.265190 0.089356 0.434694
O O4 0.500000 0.000000 0.000000
O O5 0.335243 0.847531 0.544197
O O6 0.225827 0.801308 0.343081
O O7 0.334092 0.843976 0.049208
O O8 0.000000 0.000000 0.000000
O O9 0.081516 0.765749 0.522491
O O10 0.166892 0.628397 0.488711
O O11 0.171756 0.632438 0.986117
O O12 0.260761 0.974693 0.634645
O O13 0.000000 0.000000 0.500000
O O14 0.775437 0.295041 0.813307
O O15 0.114443 0.087705 0.053591
O O16 0.500000 0.500000 0.500000
#
# Coordination Sequence:
#
# PCOD8001311 Si02
#       7
#     2   2   2   2   2   2   2
#     4  11  21  31  49  72 106 149 180 200 244 311
#     4  10  20  29  47  71  97 138 166 204 254 299
#     4  10  21  33  52  71 105 135 170 212 254 307
#     4  10  21  30  47  67 101 137 174 204 246 288
#     4  10  20  31  53  71 106 139 167 210 257 307
#     4  10  21  35  53  73 101 135 172 221 267 307
#     4  11  21  33  46  73 108 149 174 206 244 309
#
# _framework density 17.198587
#
# number of rings (size 3 to 8) (size 9 to 14) (size 15 to 20)
#    0.857    0.857    5.714    0.429   10.000    0.000 
#    0.000    0.000    0.000    0.000    0.000    0.000 
#    0.000    6.857    0.000    0.000    0.000    0.000 
#
# Total GULP energy -173460.984057 kJ/mol
# GULP energy per Si atom -12390.070290 kJ/mol
# Density = 1.715944 g / cm^3
# Si number density = 17.198587 Si / 1000 Ang^3
#
#
#
# Elastic Constant Matrix: (Units=GPa)
#
#
# Indices 1 2 3 4 5 6 
#
# 1 76.5631 16.9943 5.8937 -0.6153 -4.9839 -11.6448
# 2 16.9943 88.8864 40.9907 6.0213 1.0315 -24.4617
# 3 5.8937 40.9907 84.3297 13.7552 -1.0499 -17.9009
# 4 -0.6153 6.0213 13.7552 37.9462 -7.4222 2.2399
# 5 -4.9839 1.0315 -1.0499 -7.4222 14.4483 4.3125
# 6 -11.6448 -24.4617 -17.9009 2.2399 4.3125 26.6827
#
#
#
# Elastic Compliance Matrix: (Units=1/GPa)
#
#
# Indices 1 2 3 4 5 6 
#
# 1 0.014383 -0.002101 0.000793 0.000900 0.004409 0.004095
# 2 -0.002101 0.018259 -0.005320 -0.003453 -0.008334 0.013889
# 3 0.000793 -0.005320 0.017152 -0.006612 -0.003934 0.008166
# 4 0.000900 -0.003453 -0.006612 0.034381 0.021803 -0.013618
# 5 0.004409 -0.008334 -0.003934 0.021803 0.089606 -0.024668
# 6 0.004095 0.013889 0.008166 -0.013618 -0.024668 0.062607
#
#
# Mechanical properties :
#
#
# Convention : Reuss Voigt Hill
#
# Bulk Modulus (GPa) = 27.36877 41.94853 34.65865
# Shear Modulus (GPa) = 19.09690 28.20880 23.65285
#
# Velocity S-wave (km/s) = 3.33585 4.05431 3.71250
# Velocity P-wave (km/s) = 5.54843 6.80883 6.21069
#
# Compressibility (1/GPa) = 0.03653799
#
# Stress axis : x y z
#
# Youngs Moduli (GPa) = 69.52411 54.76890 58.30242
#
# Poissons Ratio (x) = 0.11507 -0.04626
# Poissons Ratio (y) = 0.14607 0.31020
# Poissons Ratio (z) = -0.05516 0.29140
#
# Static dielectric constant tensor:
#      x y z
#    x 2.832580 -0.061410 0.146190 
#    y -0.061410 3.421160 0.504340 
#    z 0.146190 0.504340 3.148780 
# 
# 
# High freq. dielectric constant tensor:
#      x y z
#    x 1.637140 -0.017580 -0.005860 
#    y -0.017580 1.648790 0.040130 
#    z -0.005860 0.040130 1.643190 
# 
# From -- ./inp_files/79380.got.cif
#   From: 2010.06.25/outbox.cif.g09.slc.cpg/sg2_40_cif.got.tgz:79380.got - 2010.06.27 13:26:56.
