data_PCOD8001464
_publ_section_title
;
Structure prediction by ZEFSAII (Michael W. Deem and Ramdas Pophale) SiO2 
 PCOD8001464
Probable space group: P -1
;
_chemical_formula_sum "Si O2"
_cell_formula_units_Z 14
_cell_length_a 9.667974
_cell_length_b 17.420638
_cell_length_c 8.341018
_cell_angle_alpha 121.604262
_cell_angle_beta 30.244211
_cell_angle_gamma 106.461647
_cell_volume 553.698285
_symmetry_space_group_name_H-M "P -1"
_symmetry_group_IT_number 2
_symmetry_cell_setting 'triclinic'
loop_
_space_group_symop_operation_xyz
x,y,z
-x,-y,-z
loop_
_atom_site_type_symbol
_atom_site_label
_atom_site_fract_x
_atom_site_fract_y
_atom_site_fract_z
Si Si1 0.210469 0.660819 0.330092
Si Si2 0.881333 0.577399 0.346025
Si Si3 0.577772 0.690424 0.495176
Si Si4 0.754598 0.115495 0.124207
Si Si5 0.206796 0.589345 0.600646
Si Si6 0.453702 0.206626 0.856784
Si Si7 0.425140 0.993558 0.382503
O O1 0.156813 0.592415 0.172449
O O2 0.301673 0.601939 0.339895
O O3 0.461089 0.702609 0.070077
O O4 0.900411 0.754840 0.769794
O O5 0.670537 0.677980 0.577070
O O6 0.721792 0.527759 0.576361
O O7 0.000000 0.500000 0.000000
O O8 0.362990 0.804186 0.810259
O O9 0.398358 0.621798 0.569106
O O10 0.858385 0.656201 0.054829
O O11 0.620753 0.169408 0.482541
O O12 0.659562 0.024304 0.081884
O O13 0.108234 0.073917 0.736085
O O14 0.548583 0.117361 0.794019
O O15 0.500000 0.000000 0.500000
#
# Coordination Sequence:
#
# PCOD8001464 Si02
#       7
#     2   2   2   2   2   2   2
#     4  12  22  39  64  90 125 160 203 260 301 356
#     4  10  26  44  63  89 123 166 208 251 310 369
#     4  11  22  39  63  89 126 161 204 250 301 370
#     4  11  18  35  59  90 126 159 198 243 304 359
#     4  11  21  41  62  90 120 159 209 258 299 356
#     4  11  21  36  59  94 125 154 203 250 312 350
#     4  10  20  32  58  92 128 155 193 253 300 357
#
# _framework density 25.28453
#
# number of rings (size 3 to 8) (size 9 to 14) (size 15 to 20)
#    0.000    1.143    2.857    6.000    0.000    4.571 
#    0.000    5.000    0.000    5.143    0.000    0.000 
#    0.000    0.000    0.000    0.000    0.000    0.000 
#
# Total GULP energy -173601.857946 kJ/mol
# GULP energy per Si atom -12400.132710 kJ/mol
# Density = 2.522698 g / cm^3
# Si number density = 25.284530 Si / 1000 Ang^3
#
#
#
# Elastic Constant Matrix: (Units=GPa)
#
#
# Indices 1 2 3 4 5 6 
#
# 1 91.8370 62.9689 4.5995 -12.3965 -10.9111 -15.9244
# 2 62.9689 206.1468 15.6277 -6.0302 -11.5394 -7.8421
# 3 4.5995 15.6277 42.4890 -8.0981 -20.8081 -9.0244
# 4 -12.3965 -6.0302 -8.0981 33.1314 8.8752 -14.7979
# 5 -10.9111 -11.5394 -20.8081 8.8752 37.7682 3.2719
# 6 -15.9244 -7.8421 -9.0244 -14.7979 3.2719 45.6812
#
#
#
# Elastic Compliance Matrix: (Units=1/GPa)
#
#
# Indices 1 2 3 4 5 6 
#
# 1 0.017364 -0.004877 0.005491 0.010250 0.003330 0.009382
# 2 -0.004877 0.006403 -0.002761 -0.002039 -0.000340 -0.001783
# 3 0.005491 -0.002761 0.036974 0.010765 0.017633 0.010969
# 4 0.010250 -0.002039 0.010765 0.046798 -0.004533 0.020834
# 5 0.003330 -0.000340 0.017633 -0.004533 0.038082 0.000390
# 6 0.009382 -0.001783 0.010969 0.020834 0.000390 0.033743
#
#
# Mechanical properties :
#
#
# Convention : Reuss Voigt Hill
#
# Bulk Modulus (GPa) = 17.71555 56.31835 37.01695
# Shear Modulus (GPa) = 24.69461 40.46793 32.58127
#
# Velocity S-wave (km/s) = 3.12856 4.00497 3.59358
# Velocity P-wave (km/s) = 4.48020 6.61124 5.64716
#
# Compressibility (1/GPa) = 0.05644759
#
# Stress axis : x y z
#
# Youngs Moduli (GPa) = 57.59042 156.16555 27.04634
#
# Poissons Ratio (x) = 0.76163 -0.14852
# Poissons Ratio (y) = 0.28087 0.07468
# Poissons Ratio (z) = -0.31626 0.43119
#
# Static dielectric constant tensor:
#      x y z
#    x 4.513150 -0.204880 -0.195190 
#    y -0.204880 5.715900 0.037100 
#    z -0.195190 0.037100 4.691810 
# 
# 
# High freq. dielectric constant tensor:
#      x y z
#    x 1.990330 -0.005200 -0.021920 
#    y -0.005200 2.033750 0.001970 
#    z -0.021920 0.001970 2.013530 
# 
# From -- ./inp_files/74106.got.cif
#   From: 2010.06.25/outbox.cif.g09.slc.cpg/sg2_38_cif.got.tgz:74106.got - 2010.06.27 13:26:56.
