data_PCOD8001142
_publ_section_title
;
Structure prediction by ZEFSAII (Michael W. Deem and Ramdas Pophale) SiO2 
 PCOD8001142
Probable space group: P -1
;
_chemical_formula_sum "Si O2"
_cell_formula_units_Z 16
_cell_length_a 9.356248
_cell_length_b 8.388917
_cell_length_c 26.567999
_cell_angle_alpha 42.103672
_cell_angle_beta 142.168342
_cell_angle_gamma 110.728461
_cell_volume 707.965029
_symmetry_space_group_name_H-M "P -1"
_symmetry_group_IT_number 2
_symmetry_cell_setting 'triclinic'
loop_
_space_group_symop_operation_xyz
x,y,z
-x,-y,-z
loop_
_atom_site_type_symbol
_atom_site_label
_atom_site_fract_x
_atom_site_fract_y
_atom_site_fract_z
Si Si1 0.200409 0.483458 0.515458
Si Si2 0.647675 0.839518 0.802061
Si Si3 0.411672 0.742401 0.975321
Si Si4 0.019775 0.373204 0.690560
Si Si5 0.604722 0.675850 0.593373
Si Si6 0.839532 0.584867 0.014458
Si Si7 0.464471 0.633384 0.130621
Si Si8 0.938316 0.747859 0.098841
O O1 0.039475 0.606060 0.389871
O O2 0.332812 0.661921 0.525118
O O3 0.000000 0.500000 0.500000
O O4 0.449585 0.155161 0.651236
O O5 0.661772 0.854764 0.863425
O O6 0.536185 0.647830 0.798106
O O7 0.959249 0.695494 0.899346
O O8 0.371353 0.494342 0.002108
O O9 0.491762 0.703465 0.065086
O O10 0.672570 0.723788 0.027256
O O11 0.127444 0.054576 0.812928
O O12 0.743648 0.593043 0.595868
O O13 0.258169 0.436969 0.747094
O O14 0.828475 0.458294 0.748007
O O15 0.500000 0.000000 0.500000
O O16 0.032179 0.636490 0.093353
O O17 0.173332 0.919116 0.004012
#
# Coordination Sequence:
#
# PCOD8001142 Si02
#       8
#     2   2   2   2   2   2   2   2
#     4  12  31  48  68  99 145 193 230 280 348 428
#     4  10  25  45  63  94 144 184 223 270 357 412
#     4  10  19  41  70 100 129 170 230 289 336 394
#     4  11  23  46  73  97 139 183 238 281 350 407
#     4  12  28  46  72 103 142 182 237 288 342 419
#     4  10  23  38  68  99 135 176 223 289 341 410
#     4  10  21  42  73 100 131 174 225 295 334 404
#     4  11  22  39  68 105 128 164 233 288 343 387
#
# _framework density 22.599986000000001
#
# number of rings (size 3 to 8) (size 9 to 14) (size 15 to 20)
#    0.000    1.250    2.500    2.250   12.250    2.000 
#    0.000    0.000    0.000    0.000    0.000    0.000 
#    0.000    0.000    0.000    0.000    0.000    0.000 
#
# Total GULP energy -198348.295184 kJ/mol
# GULP energy per Si atom -12396.768449 kJ/mol
# Density = 2.254855 g / cm^3
# Si number density = 22.599986 Si / 1000 Ang^3
#
#
#
# Elastic Constant Matrix: (Units=GPa)
#
#
# Indices 1 2 3 4 5 6 
#
# 1 69.1799 29.1958 17.9101 4.6090 -2.7927 2.9459
# 2 29.1958 131.7098 48.1452 9.4458 -19.3124 -1.6879
# 3 17.9101 48.1452 90.1588 0.9268 -2.3960 5.4727
# 4 4.6090 9.4458 0.9268 27.8211 0.3521 -3.0217
# 5 -2.7927 -19.3124 -2.3960 0.3521 25.4520 1.0921
# 6 2.9459 -1.6879 5.4727 -3.0217 1.0921 37.8334
#
#
#
# Elastic Compliance Matrix: (Units=1/GPa)
#
#
# Indices 1 2 3 4 5 6 
#
# 1 0.016277 -0.003020 -0.001539 -0.001754 -0.000570 -0.001303
# 2 -0.003020 0.011679 -0.005454 -0.003270 0.008017 0.001053
# 3 -0.001539 -0.005454 0.014339 0.001448 -0.002892 -0.001999
# 4 -0.001754 -0.003270 0.001448 0.037650 -0.003182 0.002880
# 5 -0.000570 0.008017 -0.002892 -0.003182 0.045114 -0.000736
# 6 -0.001303 0.001053 -0.001999 0.002880 -0.000736 0.027120
#
#
# Mechanical properties :
#
#
# Convention : Reuss Voigt Hill
#
# Bulk Modulus (GPa) = 44.90351 53.50562 49.20457
# Shear Modulus (GPa) = 27.83517 31.27446 29.55481
#
# Velocity S-wave (km/s) = 3.51329 3.72402 3.62019
# Velocity P-wave (km/s) = 6.03072 6.49750 6.26846
#
# Compressibility (1/GPa) = 0.02226997
#
# Stress axis : x y z
#
# Youngs Moduli (GPa) = 61.43491 85.62267 69.73873
#
# Poissons Ratio (x) = 0.25860 0.10731
# Poissons Ratio (y) = 0.18555 0.38035
# Poissons Ratio (z) = 0.09453 0.46698
#
# Static dielectric constant tensor:
#      x y z
#    x 4.197310 -0.064590 0.010460 
#    y -0.064590 4.242780 0.056340 
#    z 0.010460 0.056340 3.958370 
# 
# 
# High freq. dielectric constant tensor:
#      x y z
#    x 1.904780 -0.001070 -0.004620 
#    y -0.001070 1.910960 0.006110 
#    z -0.004620 0.006110 1.876350 
# 
# From -- ./inp_files/616778.got.cif
#   From: 2010.06.25/outbox.cif.g09.slc.cpg/sg2_309_cif.got.tgz:616778.got - 2010.06.27 13:26:56.
