data_PCOD8001651
_publ_section_title
;
Structure prediction by ZEFSAII (Michael W. Deem and Ramdas Pophale) SiO2 
 PCOD8001651
Probable space group: P -1
;
_chemical_formula_sum "Si O2"
_cell_formula_units_Z 16
_cell_length_a 9.394143
_cell_length_b 5.293477
_cell_length_c 16.405443
_cell_angle_alpha 74.607673
_cell_angle_beta 106.502600
_cell_angle_gamma 74.315782
_cell_volume 699.412970
_symmetry_space_group_name_H-M "P -1"
_symmetry_group_IT_number 2
_symmetry_cell_setting 'triclinic'
loop_
_space_group_symop_operation_xyz
x,y,z
-x,-y,-z
loop_
_atom_site_type_symbol
_atom_site_label
_atom_site_fract_x
_atom_site_fract_y
_atom_site_fract_z
Si Si1 0.104567 0.874137 0.144687
Si Si2 0.227355 0.378150 0.088935
Si Si3 0.184748 0.634358 0.888697
Si Si4 0.161550 0.565305 0.337518
Si Si5 0.172653 0.359906 0.755409
Si Si6 0.200158 0.838860 0.628771
Si Si7 0.826088 0.042067 0.565084
Si Si8 0.592795 0.183801 0.186372
O O1 0.112744 0.680123 0.083103
O O2 0.208965 0.653907 0.249297
O O3 0.172142 0.121735 0.120759
O O4 0.919550 0.041931 0.128273
O O5 0.404735 0.304675 0.158348
O O6 0.221216 0.418121 0.987666
O O7 0.091829 0.544576 0.807931
O O8 0.353106 0.597007 0.875181
O O9 0.207262 0.228782 0.383349
O O10 0.968242 0.722937 0.299576
O O11 0.247847 0.691291 0.408436
O O12 0.231100 0.515866 0.680652
O O13 0.334874 0.102308 0.830519
O O14 0.312829 0.920217 0.703653
O O15 0.010606 0.006303 0.592592
O O16 0.256573 0.877881 0.543589
#
# Coordination Sequence:
#
# PCOD8001651 Si02
#       8
#     2   2   2   2   2   2   2   2
#     4  12  25  46  66  94 131 174 221 271 319 381
#     4  12  29  42  67  98 132 172 221 270 323 385
#     4  11  24  44  68  95 127 177 222 269 316 387
#     4  11  20  39  62  94 122 168 212 268 316 375
#     4  10  20  36  67  93 133 168 211 265 328 379
#     4   9  20  34  58  98 133 163 203 273 325 376
#     4  10  20  33  64 100 124 158 220 265 315 381
#     4  11  23  42  66  95 137 172 209 270 333 384
#
# _framework density 22.876328999999998
#
# number of rings (size 3 to 8) (size 9 to 14) (size 15 to 20)
#    0.000    1.250    2.500    4.125    7.000    2.000 
#    0.000    0.000    0.000    4.500    0.000    0.000 
#    0.000    0.000    0.000    0.000    0.000    0.000 
#
# Total GULP energy -198230.482500 kJ/mol
# GULP energy per Si atom -12389.405156 kJ/mol
# Density = 2.282426 g / cm^3
# Si number density = 22.876329 Si / 1000 Ang^3
#
#
#
# Elastic Constant Matrix: (Units=GPa)
#
#
# Indices 1 2 3 4 5 6 
#
# 1 52.1618 18.0800 15.8748 -1.1584 11.4904 5.0887
# 2 18.0800 115.8398 42.5952 1.2964 -5.7439 18.9769
# 3 15.8748 42.5952 139.3840 -5.9528 -11.9099 20.0130
# 4 -1.1584 1.2964 -5.9528 21.7755 1.6655 -1.3789
# 5 11.4904 -5.7439 -11.9099 1.6655 18.0278 -7.6441
# 6 5.0887 18.9769 20.0130 -1.3789 -7.6441 27.0865
#
#
#
# Elastic Compliance Matrix: (Units=1/GPa)
#
#
# Indices 1 2 3 4 5 6 
#
# 1 0.027104 -0.003133 -0.003014 0.002147 -0.023514 -0.007197
# 2 -0.003133 0.010844 -0.002150 -0.001873 0.002120 -0.004917
# 3 -0.003014 -0.002150 0.009180 0.001840 0.005876 -0.002958
# 4 0.002147 -0.001873 0.001840 0.047060 -0.004853 0.000575
# 5 -0.023514 0.002120 0.005876 -0.004853 0.084923 0.022310
# 6 -0.007197 -0.004917 -0.002958 0.000575 0.022310 0.050227
#
#
# Mechanical properties :
#
#
# Convention : Reuss Voigt Hill
#
# Bulk Modulus (GPa) = 32.74974 51.16504 41.95739
# Shear Modulus (GPa) = 19.52296 28.76700 24.14498
#
# Velocity S-wave (km/s) = 2.92449 3.54997 3.25230
# Velocity P-wave (km/s) = 5.07451 6.26239 5.69948
#
# Compressibility (1/GPa) = 0.03053459
#
# Stress axis : x y z
#
# Youngs Moduli (GPa) = 36.89501 92.21891 108.93121
#
# Poissons Ratio (x) = 0.28894 0.32828
# Poissons Ratio (y) = 0.11560 0.23418
# Poissons Ratio (z) = 0.11119 0.19825
#
# Static dielectric constant tensor:
#      x y z
#    x 3.695490 0.126190 -0.180660 
#    y 0.126190 4.244960 0.006140 
#    z -0.180660 0.006140 4.279640 
# 
# 
# High freq. dielectric constant tensor:
#      x y z
#    x 1.856290 0.021470 -0.019370 
#    y 0.021470 1.909800 0.001620 
#    z -0.019370 0.001620 1.913430 
# 
# From -- ./inp_files/90986.got.cif
#   From: 2010.06.25/outbox.cif.g09.slc.cpg/sg2_46_cif.got.tgz:90986.got - 2010.06.27 13:26:56.
