data_PCOD8001491
_publ_section_title
;
Structure prediction by ZEFSAII (Michael W. Deem and Ramdas Pophale) SiO2 
 PCOD8001491
Probable space group: P -1
;
_chemical_formula_sum "Si O2"
_cell_formula_units_Z 16
_cell_length_a 13.994700
_cell_length_b 9.276049
_cell_length_c 22.715467
_cell_angle_alpha 123.512803
_cell_angle_beta 156.928410
_cell_angle_gamma 52.380401
_cell_volume 914.892001
_symmetry_space_group_name_H-M "P -1"
_symmetry_group_IT_number 2
_symmetry_cell_setting 'triclinic'
loop_
_space_group_symop_operation_xyz
x,y,z
-x,-y,-z
loop_
_atom_site_type_symbol
_atom_site_label
_atom_site_fract_x
_atom_site_fract_y
_atom_site_fract_z
Si Si1 0.973749 0.399742 0.879511
Si Si2 0.416228 0.254057 0.425990
Si Si3 0.587112 0.602223 0.421690
Si Si4 0.096242 0.643968 0.295562
Si Si5 0.923450 0.775887 0.983114
Si Si6 0.593525 0.114947 0.716723
Si Si7 0.626224 0.990741 0.320478
Si Si8 0.980272 0.236483 0.594583
O O1 0.665138 0.451659 0.717417
O O2 0.076707 0.326903 0.855651
O O3 0.045346 0.579372 0.977311
O O4 0.100045 0.243914 0.963909
O O5 0.361280 0.272535 0.468717
O O6 0.233644 0.427449 0.327080
O O7 0.706887 0.241381 0.573279
O O8 0.361897 0.073646 0.334090
O O9 0.557246 0.711090 0.368601
O O10 0.823262 0.416363 0.509946
O O11 0.942540 0.715099 0.284991
O O12 0.644729 0.874814 0.822807
O O13 0.120815 0.885189 0.104949
O O14 0.420194 0.130290 0.679564
O O15 0.754595 0.857038 0.309798
O O16 0.810109 0.102037 0.472051
#
# Coordination Sequence:
#
# PCOD8001491 Si02
#       8
#     2   2   2   2   2   2   2   2
#     4   9  17  32  55  78 101 133 172 206 259 304
#     4   9  16  28  51  81 104 125 165 215 262 298
#     4   9  18  32  53  78 105 130 165 218 260 292
#     4   9  16  31  54  75 100 133 173 212 247 297
#     4  10  20  33  51  78 109 133 162 213 256 308
#     4  11  20  31  52  81 106 131 163 216 261 300
#     4  11  21  34  51  75 105 137 177 205 248 306
#     4  10  20  35  54  72 102 140 173 213 243 301
#
# _framework density 17.488403000000002
#
# number of rings (size 3 to 8) (size 9 to 14) (size 15 to 20)
#    0.000    2.250    2.500    2.250    0.000    0.500 
#    0.000    0.625    0.000    6.750    0.000    0.000 
#    0.000    0.000    0.000    0.000    0.000    0.000 
#
# Total GULP energy -198359.711500 kJ/mol
# GULP energy per Si atom -12397.481969 kJ/mol
# Density = 1.744860 g / cm^3
# Si number density = 17.488403 Si / 1000 Ang^3
#
#
#
# Elastic Constant Matrix: (Units=GPa)
#
#
# Indices 1 2 3 4 5 6 
#
# 1 116.4584 37.2175 31.1843 -2.2635 -16.7895 3.9454
# 2 37.2175 61.2523 14.2439 14.3855 4.1395 1.8982
# 3 31.1843 14.2439 43.3284 15.7207 -4.1645 5.1863
# 4 -2.2635 14.3855 15.7207 24.9288 -0.1087 -4.7113
# 5 -16.7895 4.1395 -4.1645 -0.1087 27.3009 0.2210
# 6 3.9454 1.8982 5.1863 -4.7113 0.2210 23.4528
#
#
#
# Elastic Compliance Matrix: (Units=1/GPa)
#
#
# Indices 1 2 3 4 5 6 
#
# 1 0.019407 -0.013898 -0.016790 0.021514 0.011520 0.005786
# 2 -0.013898 0.029639 0.009293 -0.025628 -0.011668 -0.007154
# 3 -0.016790 0.009293 0.048429 -0.040613 -0.004373 -0.016754
# 4 0.021514 -0.025628 -0.040613 0.087213 0.011067 0.024851
# 5 0.011520 -0.011668 -0.004373 0.011067 0.044845 0.001774
# 6 0.005786 -0.007154 -0.016754 0.024851 0.001774 0.050925
#
#
# Mechanical properties :
#
#
# Convention : Reuss Voigt Hill
#
# Bulk Modulus (GPa) = 18.28671 42.92560 30.60616
# Shear Modulus (GPa) = 14.64228 24.36275 19.50252
#
# Velocity S-wave (km/s) = 2.89668 3.73645 3.34304
# Velocity P-wave (km/s) = 4.65476 6.57367 5.69561
#
# Compressibility (1/GPa) = 0.05468453
#
# Stress axis : x y z
#
# Youngs Moduli (GPa) = 51.52762 33.73958 20.64871
#
# Poissons Ratio (x) = 0.46892 0.34669
# Poissons Ratio (y) = 0.71613 -0.19188
# Poissons Ratio (z) = 0.86515 -0.31353
#
# Static dielectric constant tensor:
#      x y z
#    x 3.424410 0.100910 -0.290200 
#    y 0.100910 3.108810 0.124610 
#    z -0.290200 0.124610 3.132540 
# 
# 
# High freq. dielectric constant tensor:
#      x y z
#    x 1.675650 0.013170 -0.028060 
#    y 0.013170 1.666820 0.016040 
#    z -0.028060 0.016040 1.655530 
# 
# From -- ./inp_files/251993.got.cif
#   From: 2010.06.25/outbox.cif.g09.slc.cpg/sg2_126_cif.got.tgz:251993.got - 2010.06.27 13:26:56.
