data_PCOD8001419
_publ_section_title
;
Structure prediction by ZEFSAII (Michael W. Deem and Ramdas Pophale) SiO2 
 PCOD8001419
Probable space group: P -1
;
_chemical_formula_sum "Si O2"
_cell_formula_units_Z 16
_cell_length_a 8.406093
_cell_length_b 12.854613
_cell_length_c 13.728504
_cell_angle_alpha 87.197497
_cell_angle_beta 134.784324
_cell_angle_gamma 64.850068
_cell_volume 800.908967
_symmetry_space_group_name_H-M "P -1"
_symmetry_group_IT_number 2
_symmetry_cell_setting 'triclinic'
loop_
_space_group_symop_operation_xyz
x,y,z
-x,-y,-z
loop_
_atom_site_type_symbol
_atom_site_label
_atom_site_fract_x
_atom_site_fract_y
_atom_site_fract_z
Si Si1 0.585760 0.110774 0.436240
Si Si2 0.529909 0.687764 0.270412
Si Si3 0.962680 0.202508 0.602650
Si Si4 0.415960 0.051745 0.188572
Si Si5 0.093723 0.895348 0.917630
Si Si6 0.070934 0.183774 0.329865
Si Si7 0.892535 0.380080 0.409281
Si Si8 0.018824 0.156395 0.843706
O O1 0.436184 0.146246 0.263349
O O2 0.343804 0.173254 0.413703
O O3 0.745163 0.171119 0.511765
O O4 0.815645 0.946862 0.551347
O O5 0.668810 0.541886 0.291096
O O6 0.773472 0.682113 0.430282
O O7 0.291243 0.726960 0.245435
O O8 0.384318 0.795625 0.113522
O O9 0.030415 0.212082 0.743119
O O10 0.801454 0.344527 0.469593
O O11 0.262950 0.092336 0.679512
O O12 0.198067 0.031780 0.144644
O O13 0.279523 0.127516 0.022940
O O14 0.106641 0.807156 0.840135
O O15 0.076803 0.015580 0.859952
O O16 0.865821 0.316070 0.304375
#
# Coordination Sequence:
#
# PCOD8001419 Si02
#       8
#     2   2   2   2   2   2   2   2
#     4  10  20  33  56  87 116 141 182 232 282 331
#     4  10  23  41  58  79 111 155 193 221 273 331
#     4  12  21  33  55  87 117 142 181 233 285 324
#     4  10  20  32  53  83 117 140 180 229 280 326
#     4  10  20  37  61  83 108 146 189 235 278 325
#     4  10  20  36  58  86 110 148 185 227 279 330
#     4  11  23  38  58  82 115 150 188 228 266 343
#     4  11  21  36  58  83 114 147 183 235 282 326
#
# _framework density 19.977301000000001
#
# number of rings (size 3 to 8) (size 9 to 14) (size 15 to 20)
#    0.000    1.500    2.500    4.500    1.750    1.000 
#    0.000    0.000    0.000    6.750    0.000    0.000 
#    0.000    0.000    0.000    0.000    0.000    0.000 
#
# Total GULP energy -198424.248142 kJ/mol
# GULP energy per Si atom -12401.515509 kJ/mol
# Density = 1.993183 g / cm^3
# Si number density = 19.977301 Si / 1000 Ang^3
#
#
#
# Elastic Constant Matrix: (Units=GPa)
#
#
# Indices 1 2 3 4 5 6 
#
# 1 35.9185 1.2809 4.3918 -1.7081 -15.3402 0.3414
# 2 1.2809 54.2892 12.3672 1.7306 -12.1898 -8.5368
# 3 4.3918 12.3672 68.4102 8.3221 -8.1867 -1.5643
# 4 -1.7081 1.7306 8.3221 26.5553 -9.8807 -2.1024
# 5 -15.3402 -12.1898 -8.1867 -9.8807 22.0079 10.0807
# 6 0.3414 -8.5368 -1.5643 -2.1024 10.0807 20.9650
#
#
#
# Elastic Compliance Matrix: (Units=1/GPa)
#
#
# Indices 1 2 3 4 5 6 
#
# 1 0.060932 0.009830 -0.001004 0.028819 0.074142 -0.029824
# 2 0.009830 0.023674 -0.003218 0.008610 0.023091 -0.001000
# 3 -0.001004 -0.003218 0.016012 -0.004116 0.002386 -0.001659
# 4 0.028819 0.008610 -0.004116 0.060911 0.059793 -0.019913
# 5 0.074142 0.023091 0.002386 0.059793 0.168076 -0.066447
# 6 -0.029824 -0.001000 -0.001659 -0.019913 -0.066447 0.077606
#
#
# Mechanical properties :
#
#
# Convention : Reuss Voigt Hill
#
# Bulk Modulus (GPa) = 8.94178 21.63310 15.28744
# Shear Modulus (GPa) = 11.54007 23.27751 17.40879
#
# Velocity S-wave (km/s) = 2.40606 3.41720 2.95520
# Velocity P-wave (km/s) = 3.49350 5.14024 4.39469
#
# Compressibility (1/GPa) = 0.11183459
#
# Stress axis : x y z
#
# Youngs Moduli (GPa) = 16.41178 42.24045 62.45215
#
# Poissons Ratio (x) = -0.41522 0.06269
# Poissons Ratio (y) = -0.16133 0.20096
# Poissons Ratio (z) = 0.01648 0.13592
#
# Static dielectric constant tensor:
#      x y z
#    x 3.598990 -0.094640 -0.127020 
#    y -0.094640 3.417180 0.235940 
#    z -0.127020 0.235940 3.789440 
# 
# 
# High freq. dielectric constant tensor:
#      x y z
#    x 1.777200 -0.012210 -0.006850 
#    y -0.012210 1.755160 0.024860 
#    z -0.006850 0.024860 1.781560 
# 
# From -- ./inp_files/397470.got.cif
#   From: 2010.06.25/outbox.cif.g09.slc.cpg/sg2_199_cif.got.tgz:397470.got - 2010.06.27 13:26:56.
