data_PCOD8001076
_publ_section_title
;
Structure prediction by ZEFSAII (Michael W. Deem and Ramdas Pophale) SiO2 
 PCOD8001076
Probable space group: P -1
;
_chemical_formula_sum "Si O2"
_cell_formula_units_Z 14
_cell_length_a 11.006106
_cell_length_b 14.321193
_cell_length_c 7.738266
_cell_angle_alpha 71.953715
_cell_angle_beta 135.222276
_cell_angle_gamma 128.800320
_cell_volume 648.969791
_symmetry_space_group_name_H-M "P -1"
_symmetry_group_IT_number 2
_symmetry_cell_setting 'triclinic'
loop_
_space_group_symop_operation_xyz
x,y,z
-x,-y,-z
loop_
_atom_site_type_symbol
_atom_site_label
_atom_site_fract_x
_atom_site_fract_y
_atom_site_fract_z
Si Si1 0.399081 0.175387 0.636818
Si Si2 0.620686 0.821190 0.997682
Si Si3 0.429374 0.382819 0.386056
Si Si4 0.296742 0.001091 0.321065
Si Si5 0.885469 0.741964 0.157947
Si Si6 0.124139 0.642122 0.505715
Si Si7 0.804648 0.381309 0.775503
O O1 0.315149 0.256909 0.458436
O O2 0.307425 0.063440 0.476476
O O3 0.664119 0.268111 0.834405
O O4 0.328172 0.122603 0.789450
O O5 0.742098 0.760057 0.128544
O O6 0.713607 0.928682 0.890416
O O7 0.362703 0.719732 0.781105
O O8 0.500000 0.500000 0.500000
O O9 0.650734 0.411970 0.515938
O O10 0.272415 0.360719 0.086131
O O11 0.500000 0.000000 0.500000
O O12 0.073289 0.865547 0.176884
O O13 0.990848 0.691349 0.410341
O O14 0.124140 0.661497 0.287525
O O15 0.000000 0.500000 0.500000
O O16 0.000000 0.500000 0.000000
#
# Coordination Sequence:
#
# PCOD8001076 Si02
#       7
#     2   2   2   2   2   2   2
#     4  10  24  43  71 104 144 184 243 295 352 430
#     4  12  24  47  73 105 145 185 244 299 351 437
#     4  10  22  41  68 102 140 185 237 285 359 420
#     4  12  24  50  75 103 149 191 240 298 362 425
#     4  12  25  46  75 102 147 196 233 302 367 415
#     4  12  25  43  70 104 144 190 240 294 359 427
#     4  10  19  41  64  97 145 181 229 297 348 416
#
# _framework density 21.572652999999999
#
# number of rings (size 3 to 8) (size 9 to 14) (size 15 to 20)
#    0.857    0.000    5.714    2.143    2.000    2.857 
#    0.000    1.429    0.000    0.000    0.000    0.000 
#    0.000    0.000    0.000    0.000    0.000    0.000 
#
# Total GULP energy -173518.372674 kJ/mol
# GULP energy per Si atom -12394.169477 kJ/mol
# Density = 2.152355 g / cm^3
# Si number density = 21.572653 Si / 1000 Ang^3
#
#
#
# Elastic Constant Matrix: (Units=GPa)
#
#
# Indices 1 2 3 4 5 6 
#
# 1 124.5700 42.4315 46.8913 -13.5537 -20.2247 -11.4728
# 2 42.4315 110.2143 35.2802 -5.6612 5.1238 -13.4353
# 3 46.8913 35.2802 98.6550 0.2052 16.4252 -6.4977
# 4 -13.5537 -5.6612 0.2052 37.8442 -8.6190 3.0023
# 5 -20.2247 5.1238 16.4252 -8.6190 41.6972 -2.8301
# 6 -11.4728 -13.4353 -6.4977 3.0023 -2.8301 36.2187
#
#
#
# Elastic Compliance Matrix: (Units=1/GPa)
#
#
# Indices 1 2 3 4 5 6 
#
# 1 0.015337 -0.003184 -0.008131 0.007775 0.012815 0.002575
# 2 -0.003184 0.011370 -0.002047 -0.000091 -0.001971 0.002695
# 3 -0.008131 -0.002047 0.016609 -0.005866 -0.011500 -0.000767
# 4 0.007775 -0.000091 -0.005866 0.032147 0.012718 -0.000294
# 5 0.012815 -0.001971 -0.011500 0.012718 0.037814 0.003166
# 6 0.002575 0.002695 -0.000767 -0.000294 0.003166 0.029560
#
#
# Mechanical properties :
#
#
# Convention : Reuss Voigt Hill
#
# Bulk Modulus (GPa) = 60.26995 64.73835 62.50415
# Shear Modulus (GPa) = 28.55672 37.07444 32.81558
#
# Velocity S-wave (km/s) = 3.64228 4.15008 3.90444
# Velocity P-wave (km/s) = 6.75922 7.28278 7.02588
#
# Compressibility (1/GPa) = 0.01659202
#
# Stress axis : x y z
#
# Youngs Moduli (GPa) = 65.20343 87.95262 60.20754
#
# Poissons Ratio (x) = 0.28005 0.48955
# Poissons Ratio (y) = 0.20762 0.12322
# Poissons Ratio (z) = 0.53017 0.18000
#
# Static dielectric constant tensor:
#      x y z
#    x 4.254950 -0.226000 0.248160 
#    y -0.226000 3.911390 0.021340 
#    z 0.248160 0.021340 3.988800 
# 
# 
# High freq. dielectric constant tensor:
#      x y z
#    x 1.844190 -0.013150 0.010120 
#    y -0.013150 1.840500 0.007780 
#    z 0.010120 0.007780 1.851430 
# 
# From -- ./inp_files/454784.got.cif
#   From: 2010.06.25/outbox.cif.g09.slc.cpg/sg2_228_cif.got.tgz:454784.got - 2010.06.27 13:26:56.
