data_PCOD8001345
_publ_section_title
;
Structure prediction by ZEFSAII (Michael W. Deem and Ramdas Pophale) SiO2 
 PCOD8001345
Probable space group: P -1
;
_chemical_formula_sum "Si O2"
_cell_formula_units_Z 14
_cell_length_a 8.703224
_cell_length_b 7.505034
_cell_length_c 18.571672
_cell_angle_alpha 67.552343
_cell_angle_beta 44.580729
_cell_angle_gamma 57.828957
_cell_volume 720.727268
_symmetry_space_group_name_H-M "P -1"
_symmetry_group_IT_number 2
_symmetry_cell_setting 'triclinic'
loop_
_space_group_symop_operation_xyz
x,y,z
-x,-y,-z
loop_
_atom_site_type_symbol
_atom_site_label
_atom_site_fract_x
_atom_site_fract_y
_atom_site_fract_z
Si Si1 0.255368 0.732479 0.895621
Si Si2 0.444343 0.278048 0.333828
Si Si3 0.703970 0.999894 0.031152
Si Si4 0.455653 0.240926 0.493371
Si Si5 0.417293 0.747476 0.113015
Si Si6 0.176778 0.005731 0.499804
Si Si7 0.952763 0.312370 0.655944
O O1 0.326838 0.766623 0.785380
O O2 0.341852 0.868812 0.900115
O O3 0.379259 0.490125 0.917679
O O4 0.969551 0.815089 0.974344
O O5 0.490894 0.339788 0.390342
O O6 0.370270 0.081333 0.388939
O O7 0.223469 0.464437 0.345781
O O8 0.517774 0.890485 0.103928
O O9 0.655028 0.165006 0.956678
O O10 0.187743 0.347486 0.598736
O O11 0.500000 0.000000 0.500000
O O12 0.660611 0.228764 0.484944
O O13 0.167878 0.767118 0.228022
O O14 0.016206 0.153826 0.592768
O O15 0.000000 0.000000 0.500000
#
# Coordination Sequence:
#
# PCOD8001345 Si02
#       7
#     2   2   2   2   2   2   2
#     4  10  21  37  58  83 112 148 188 228 280 329
#     4   9  18  34  54  74 104 143 177 212 271 331
#     4  10  22  36  58  82 114 146 188 236 274 326
#     4   8  16  31  52  75 100 139 175 208 264 339
#     4  10  21  37  58  83 112 148 188 228 280 329
#     4  10  20  31  52  81 106 133 174 228 258 328
#     4   9  18  34  54  74 104 143 177 212 271 331
#
# _framework density 19.424821999999999
#
# number of rings (size 3 to 8) (size 9 to 14) (size 15 to 20)
#    0.000    2.857    0.000    2.571    8.000    0.000 
#    0.000    2.857    0.000    6.857    0.000    0.000 
#    0.000    0.000    0.000    0.000    0.000    0.000 
#
# Total GULP energy -173457.253472 kJ/mol
# GULP energy per Si atom -12389.803819 kJ/mol
# Density = 1.938061 g / cm^3
# Si number density = 19.424822 Si / 1000 Ang^3
#
#
#
# Elastic Constant Matrix: (Units=GPa)
#
#
# Indices 1 2 3 4 5 6 
#
# 1 112.9368 4.5164 35.0903 -4.3444 2.9823 -9.3406
# 2 4.5164 42.9922 26.1342 -5.7748 6.5162 3.8251
# 3 35.0903 26.1342 103.3158 -2.9245 10.7920 -3.9145
# 4 -4.3444 -5.7748 -2.9245 24.5725 -4.8000 4.5172
# 5 2.9823 6.5162 10.7920 -4.8000 8.9247 -3.8551
# 6 -9.3406 3.8251 -3.9145 4.5172 -3.8551 11.9656
#
#
#
# Elastic Compliance Matrix: (Units=1/GPa)
#
#
# Indices 1 2 3 4 5 6 
#
# 1 0.010630 -0.000304 -0.003744 0.000830 0.005350 0.008581
# 2 -0.000304 0.033845 -0.006767 0.006921 -0.022728 -0.023206
# 3 -0.003744 -0.006767 0.013842 -0.003108 -0.011713 0.001169
# 4 0.000830 0.006921 -0.003108 0.048372 0.017937 -0.015064
# 5 0.005350 -0.022728 -0.011713 0.017937 0.175445 0.057364
# 6 0.008581 -0.023206 0.001169 -0.015064 0.057364 0.122240
#
#
# Mechanical properties :
#
#
# Convention : Reuss Voigt Hill
#
# Bulk Modulus (GPa) = 27.25711 43.41408 35.33559
# Shear Modulus (GPa) = 11.40944 21.99283 16.70114
#
# Velocity S-wave (km/s) = 2.42619 3.36847 2.93539
# Velocity P-wave (km/s) = 4.68093 6.12594 5.45152
#
# Compressibility (1/GPa) = 0.03668767
#
# Stress axis : x y z
#
# Youngs Moduli (GPa) = 94.07122 29.54659 72.24262
#
# Poissons Ratio (x) = 0.00897 0.27047
# Poissons Ratio (y) = 0.02857 0.48889
# Poissons Ratio (z) = 0.35219 0.19995
#
# Static dielectric constant tensor:
#      x y z
#    x 4.050970 -0.602100 0.113320 
#    y -0.602100 3.779800 0.138470 
#    z 0.113320 0.138470 5.054420 
# 
# 
# High freq. dielectric constant tensor:
#      x y z
#    x 1.751490 -0.031910 0.002540 
#    y -0.031910 1.759180 0.000080 
#    z 0.002540 0.000080 1.753230 
# 
# From -- ./inp_files/197747.got.cif
#   From: 2010.06.25/outbox.cif.g09.slc.cpg/sg2_99_cif.got.tgz:197747.got - 2010.06.27 13:26:56.
