data_PCOD8001921
_publ_section_title
;
Structure prediction by ZEFSAII (Michael W. Deem and Ramdas Pophale) SiO2 
 PCOD8001921
Probable space group: P -1
;
_chemical_formula_sum "Si O2"
_cell_formula_units_Z 16
_cell_length_a 9.128999
_cell_length_b 14.632805
_cell_length_c 10.389992
_cell_angle_alpha 115.519657
_cell_angle_beta 96.318851
_cell_angle_gamma 42.761697
_cell_volume 800.772681
_symmetry_space_group_name_H-M "P -1"
_symmetry_group_IT_number 2
_symmetry_cell_setting 'triclinic'
loop_
_space_group_symop_operation_xyz
x,y,z
-x,-y,-z
loop_
_atom_site_type_symbol
_atom_site_label
_atom_site_fract_x
_atom_site_fract_y
_atom_site_fract_z
Si Si1 0.867220 0.748376 0.362528
Si Si2 0.970098 0.546746 0.875808
Si Si3 0.402169 0.977990 0.317535
Si Si4 0.515289 0.102575 0.007724
Si Si5 0.292184 0.627923 0.210324
Si Si6 0.216344 0.618654 0.918499
Si Si7 0.859005 0.076130 0.661771
Si Si8 0.076592 0.027170 0.907366
O O1 0.673032 0.856026 0.296314
O O2 0.964347 0.584181 0.284875
O O3 0.083824 0.708995 0.334013
O O4 0.747145 0.846639 0.543433
O O5 0.117910 0.560599 0.838673
O O6 0.710677 0.715069 0.930065
O O7 0.000000 0.500000 0.000000
O O8 0.354411 0.981392 0.166260
O O9 0.313963 0.927050 0.356753
O O10 0.500000 0.000000 0.000000
O O11 0.654081 0.096270 0.120798
O O12 0.551507 0.475240 0.196690
O O13 0.294381 0.743783 0.240878
O O14 0.268033 0.574230 0.047537
O O15 0.037131 0.802295 0.991806
O O16 0.031608 0.990943 0.748583
O O17 0.000000 0.000000 0.500000
O O18 0.000000 0.000000 0.000000
#
# Coordination Sequence:
#
# PCOD8001921 Si02
#       8
#     2   2   2   2   2   2   2   2
#     4  11  23  37  64  99 131 164 227 273 333 386
#     4  12  22  39  66 100 128 173 225 278 327 398
#     4  11  23  41  64  96 134 177 214 283 336 397
#     4  12  25  43  69  94 135 178 225 276 338 402
#     4  10  20  34  59  94 123 163 212 280 321 387
#     4  10  21  36  59  92 130 162 220 275 329 382
#     4  11  22  39  65  93 132 169 221 272 335 396
#     4  11  24  40  64  96 127 175 224 269 334 405
#
# _framework density 19.980701
#
# number of rings (size 3 to 8) (size 9 to 14) (size 15 to 20)
#    0.000    1.000    6.250    0.750    3.500    0.000 
#    0.000    0.625    2.750    2.250    0.000    0.000 
#    0.000    0.000    0.000    0.000    0.000    0.000 
#
# Total GULP energy -198307.086316 kJ/mol
# GULP energy per Si atom -12394.192895 kJ/mol
# Density = 1.993522 g / cm^3
# Si number density = 19.980701 Si / 1000 Ang^3
#
#
#
# Elastic Constant Matrix: (Units=GPa)
#
#
# Indices 1 2 3 4 5 6 
#
# 1 124.4307 44.5276 31.2650 10.9186 -2.2617 -5.0067
# 2 44.5276 109.5451 41.1506 13.9589 -1.3763 -11.9177
# 3 31.2650 41.1506 102.0512 10.2228 3.3543 -2.3562
# 4 10.9186 13.9589 10.2228 31.6805 2.3557 1.4324
# 5 -2.2617 -1.3763 3.3543 2.3557 35.0030 6.4793
# 6 -5.0067 -11.9177 -2.3562 1.4324 6.4793 39.7258
#
#
#
# Elastic Compliance Matrix: (Units=1/GPa)
#
#
# Indices 1 2 3 4 5 6 
#
# 1 0.009707 -0.003137 -0.001579 -0.001514 0.000734 0.000123
# 2 -0.003137 0.012590 -0.003706 -0.003438 0.000279 0.003240
# 3 -0.001579 -0.003706 0.011967 -0.001578 -0.001225 -0.000344
# 4 -0.001514 -0.003438 -0.001578 0.034359 -0.001981 -0.002231
# 5 0.000734 0.000279 -0.001225 -0.001981 0.029744 -0.004676
# 6 0.000123 0.003240 -0.000344 -0.002231 -0.004676 0.026983
#
#
# Mechanical properties :
#
#
# Convention : Reuss Voigt Hill
#
# Bulk Modulus (GPa) = 57.39967 63.32371 60.36169
# Shear Modulus (GPa) = 33.78390 35.88745 34.83567
#
# Velocity S-wave (km/s) = 4.11643 4.24265 4.18001
# Velocity P-wave (km/s) = 7.16821 7.46735 7.31931
#
# Compressibility (1/GPa) = 0.01742170
#
# Stress axis : x y z
#
# Youngs Moduli (GPa) = 103.01829 79.42881 83.56150
#
# Poissons Ratio (x) = 0.24918 0.13190
# Poissons Ratio (y) = 0.32318 0.30964
# Poissons Ratio (z) = 0.16262 0.29433
#
# Static dielectric constant tensor:
#      x y z
#    x 1.575850 0.401480 0.353280 
#    y 0.401480 3.383890 0.196120 
#    z 0.353280 0.196120 3.731900 
# 
# 
# High freq. dielectric constant tensor:
#      x y z
#    x 1.800440 -0.006790 0.008460 
#    y -0.006790 1.763490 0.021650 
#    z 0.008460 0.021650 1.765460 
# 
# From -- ./inp_files/312470.got.cif
#   From: 2010.06.25/outbox.cif.g09.slc.cpg/sg2_157_cif.got.tgz:312470.got - 2010.06.27 13:26:56.
