data_PCOD8001198
_publ_section_title
;
Structure prediction by ZEFSAII (Michael W. Deem and Ramdas Pophale) SiO2 
 PCOD8001198
Probable space group: P -1
;
_chemical_formula_sum "Si O2"
_cell_formula_units_Z 16
_cell_length_a 12.129201
_cell_length_b 9.444583
_cell_length_c 18.384667
_cell_angle_alpha 37.452100
_cell_angle_beta 42.073615
_cell_angle_gamma 67.935843
_cell_volume 730.779342
_symmetry_space_group_name_H-M "P -1"
_symmetry_group_IT_number 2
_symmetry_cell_setting 'triclinic'
loop_
_space_group_symop_operation_xyz
x,y,z
-x,-y,-z
loop_
_atom_site_type_symbol
_atom_site_label
_atom_site_fract_x
_atom_site_fract_y
_atom_site_fract_z
Si Si1 0.054001 0.404360 0.288025
Si Si2 0.748302 0.265936 0.129551
Si Si3 0.177328 0.166193 0.099131
Si Si4 0.579577 0.630352 0.237718
Si Si5 0.741693 0.957361 0.393261
Si Si6 0.810884 0.967521 0.696465
Si Si7 0.569963 0.081427 0.138698
Si Si8 0.833768 0.422549 0.260231
O O1 0.969208 0.260374 0.465268
O O2 0.888446 0.424961 0.317139
O O3 0.121986 0.244237 0.267735
O O4 0.242018 0.700986 0.088448
O O5 0.620449 0.097840 0.191978
O O6 0.669448 0.059839 0.319565
O O7 0.722017 0.516421 0.058225
O O8 0.974414 0.381120 0.960311
O O9 0.197314 0.005178 0.223557
O O10 0.290059 0.159740 0.975609
O O11 0.954119 0.020109 0.247709
O O12 0.399124 0.366147 0.396833
O O13 0.697508 0.543610 0.267828
O O14 0.501573 0.781139 0.264642
O O15 0.734545 0.111848 0.405946
O O16 0.601063 0.858916 0.809967
#
# Coordination Sequence:
#
# PCOD8001198 Si02
#       8
#     2   2   2   2   2   2   2   2
#     4  10  23  42  72  96 120 172 219 274 307 374
#     4  10  20  40  68  92 130 164 214 276 314 366
#     4  11  22  43  67  94 126 170 219 268 308 375
#     4  12  26  38  65 100 136 170 201 263 338 382
#     4  11  21  40  65  98 125 169 221 262 314 379
#     4  11  23  44  70  92 126 171 225 261 309 380
#     4  11  26  43  59 104 134 168 207 262 332 380
#     4  10  19  42  65  99 126 160 221 265 321 374
#
# _framework density 21.894435000000001
#
# number of rings (size 3 to 8) (size 9 to 14) (size 15 to 20)
#    0.000    1.250    6.250    1.500    1.750    5.000 
#    0.000    1.250    0.000    0.000    0.000    0.000 
#    0.000    0.000    0.000    0.000    0.000    0.000 
#
# Total GULP energy -198451.892978 kJ/mol
# GULP energy per Si atom -12403.243311 kJ/mol
# Density = 2.184460 g / cm^3
# Si number density = 21.894435 Si / 1000 Ang^3
#
#
#
# Elastic Constant Matrix: (Units=GPa)
#
#
# Indices 1 2 3 4 5 6 
#
# 1 99.2716 22.5538 43.4766 5.4212 -5.0443 4.4549
# 2 22.5538 51.5399 12.2686 -0.3250 -3.5992 -0.6613
# 3 43.4766 12.2686 83.1972 -2.6669 0.7892 7.2471
# 4 5.4212 -0.3250 -2.6669 20.5287 3.0263 2.3914
# 5 -5.0443 -3.5992 0.7892 3.0263 27.4979 3.2131
# 6 4.4549 -0.6613 7.2471 2.3914 3.2131 15.8014
#
#
#
# Elastic Compliance Matrix: (Units=1/GPa)
#
#
# Indices 1 2 3 4 5 6 
#
# 1 0.014713 -0.004577 -0.007132 -0.005221 0.002983 -0.000885
# 2 -0.004577 0.021794 -0.000998 0.000922 0.001686 0.002178
# 3 -0.007132 -0.000998 0.016597 0.004987 -0.001758 -0.006040
# 4 -0.005221 0.000922 0.004987 0.052497 -0.005878 -0.007526
# 5 0.002983 0.001686 -0.001758 -0.005878 0.038642 -0.006932
# 6 -0.000885 0.002178 -0.006040 -0.007526 -0.006932 0.068945
#
#
# Mechanical properties :
#
#
# Convention : Reuss Voigt Hill
#
# Bulk Modulus (GPa) = 36.11502 43.40073 39.75788
# Shear Modulus (GPa) = 20.17495 23.14626 21.66061
#
# Velocity S-wave (km/s) = 3.03886 3.25495 3.14876
# Velocity P-wave (km/s) = 5.37064 5.83027 5.60517
#
# Compressibility (1/GPa) = 0.02768931
#
# Stress axis : x y z
#
# Youngs Moduli (GPa) = 67.96600 45.88347 60.25291
#
# Poissons Ratio (x) = 0.20999 0.42975
# Poissons Ratio (y) = 0.31106 0.06016
# Poissons Ratio (z) = 0.48476 0.04581
#
# Static dielectric constant tensor:
#      x y z
#    x 3.989100 0.043620 0.036310 
#    y 0.043620 3.567760 0.114250 
#    z 0.036310 0.114250 3.995540 
# 
# 
# High freq. dielectric constant tensor:
#      x y z
#    x 1.865180 0.003510 -0.002500 
#    y 0.003510 1.829340 0.011960 
#    z -0.002500 0.011960 1.865730 
# 
# From -- ./inp_files/566434.got.cif
#   From: 2010.06.25/outbox.cif.g09.slc.cpg/sg2_284_cif.got.tgz:566434.got - 2010.06.27 13:26:56.
