data_PCOD8001105
_publ_section_title
;
Structure prediction by ZEFSAII (Michael W. Deem and Ramdas Pophale) SiO2 
 PCOD8001105
Probable space group: P -1
;
_chemical_formula_sum "Si O2"
_cell_formula_units_Z 16
_cell_length_a 8.638688
_cell_length_b 12.490557
_cell_length_c 12.268235
_cell_angle_alpha 48.912467
_cell_angle_beta 110.030479
_cell_angle_gamma 132.500882
_cell_volume 723.221234
_symmetry_space_group_name_H-M "P -1"
_symmetry_group_IT_number 2
_symmetry_cell_setting 'triclinic'
loop_
_space_group_symop_operation_xyz
x,y,z
-x,-y,-z
loop_
_atom_site_type_symbol
_atom_site_label
_atom_site_fract_x
_atom_site_fract_y
_atom_site_fract_z
Si Si1 0.167586 0.007929 0.282965
Si Si2 0.242337 0.021576 0.822823
Si Si3 0.860494 0.061435 0.910550
Si Si4 0.015774 0.671443 0.856968
Si Si5 0.781513 0.515840 0.312777
Si Si6 0.622212 0.418818 0.579769
Si Si7 0.408650 0.398813 0.159135
Si Si8 0.940797 0.321741 0.382983
O O1 0.269607 0.029401 0.173532
O O2 0.937241 0.955537 0.246909
O O3 0.140270 0.850860 0.448257
O O4 0.326169 0.193139 0.265074
O O5 0.461829 0.200257 0.706666
O O6 0.170099 0.840353 0.863561
O O7 0.283857 0.003009 0.972509
O O8 0.001792 0.278983 0.785372
O O9 0.000000 0.000000 0.000000
O O10 0.777888 0.601171 0.848040
O O11 0.109900 0.741141 0.712362
O O12 0.000000 0.500000 0.000000
O O13 0.738404 0.459713 0.465561
O O14 0.589014 0.503037 0.225282
O O15 0.803714 0.383389 0.340356
O O16 0.500000 0.500000 0.500000
O O17 0.805695 0.514805 0.651080
O O18 0.500000 0.500000 0.000000
#
# Coordination Sequence:
#
# PCOD8001105 Si02
#       8
#     2   2   2   2   2   2   2   2
#     4  10  22  39  68  97 132 177 222 275 338 398
#     4  10  22  41  69 100 131 175 230 273 337 403
#     4  10  19  41  66  93 132 176 219 275 332 398
#     4  11  25  46  69  96 140 177 220 284 342 399
#     4  12  25  43  67  97 139 175 225 276 336 406
#     4  12  23  43  68 103 129 175 225 278 338 396
#     4  11  24  43  68  99 130 181 230 270 338 409
#     4  12  25  44  66  98 140 177 221 282 342 396
#
# _framework density 22.123245000000001
#
# number of rings (size 3 to 8) (size 9 to 14) (size 15 to 20)
#    0.000    1.000    2.500    5.625    1.750    2.500 
#    2.250    3.750    0.000    0.000    0.000    0.000 
#    0.000    0.000    0.000    0.000    0.000    0.000 
#
# Total GULP energy -198455.761370 kJ/mol
# GULP energy per Si atom -12403.485086 kJ/mol
# Density = 2.207289 g / cm^3
# Si number density = 22.123245 Si / 1000 Ang^3
#
#
#
# Elastic Constant Matrix: (Units=GPa)
#
#
# Indices 1 2 3 4 5 6 
#
# 1 82.5988 25.4000 31.7293 -6.2200 -3.7900 -24.0537
# 2 25.4000 58.2018 25.3660 3.5712 5.8036 -16.4171
# 3 31.7293 25.3660 134.7935 -3.2421 -16.0163 -22.9089
# 4 -6.2200 3.5712 -3.2421 44.6080 -6.5771 -6.1487
# 5 -3.7900 5.8036 -16.0163 -6.5771 34.8731 1.8766
# 6 -24.0537 -16.4171 -22.9089 -6.1487 1.8766 40.7589
#
#
#
# Elastic Compliance Matrix: (Units=1/GPa)
#
#
# Indices 1 2 3 4 5 6 
#
# 1 0.016824 -0.005108 -0.001315 0.004070 0.002431 0.007634
# 2 -0.005108 0.022878 -0.003261 -0.003189 -0.006687 0.004194
# 3 -0.001315 -0.003261 0.009549 0.001967 0.004976 0.003345
# 4 0.004070 -0.003189 0.001967 0.025101 0.006302 0.005719
# 5 0.002431 -0.006687 0.004976 0.006302 0.033476 0.000948
# 6 0.007634 0.004194 0.003345 0.005719 0.000948 0.033429
#
#
# Mechanical properties :
#
#
# Convention : Reuss Voigt Hill
#
# Bulk Modulus (GPa) = 33.46422 48.95386 41.20904
# Shear Modulus (GPa) = 29.31102 36.92123 33.11613
#
# Velocity S-wave (km/s) = 3.64386 4.08964 3.87317
# Velocity P-wave (km/s) = 5.73260 6.66903 6.21847
#
# Compressibility (1/GPa) = 0.02988266
#
# Stress axis : x y z
#
# Youngs Moduli (GPa) = 59.44003 43.71075 104.72196
#
# Poissons Ratio (x) = 0.22327 0.13767
# Poissons Ratio (y) = 0.30361 0.34153
# Poissons Ratio (z) = 0.07814 0.14255
#
# Static dielectric constant tensor:
#      x y z
#    x 3.955270 0.079930 -0.130190 
#    y 0.079930 1.727630 0.295250 
#    z -0.130190 0.295250 4.244150 
# 
# 
# High freq. dielectric constant tensor:
#      x y z
#    x 1.861520 -0.016370 -0.003980 
#    y -0.016370 1.877690 -0.000880 
#    z -0.003980 -0.000880 1.886900 
# 
# From -- ./inp_files/352216.got.cif
#   From: 2010.06.25/outbox.cif.g09.slc.cpg/sg2_177_cif.got.tgz:352216.got - 2010.06.27 13:26:56.
