data_PCOD8001388
_publ_section_title
;
Structure prediction by ZEFSAII (Michael W. Deem and Ramdas Pophale) SiO2 
 PCOD8001388
Probable space group: P -1
;
_chemical_formula_sum "Si O2"
_cell_formula_units_Z 12
_cell_length_a 9.652539
_cell_length_b 15.455382
_cell_length_c 10.236320
_cell_angle_alpha 39.086543
_cell_angle_beta 92.641381
_cell_angle_gamma 120.270952
_cell_volume 643.112115
_symmetry_space_group_name_H-M "P -1"
_symmetry_group_IT_number 2
_symmetry_cell_setting 'triclinic'
loop_
_space_group_symop_operation_xyz
x,y,z
-x,-y,-z
loop_
_atom_site_type_symbol
_atom_site_label
_atom_site_fract_x
_atom_site_fract_y
_atom_site_fract_z
Si Si1 0.255424 0.441410 0.350728
Si Si2 0.860192 0.932559 0.334301
Si Si3 0.655676 0.952351 0.517218
Si Si4 0.094560 0.918956 0.093803
Si Si5 0.791839 0.344919 0.091363
Si Si6 0.295983 0.138924 0.097576
O O1 0.224782 0.281607 0.450711
O O2 0.099717 0.326820 0.603457
O O3 0.191348 0.527624 0.166786
O O4 0.493430 0.620494 0.196428
O O5 0.757600 0.903623 0.498562
O O6 0.109487 0.108092 0.154311
O O7 0.804954 0.009583 0.130886
O O8 0.409030 0.774766 0.684994
O O9 0.685657 0.951454 0.674629
O O10 0.763579 0.174986 0.222024
O O11 0.257763 0.022913 0.098586
O O12 0.000000 0.000000 0.000000
O O13 0.000000 0.500000 0.000000
#
# Coordination Sequence:
#
# PCOD8001388 Si02
#       6
#     2   2   2   2   2   2
#     4   9  18  32  53  74  96 134 170 194 242 299
#     4  10  20  32  50  79 105 123 160 212 247 283
#     4  10  21  34  51  77 101 127 165 207 249 287
#     4   8  17  31  48  73 104 131 159 198 245 293
#     4  10  20  35  53  70  99 136 167 200 245 298
#     4   9  17  31  53  74 101 132 161 200 245 295
#
# _framework density 18.659264
#
# number of rings (size 3 to 8) (size 9 to 14) (size 15 to 20)
#    0.000    3.000    0.000    2.500    0.000   10.000 
#    0.000    0.833    0.000   14.000    0.000    0.000 
#    0.000    0.000    0.000    0.000    0.000    0.000 
#
# Total GULP energy -148679.006827 kJ/mol
# GULP energy per Si atom -12389.917236 kJ/mol
# Density = 1.861680 g / cm^3
# Si number density = 18.659264 Si / 1000 Ang^3
#
#
#
# Elastic Constant Matrix: (Units=GPa)
#
#
# Indices 1 2 3 4 5 6 
#
# 1 54.2316 36.4768 28.6829 -6.3942 1.3010 17.7579
# 2 36.4768 81.2269 49.0303 -2.4237 -9.8292 23.3728
# 3 28.6829 49.0303 136.3470 -9.5883 9.2962 14.3810
# 4 -6.3942 -2.4237 -9.5883 30.5444 9.8253 -7.1106
# 5 1.3010 -9.8292 9.2962 9.8253 24.0940 -11.6831
# 6 17.7579 23.3728 14.3810 -7.1106 -11.6831 25.0942
#
#
#
# Elastic Compliance Matrix: (Units=1/GPa)
#
#
# Indices 1 2 3 4 5 6 
#
# 1 0.034641 -0.012828 0.001625 0.008766 -0.021499 -0.021023
# 2 -0.012828 0.026122 -0.007684 -0.009359 0.014961 -0.006535
# 3 0.001625 -0.007684 0.011538 0.006290 -0.012488 -0.004638
# 4 0.008766 -0.009359 0.006290 0.043684 -0.024616 -0.000173
# 5 -0.021499 0.014961 -0.012488 -0.024616 0.083091 0.040145
# 6 -0.021023 -0.006535 -0.004638 -0.000173 0.040145 0.082112
#
#
# Mechanical properties :
#
#
# Convention : Reuss Voigt Hill
#
# Bulk Modulus (GPa) = 28.96219 55.57615 42.26917
# Shear Modulus (GPa) = 15.12991 26.45421 20.79206
#
# Velocity S-wave (km/s) = 2.85064 3.76939 3.34174
# Velocity P-wave (km/s) = 5.13713 6.98526 6.13123
#
# Compressibility (1/GPa) = 0.03452777
#
# Stress axis : x y z
#
# Youngs Moduli (GPa) = 28.86716 38.28234 86.66831
#
# Poissons Ratio (x) = 0.49110 -0.14086
# Poissons Ratio (y) = 0.37032 0.66593
# Poissons Ratio (z) = -0.04692 0.29415
#
# Static dielectric constant tensor:
#      x y z
#    x 3.208850 0.247430 -0.096200 
#    y 0.247430 3.849440 0.369470 
#    z -0.096200 0.369470 4.015970 
# 
# 
# High freq. dielectric constant tensor:
#      x y z
#    x 1.693280 0.028570 -0.002110 
#    y 0.028570 1.711000 0.002140 
#    z -0.002110 0.002140 1.743910 
# 
# From -- ./inp_files/171914.got.cif
#   From: 2010.06.25/outbox.cif.g09.slc.cpg/sg2_86_cif.got.tgz:171914.got - 2010.06.27 13:26:56.
