data_PCOD8001112
_publ_section_title
;
Structure prediction by ZEFSAII (Michael W. Deem and Ramdas Pophale) SiO2 
 PCOD8001112
Probable space group: P -1
;
_chemical_formula_sum "Si O2"
_cell_formula_units_Z 10
_cell_length_a 18.920551
_cell_length_b 12.129125
_cell_length_c 13.428365
_cell_angle_alpha 142.747062
_cell_angle_beta 18.371577
_cell_angle_gamma 151.955066
_cell_volume 438.272446
_symmetry_space_group_name_H-M "P -1"
_symmetry_group_IT_number 2
_symmetry_cell_setting 'triclinic'
loop_
_space_group_symop_operation_xyz
x,y,z
-x,-y,-z
loop_
_atom_site_type_symbol
_atom_site_label
_atom_site_fract_x
_atom_site_fract_y
_atom_site_fract_z
Si Si1 0.442500 0.286821 0.721656
Si Si2 0.283191 0.557784 0.336859
Si Si3 0.533107 0.045156 0.261364
Si Si4 0.135701 0.195882 0.547022
Si Si5 0.859463 0.065395 0.465815
O O1 0.685715 0.351727 0.526513
O O2 0.554572 0.539586 0.708116
O O3 0.411438 0.117935 0.558253
O O4 0.115815 0.137332 0.098589
O O5 0.381951 0.765974 0.277789
O O6 0.952638 0.305615 0.568671
O O7 0.500000 0.500000 0.000000
O O8 0.443259 0.064672 0.285376
O O9 0.892539 0.221923 0.915399
O O10 0.206821 0.121113 0.496884
O O11 0.000000 0.000000 0.500000
#
# Coordination Sequence:
#
# PCOD8001112 Si02
#       5
#     2   2   2   2   2
#     4  11  23  44  68  98 134 171 212 274 328 382
#     4  10  19  41  67  88 128 176 208 258 322 384
#     4  12  24  42  70  99 131 170 220 271 328 378
#     4  12  24  45  67  93 138 173 218 266 322 394
#     4  11  24  45  68  97 130 174 219 266 322 393
#
# _framework density 22.816858
#
# number of rings (size 3 to 8) (size 9 to 14) (size 15 to 20)
#    0.000    0.800    6.000    3.600    0.000    1.600 
#    3.600    0.000    0.000    0.000    0.000    0.000 
#    0.000    0.000    0.000    0.000    0.000    0.000 
#
# Total GULP energy -124011.153982 kJ/mol
# GULP energy per Si atom -12401.115398 kJ/mol
# Density = 2.276493 g / cm^3
# Si number density = 22.816858 Si / 1000 Ang^3
#
#
#
# Elastic Constant Matrix: (Units=GPa)
#
#
# Indices 1 2 3 4 5 6 
#
# 1 186.9571 35.7365 20.0154 4.7527 -4.0151 -17.8625
# 2 35.7365 71.8446 13.3915 13.8535 5.8674 -15.5360
# 3 20.0154 13.3915 26.8885 3.3504 9.8431 -17.9019
# 4 4.7527 13.8535 3.3504 22.6536 -6.5565 10.8274
# 5 -4.0151 5.8674 9.8431 -6.5565 24.9288 -6.2903
# 6 -17.8625 -15.5360 -17.9019 10.8274 -6.2903 46.0634
#
#
#
# Elastic Compliance Matrix: (Units=1/GPa)
#
#
# Indices 1 2 3 4 5 6 
#
# 1 0.006589 -0.003522 -0.006342 0.003795 0.005065 -0.001298
# 2 -0.003522 0.022739 0.007410 -0.023999 -0.011824 0.013210
# 3 -0.006342 0.007410 0.082130 -0.043934 -0.037367 0.037183
# 4 0.003795 -0.023999 -0.043934 0.095124 0.038325 -0.040823
# 5 0.005065 -0.011824 -0.037367 0.038325 0.064315 -0.016772
# 6 -0.001298 0.013210 0.037183 -0.040823 -0.016772 0.047417
#
#
# Mechanical properties :
#
#
# Convention : Reuss Voigt Hill
#
# Bulk Modulus (GPa) = 9.38519 47.10856 28.24688
# Shear Modulus (GPa) = 13.93769 33.16562 23.55166
#
# Velocity S-wave (km/s) = 2.47422 3.81669 3.21628
# Velocity P-wave (km/s) = 3.50493 6.33357 5.11853
#
# Compressibility (1/GPa) = 0.10655085
#
# Stress axis : x y z
#
# Youngs Moduli (GPa) = 151.76227 43.97697 12.17580
#
# Poissons Ratio (x) = 0.15487 0.07722
# Poissons Ratio (y) = 0.53444 -0.09022
# Poissons Ratio (z) = 0.96251 -0.32587
#
# Static dielectric constant tensor:
#      x y z
#    x 4.597880 0.177890 0.116970 
#    y 0.177890 4.200350 0.044440 
#    z 0.116970 0.044440 3.984660 
# 
# 
# High freq. dielectric constant tensor:
#      x y z
#    x 1.915680 -0.001410 0.014460 
#    y -0.001410 1.899240 0.001880 
#    z 0.014460 0.001880 1.878630 
# 
# From -- ./inp_files/166913.got.cif
#   From: 2010.06.25/outbox.cif.g09.slc.cpg/sg2_84_cif.got.tgz:166913.got - 2010.06.27 13:26:56.
