data_PCOD8001649
_publ_section_title
;
Structure prediction by ZEFSAII (Michael W. Deem and Ramdas Pophale) SiO2 
 PCOD8001649
Probable space group: P -1
;
_chemical_formula_sum "Si O2"
_cell_formula_units_Z 12
_cell_length_a 13.084948
_cell_length_b 8.812024
_cell_length_c 10.185874
_cell_angle_alpha 30.386233
_cell_angle_beta 92.967535
_cell_angle_gamma 93.305892
_cell_volume 593.090201
_symmetry_space_group_name_H-M "P -1"
_symmetry_group_IT_number 2
_symmetry_cell_setting 'triclinic'
loop_
_space_group_symop_operation_xyz
x,y,z
-x,-y,-z
loop_
_atom_site_type_symbol
_atom_site_label
_atom_site_fract_x
_atom_site_fract_y
_atom_site_fract_z
Si Si1 0.229940 0.483977 0.508683
Si Si2 0.881368 0.490879 0.029069
Si Si3 0.476854 0.835374 0.985852
Si Si4 0.404224 0.709992 0.515776
Si Si5 0.238251 0.794790 0.005696
Si Si6 0.190764 0.850768 0.468675
O O1 0.350451 0.539156 0.513963
O O2 0.160395 0.631906 0.507459
O O3 0.202680 0.134757 0.757182
O O4 0.205744 0.637538 0.255613
O O5 0.820618 0.374831 0.986176
O O6 0.862828 0.265165 0.316794
O O7 0.000000 0.500000 0.000000
O O8 0.844337 0.819887 0.817715
O O9 0.357897 0.771860 0.003204
O O10 0.518193 0.031889 0.720787
O O11 0.534428 0.521729 0.219537
O O12 0.500000 0.000000 0.000000
O O13 0.314765 0.853142 0.492037
#
# Coordination Sequence:
#
# PCOD8001649 Si02
#       6
#     2   2   2   2   2   2
#     4  10  20  39  65  90 127 159 202 250 301 352
#     4  12  26  46  64  86 123 166 204 260 320 356
#     4  12  17  33  57  97 125 161 191 248 299 356
#     4  10  20  33  63  86 126 160 193 233 314 353
#     4  12  23  37  63  99 123 157 216 254 283 366
#     4  10  22  45  66  86 125 168 196 252 317 372
#
# _framework density 20.23301
#
# number of rings (size 3 to 8) (size 9 to 14) (size 15 to 20)
#    1.000    0.000    3.333    5.000    0.000    0.000 
#    0.000   10.000    0.000    0.000    0.000    0.000 
#    0.000    0.000    0.000    0.000    0.000    0.000 
#
# Total GULP energy -148812.740409 kJ/mol
# GULP energy per Si atom -12401.061701 kJ/mol
# Density = 2.018696 g / cm^3
# Si number density = 20.233010 Si / 1000 Ang^3
#
#
#
# Elastic Constant Matrix: (Units=GPa)
#
#
# Indices 1 2 3 4 5 6 
#
# 1 101.6310 64.7873 14.3592 3.0213 5.6942 15.5625
# 2 64.7873 9.4000 24.9224 -15.6750 -18.9938 -50.3090
# 3 14.3592 24.9224 122.6385 -9.3411 -3.6957 -5.4815
# 4 3.0213 -15.6750 -9.3411 35.7525 -25.2806 -2.8464
# 5 5.6942 -18.9938 -3.6957 -25.2806 17.9600 -18.0337
# 6 15.5625 -50.3090 -5.4815 -2.8464 -18.0337 -5.7303
#
#
#
# Elastic Compliance Matrix: (Units=1/GPa)
#
#
# Indices 1 2 3 4 5 6 
#
# 1 0.009244 -0.001752 0.000303 0.006003 0.009880 0.006126
# 2 -0.001752 0.008495 -0.003459 -0.011167 -0.018670 -0.011732
# 3 0.000303 -0.003459 0.009426 0.005246 0.006062 0.000490
# 4 0.006003 -0.011167 0.005246 0.046076 0.033417 -0.018729
# 5 0.009880 -0.018670 0.006062 0.033417 0.060127 -0.020875
# 6 0.006126 -0.011732 0.000490 -0.018729 -0.020875 0.019656
#
#
# Mechanical properties :
#
#
# Convention : Reuss Voigt Hill
#
# Bulk Modulus (GPa) = 57.64478 49.08968 53.36723
# Shear Modulus (GPa) = 29.65194 18.23649 23.94422
#
# Velocity S-wave (km/s) = 3.83237 3.00546 3.44382
# Velocity P-wave (km/s) = 6.93794 6.02981 6.49975
#
# Compressibility (1/GPa) = 0.01734763
#
# Stress axis : x y z
#
# Youngs Moduli (GPa) = 108.18072 117.71143 106.09374
#
# Poissons Ratio (x) = 0.20628 -0.03210
# Poissons Ratio (y) = 0.18957 0.36696
# Poissons Ratio (z) = -0.03274 0.40714
#
# Static dielectric constant tensor:
#      x y z
#    x 3.334970 -0.142030 -0.048930 
#    y -0.142030 3.475370 -0.086870 
#    z -0.048930 -0.086870 3.728880 
# 
# 
# High freq. dielectric constant tensor:
#      x y z
#    x 1.777830 -0.012600 -0.000160 
#    y -0.012600 1.774720 -0.006500 
#    z -0.000160 -0.006500 1.810790 
# 
# From -- ./inp_files/138438.got.cif
#   From: 2010.06.25/outbox.cif.g09.slc.cpg/sg2_70_cif.got.tgz:138438.got - 2010.06.27 13:26:56.
