data_PCOD8001209
_publ_section_title
;
Structure prediction by ZEFSAII (Michael W. Deem and Ramdas Pophale) SiO2 
 PCOD8001209
Probable space group: P -1
;
_chemical_formula_sum "Si O2"
_cell_formula_units_Z 12
_cell_length_a 11.513305
_cell_length_b 16.912859
_cell_length_c 8.768664
_cell_angle_alpha 122.903852
_cell_angle_beta 115.433529
_cell_angle_gamma 21.413311
_cell_volume 506.921010
_symmetry_space_group_name_H-M "P -1"
_symmetry_group_IT_number 2
_symmetry_cell_setting 'triclinic'
loop_
_space_group_symop_operation_xyz
x,y,z
-x,-y,-z
loop_
_atom_site_type_symbol
_atom_site_label
_atom_site_fract_x
_atom_site_fract_y
_atom_site_fract_z
Si Si1 0.732277 0.165204 0.236952
Si Si2 0.386428 0.658995 0.956583
Si Si3 0.353492 0.010712 0.339964
Si Si4 0.300692 0.278655 0.048500
Si Si5 0.760808 0.560578 0.215302
Si Si6 0.643290 0.514906 0.369478
O O1 0.717477 0.248434 0.177778
O O2 0.458604 0.269038 0.180484
O O3 0.666660 0.263492 0.461364
O O4 0.095186 0.876827 0.140950
O O5 0.450697 0.503004 0.826934
O O6 0.700769 0.509484 0.021165
O O7 0.959047 0.275933 0.401666
O O8 0.500000 0.000000 0.500000
O O9 0.493541 0.820623 0.294292
O O10 0.441519 0.956659 0.151409
O O11 0.140963 0.334406 0.163701
O O12 0.000000 0.500000 0.000000
O O13 0.718427 0.560860 0.368315
#
# Coordination Sequence:
#
# PCOD8001209 Si02
#       6
#     2   2   2   2   2   2
#     4  11  22  42  72  94 138 177 229 279 328 401
#     4  11  22  45  66  98 139 183 219 274 337 402
#     4  11  23  42  69 101 136 176 226 274 343 396
#     4  10  19  42  66  94 133 177 213 284 332 382
#     4  11  25  44  69 100 141 171 227 283 329 404
#     4  12  25  43  71 105 131 181 228 271 340 403
#
# _framework density 23.672326000000002
#
# number of rings (size 3 to 8) (size 9 to 14) (size 15 to 20)
#    0.000    1.000    5.000    4.000    0.000    4.000 
#    3.000    0.000    0.000    0.000    0.000    0.000 
#    0.000    0.000    0.000    0.000    0.000    0.000 
#
# Total GULP energy -148810.050142 kJ/mol
# GULP energy per Si atom -12400.837512 kJ/mol
# Density = 2.361845 g / cm^3
# Si number density = 23.672326 Si / 1000 Ang^3
#
#
#
# Elastic Constant Matrix: (Units=GPa)
#
#
# Indices 1 2 3 4 5 6 
#
# 1 130.0951 25.5656 38.1093 16.4149 0.8596 2.0365
# 2 25.5656 46.8455 10.7395 10.4727 4.4638 -6.5144
# 3 38.1093 10.7395 145.5909 30.3446 -4.0782 3.7447
# 4 16.4149 10.4727 30.3446 23.2205 -16.0369 -0.0206
# 5 0.8596 4.4638 -4.0782 -16.0369 47.0271 -9.4145
# 6 2.0365 -6.5144 3.7447 -0.0206 -9.4145 39.1915
#
#
#
# Elastic Compliance Matrix: (Units=1/GPa)
#
#
# Indices 1 2 3 4 5 6 
#
# 1 0.009415 -0.003895 -0.001266 -0.004425 -0.001707 -0.001428
# 2 -0.003895 0.028361 0.002657 -0.019355 -0.008466 0.002619
# 3 -0.001266 0.002657 0.010737 -0.018475 -0.005992 -0.001968
# 4 -0.004425 -0.019355 -0.018475 0.105147 0.037754 0.007903
# 5 -0.001707 -0.008466 -0.005992 0.037754 0.036042 0.007932
# 6 -0.001428 0.002619 -0.001968 0.007903 0.007932 0.028123
#
#
# Mechanical properties :
#
#
# Convention : Reuss Voigt Hill
#
# Bulk Modulus (GPa) = 22.98550 52.37335 37.67942
# Shear Modulus (GPa) = 21.06736 38.42898 29.74817
#
# Velocity S-wave (km/s) = 2.98645 4.03348 3.54879
# Velocity P-wave (km/s) = 4.65003 6.62301 5.72220
#
# Compressibility (1/GPa) = 0.04350569
#
# Stress axis : x y z
#
# Youngs Moduli (GPa) = 106.21577 35.25981 93.13314
#
# Poissons Ratio (x) = 0.13732 0.11790
# Poissons Ratio (y) = 0.41367 -0.24744
# Poissons Ratio (z) = 0.13446 -0.09368
#
# Static dielectric constant tensor:
#      x y z
#    x 4.628110 -0.186420 -0.226400 
#    y -0.186420 4.130380 0.248610 
#    z -0.226400 0.248610 4.506930 
# 
# 
# High freq. dielectric constant tensor:
#      x y z
#    x 1.948150 -0.008880 -0.002770 
#    y -0.008880 1.925090 -0.000240 
#    z -0.002770 -0.000240 1.936970 
# 
# From -- ./inp_files/147924.got.cif
#   From: 2010.06.25/outbox.cif.g09.slc.cpg/sg2_74_cif.got.tgz:147924.got - 2010.06.27 13:26:56.
