data_PCOD8001246
_publ_section_title
;
Structure prediction by ZEFSAII (Michael W. Deem and Ramdas Pophale) SiO2 
 PCOD8001246
Probable space group: P -1
;
_chemical_formula_sum "Si O2"
_cell_formula_units_Z 16
_cell_length_a 6.609914
_cell_length_b 9.155963
_cell_length_c 14.233028
_cell_angle_alpha 79.214446
_cell_angle_beta 103.000427
_cell_angle_gamma 69.915851
_cell_volume 754.653056
_symmetry_space_group_name_H-M "P -1"
_symmetry_group_IT_number 2
_symmetry_cell_setting 'triclinic'
loop_
_space_group_symop_operation_xyz
x,y,z
-x,-y,-z
loop_
_atom_site_type_symbol
_atom_site_label
_atom_site_fract_x
_atom_site_fract_y
_atom_site_fract_z
Si Si1 0.017487 0.033358 0.107935
Si Si2 0.888621 0.523058 0.586846
Si Si3 0.916017 0.338784 0.262980
Si Si4 0.441625 0.847386 0.491054
Si Si5 0.417901 0.653684 0.909575
Si Si6 0.879664 0.190199 0.677928
Si Si7 0.687081 0.796655 0.816337
Si Si8 0.218169 0.920507 0.644105
O O1 0.239851 0.070685 0.142580
O O2 0.789149 0.187842 0.091517
O O3 0.049762 0.881090 0.199731
O O4 0.000000 0.000000 0.000000
O O5 0.660148 0.683720 0.549937
O O6 0.826370 0.380040 0.640168
O O7 0.000000 0.500000 0.500000
O O8 0.081147 0.541824 0.669220
O O9 0.665365 0.411998 0.183447
O O10 0.947553 0.159272 0.321857
O O11 0.109500 0.324956 0.210427
O O12 0.339090 0.841712 0.377927
O O13 0.243830 0.870841 0.543556
O O14 0.500000 0.000000 0.500000
O O15 0.633403 0.695367 0.905848
O O16 0.500000 0.500000 0.000000
O O17 0.086733 0.108470 0.635483
O O18 0.465418 0.871771 0.720147
#
# Coordination Sequence:
#
# PCOD8001246 Si02
#       8
#     2   2   2   2   2   2   2   2
#     4  11  25  45  65  99 140 177 227 283 349 404
#     4  12  26  43  62 105 147 174 223 284 350 409
#     4  10  21  42  69  93 133 177 227 269 338 408
#     4  12  24  42  73  97 133 188 227 275 345 412
#     4  10  23  43  70  99 124 173 242 288 326 401
#     4  12  24  43  65 103 140 177 226 287 340 408
#     4  10  19  42  72  89 132 174 234 270 334 402
#     4  11  20  43  71  96 128 176 233 270 327 423
#
# _framework density 21.201795000000001
#
# number of rings (size 3 to 8) (size 9 to 14) (size 15 to 20)
#    0.000    1.000    5.000    3.750    0.000    4.500 
#    4.500    0.000    0.000    0.000    0.000    0.000 
#    0.000    0.000    0.000    0.000    0.000    0.000 
#
# Total GULP energy -198268.870354 kJ/mol
# GULP energy per Si atom -12391.804397 kJ/mol
# Density = 2.115354 g / cm^3
# Si number density = 21.201795 Si / 1000 Ang^3
#
#
#
# Elastic Constant Matrix: (Units=GPa)
#
#
# Indices 1 2 3 4 5 6 
#
# 1 107.9593 47.9470 34.5816 -1.2500 -15.6089 14.4233
# 2 47.9470 126.9707 69.9895 -5.4101 -1.4518 11.2689
# 3 34.5816 69.9895 137.0032 4.3955 -8.6579 9.4639
# 4 -1.2500 -5.4101 4.3955 48.6066 5.2050 5.0066
# 5 -15.6089 -1.4518 -8.6579 5.2050 27.9732 9.4163
# 6 14.4233 11.2689 9.4639 5.0066 9.4163 33.1539
#
#
#
# Elastic Compliance Matrix: (Units=1/GPa)
#
#
# Indices 1 2 3 4 5 6 
#
# 1 0.013592 -0.004367 -0.000073 -0.000447 0.009818 -0.007129
# 2 -0.004367 0.012731 -0.005723 0.002247 -0.003963 -0.000008
# 3 -0.000073 -0.005723 0.010683 -0.001831 0.003955 -0.001919
# 4 -0.000447 0.002247 -0.001831 0.021629 -0.003990 -0.002180
# 5 0.009818 -0.003963 0.003955 -0.003990 0.048817 -0.017316
# 6 -0.007129 -0.000008 -0.001919 -0.002180 -0.017316 0.039062
#
#
# Mechanical properties :
#
#
# Convention : Reuss Voigt Hill
#
# Bulk Modulus (GPa) = 59.95286 75.21883 67.58584
# Shear Modulus (GPa) = 29.00242 36.57440 32.78841
#
# Velocity S-wave (km/s) = 3.70256 4.15789 3.93681
# Velocity P-wave (km/s) = 6.82768 7.65541 7.25336
#
# Compressibility (1/GPa) = 0.01667977
#
# Stress axis : x y z
#
# Youngs Moduli (GPa) = 73.57144 78.54955 93.60950
#
# Poissons Ratio (x) = 0.34300 0.00682
# Poissons Ratio (y) = 0.32126 0.53577
# Poissons Ratio (z) = 0.00536 0.44958
#
# Static dielectric constant tensor:
#      x y z
#    x 4.188420 0.112100 -0.131420 
#    y 0.112100 3.788430 0.056430 
#    z -0.131420 0.056430 3.745320 
# 
# 
# High freq. dielectric constant tensor:
#      x y z
#    x 1.843110 0.008390 0.002880 
#    y 0.008390 1.819410 0.001800 
#    z 0.002880 0.001800 1.838630 
# 
# From -- ./inp_files/206611.got.cif
#   From: 2010.06.25/outbox.cif.g09.slc.cpg/sg2_104_cif.got.tgz:206611.got - 2010.06.27 13:26:56.
