data_PCOD8001709
_publ_section_title
;
Structure prediction by ZEFSAII (Michael W. Deem and Ramdas Pophale) SiO2 
 PCOD8001709
Probable space group: P -1
;
_chemical_formula_sum "Si O2"
_cell_formula_units_Z 16
_cell_length_a 16.510703
_cell_length_b 8.482911
_cell_length_c 8.220642
_cell_angle_alpha 58.938920
_cell_angle_beta 76.003050
_cell_angle_gamma 104.885716
_cell_volume 850.133612
_symmetry_space_group_name_H-M "P -1"
_symmetry_group_IT_number 2
_symmetry_cell_setting 'triclinic'
loop_
_space_group_symop_operation_xyz
x,y,z
-x,-y,-z
loop_
_atom_site_type_symbol
_atom_site_label
_atom_site_fract_x
_atom_site_fract_y
_atom_site_fract_z
Si Si1 0.607987 0.295252 0.384600
Si Si2 0.251430 0.282815 0.052427
Si Si3 0.739998 0.781135 0.545538
Si Si4 0.392013 0.071865 0.615400
Si Si5 0.103846 0.917197 0.897142
Si Si6 0.251430 0.916187 0.052427
Si Si7 0.739998 0.413324 0.545538
Si Si8 0.103846 0.289506 0.897143
O O1 0.500000 0.234769 0.500000
O O2 0.652837 0.277083 0.543480
O O3 0.619579 0.146700 0.326178
O O4 0.657515 0.528011 0.168689
O O5 0.254977 0.294841 0.237333
O O6 0.248872 0.070070 0.108731
O O7 0.158272 0.298864 0.032977
O O8 0.652837 0.832274 0.543480
O O9 0.724429 0.601906 0.520617
O O10 0.836589 0.987814 0.346918
O O11 0.342485 0.039185 0.831311
O O12 0.158272 0.826432 0.032976
O O13 0.093833 0.096329 0.901176
O O14 0.000000 0.735303 1.000000
O O15 0.254977 0.722803 0.237334
O O16 0.836589 0.501857 0.346918
#
# Coordination Sequence:
#
# PCOD8001709 Si02
#       8
#     2   2   2   2   2   2   2   2
#     4  10  21  37  56  77 102 133 171 216 262 308
#     4  10  20  34  54  78 106 139 172 211 256 304
#     4  10  20  34  54  78 106 139 172 211 256 304
#     4  10  21  37  56  77 102 133 171 216 262 308
#     4   8  16  32  52  75 104 137 173 212 254 300
#     4  10  20  34  54  78 106 139 172 211 256 304
#     4  10  20  34  54  78 106 139 172 211 256 304
#     4   8  16  32  52  75 104 137 173 212 254 300
#
# _framework density 18.820571000000001
#
# number of rings (size 3 to 8) (size 9 to 14) (size 15 to 20)
#    0.000    2.500    0.000    3.750    0.000    4.000 
#    0.000    0.000    0.000   25.500    0.000    0.000 
#    0.000    0.000    0.000    0.000    0.000    0.000 
#
# Total GULP energy -198406.586649 kJ/mol
# GULP energy per Si atom -12400.411666 kJ/mol
# Density = 1.877773 g / cm^3
# Si number density = 18.820571 Si / 1000 Ang^3
#
#
#
# Elastic Constant Matrix: (Units=GPa)
#
#
# Indices 1 2 3 4 5 6 
#
# 1 148.5109 21.7903 71.6236 -2.0048 -18.4587 19.3224
# 2 21.7903 35.5373 13.2952 2.0713 -7.6074 7.6489
# 3 71.6236 13.2952 97.2553 4.8434 8.8912 14.8960
# 4 -2.0048 2.0713 4.8434 26.0695 1.9170 3.0477
# 5 -18.4587 -7.6074 8.8912 1.9170 29.6006 -3.0238
# 6 19.3224 7.6489 14.8960 3.0477 -3.0238 24.7288
#
#
#
# Elastic Compliance Matrix: (Units=1/GPa)
#
#
# Indices 1 2 3 4 5 6 
#
# 1 0.013942 -0.001715 -0.010733 0.002731 0.011005 -0.002889
# 2 -0.001715 0.033427 -0.003018 -0.002117 0.007957 -0.005948
# 3 -0.010733 -0.003018 0.020709 -0.002879 -0.013963 -0.004507
# 4 0.002731 -0.002117 -0.002879 0.039910 -0.001050 -0.004792
# 5 0.011005 0.007957 -0.013963 -0.001050 0.047286 0.003262
# 6 -0.002889 -0.005948 -0.004507 -0.004792 0.003262 0.048240
#
#
# Mechanical properties :
#
#
# Convention : Reuss Voigt Hill
#
# Bulk Modulus (GPa) = 26.91982 54.96907 40.94444
# Shear Modulus (GPa) = 20.25709 27.71940 23.98825
#
# Velocity S-wave (km/s) = 3.28430 3.84190 3.57399
# Velocity P-wave (km/s) = 5.35879 6.99647 6.23166
#
# Compressibility (1/GPa) = 0.03714736
#
# Stress axis : x y z
#
# Youngs Moduli (GPa) = 71.72647 29.91595 48.28799
#
# Poissons Ratio (x) = 0.05130 0.51826
# Poissons Ratio (y) = 0.12300 0.14572
# Poissons Ratio (z) = 0.76981 0.09028
#
# Static dielectric constant tensor:
#      x y z
#    x 3.696730 0.089530 -0.148670 
#    y 0.089530 3.293080 -0.024040 
#    z -0.148670 -0.024040 3.426400 
# 
# 
# High freq. dielectric constant tensor:
#      x y z
#    x 1.734580 0.003610 -0.000500 
#    y 0.003610 1.720110 0.000660 
#    z -0.000500 0.000660 1.729770 
# 
# From -- ./inp_files/197414.got.cif
#   From: 2010.06.25/outbox.cif.g09.slc.cpg/sg2_99_cif.got.tgz:197414.got - 2010.06.27 13:26:56.
