data_PCOD8001101
_publ_section_title
;
Structure prediction by ZEFSAII (Michael W. Deem and Ramdas Pophale) SiO2 
 PCOD8001101
Probable space group: P -1
;
_chemical_formula_sum "Si O2"
_cell_formula_units_Z 16
_cell_length_a 17.327574
_cell_length_b 9.124825
_cell_length_c 12.222997
_cell_angle_alpha 100.618592
_cell_angle_beta 49.707974
_cell_angle_gamma 139.858867
_cell_volume 737.531959
_symmetry_space_group_name_H-M "P -1"
_symmetry_group_IT_number 2
_symmetry_cell_setting 'triclinic'
loop_
_space_group_symop_operation_xyz
x,y,z
-x,-y,-z
loop_
_atom_site_type_symbol
_atom_site_label
_atom_site_fract_x
_atom_site_fract_y
_atom_site_fract_z
Si Si1 0.020714 0.870081 0.522026
Si Si2 0.242121 0.869332 0.060139
Si Si3 0.447913 0.840588 0.790157
Si Si4 0.841196 0.477581 0.453922
Si Si5 0.770149 0.706010 0.194049
Si Si6 0.801155 0.731051 0.419846
Si Si7 0.599773 0.689942 0.168978
Si Si8 0.421059 0.207008 0.151884
O O1 0.848421 0.546033 0.584417
O O2 0.029472 0.930022 0.651138
O O3 0.215317 0.025041 0.337801
O O4 0.000000 0.000000 0.500000
O O5 0.021126 0.590491 0.277679
O O6 0.415637 0.141369 0.023428
O O7 0.290329 0.765338 0.960709
O O8 0.251942 0.994548 0.965721
O O9 0.328289 0.573116 0.789539
O O10 0.547686 0.893694 0.811791
O O11 0.626561 0.129700 0.589646
O O12 0.873128 0.652653 0.361377
O O13 0.736686 0.684528 0.350326
O O14 0.674649 0.723711 0.221127
O O15 0.000000 0.000000 0.000000
O O16 0.617241 0.517017 0.641845
O O17 0.593871 0.548530 0.064209
#
# Coordination Sequence:
#
# PCOD8001101 Si02
#       8
#     2   2   2   2   2   2   2   2
#     4   8  17  34  63  97 122 159 209 249 309 379
#     4  11  21  40  65  97 129 168 208 257 320 377
#     4  11  24  44  61  96 132 165 212 264 317 373
#     4  10  21  40  66  96 132 163 206 259 321 380
#     4  11  25  45  62  89 126 166 223 264 309 381
#     4  10  19  41  66  92 125 171 211 262 314 369
#     4  10  20  40  66  94 123 168 217 260 311 378
#     4   9  20  37  63  95 134 167 204 258 318 377
#
# _framework density 21.693973
#
# number of rings (size 3 to 8) (size 9 to 14) (size 15 to 20)
#    0.000    2.000    1.250    1.875    0.000    2.500 
#   18.000    1.250    0.000    0.000    0.000    0.000 
#    0.000    0.000    0.000    0.000    0.000    0.000 
#
# Total GULP energy -198261.393265 kJ/mol
# GULP energy per Si atom -12391.337079 kJ/mol
# Density = 2.164460 g / cm^3
# Si number density = 21.693973 Si / 1000 Ang^3
#
#
#
# Elastic Constant Matrix: (Units=GPa)
#
#
# Indices 1 2 3 4 5 6 
#
# 1 108.8645 52.2423 22.3254 13.5528 0.6626 0.1465
# 2 52.2423 112.5969 42.7886 5.4459 12.7562 11.0626
# 3 22.3254 42.7886 82.9986 2.0098 -8.1168 -2.5244
# 4 13.5528 5.4459 2.0098 31.0750 4.3402 1.8488
# 5 0.6626 12.7562 -8.1168 4.3402 31.9860 7.4464
# 6 0.1465 11.0626 -2.5244 1.8488 7.4464 36.4672
#
#
#
# Elastic Compliance Matrix: (Units=1/GPa)
#
#
# Indices 1 2 3 4 5 6 
#
# 1 0.012703 -0.006164 0.000177 -0.004919 0.002544 0.001561
# 2 -0.006164 0.015621 -0.007264 0.001665 -0.007283 -0.003814
# 3 0.000177 -0.007264 0.016488 -0.000931 0.006734 0.002016
# 4 -0.004919 0.001665 -0.000931 0.034901 -0.005243 -0.001248
# 5 0.002544 -0.007283 0.006734 -0.005243 0.037643 -0.004755
# 6 0.001561 -0.003814 0.002016 -0.001248 -0.004755 0.029746
#
#
# Mechanical properties :
#
#
# Convention : Reuss Voigt Hill
#
# Bulk Modulus (GPa) = 54.61918 59.90808 57.26363
# Shear Modulus (GPa) = 27.82300 32.37922 30.10111
#
# Velocity S-wave (km/s) = 3.58512 3.86754 3.72900
# Velocity P-wave (km/s) = 6.50916 6.90064 6.70776
#
# Compressibility (1/GPa) = 0.01830859
#
# Stress axis : x y z
#
# Youngs Moduli (GPa) = 78.72410 64.01632 60.65045
#
# Poissons Ratio (x) = 0.39463 -0.01071
# Poissons Ratio (y) = 0.48529 0.44054
# Poissons Ratio (z) = -0.01390 0.46499
#
# Static dielectric constant tensor:
#      x y z
#    x 14.433520 6.282530 1.910180 
#    y 6.282530 7.835930 1.360750 
#    z 1.910180 1.360750 4.006220 
# 
# 
# High freq. dielectric constant tensor:
#      x y z
#    x 1.864490 0.000500 -0.017270 
#    y 0.000500 1.849170 0.008370 
#    z -0.017270 0.008370 1.829780 
# 
# From -- ./inp_files/243436.got.cif
#   From: 2010.06.25/outbox.cif.g09.slc.cpg/sg2_122_cif.got.tgz:243436.got - 2010.06.27 13:26:56.
