data_PCOD8001109
_publ_section_title
;
Structure prediction by ZEFSAII (Michael W. Deem and Ramdas Pophale) SiO2 
 PCOD8001109
Probable space group: P -1
;
_chemical_formula_sum "Si O2"
_cell_formula_units_Z 14
_cell_length_a 11.527089
_cell_length_b 9.729567
_cell_length_c 9.218777
_cell_angle_alpha 43.409801
_cell_angle_beta 76.716950
_cell_angle_gamma 58.712265
_cell_volume 587.723070
_symmetry_space_group_name_H-M "P -1"
_symmetry_group_IT_number 2
_symmetry_cell_setting 'triclinic'
loop_
_space_group_symop_operation_xyz
x,y,z
-x,-y,-z
loop_
_atom_site_type_symbol
_atom_site_label
_atom_site_fract_x
_atom_site_fract_y
_atom_site_fract_z
Si Si1 0.441018 0.972543 0.888024
Si Si2 0.236872 0.883213 0.163125
Si Si3 0.214638 0.935659 0.446405
Si Si4 0.096667 0.661791 0.795258
Si Si5 0.762317 0.558993 0.592610
Si Si6 0.369975 0.179405 0.309481
Si Si7 0.996794 0.409662 0.835081
O O1 0.331948 0.224261 0.653192
O O2 0.576676 0.800492 0.880683
O O3 0.500000 0.000000 0.000000
O O4 0.355452 0.846550 0.043275
O O5 0.297639 0.854464 0.331767
O O6 0.203857 0.681219 0.304566
O O7 0.094097 0.132878 0.990242
O O8 0.220645 0.716276 0.697338
O O9 0.269594 0.071129 0.420842
O O10 0.052556 0.101824 0.324077
O O11 0.095825 0.509436 0.774964
O O12 0.116748 0.522494 0.048290
O O13 0.692445 0.589003 0.749158
O O14 0.911732 0.529911 0.618534
O O15 0.500000 0.000000 0.500000
#
# Coordination Sequence:
#
# PCOD8001109 Si02
#       7
#     2   2   2   2   2   2   2
#     4  11  25  47  72  97 138 188 236 286 347 411
#     4  11  25  42  67 106 140 185 231 276 352 428
#     4  10  19  41  67 100 136 181 237 278 345 419
#     4   9  20  36  71 101 134 187 226 282 351 414
#     4  11  25  45  69 104 143 177 231 299 346 407
#     4  10  22  44  70  97 135 181 235 289 336 408
#     4  10  21  42  67 106 145 176 228 288 357 415
#
# _framework density 23.820741999999999
#
# number of rings (size 3 to 8) (size 9 to 14) (size 15 to 20)
#    0.000    1.714    2.857    0.429    2.000    4.000 
#    2.571    0.000    0.000    0.000    0.000    0.000 
#    0.000    0.000    0.000    0.000    0.000    0.000 
#
# Total GULP energy -173443.486951 kJ/mol
# GULP energy per Si atom -12388.820497 kJ/mol
# Density = 2.376653 g / cm^3
# Si number density = 23.820742 Si / 1000 Ang^3
#
#
#
# Elastic Constant Matrix: (Units=GPa)
#
#
# Indices 1 2 3 4 5 6 
#
# 1 76.2877 9.5966 43.6838 10.8736 -4.1148 13.7658
# 2 9.5966 100.9045 22.7658 6.0474 -12.6813 16.1083
# 3 43.6838 22.7658 94.4075 10.4080 -3.8402 8.4268
# 4 10.8736 6.0474 10.4080 33.9563 1.7932 -8.0450
# 5 -4.1148 -12.6813 -3.8402 1.7932 45.6927 10.3904
# 6 13.7658 16.1083 8.4268 -8.0450 10.3904 32.2124
#
#
#
# Elastic Compliance Matrix: (Units=1/GPa)
#
#
# Indices 1 2 3 4 5 6 
#
# 1 0.020989 0.002836 -0.008294 -0.007729 0.004955 -0.011747
# 2 0.002836 0.012973 -0.002706 -0.005147 0.006165 -0.010265
# 3 -0.008294 -0.002706 0.015151 -0.001320 -0.000335 0.000713
# 4 -0.007729 -0.005147 -0.001320 0.037985 -0.007876 0.018249
# 5 0.004955 0.006165 -0.000335 -0.007876 0.027986 -0.016107
# 6 -0.011747 -0.010265 0.000713 0.018249 -0.016107 0.050764
#
#
# Mechanical properties :
#
#
# Convention : Reuss Voigt Hill
#
# Bulk Modulus (GPa) = 30.50133 47.07689 38.78911
# Shear Modulus (GPa) = 25.89269 35.40917 30.65093
#
# Velocity S-wave (km/s) = 3.30052 3.85968 3.59100
# Velocity P-wave (km/s) = 5.23038 6.29831 5.78902
#
# Compressibility (1/GPa) = 0.03278546
#
# Stress axis : x y z
#
# Youngs Moduli (GPa) = 47.64349 77.08200 66.00260
#
# Poissons Ratio (x) = -0.21862 0.54741
# Poissons Ratio (y) = -0.13513 0.17862
# Poissons Ratio (z) = 0.39515 0.20861
#
# Static dielectric constant tensor:
#      x y z
#    x 6.055220 -3.053670 -0.215490 
#    y -3.053670 9.026710 0.735720 
#    z -0.215490 0.735720 4.623070 
# 
# 
# High freq. dielectric constant tensor:
#      x y z
#    x 1.937470 0.000310 0.012240 
#    y 0.000310 1.950530 0.008400 
#    z 0.012240 0.008400 1.938550 
# 
# From -- ./inp_files/190521.got.cif
#   From: 2010.06.25/outbox.cif.g09.slc.cpg/sg2_96_cif.got.tgz:190521.got - 2010.06.27 13:26:56.
