data_PCOD8001562
_publ_section_title
;
Structure prediction by ZEFSAII (Michael W. Deem and Ramdas Pophale) SiO2 
 PCOD8001562
Probable space group: P -1
;
_chemical_formula_sum "Si O2"
_cell_formula_units_Z 16
_cell_length_a 22.523049
_cell_length_b 12.185927
_cell_length_c 5.478471
_cell_angle_alpha 109.799207
_cell_angle_beta 116.331969
_cell_angle_gamma 26.773674
_cell_volume 600.917364
_symmetry_space_group_name_H-M "P -1"
_symmetry_group_IT_number 2
_symmetry_cell_setting 'triclinic'
loop_
_space_group_symop_operation_xyz
x,y,z
-x,-y,-z
loop_
_atom_site_type_symbol
_atom_site_label
_atom_site_fract_x
_atom_site_fract_y
_atom_site_fract_z
Si Si1 0.034135 0.633948 0.569559
Si Si2 0.085327 0.809798 0.732403
Si Si3 0.459592 0.817928 0.877315
Si Si4 0.587692 0.352418 0.299597
Si Si5 0.723486 0.358560 0.732119
Si Si6 0.301660 0.171937 0.413780
Si Si7 0.354859 0.338836 0.576336
Si Si8 0.880042 0.678184 0.112067
O O1 0.004879 0.818191 0.691758
O O2 0.145334 0.448753 0.416061
O O3 0.097184 0.473485 0.800460
O O4 0.890343 0.785885 0.357383
O O5 0.239787 0.530824 0.722992
O O6 0.118785 0.857475 0.038730
O O7 0.000000 0.000000 0.500000
O O8 0.353863 0.872214 0.770287
O O9 0.609105 0.527156 0.864568
O O10 0.399945 0.986631 0.677467
O O11 0.493716 0.844200 0.197337
O O12 0.500000 0.500000 0.500000
O O13 0.712403 0.256596 0.471856
O O14 0.500000 0.500000 0.000000
O O15 0.689828 0.524926 0.641636
O O16 0.372614 0.174967 0.422145
O O17 0.274853 0.105274 0.124511
O O18 0.000000 0.500000 0.000000
#
# Coordination Sequence:
#
# PCOD8001562 Si02
#       8
#     2   2   2   2   2   2   2   2
#     4   9  19  37  56  79 116 148 185 245 295 351
#     4  10  22  38  57  84 111 150 199 243 300 361
#     4  10  21  35  55  85 114 151 196 236 295 359
#     4  10  20  39  62  84 119 163 202 247 299 355
#     4  10  21  37  59  81 115 155 192 245 300 354
#     4  10  20  33  55  86 112 148 191 236 293 358
#     4  10  20  37  56  78 117 149 187 244 297 353
#     4   9  18  35  57  76 109 148 187 236 300 347
#
# _framework density 26.625957
#
# number of rings (size 3 to 8) (size 9 to 14) (size 15 to 20)
#    0.000    2.250    1.250    1.125    0.000    3.000 
#    0.000    3.750    0.000    0.000    0.000    0.000 
#    0.000    0.000    0.000    0.000    0.000    0.000 
#
# Total GULP energy -198221.053571 kJ/mol
# GULP energy per Si atom -12388.815848 kJ/mol
# Density = 2.656536 g / cm^3
# Si number density = 26.625957 Si / 1000 Ang^3
#
#
#
# Elastic Constant Matrix: (Units=GPa)
#
#
# Indices 1 2 3 4 5 6 
#
# 1 182.1613 45.7729 81.7470 -9.5936 40.7493 35.8888
# 2 45.7729 42.5468 40.8814 6.6736 30.4355 22.8148
# 3 81.7470 40.8814 218.8749 -23.7908 43.4274 27.0079
# 4 -9.5936 6.6736 -23.7908 39.5693 -1.7492 3.8172
# 5 40.7493 30.4355 43.4274 -1.7492 60.6538 -8.1118
# 6 35.8888 22.8148 27.0079 3.8172 -8.1118 54.0834
#
#
#
# Elastic Compliance Matrix: (Units=1/GPa)
#
#
# Indices 1 2 3 4 5 6 
#
# 1 0.008728 -0.003613 -0.001000 0.002389 -0.003870 -0.004517
# 2 -0.003613 0.081129 -0.002762 -0.014616 -0.041493 -0.035639
# 3 -0.001000 -0.002762 0.006826 0.004421 -0.003016 -0.002344
# 4 0.002389 -0.014616 0.004421 0.031062 0.003555 0.000714
# 5 -0.003870 -0.041493 -0.003016 0.003555 0.045943 0.028217
# 6 -0.004517 -0.035639 -0.002344 0.000714 0.028217 0.041874
#
#
# Mechanical properties :
#
#
# Convention : Reuss Voigt Hill
#
# Bulk Modulus (GPa) = 12.20513 86.70953 49.45733
# Shear Modulus (GPa) = 19.40818 49.20675 34.30746
#
# Velocity S-wave (km/s) = 2.70278 4.30359 3.59346
# Velocity P-wave (km/s) = 3.78601 7.57172 5.98602
#
# Compressibility (1/GPa) = 0.08193279
#
# Stress axis : x y z
#
# Youngs Moduli (GPa) = 114.57820 12.32609 146.49003
#
# Poissons Ratio (x) = 0.04453 0.14649
# Poissons Ratio (y) = 0.41393 0.40466
# Poissons Ratio (z) = 0.11458 0.03405
#
# Static dielectric constant tensor:
#      x y z
#    x 5.638840 -0.170410 0.802140 
#    y -0.170410 4.538070 0.334300 
#    z 0.802140 0.334300 5.392190 
# 
# 
# High freq. dielectric constant tensor:
#      x y z
#    x 2.098430 -0.014720 0.026900 
#    y -0.014720 2.058780 0.016630 
#    z 0.026900 0.016630 2.085460 
# 
# From -- ./inp_files/71110.got.cif
#   From: 2010.06.25/outbox.cif.g09.slc.cpg/sg2_36_cif.got.tgz:71110.got - 2010.06.27 13:26:56.
