data_PCOD8001028
_publ_section_title
;
Structure prediction by ZEFSAII (Michael W. Deem and Ramdas Pophale) SiO2 
 PCOD8001028
Probable space group: P -1
;
_chemical_formula_sum "Si O2"
_cell_formula_units_Z 12
_cell_length_a 8.698819
_cell_length_b 9.571735
_cell_length_c 11.208835
_cell_angle_alpha 124.111331
_cell_angle_beta 124.048278
_cell_angle_gamma 45.669243
_cell_volume 530.026407
_symmetry_space_group_name_H-M "P -1"
_symmetry_group_IT_number 2
_symmetry_cell_setting 'triclinic'
loop_
_space_group_symop_operation_xyz
x,y,z
-x,-y,-z
loop_
_atom_site_type_symbol
_atom_site_label
_atom_site_fract_x
_atom_site_fract_y
_atom_site_fract_z
Si Si1 0.760171 0.836500 0.517568
Si Si2 0.422178 0.851882 0.922626
Si Si3 0.233808 0.796206 0.029498
Si Si4 0.078346 0.901428 0.265529
Si Si5 0.949710 0.433741 0.266805
Si Si6 0.154782 0.501459 0.169190
O O1 0.801489 0.660950 0.363125
O O2 0.889170 0.738437 0.650716
O O3 0.500000 0.000000 0.500000
O O4 0.857403 0.963352 0.567952
O O5 0.586258 0.642524 0.824175
O O6 0.424898 0.804226 0.043513
O O7 0.173951 0.947298 0.815125
O O8 0.500000 0.000000 0.000000
O O9 0.257992 0.786903 0.178968
O O10 0.228086 0.606623 0.886694
O O11 0.000000 0.000000 0.000000
O O12 0.096286 0.727584 0.273064
O O13 0.119127 0.417730 0.234297
O O14 0.000000 0.500000 0.000000
#
# Coordination Sequence:
#
# PCOD8001028 Si02
#       6
#     2   2   2   2   2   2
#     4  11  27  46  72  95 136 191 232 271 338 413
#     4  11  22  37  65 102 142 171 213 290 344 388
#     4  10  19  40  71  98 131 176 224 284 337 395
#     4  11  24  44  67 101 138 177 229 278 341 407
#     4  11  24  47  69 100 141 176 231 286 332 410
#     4  12  24  40  68 109 135 169 227 285 344 400
#
# _framework density 22.640381000000001
#
# number of rings (size 3 to 8) (size 9 to 14) (size 15 to 20)
#    0.000    1.000    6.667    1.000    2.333    4.000 
#    0.000    1.667    0.000    0.000    0.000    0.000 
#    0.000    0.000    0.000    0.000    0.000    0.000 
#
# Total GULP energy -148776.413479 kJ/mol
# GULP energy per Si atom -12398.034457 kJ/mol
# Density = 2.258885 g / cm^3
# Si number density = 22.640381 Si / 1000 Ang^3
#
#
#
# Elastic Constant Matrix: (Units=GPa)
#
#
# Indices 1 2 3 4 5 6 
#
# 1 136.2378 29.0669 17.1786 10.2826 6.7383 3.1074
# 2 29.0669 94.7909 26.4101 31.0773 10.2958 -3.4829
# 3 17.1786 26.4101 81.6479 32.6003 15.8866 1.9308
# 4 10.2826 31.0773 32.6003 31.0261 7.4390 4.3495
# 5 6.7383 10.2958 15.8866 7.4390 37.6029 7.3683
# 6 3.1074 -3.4829 1.9308 4.3495 7.3683 47.5402
#
#
#
# Elastic Compliance Matrix: (Units=1/GPa)
#
#
# Indices 1 2 3 4 5 6 
#
# 1 0.007978 -0.002568 -0.001402 0.001579 -0.000299 -0.000751
# 2 -0.002568 0.017320 0.003233 -0.019805 -0.002414 0.003492
# 3 -0.001402 0.003233 0.022832 -0.025768 -0.005700 0.002642
# 4 0.001579 -0.019805 -0.025768 0.079290 0.001919 -0.008059
# 5 -0.000299 -0.002414 -0.005700 0.001919 0.030276 -0.004794
# 6 -0.000751 0.003492 0.002642 -0.008059 -0.004794 0.022713
#
#
# Mechanical properties :
#
#
# Convention : Reuss Voigt Hill
#
# Bulk Modulus (GPa) = 21.43437 50.88754 36.16095
# Shear Modulus (GPa) = 25.32476 39.23524 32.28000
#
# Velocity S-wave (km/s) = 3.34813 4.16742 3.78003
# Velocity P-wave (km/s) = 4.94312 6.75883 5.92099
#
# Compressibility (1/GPa) = 0.04665405
#
# Stress axis : x y z
#
# Youngs Moduli (GPa) = 125.35038 57.73698 43.79792
#
# Poissons Ratio (x) = 0.14829 0.06141
# Poissons Ratio (y) = 0.32195 -0.14159
# Poissons Ratio (z) = 0.17577 -0.18665
#
# Static dielectric constant tensor:
#      x y z
#    x 4.864470 0.175760 -0.017990 
#    y 0.175760 4.322890 0.269800 
#    z -0.017990 0.269800 4.223860 
# 
# 
# High freq. dielectric constant tensor:
#      x y z
#    x 1.903030 0.004960 0.005730 
#    y 0.004960 1.908470 0.023760 
#    z 0.005730 0.023760 1.866650 
# 
# From -- ./inp_files/182605.got.cif
#   From: 2010.06.25/outbox.cif.g09.slc.cpg/sg2_92_cif.got.tgz:182605.got - 2010.06.27 13:26:56.
