data_PCOD8001057
_publ_section_title
;
Structure prediction by ZEFSAII (Michael W. Deem and Ramdas Pophale) SiO2 
 PCOD8001057
Probable space group: P -1
;
_chemical_formula_sum "Si O2"
_cell_formula_units_Z 12
_cell_length_a 9.210912
_cell_length_b 17.087662
_cell_length_c 5.341404
_cell_angle_alpha 76.722064
_cell_angle_beta 70.911468
_cell_angle_gamma 132.535271
_cell_volume 446.212958
_symmetry_space_group_name_H-M "P -1"
_symmetry_group_IT_number 2
_symmetry_cell_setting 'triclinic'
loop_
_space_group_symop_operation_xyz
x,y,z
-x,-y,-z
loop_
_atom_site_type_symbol
_atom_site_label
_atom_site_fract_x
_atom_site_fract_y
_atom_site_fract_z
Si Si1 0.089930 0.932085 0.746950
Si Si2 0.686339 0.231004 0.743152
Si Si3 0.790066 0.573423 0.465109
Si Si4 0.396124 0.337082 0.504477
Si Si5 0.725397 0.162782 0.262211
Si Si6 0.345676 0.196708 0.253948
O O1 0.917725 0.867683 0.638006
O O2 0.888609 0.827218 0.163494
O O3 0.298644 0.945227 0.610597
O O4 0.257934 0.085774 0.569320
O O5 0.608406 0.160167 0.572107
O O6 0.009760 0.380693 0.476933
O O7 0.589121 0.132087 0.098541
O O8 0.521164 0.242741 0.880286
O O9 0.580844 0.418537 0.589905
O O10 0.637967 0.587533 0.644806
O O11 0.961090 0.680408 0.050761
O O12 0.523468 0.335462 0.215877
#
# Coordination Sequence:
#
# PCOD8001057 Si02
#       6
#     2   2   2   2   2   2
#     4  10  23  40  61  89 125 171 208 253 309 376
#     4  10  22  41  64  96 126 161 208 260 311 364
#     4   8  20  38  67  90 120 164 212 254 307 374
#     4  10  19  41  62  91 120 166 207 258 307 376
#     4   9  21  43  64  92 124 165 212 247 311 375
#     4  11  24  37  61  93 129 162 207 262 314 364
#
# _framework density 26.892989
#
# number of rings (size 3 to 8) (size 9 to 14) (size 15 to 20)
#    1.000    1.333    0.000    1.500    2.333    3.333 
#    0.000    6.667    0.000    0.000    0.000    0.000 
#    0.000    0.000    0.000    0.000    0.000    0.000 
#
# Total GULP energy -148686.026014 kJ/mol
# GULP energy per Si atom -12390.502168 kJ/mol
# Density = 2.683178 g / cm^3
# Si number density = 26.892989 Si / 1000 Ang^3
#
#
#
# Elastic Constant Matrix: (Units=GPa)
#
#
# Indices 1 2 3 4 5 6 
#
# 1 140.7958 45.4437 13.6768 11.3709 -18.1485 -1.0980
# 2 45.4437 150.7092 29.1735 33.1151 -14.1732 -28.0572
# 3 13.6768 29.1735 57.7667 19.1444 -0.3936 -10.8596
# 4 11.3709 33.1151 19.1444 47.5288 5.6712 -8.4850
# 5 -18.1485 -14.1732 -0.3936 5.6712 25.2502 4.9393
# 6 -1.0980 -28.0572 -10.8596 -8.4850 4.9393 43.1893
#
#
#
# Elastic Compliance Matrix: (Units=1/GPa)
#
#
# Indices 1 2 3 4 5 6 
#
# 1 0.008693 -0.001994 -0.000972 -0.001404 0.005872 -0.002266
# 2 -0.001994 0.010072 -0.001925 -0.005525 0.004570 0.004400
# 3 -0.000972 -0.001925 0.021158 -0.006369 -0.000578 0.002859
# 4 -0.001404 -0.005525 -0.006369 0.029454 -0.011185 0.001839
# 5 0.005872 0.004570 -0.000578 -0.011185 0.049857 -0.004926
# 6 -0.002266 0.004400 0.002859 0.001839 -0.004926 0.027599
#
#
# Mechanical properties :
#
#
# Convention : Reuss Voigt Hill
#
# Bulk Modulus (GPa) = 33.17757 58.42884 45.80321
# Shear Modulus (GPa) = 30.00096 40.59219 35.29657
#
# Velocity S-wave (km/s) = 3.34364 3.88931 3.62675
# Velocity P-wave (km/s) = 5.22209 6.47631 5.88272
#
# Compressibility (1/GPa) = 0.03014084
#
# Stress axis : x y z
#
# Youngs Moduli (GPa) = 115.03185 99.28189 47.26415
#
# Poissons Ratio (x) = 0.19800 0.04593
# Poissons Ratio (y) = 0.22941 0.09099
# Poissons Ratio (z) = 0.11178 0.19114
#
# Static dielectric constant tensor:
#      x y z
#    x 4.874990 -0.086030 -0.319680 
#    y -0.086030 4.461910 -0.329930 
#    z -0.319680 -0.329930 4.700050 
# 
# 
# High freq. dielectric constant tensor:
#      x y z
#    x 2.087150 -0.002430 -0.010830 
#    y -0.002430 2.068050 -0.017470 
#    z -0.010830 -0.017470 2.083590 
# 
# From -- ./inp_files/81864.got.cif
#   From: 2010.06.25/outbox.cif.g09.slc.cpg/sg2_41_cif.got.tgz:81864.got - 2010.06.27 13:26:56.
