data_PCOD8001703
_publ_section_title
;
Structure prediction by ZEFSAII (Michael W. Deem and Ramdas Pophale) SiO2 
 PCOD8001703
Probable space group: P -1
;
_chemical_formula_sum "Si O2"
_cell_formula_units_Z 14
_cell_length_a 14.662719
_cell_length_b 7.497545
_cell_length_c 11.499250
_cell_angle_alpha 92.273835
_cell_angle_beta 50.800665
_cell_angle_gamma 52.429993
_cell_volume 560.562268
_symmetry_space_group_name_H-M "P -1"
_symmetry_group_IT_number 2
_symmetry_cell_setting 'triclinic'
loop_
_space_group_symop_operation_xyz
x,y,z
-x,-y,-z
loop_
_atom_site_type_symbol
_atom_site_label
_atom_site_fract_x
_atom_site_fract_y
_atom_site_fract_z
Si Si1 0.281908 0.562497 0.357810
Si Si2 0.241029 0.088157 0.747773
Si Si3 0.727584 0.144119 0.024805
Si Si4 0.833103 0.488195 0.335321
Si Si5 0.108938 0.736888 0.254032
Si Si6 0.199889 0.417274 0.960663
Si Si7 0.354904 0.524369 0.690980
O O1 0.516538 0.330223 0.150558
O O2 0.270415 0.411701 0.452840
O O3 0.210527 0.575495 0.291990
O O4 0.132706 0.911940 0.527076
O O5 0.269937 0.220503 0.640734
O O6 0.288596 0.110385 0.841663
O O7 0.412544 0.735792 0.553381
O O8 0.013140 0.290491 0.932638
O O9 0.714280 0.208809 0.177292
O O10 0.775898 0.251377 0.907315
O O11 0.925386 0.768858 0.846414
O O12 0.796870 0.348450 0.287275
O O13 0.144347 0.510891 0.144294
O O14 0.356602 0.373032 0.787794
#
# Coordination Sequence:
#
# PCOD8001703 Si02
#       7
#     2   2   2   2   2   2   2
#     4  10  20  34  54  76 109 141 171 218 263 305
#     4  10  20  35  57  78 105 142 173 209 264 316
#     4  10  20  34  56  80 105 137 174 217 263 307
#     4  10  21  33  50  82 112 133 170 219 262 308
#     4   9  19  36  54  78 103 138 183 215 252 311
#     4   9  18  33  55  76 100 135 177 216 249 304
#     4  10  20  35  55  79 106 139 175 212 259 317
#
# _framework density 24.974926
#
# number of rings (size 3 to 8) (size 9 to 14) (size 15 to 20)
#    0.000    2.286    0.000    3.429    0.000    6.286 
#    0.000    0.714    0.000   10.286    0.000    0.000 
#    0.000    0.000    0.000    0.000    0.000    0.000 
#
# Total GULP energy -173571.049869 kJ/mol
# GULP energy per Si atom -12397.932133 kJ/mol
# Density = 2.491808 g / cm^3
# Si number density = 24.974926 Si / 1000 Ang^3
#
#
#
# Elastic Constant Matrix: (Units=GPa)
#
#
# Indices 1 2 3 4 5 6 
#
# 1 85.9485 22.3938 38.8004 6.7036 21.3255 -10.2324
# 2 22.3938 66.3914 16.4274 -5.7029 16.0394 -9.9463
# 3 38.8004 16.4274 131.5426 7.9439 0.2387 -0.3314
# 4 6.7036 -5.7029 7.9439 46.4884 -6.6815 9.8096
# 5 21.3255 16.0394 0.2387 -6.6815 59.7791 2.5949
# 6 -10.2324 -9.9463 -0.3314 9.8096 2.5949 37.4711
#
#
#
# Elastic Compliance Matrix: (Units=1/GPa)
#
#
# Indices 1 2 3 4 5 6 
#
# 1 0.016677 -0.002689 -0.004321 -0.003948 -0.005879 0.005243
# 2 -0.002689 0.017994 -0.001526 0.001475 -0.003867 0.003910
# 3 -0.004321 -0.001526 0.009092 -0.000525 0.001921 -0.001500
# 4 -0.003948 0.001475 -0.000525 0.024494 0.004073 -0.007386
# 5 -0.005879 -0.003867 0.001921 0.004073 0.020532 -0.005103
# 6 0.005243 0.003910 -0.001500 -0.007386 -0.005103 0.031430
#
#
# Mechanical properties :
#
#
# Convention : Reuss Voigt Hill
#
# Bulk Modulus (GPa) = 37.46778 48.79175 43.12977
# Shear Modulus (GPa) = 34.20234 42.49843 38.35038
#
# Velocity S-wave (km/s) = 3.70465 4.12957 3.92287
# Velocity P-wave (km/s) = 5.77355 6.50512 6.15022
#
# Compressibility (1/GPa) = 0.02668960
#
# Stress axis : x y z
#
# Youngs Moduli (GPa) = 59.96265 55.57512 109.99090
#
# Poissons Ratio (x) = 0.14946 0.47527
# Poissons Ratio (y) = 0.16126 0.16785
# Poissons Ratio (z) = 0.25910 0.08481
#
# Static dielectric constant tensor:
#      x y z
#    x 4.444720 0.117870 0.153070 
#    y 0.117870 4.548510 -0.247190 
#    z 0.153070 -0.247190 4.804570 
# 
# 
# High freq. dielectric constant tensor:
#      x y z
#    x 1.969870 0.013620 -0.008010 
#    y 0.013620 2.003970 -0.022560 
#    z -0.008010 -0.022560 2.024670 
# 
# From -- ./inp_files/187199.got.cif
#   From: 2010.06.25/outbox.cif.g09.slc.cpg/sg2_94_cif.got.tgz:187199.got - 2010.06.27 13:26:56.
