data_PCOD8001025
_publ_section_title
;
Structure prediction by ZEFSAII (Michael W. Deem and Ramdas Pophale) SiO2 
 PCOD8001025
Probable space group: P -1
;
_chemical_formula_sum "Si O2"
_cell_formula_units_Z 16
_cell_length_a 11.274348
_cell_length_b 11.597077
_cell_length_c 12.319337
_cell_angle_alpha 103.916606
_cell_angle_beta 38.330463
_cell_angle_gamma 76.560794
_cell_volume 692.967796
_symmetry_space_group_name_H-M "P -1"
_symmetry_group_IT_number 2
_symmetry_cell_setting 'triclinic'
loop_
_space_group_symop_operation_xyz
x,y,z
-x,-y,-z
loop_
_atom_site_type_symbol
_atom_site_label
_atom_site_fract_x
_atom_site_fract_y
_atom_site_fract_z
Si Si1 0.974065 0.149872 0.830615
Si Si2 0.569702 0.875804 0.577308
Si Si3 0.174287 0.814457 0.296782
Si Si4 0.741568 0.670490 0.851453
Si Si5 0.672555 0.450079 0.262037
Si Si6 0.868910 0.713423 0.547116
Si Si7 0.206478 0.237837 0.942860
Si Si8 0.410020 0.793301 0.483501
O O1 0.212774 0.142095 0.649769
O O2 0.830476 0.197127 0.830818
O O3 0.096183 0.969803 0.744032
O O4 0.740819 0.301749 0.111261
O O5 0.658948 0.814540 0.622573
O O6 0.530869 0.774122 0.510975
O O7 0.280840 0.066725 0.833514
O O8 0.064810 0.742979 0.417972
O O9 0.478011 0.712606 0.085771
O O10 0.000000 0.000000 0.500000
O O11 0.710764 0.765337 0.786566
O O12 0.970347 0.475386 0.630354
O O13 0.831837 0.719903 0.893115
O O14 0.500000 0.500000 0.500000
O O15 0.485071 0.623276 0.368663
O O16 0.949582 0.387093 0.091041
O O17 0.462083 0.197937 0.709071
#
# Coordination Sequence:
#
# PCOD8001025 Si02
#       8
#     2   2   2   2   2   2   2   2
#     4  10  22  43  65  99 134 169 222 280 326 400
#     4  10  19  40  71  93 128 169 222 276 330 393
#     4  11  24  44  68  98 134 179 231 276 343 401
#     4  11  24  44  66  98 136 176 228 278 335 401
#     4  12  26  41  62 103 137 172 217 267 342 404
#     4  10  24  42  66  99 132 178 226 281 336 398
#     4  11  22  42  69  96 126 171 223 269 330 403
#     4  11  21  41  71  93 129 175 219 271 336 390
#
# _framework density 23.089096000000001
#
# number of rings (size 3 to 8) (size 9 to 14) (size 15 to 20)
#    0.000    1.250    2.500    4.500    3.500    5.500 
#    9.000    0.000    0.000    0.000    0.000    0.000 
#    0.000    0.000    0.000    0.000    0.000    0.000 
#
# Total GULP energy -198327.634638 kJ/mol
# GULP energy per Si atom -12395.477165 kJ/mol
# Density = 2.303654 g / cm^3
# Si number density = 23.089096 Si / 1000 Ang^3
#
#
#
# Elastic Constant Matrix: (Units=GPa)
#
#
# Indices 1 2 3 4 5 6 
#
# 1 57.4015 9.8574 21.3860 -0.0941 21.0151 -3.9914
# 2 9.8574 108.7155 57.5790 15.4535 7.4356 -19.7621
# 3 21.3860 57.5790 93.1357 22.1155 38.5808 13.4194
# 4 -0.0941 15.4535 22.1155 45.4891 -2.3345 0.8849
# 5 21.0151 7.4356 38.5808 -2.3345 34.6287 -5.6102
# 6 -3.9914 -19.7621 13.4194 0.8849 -5.6102 17.5786
#
#
#
# Elastic Compliance Matrix: (Units=1/GPa)
#
#
# Indices 1 2 3 4 5 6 
#
# 1 0.022129 0.001501 -0.003425 0.000621 -0.008845 0.006472
# 2 0.001501 -0.005010 0.022383 -0.010131 -0.030579 -0.031628
# 3 -0.003425 0.022383 -0.028622 0.007176 0.039099 0.058353
# 4 0.000621 -0.010131 0.007176 0.021922 -0.008022 -0.020390
# 5 -0.008845 -0.030579 0.039099 -0.008022 -0.014716 -0.070527
# 6 0.006472 -0.031628 0.058353 -0.020390 -0.070527 -0.043228
#
#
# Mechanical properties :
#
#
# Convention : Reuss Voigt Hill
#
# Bulk Modulus (GPa) = 33.99792 48.54415 41.27104
# Shear Modulus (GPa) = -63.58259 30.90131 -16.34064
#
# Velocity S-wave (km/s) = -5.25335 3.66232 -2.66319
# Velocity P-wave (km/s) = 4.69471 6.24130 2.90804
#
# Compressibility (1/GPa) = 0.02941356
#
# Stress axis : x y z
#
# Youngs Moduli (GPa) = 45.18991 -199.59633 -34.93794
#
# Poissons Ratio (x) = 0.29952 -0.11966
# Poissons Ratio (y) = -0.06781 0.78201
# Poissons Ratio (z) = 0.15477 4.46752
#
# Static dielectric constant tensor:
#      x y z
#    x 4.298340 -0.298030 0.128820 
#    y -0.298030 4.015010 -0.109150 
#    z 0.128820 -0.109150 3.943660 
# 
# 
# High freq. dielectric constant tensor:
#      x y z
#    x 1.906120 -0.012320 0.019560 
#    y -0.012320 1.905220 0.015630 
#    z 0.019560 0.015630 1.919780 
# 
# From -- ./inp_files/397146.got.cif
#   From: 2010.06.25/outbox.cif.g09.slc.cpg/sg2_199_cif.got.tgz:397146.got - 2010.06.27 13:26:56.
