data_PCOD8001600
_publ_section_title
;
Structure prediction by ZEFSAII (Michael W. Deem and Ramdas Pophale) SiO2 
 PCOD8001600
Probable space group: P -1
;
_chemical_formula_sum "Si O2"
_cell_formula_units_Z 16
_cell_length_a 12.961557
_cell_length_b 13.800719
_cell_length_c 10.422656
_cell_angle_alpha 101.401312
_cell_angle_beta 33.046229
_cell_angle_gamma 121.492492
_cell_volume 742.309334
_symmetry_space_group_name_H-M "P -1"
_symmetry_group_IT_number 2
_symmetry_cell_setting 'triclinic'
loop_
_space_group_symop_operation_xyz
x,y,z
-x,-y,-z
loop_
_atom_site_type_symbol
_atom_site_label
_atom_site_fract_x
_atom_site_fract_y
_atom_site_fract_z
Si Si1 0.305311 0.551392 0.251541
Si Si2 0.196686 0.268874 0.087479
Si Si3 0.386745 0.598505 0.881762
Si Si4 0.751239 0.618344 0.193159
Si Si5 0.960572 0.003710 0.389718
Si Si6 0.603405 0.175290 0.052560
Si Si7 0.952939 0.782468 0.264523
Si Si8 0.841673 0.292250 0.585868
O O1 0.251817 0.644934 0.382011
O O2 0.061980 0.397116 0.490436
O O3 0.561043 0.596670 0.058197
O O4 0.311783 0.558832 0.094434
O O5 0.163410 0.148249 0.150673
O O6 0.941810 0.243011 0.372712
O O7 0.268387 0.298576 0.869400
O O8 0.190285 0.461924 0.968268
O O9 0.351593 0.699462 0.903136
O O10 0.679371 0.664400 0.581537
O O11 0.500000 0.500000 0.500000
O O12 0.962374 0.731445 0.102192
O O13 0.682682 0.955573 0.647013
O O14 0.986096 0.912145 0.257806
O O15 0.000000 0.000000 0.500000
O O16 0.616152 0.175494 0.883065
O O17 0.808711 0.172258 0.892678
#
# Coordination Sequence:
#
# PCOD8001600 Si02
#       8
#     2   2   2   2   2   2   2   2
#     4  10  20  34  58  94 126 147 190 256 309 367
#     4  12  23  38  63  89 124 167 196 247 308 347
#     4   9  18  38  59  92 125 151 202 251 306 368
#     4  10  23  40  61  89 122 162 210 245 294 365
#     4  11  24  42  64  92 121 155 206 250 297 369
#     4  10  21  37  64  89 123 160 190 250 316 347
#     4  10  22  40  60  85 120 165 205 250 287 354
#     4  10  20  33  57  94 123 148 191 249 310 364
#
# _framework density 21.554355000000001
#
# number of rings (size 3 to 8) (size 9 to 14) (size 15 to 20)
#    0.000    1.750    1.250    4.125    3.500    4.000 
#    0.000    4.375    0.000    0.000    0.000    0.000 
#    0.000    0.000    0.000    0.000    0.000    0.000 
#
# Total GULP energy -198231.041219 kJ/mol
# GULP energy per Si atom -12389.440076 kJ/mol
# Density = 2.150530 g / cm^3
# Si number density = 21.554355 Si / 1000 Ang^3
#
#
#
# Elastic Constant Matrix: (Units=GPa)
#
#
# Indices 1 2 3 4 5 6 
#
# 1 57.9787 19.1287 28.0337 2.2963 18.7207 -6.2556
# 2 19.1287 78.4227 19.1542 0.8222 6.4598 2.9915
# 3 28.0337 19.1542 76.1574 0.2822 -3.4741 -9.9552
# 4 2.2963 0.8222 0.2822 32.2089 -11.5713 3.5885
# 5 18.7207 6.4598 -3.4741 -11.5713 33.7710 1.1665
# 6 -6.2556 2.9915 -9.9552 3.5885 1.1665 29.7812
#
#
#
# Elastic Compliance Matrix: (Units=1/GPa)
#
#
# Indices 1 2 3 4 5 6 
#
# 1 0.031826 -0.003332 -0.011129 -0.010583 -0.021964 0.005435
# 2 -0.003332 0.014479 -0.002866 -0.000191 -0.001178 -0.003043
# 3 -0.011129 -0.002866 0.018827 0.003867 0.009862 0.003391
# 4 -0.010583 -0.000191 0.003867 0.039730 0.020138 -0.006487
# 5 -0.021964 -0.001178 0.009862 0.020138 0.050120 -0.005588
# 6 0.005435 -0.003043 0.003391 -0.006487 -0.005588 0.037160
#
#
# Mechanical properties :
#
#
# Convention : Reuss Voigt Hill
#
# Bulk Modulus (GPa) = 32.81092 38.35465 35.58279
# Shear Modulus (GPa) = 21.10102 28.90170 25.00136
#
# Velocity S-wave (km/s) = 3.13224 3.66577 3.40946
# Velocity P-wave (km/s) = 5.32322 5.97914 5.66069
#
# Compressibility (1/GPa) = 0.03047766
#
# Stress axis : x y z
#
# Youngs Moduli (GPa) = 31.42125 69.06460 53.11469
#
# Poissons Ratio (x) = 0.23010 0.59113
# Poissons Ratio (y) = 0.10469 0.15223
# Poissons Ratio (z) = 0.34970 0.19794
#
# Static dielectric constant tensor:
#      x y z
#    x 3.672400 -0.014920 0.094100 
#    y -0.014920 4.459040 0.088420 
#    z 0.094100 0.088420 4.094310 
# 
# 
# High freq. dielectric constant tensor:
#      x y z
#    x 1.810700 -0.015090 0.000400 
#    y -0.015090 1.849090 -0.000300 
#    z 0.000400 -0.000300 1.848430 
# 
# From -- ./inp_files/454826.got.cif
#   From: 2010.06.25/outbox.cif.g09.slc.cpg/sg2_228_cif.got.tgz:454826.got - 2010.06.27 13:26:56.
