data_PCOD8001994
_publ_section_title
;
Structure prediction by ZEFSAII (Michael W. Deem and Ramdas Pophale) SiO2 
 PCOD8001994
Probable space group: P -1
;
_chemical_formula_sum "Si O2"
_cell_formula_units_Z 14
_cell_length_a 9.329652
_cell_length_b 16.687465
_cell_length_c 9.916040
_cell_angle_alpha 118.993736
_cell_angle_beta 149.860676
_cell_angle_gamma 60.066720
_cell_volume 666.717675
_symmetry_space_group_name_H-M "P -1"
_symmetry_group_IT_number 2
_symmetry_cell_setting 'triclinic'
loop_
_space_group_symop_operation_xyz
x,y,z
-x,-y,-z
loop_
_atom_site_type_symbol
_atom_site_label
_atom_site_fract_x
_atom_site_fract_y
_atom_site_fract_z
Si Si1 0.543372 0.838209 0.562752
Si Si2 0.025009 0.325550 0.684302
Si Si3 0.658559 0.211070 0.152593
Si Si4 0.691025 0.062201 0.281202
Si Si5 0.995839 0.527193 0.863722
Si Si6 0.395470 0.646684 0.381176
Si Si7 0.869851 0.108102 0.972995
O O1 0.436492 0.909227 0.653245
O O2 0.478941 0.736156 0.452385
O O3 0.887671 0.832312 0.823714
O O4 0.388478 0.878592 0.333374
O O5 0.876723 0.284831 0.401815
O O6 0.068169 0.429625 0.761707
O O7 0.819983 0.324594 0.646417
O O8 0.330460 0.263057 0.916963
O O9 0.703008 0.154150 0.281127
O O10 0.735773 0.142419 0.035013
O O11 0.000000 0.000000 0.500000
O O12 0.500000 0.000000 0.000000
O O13 0.680956 0.580414 0.611609
O O14 0.000000 0.500000 0.000000
O O15 0.238561 0.592239 0.095207
O O16 0.000000 0.000000 0.000000
#
# Coordination Sequence:
#
# PCOD8001994 Si02
#       7
#     2   2   2   2   2   2   2
#     4  12  25  43  69  92 132 168 219 269 318 391
#     4  11  21  38  65  99 131 165 213 265 328 374
#     4  12  24  41  67  92 132 166 221 269 315 390
#     4  12  25  41  64  96 125 161 211 279 333 363
#     4  10  20  34  62  97 138 165 201 264 325 392
#     4  11  21  38  63 100 132 165 212 262 329 380
#     4  12  27  47  65  91 129 181 222 257 325 397
#
# _framework density 20.998393
#
# number of rings (size 3 to 8) (size 9 to 14) (size 15 to 20)
#    0.000    0.571    1.429    9.857    2.000    0.000 
#    0.000    0.000    0.000   17.143    0.000    0.000 
#    0.000    0.000    0.000    0.000    0.000    0.000 
#
# Total GULP energy -173650.331529 kJ/mol
# GULP energy per Si atom -12403.595109 kJ/mol
# Density = 2.095060 g / cm^3
# Si number density = 20.998393 Si / 1000 Ang^3
#
#
#
# Elastic Constant Matrix: (Units=GPa)
#
#
# Indices 1 2 3 4 5 6 
#
# 1 46.6452 30.3067 28.8019 -4.9586 -1.1591 -8.1075
# 2 30.3067 141.2860 60.4093 2.0441 8.8500 -14.2342
# 3 28.8019 60.4093 158.4711 0.6067 9.3469 -18.8038
# 4 -4.9586 2.0441 0.6067 54.6155 -5.1399 12.2126
# 5 -1.1591 8.8500 9.3469 -5.1399 40.4157 5.4819
# 6 -8.1075 -14.2342 -18.8038 12.2126 5.4819 25.5516
#
#
#
# Elastic Compliance Matrix: (Units=1/GPa)
#
#
# Indices 1 2 3 4 5 6 
#
# 1 0.026916 -0.004421 -0.003112 0.002407 0.002480 0.002105
# 2 -0.004421 0.009529 -0.002252 -0.001767 -0.002407 0.003609
# 3 -0.003112 -0.002252 0.008532 -0.001740 -0.002524 0.005410
# 4 0.002407 -0.001767 -0.001740 0.022086 0.005462 -0.013229
# 5 0.002480 -0.002407 -0.002524 0.005462 0.028119 -0.011055
# 6 0.002105 0.003609 0.005410 -0.013229 -0.011055 0.054491
#
#
# Mechanical properties :
#
#
# Convention : Reuss Voigt Hill
#
# Bulk Modulus (GPa) = 39.36064 65.04869 52.20466
# Shear Modulus (GPa) = 28.13538 39.24218 33.68878
#
# Velocity S-wave (km/s) = 3.66441 4.32767 4.00978
# Velocity P-wave (km/s) = 6.05716 7.48444 6.80830
#
# Compressibility (1/GPa) = 0.02540609
#
# Stress axis : x y z
#
# Youngs Moduli (GPa) = 37.15258 104.94318 117.20644
#
# Poissons Ratio (x) = 0.46396 0.36480
# Poissons Ratio (y) = 0.16425 0.26395
# Poissons Ratio (z) = 0.11563 0.23633
#
# Static dielectric constant tensor:
#      x y z
#    x 3.555960 -0.116290 0.076700 
#    y -0.116290 4.110660 0.472280 
#    z 0.076700 0.472280 4.731210 
# 
# 
# High freq. dielectric constant tensor:
#      x y z
#    x 1.791020 -0.004330 0.009300 
#    y -0.004330 1.845770 0.008070 
#    z 0.009300 0.008070 1.852550 
# 
# From -- ./inp_files/216901.got.cif
#   From: 2010.06.25/outbox.cif.g09.slc.cpg/sg2_109_cif.got.tgz:216901.got - 2010.06.27 13:26:56.
