data_PCOD8001681
_publ_section_title
;
Structure prediction by ZEFSAII (Michael W. Deem and Ramdas Pophale) SiO2 
 PCOD8001681
Probable space group: P -1
;
_chemical_formula_sum "Si O2"
_cell_formula_units_Z 16
_cell_length_a 8.178218
_cell_length_b 23.217499
_cell_length_c 14.376658
_cell_angle_alpha 159.296212
_cell_angle_beta 87.853451
_cell_angle_gamma 102.176268
_cell_volume 836.399637
_symmetry_space_group_name_H-M "P -1"
_symmetry_group_IT_number 2
_symmetry_cell_setting 'triclinic'
loop_
_space_group_symop_operation_xyz
x,y,z
-x,-y,-z
loop_
_atom_site_type_symbol
_atom_site_label
_atom_site_fract_x
_atom_site_fract_y
_atom_site_fract_z
Si Si1 0.694355 1.000000 0.502307
Si Si2 0.812710 0.288417 0.083234
Si Si3 0.611379 0.000003 0.309345
Si Si4 0.867756 0.999995 0.144704
Si Si5 0.709472 0.712420 0.403689
Si Si6 0.475727 0.288421 0.782021
Si Si7 0.317276 0.999998 0.039627
Si Si8 0.997064 0.287588 0.266442
O O1 0.745733 0.999998 0.392276
O O2 0.655675 0.813992 0.279389
O O3 0.500000 0.000000 0.500000
O O4 0.841697 0.186009 0.837413
O O5 0.945060 0.283634 0.153846
O O6 0.876691 0.502290 0.379901
O O7 0.594714 0.184546 0.962207
O O8 0.707915 0.999990 0.211645
O O9 0.589864 0.184565 0.591460
O O10 0.065861 0.186076 0.439750
O O11 0.813406 0.000009 0.039721
O O12 0.879773 0.813910 0.881490
O O13 0.661408 0.716373 0.302957
O O14 0.620735 0.815431 0.620801
O O15 0.625610 0.502299 0.126983
O O16 0.194700 0.815435 0.825504
O O17 0.500000 0.000000 0.000000
#
# Coordination Sequence:
#
# PCOD8001681 Si02
#       8
#     2   2   2   2   2   2   2   2
#     4   8  16  31  54  74  96 134 173 211 254 307
#     4   9  18  36  57  76 105 141 176 218 269 317
#     4  10  20  34  53  77 106 142 178 217 262 311
#     4  11  22  34  53  81 110 141 180 223 262 314
#     4  10  20  35  56  80 106 139 176 220 269 316
#     4   9  18  36  57  76 105 141 176 218 269 317
#     4  11  22  37  56  78 109 143 177 221 270 320
#     4  10  20  35  56  80 106 139 176 220 269 316
#
# _framework density 19.129612000000002
#
# number of rings (size 3 to 8) (size 9 to 14) (size 15 to 20)
#    0.000    2.500    0.000    6.000    0.000    7.000 
#    0.000    7.500    0.000    0.000    0.000    0.000 
#    0.000    0.000    0.000    0.000    0.000    0.000 
#
# Total GULP energy -198353.071556 kJ/mol
# GULP energy per Si atom -12397.066972 kJ/mol
# Density = 1.908607 g / cm^3
# Si number density = 19.129612 Si / 1000 Ang^3
#
#
#
# Elastic Constant Matrix: (Units=GPa)
#
#
# Indices 1 2 3 4 5 6 
#
# 1 59.7129 -1.3402 25.1109 8.8815 0.0010 0.1593
# 2 -1.3402 57.8195 36.7479 -0.8100 1.8600 -19.0995
# 3 25.1109 36.7479 152.7462 35.4957 9.2000 -5.3118
# 4 8.8815 -0.8100 35.4957 21.4587 -6.8838 1.0493
# 5 0.0010 1.8600 9.2000 -6.8838 19.3218 -5.8729
# 6 0.1593 -19.0995 -5.3118 1.0493 -5.8729 34.7654
#
#
#
# Elastic Compliance Matrix: (Units=1/GPa)
#
#
# Indices 1 2 3 4 5 6 
#
# 1 0.018477 0.002938 -0.003392 -0.001623 0.001133 0.001252
# 2 0.002938 0.035503 -0.018722 0.038177 0.025090 0.019717
# 3 -0.003392 -0.018722 0.024496 -0.049093 -0.030449 -0.010189
# 4 -0.001623 0.038177 -0.049093 0.155061 0.081820 0.022622
# 5 0.001133 0.025090 -0.030449 0.081820 0.100154 0.023576
# 6 0.001252 0.019717 -0.010189 0.022622 0.023576 0.041334
#
#
# Mechanical properties :
#
#
# Convention : Reuss Voigt Hill
#
# Bulk Modulus (GPa) = 24.92132 43.47953 34.20043
# Shear Modulus (GPa) = 11.71645 29.09317 20.40481
#
# Velocity S-wave (km/s) = 2.47751 3.90403 3.26952
# Velocity P-wave (km/s) = 4.60869 6.56507 5.67187
#
# Compressibility (1/GPa) = 0.04012628
#
# Stress axis : x y z
#
# Youngs Moduli (GPa) = 54.12047 28.16686 40.82226
#
# Poissons Ratio (x) = -0.08277 0.13847
# Poissons Ratio (y) = -0.15903 0.76425
# Poissons Ratio (z) = 0.18358 0.52733
#
# Static dielectric constant tensor:
#      x y z
#    x 3.157950 -0.234860 0.086290 
#    y -0.234860 4.196880 -0.163510 
#    z 0.086290 -0.163510 3.714200 
# 
# 
# High freq. dielectric constant tensor:
#      x y z
#    x 1.717440 -0.020910 0.007320 
#    y -0.020910 1.760150 -0.003710 
#    z 0.007320 -0.003710 1.747920 
# 
# From -- ./inp_files/508506.got.cif
#   From: 2010.06.25/outbox.cif.g09.slc.cpg/sg2_255_cif.got.tgz:508506.got - 2010.06.27 13:26:56.
