data_PCOD8001799
_publ_section_title
;
Structure prediction by ZEFSAII (Michael W. Deem and Ramdas Pophale) SiO2 
 PCOD8001799
Probable space group: P -1
;
_chemical_formula_sum "Si O2"
_cell_formula_units_Z 16
_cell_length_a 9.806540
_cell_length_b 11.723804
_cell_length_c 21.547049
_cell_angle_alpha 150.998694
_cell_angle_beta 134.390401
_cell_angle_gamma 63.300958
_cell_volume 757.965233
_symmetry_space_group_name_H-M "P -1"
_symmetry_group_IT_number 2
_symmetry_cell_setting 'triclinic'
loop_
_space_group_symop_operation_xyz
x,y,z
-x,-y,-z
loop_
_atom_site_type_symbol
_atom_site_label
_atom_site_fract_x
_atom_site_fract_y
_atom_site_fract_z
Si Si1 0.583994 0.673839 0.350500
Si Si2 0.275550 0.773540 0.386122
Si Si3 0.084441 0.384204 0.249641
Si Si4 0.793702 0.703902 0.027176
Si Si5 0.109192 0.611051 0.998546
Si Si6 0.916771 0.714623 0.571529
Si Si7 0.280227 0.980351 0.114992
Si Si8 0.334191 0.531740 0.510621
O O1 0.466499 0.730183 0.397441
O O2 0.791649 0.667431 0.443636
O O3 0.655466 0.913950 0.437763
O O4 0.423148 0.398359 0.132805
O O5 0.224305 0.638762 0.372727
O O6 0.069074 0.646816 0.215652
O O7 0.124258 0.491856 0.384378
O O8 0.163919 0.163862 0.163936
O O9 0.830800 0.241859 0.080645
O O10 0.995601 0.731843 0.064596
O O11 0.744008 0.485697 0.961779
O O12 0.871865 0.996175 0.219807
O O13 0.255142 0.840348 0.106545
O O14 0.753278 0.673684 0.557793
O O15 0.000000 0.500000 0.500000
O O16 0.536916 0.169274 0.276798
O O17 0.500000 0.500000 0.500000
#
# Coordination Sequence:
#
# PCOD8001799 Si02
#       8
#     2   2   2   2   2   2   2   2
#     4  10  20  34  56  85 116 160 197 241 296 352
#     4   9  17  31  55  90 126 144 189 256 302 337
#     4   9  17  29  48  82 117 145 174 234 296 343
#     4  10  20  34  56  85 116 160 197 241 296 352
#     4   9  17  31  55  90 126 144 189 256 302 337
#     4  12  26  42  58  84 127 161 195 241 296 360
#     4   9  17  29  48  82 117 145 174 234 296 343
#     4  10  20  34  58  84 110 147 195 241 282 344
#
# _framework density 21.109148000000001
#
# number of rings (size 3 to 8) (size 9 to 14) (size 15 to 20)
#    0.000    2.250    1.250    3.000    3.500    3.500 
#    0.000    0.000    0.000    1.500    0.000    0.000 
#    0.000    0.000    0.000    0.000    0.000    0.000 
#
# Total GULP energy -198233.618515 kJ/mol
# GULP energy per Si atom -12389.601157 kJ/mol
# Density = 2.106110 g / cm^3
# Si number density = 21.109148 Si / 1000 Ang^3
#
#
#
# Elastic Constant Matrix: (Units=GPa)
#
#
# Indices 1 2 3 4 5 6 
#
# 1 17.7803 16.1323 12.4876 1.3972 1.0487 3.3964
# 2 16.1323 126.3011 76.5732 -6.4191 -3.0376 14.0128
# 3 12.4876 76.5732 163.3137 -10.4707 6.0011 4.2160
# 4 1.3972 -6.4191 -10.4707 33.7559 7.7685 -0.2529
# 5 1.0487 -3.0376 6.0011 7.7685 13.6887 6.5342
# 6 3.3964 14.0128 4.2160 -0.2529 6.5342 27.5503
#
#
#
# Elastic Compliance Matrix: (Units=1/GPa)
#
#
# Indices 1 2 3 4 5 6 
#
# 1 0.065054 -0.007054 -0.001786 -0.004269 -0.001510 -0.003840
# 2 -0.007054 0.013555 -0.006115 -0.001563 0.010772 -0.007658
# 3 -0.001786 -0.006115 0.009649 0.004204 -0.009855 0.004230
# 4 -0.004269 -0.001563 0.004204 0.036907 -0.026267 0.007247
# 5 -0.001510 0.010772 -0.009855 -0.026267 0.109054 -0.029890
# 6 -0.003840 -0.007658 0.004230 0.007247 -0.029890 0.047174
#
#
# Mechanical properties :
#
#
# Convention : Reuss Voigt Hill
#
# Bulk Modulus (GPa) = 17.13804 57.53125 37.33465
# Shear Modulus (GPa) = 15.11704 28.47912 21.79808
#
# Velocity S-wave (km/s) = 2.67898 3.67704 3.21695
# Velocity P-wave (km/s) = 4.20780 6.73356 5.61456
#
# Compressibility (1/GPa) = 0.05834972
#
# Stress axis : x y z
#
# Youngs Moduli (GPa) = 15.37176 73.77410 103.63608
#
# Poissons Ratio (x) = 0.52038 0.18511
# Poissons Ratio (y) = 0.10843 0.63368
# Poissons Ratio (z) = 0.02746 0.45109
#
# Static dielectric constant tensor:
#      x y z
#    x 3.292740 0.732080 0.260520 
#    y 0.732080 4.939040 -0.073140 
#    z 0.260520 -0.073140 5.158360 
# 
# 
# High freq. dielectric constant tensor:
#      x y z
#    x 1.750960 0.034340 0.011670 
#    y 0.034340 1.831510 -0.009970 
#    z 0.011670 -0.009970 1.853920 
# 
# From -- ./inp_files/274580.got.cif
#   From: 2010.06.25/outbox.cif.g09.slc.cpg/sg2_138_cif.got.tgz:274580.got - 2010.06.27 13:26:56.
