data_PCOD8001374
_publ_section_title
;
Structure prediction by ZEFSAII (Michael W. Deem and Ramdas Pophale) SiO2 
 PCOD8001374
Probable space group: P -1
;
_chemical_formula_sum "Si O2"
_cell_formula_units_Z 16
_cell_length_a 12.351632
_cell_length_b 12.351451
_cell_length_c 9.535393
_cell_angle_alpha 67.808835
_cell_angle_beta 112.191166
_cell_angle_gamma 139.722971
_cell_volume 860.998171
_symmetry_space_group_name_H-M "P -1"
_symmetry_group_IT_number 2
_symmetry_cell_setting 'triclinic'
loop_
_space_group_symop_operation_xyz
x,y,z
-x,-y,-z
loop_
_atom_site_type_symbol
_atom_site_label
_atom_site_fract_x
_atom_site_fract_y
_atom_site_fract_z
Si Si1 0.368909 0.997632 0.074346
Si Si2 0.499418 0.858301 0.232793
Si Si3 0.858276 0.499416 0.767213
Si Si4 0.871363 0.763848 0.657466
Si Si5 0.743396 0.625151 0.969850
Si Si6 0.374859 0.256628 0.969755
Si Si7 0.997657 0.368954 0.925623
Si Si8 0.763804 0.871345 0.342595
O O1 0.466812 0.966293 0.226470
O O2 0.481336 0.110175 0.939509
O O3 0.350900 0.107583 0.094019
O O4 0.183632 0.816327 0.027616
O O5 0.339385 0.660629 0.282635
O O6 0.664246 0.909383 0.347158
O O7 0.909341 0.664245 0.652872
O O8 0.966297 0.466852 0.773517
O O9 0.889785 0.518629 0.939527
O O10 0.770133 0.673642 0.795849
O O11 0.756901 0.756924 0.500045
O O12 0.045436 0.954625 0.682871
O O13 0.567449 0.432542 0.999662
O O14 0.748513 0.748487 0.000095
O O15 0.892401 0.649040 0.094107
O O16 0.326482 0.229959 0.795754
#
# Coordination Sequence:
#
# PCOD8001374 Si02
#       8
#     2   2   2   2   2   2   2   2
#     4   9  16  26  43  67  92 119 152 190 231 272
#     4   9  16  26  43  67  92 119 152 190 231 272
#     4   9  16  26  43  67  92 119 152 190 231 272
#     4  10  20  32  48  71  96 124 157 191 231 277
#     4  10  20  32  48  71  96 124 157 191 231 277
#     4  10  20  32  48  71  96 124 157 191 231 277
#     4   9  16  26  43  67  92 119 152 190 231 272
#     4  10  20  32  48  71  96 124 157 191 231 277
#
# _framework density 18.583083999999999
#
# number of rings (size 3 to 8) (size 9 to 14) (size 15 to 20)
#    0.000    2.500    0.000    6.000    0.000    7.000 
#    0.000    0.000    0.000    1.500    0.000    0.000 
#    0.000    0.000    0.000    0.000    0.000    0.000 
#
# Total GULP energy -198214.677411 kJ/mol
# GULP energy per Si atom -12388.417338 kJ/mol
# Density = 1.854079 g / cm^3
# Si number density = 18.583084 Si / 1000 Ang^3
#
#
#
# Elastic Constant Matrix: (Units=GPa)
#
#
# Indices 1 2 3 4 5 6 
#
# 1 132.8304 30.3188 47.8869 -9.6265 40.4865 -20.3524
# 2 30.3188 56.1604 18.9958 -9.4335 11.9329 -11.7593
# 3 47.8869 18.9958 75.1515 -13.0105 35.7710 -12.1018
# 4 -9.6265 -9.4335 -13.0105 22.4806 -4.9746 9.2210
# 5 40.4865 11.9329 35.7710 -4.9746 34.3575 -8.6422
# 6 -20.3524 -11.7593 -12.1018 9.2210 -8.6422 30.5593
#
#
#
# Elastic Compliance Matrix: (Units=1/GPa)
#
#
# Indices 1 2 3 4 5 6 
#
# 1 0.012876 -0.003366 -0.001218 -0.000739 -0.011925 0.003648
# 2 -0.003366 0.021930 -0.001928 0.005050 0.000076 0.003932
# 3 -0.001218 -0.001928 0.028854 0.009712 -0.026682 -0.000603
# 4 -0.000739 0.005050 0.009712 0.056007 -0.006248 -0.013370
# 5 -0.011925 0.000076 -0.026682 -0.006248 0.070874 0.003450
# 6 0.003648 0.003932 -0.000603 -0.013370 0.003450 0.041437
#
#
# Mechanical properties :
#
#
# Convention : Reuss Voigt Hill
#
# Bulk Modulus (GPa) = 19.74806 50.94949 35.34877
# Shear Modulus (GPa) = 19.09260 28.60886 23.85073
#
# Velocity S-wave (km/s) = 3.20881 3.92792 3.58643
# Velocity P-wave (km/s) = 4.93747 6.93167 6.01775
#
# Compressibility (1/GPa) = 0.05063788
#
# Stress axis : x y z
#
# Youngs Moduli (GPa) = 77.66424 45.59874 34.65676
#
# Poissons Ratio (x) = 0.15347 0.04222
# Poissons Ratio (y) = 0.26138 0.06680
# Poissons Ratio (z) = 0.09462 0.08790
#
# Static dielectric constant tensor:
#      x y z
#    x 4.031670 -0.248050 0.736320 
#    y -0.248050 3.440300 -0.267990 
#    z 0.736320 -0.267990 3.184690 
# 
# 
# High freq. dielectric constant tensor:
#      x y z
#    x 1.724100 0.002400 0.055970 
#    y 0.002400 1.729800 -0.020370 
#    z 0.055970 -0.020370 1.667280 
# 
# From -- ./inp_files/412616.got.cif
#   From: 2010.06.25/outbox.cif.g09.slc.cpg/sg2_207_cif.got.tgz:412616.got - 2010.06.27 13:26:56.
