data_PCOD8001312
_publ_section_title
;
Structure prediction by ZEFSAII (Michael W. Deem and Ramdas Pophale) SiO2 
 PCOD8001312
Probable space group: P -1
;
_chemical_formula_sum "Si O2"
_cell_formula_units_Z 14
_cell_length_a 9.695354
_cell_length_b 7.032880
_cell_length_c 16.995157
_cell_angle_alpha 55.421837
_cell_angle_beta 110.720537
_cell_angle_gamma 132.808514
_cell_volume 699.003973
_symmetry_space_group_name_H-M "P -1"
_symmetry_group_IT_number 2
_symmetry_cell_setting 'triclinic'
loop_
_space_group_symop_operation_xyz
x,y,z
-x,-y,-z
loop_
_atom_site_type_symbol
_atom_site_label
_atom_site_fract_x
_atom_site_fract_y
_atom_site_fract_z
Si Si1 0.963649 0.979247 0.406846
Si Si2 0.257811 0.301329 0.787877
Si Si3 0.039138 0.854452 0.108861
Si Si4 0.030232 0.322570 0.196357
Si Si5 0.359723 0.567163 0.583593
Si Si6 0.680041 0.725548 0.809088
Si Si7 0.255149 0.946424 0.405989
O O1 0.042309 0.273735 0.304351
O O2 0.052347 0.833556 0.420407
O O3 0.000000 0.000000 0.500000
O O4 0.737896 0.749149 0.402400
O O5 0.124983 0.300228 0.823170
O O6 0.290524 0.513051 0.673275
O O7 0.459327 0.443079 0.836131
O O8 0.158372 0.969311 0.813330
O O9 0.038100 0.605174 0.124485
O O10 0.240644 0.112383 0.128620
O O11 0.000000 0.000000 0.000000
O O12 0.211377 0.396154 0.171127
O O13 0.288364 0.712363 0.483902
O O14 0.584398 0.756216 0.582240
O O15 0.719880 0.978154 0.698985
#
# Coordination Sequence:
#
# PCOD8001312 Si02
#       7
#     2   2   2   2   2   2   2
#     4  10  20  29  50  80 108 142 177 214 268 326
#     4   9  20  39  59  81 114 151 184 225 280 335
#     4  11  24  39  59  86 110 141 191 241 281 326
#     4   9  21  39  55  81 117 145 182 236 277 325
#     4   9  18  33  52  76 108 144 179 215 261 322
#     4   9  20  39  59  81 114 151 184 225 280 335
#     4   9  18  33  52  76 108 144 179 215 261 322
#
# _framework density 20.028497999999999
#
# number of rings (size 3 to 8) (size 9 to 14) (size 15 to 20)
#    0.000    2.571    0.000    1.286    4.000    4.571 
#    0.000    1.429    0.000    0.000    0.000    0.000 
#    0.000    0.000    0.000    0.000    0.000    0.000 
#
# Total GULP energy -173478.695921 kJ/mol
# GULP energy per Si atom -12391.335423 kJ/mol
# Density = 1.998291 g / cm^3
# Si number density = 20.028498 Si / 1000 Ang^3
#
#
#
# Elastic Constant Matrix: (Units=GPa)
#
#
# Indices 1 2 3 4 5 6 
#
# 1 59.4160 40.1524 13.5939 -5.7815 10.1393 8.2770
# 2 40.1524 99.2379 23.5964 8.8614 14.7019 11.9491
# 3 13.5939 23.5964 79.6240 7.4233 21.8870 -7.0565
# 4 -5.7815 8.8614 7.4233 24.9338 -2.9422 9.4430
# 5 10.1393 14.7019 21.8870 -2.9422 27.1743 -2.0270
# 6 8.2770 11.9491 -7.0565 9.4430 -2.0270 35.2690
#
#
#
# Elastic Compliance Matrix: (Units=1/GPa)
#
#
# Indices 1 2 3 4 5 6 
#
# 1 0.027051 -0.010393 -0.003151 0.013484 -0.001004 -0.007126
# 2 -0.010393 0.016139 -0.001026 -0.007896 -0.004987 -0.001407
# 3 -0.003151 -0.001026 0.018801 -0.010180 -0.014009 0.006769
# 4 0.013484 -0.007896 -0.010180 0.056993 0.012337 -0.017076
# 5 -0.001004 -0.004987 -0.014009 0.012337 0.052404 -0.001169
# 6 -0.007126 -0.001407 0.006769 -0.017076 -0.001169 0.036362
#
#
# Mechanical properties :
#
#
# Convention : Reuss Voigt Hill
#
# Bulk Modulus (GPa) = 30.44077 43.66257 37.05167
# Shear Modulus (GPa) = 20.17428 28.20445 24.18937
#
# Velocity S-wave (km/s) = 3.17721 3.75669 3.47904
# Velocity P-wave (km/s) = 5.35642 6.37687 5.88879
#
# Compressibility (1/GPa) = 0.03285068
#
# Stress axis : x y z
#
# Youngs Moduli (GPa) = 36.96722 61.96104 53.18887
#
# Poissons Ratio (x) = 0.64397 0.16760
# Poissons Ratio (y) = 0.38421 0.05458
# Poissons Ratio (z) = 0.11648 0.06358
#
# Static dielectric constant tensor:
#      x y z
#    x 8.251780 -1.345440 -0.005120 
#    y -1.345440 4.405310 0.156580 
#    z -0.005120 0.156580 3.585740 
# 
# 
# High freq. dielectric constant tensor:
#      x y z
#    x 1.759980 0.027950 -0.000820 
#    y 0.027950 1.781090 0.009890 
#    z -0.000820 0.009890 1.778180 
# 
# From -- ./inp_files/45660.got.cif
#   From: 2010.06.25/outbox.cif.g09.slc.cpg/sg2_23_cif.got.tgz:45660.got - 2010.06.27 13:26:56.
