data_PCOD8001061
_publ_section_title
;
Structure prediction by ZEFSAII (Michael W. Deem and Ramdas Pophale) SiO2 
 PCOD8001061
Probable space group: P -1
;
_chemical_formula_sum "Si O2"
_cell_formula_units_Z 16
_cell_length_a 8.899969
_cell_length_b 12.306466
_cell_length_c 9.097385
_cell_angle_alpha 129.916080
_cell_angle_beta 96.291680
_cell_angle_gamma 82.171383
_cell_volume 756.786659
_symmetry_space_group_name_H-M "P -1"
_symmetry_group_IT_number 2
_symmetry_cell_setting 'triclinic'
loop_
_space_group_symop_operation_xyz
x,y,z
-x,-y,-z
loop_
_atom_site_type_symbol
_atom_site_label
_atom_site_fract_x
_atom_site_fract_y
_atom_site_fract_z
Si Si1 0.866386 0.193984 0.302102
Si Si2 0.860614 0.406111 0.248451
Si Si3 0.623544 0.066619 0.474641
Si Si4 0.135315 0.552732 0.270392
Si Si5 0.817198 0.285236 0.855581
Si Si6 0.648803 0.578466 0.601344
Si Si7 0.071317 0.053772 0.701390
Si Si8 0.467775 0.860806 0.787529
O O1 0.941264 0.277854 0.249168
O O2 0.864014 0.287378 0.529518
O O3 0.695256 0.183498 0.216070
O O4 0.948925 0.043094 0.236389
O O5 0.768851 0.523006 0.441144
O O6 0.985074 0.483146 0.239607
O O7 0.752746 0.343889 0.057519
O O8 0.701311 0.184272 0.681659
O O9 0.531648 0.131566 0.382231
O O10 0.500000 0.000000 0.500000
O O11 0.749247 0.947458 0.317539
O O12 0.152831 0.577045 0.119600
O O13 0.280424 0.455617 0.260776
O O14 0.983389 0.207185 0.851407
O O15 0.500000 0.500000 0.500000
O O16 0.607818 0.746322 0.738127
O O17 0.000000 0.000000 0.500000
O O18 0.500000 0.000000 0.000000
#
# Coordination Sequence:
#
# PCOD8001061 Si02
#       8
#     2   2   2   2   2   2   2   2
#     4  10  19  41  63  92 128 161 218 272 314 383
#     4  11  25  38  65  98 124 173 225 263 320 397
#     4  10  22  40  62  95 130 168 211 271 327 392
#     4  11  21  42  64  89 132 172 219 264 317 388
#     4  11  22  43  63  93 136 168 215 273 321 388
#     4  11  21  43  68  90 130 176 208 270 335 379
#     4   9  18  38  66  85 128 175 198 262 344 361
#     4  11  23  41  67  93 127 169 213 269 329 385
#
# _framework density 21.142022000000001
#
# number of rings (size 3 to 8) (size 9 to 14) (size 15 to 20)
#    0.000    1.500    6.250    1.875    1.750    3.500 
#    4.500    3.750    0.000    0.000    0.000    0.000 
#    0.000    0.000    0.000    0.000    0.000    0.000 
#
# Total GULP energy -198239.816887 kJ/mol
# GULP energy per Si atom -12389.988555 kJ/mol
# Density = 2.109390 g / cm^3
# Si number density = 21.142022 Si / 1000 Ang^3
#
#
#
# Elastic Constant Matrix: (Units=GPa)
#
#
# Indices 1 2 3 4 5 6 
#
# 1 70.7313 58.2144 13.6399 4.9193 5.7075 1.6860
# 2 58.2144 174.6679 55.1394 -7.6866 -10.9405 -18.5974
# 3 13.6399 55.1394 94.1809 -4.0345 4.8293 -7.0188
# 4 4.9193 -7.6866 -4.0345 26.4710 -0.8746 0.6814
# 5 5.7075 -10.9405 4.8293 -0.8746 20.6827 3.1048
# 6 1.6860 -18.5974 -7.0188 0.6814 3.1048 40.9399
#
#
#
# Elastic Compliance Matrix: (Units=1/GPa)
#
#
# Indices 1 2 3 4 5 6 
#
# 1 0.023636 -0.010210 0.002562 -0.007264 -0.012209 -0.004125
# 2 -0.010210 0.012211 -0.005678 0.004808 0.010184 0.004142
# 3 0.002562 -0.005678 0.013938 -0.000238 -0.007011 0.000241
# 4 -0.007264 0.004808 -0.000238 0.040656 0.006127 0.001301
# 5 -0.012209 0.010184 -0.007011 0.006127 0.059101 -0.000657
# 6 -0.004125 0.004142 0.000241 0.001301 -0.000657 0.026547
#
#
# Mechanical properties :
#
#
# Convention : Reuss Voigt Hill
#
# Bulk Modulus (GPa) = 43.22824 65.95194 54.59009
# Shear Modulus (GPa) = 23.75854 31.79115 27.77485
#
# Velocity S-wave (km/s) = 3.35589 3.88196 3.62847
# Velocity P-wave (km/s) = 5.95877 7.16626 6.59023
#
# Compressibility (1/GPa) = 0.02313303
#
# Stress axis : x y z
#
# Youngs Moduli (GPa) = 42.30874 81.89497 71.74486
#
# Poissons Ratio (x) = 0.83613 -0.18380
# Poissons Ratio (y) = 0.43196 0.40736
# Poissons Ratio (z) = -0.10839 0.46499
#
# Static dielectric constant tensor:
#      x y z
#    x 3.891380 -0.143320 0.148940 
#    y -0.143320 3.989260 -0.179650 
#    z 0.148940 -0.179650 3.885010 
# 
# 
# High freq. dielectric constant tensor:
#      x y z
#    x 1.808490 -0.000720 0.013290 
#    y -0.000720 1.844740 -0.013060 
#    z 0.013290 -0.013060 1.825570 
# 
# From -- ./inp_files/190895.got.cif
#   From: 2010.06.25/outbox.cif.g09.slc.cpg/sg2_96_cif.got.tgz:190895.got - 2010.06.27 13:26:56.
