data_PCOD8001773
_publ_section_title
;
Structure prediction by ZEFSAII (Michael W. Deem and Ramdas Pophale) SiO2 
 PCOD8001773
Probable space group: P -1
;
_chemical_formula_sum "Si O2"
_cell_formula_units_Z 14
_cell_length_a 11.309431
_cell_length_b 15.570586
_cell_length_c 6.521580
_cell_angle_alpha 86.663286
_cell_angle_beta 123.026737
_cell_angle_gamma 126.049723
_cell_volume 717.712069
_symmetry_space_group_name_H-M "P -1"
_symmetry_group_IT_number 2
_symmetry_cell_setting 'triclinic'
loop_
_space_group_symop_operation_xyz
x,y,z
-x,-y,-z
loop_
_atom_site_type_symbol
_atom_site_label
_atom_site_fract_x
_atom_site_fract_y
_atom_site_fract_z
Si Si1 0.266779 0.811090 0.855926
Si Si2 0.422781 0.373564 0.957946
Si Si3 0.218922 0.059761 0.871067
Si Si4 0.518072 0.257865 0.823365
Si Si5 0.064616 0.198656 0.383436
Si Si6 0.501220 0.033492 0.270538
Si Si7 0.692954 0.768144 0.751156
O O1 0.298987 0.842558 0.636685
O O2 0.078239 0.778141 0.768415
O O3 0.291252 0.721023 0.958966
O O4 0.457165 0.930387 0.111742
O O5 0.557127 0.367121 0.946275
O O6 0.208668 0.281190 0.686691
O O7 0.500000 0.500000 0.000000
O O8 0.425486 0.344697 0.200936
O O9 0.331960 0.144573 0.775097
O O10 0.335752 0.034752 0.101471
O O11 0.184067 0.117973 0.004517
O O12 0.030092 0.932971 0.631611
O O13 0.462611 0.244445 0.533464
O O14 0.165920 0.230619 0.255345
O O15 0.500000 0.000000 0.500000
#
# Coordination Sequence:
#
# PCOD8001773 Si02
#       7
#     2   2   2   2   2   2   2
#     4   9  18  32  48  78 110 134 170 211 254 301
#     4  10  23  41  56  72  97 137 185 225 262 304
#     4   9  18  31  49  82 113 138 171 204 251 309
#     4   9  19  35  56  78 108 141 170 209 253 313
#     4  10  21  33  53  81 112 138 167 216 259 306
#     4   9  16  27  48  72 109 151 170 194 242 311
#     4  10  20  34  56  78 102 141 174 209 263 317
#
# _framework density 19.506430000000002
#
# number of rings (size 3 to 8) (size 9 to 14) (size 15 to 20)
#    0.000    2.571    0.000    2.143    0.000   10.857 
#    0.000    0.714    0.000    1.714    0.000    0.000 
#    0.000    0.000    0.000    0.000    0.000    0.000 
#
# Total GULP energy -173469.715694 kJ/mol
# GULP energy per Si atom -12390.693978 kJ/mol
# Density = 1.946203 g / cm^3
# Si number density = 19.506430 Si / 1000 Ang^3
#
#
#
# Elastic Constant Matrix: (Units=GPa)
#
#
# Indices 1 2 3 4 5 6 
#
# 1 99.1583 26.9565 30.3376 -5.8895 4.5589 -17.0793
# 2 26.9565 109.4058 53.0307 -10.0485 -7.4081 -22.7511
# 3 30.3376 53.0307 92.2400 -19.6736 -14.5804 -0.9635
# 4 -5.8895 -10.0485 -19.6736 23.0746 2.0277 -4.1600
# 5 4.5589 -7.4081 -14.5804 2.0277 26.1769 -7.2078
# 6 -17.0793 -22.7511 -0.9635 -4.1600 -7.2078 27.1870
#
#
#
# Elastic Compliance Matrix: (Units=1/GPa)
#
#
# Indices 1 2 3 4 5 6 
#
# 1 0.012911 0.000725 -0.004709 0.001275 -0.002543 0.008072
# 2 0.000725 0.016937 -0.008592 0.002731 0.004023 0.015809
# 3 -0.004709 -0.008592 0.020841 0.011133 0.007564 -0.005701
# 4 0.001275 0.002731 0.011133 0.056277 0.006173 0.013729
# 5 -0.002543 0.004023 0.007564 0.006173 0.047831 0.015662
# 6 0.008072 0.015809 -0.005701 0.013729 0.015662 0.061134
#
#
# Mechanical properties :
#
#
# Convention : Reuss Voigt Hill
#
# Bulk Modulus (GPa) = 39.16015 57.93930 48.54973
# Shear Modulus (GPa) = 20.03238 27.98632 24.00935
#
# Velocity S-wave (km/s) = 3.20810 3.79188 3.51214
# Velocity P-wave (km/s) = 5.81736 6.99559 6.43350
#
# Compressibility (1/GPa) = 0.02553616
#
# Stress axis : x y z
#
# Youngs Moduli (GPa) = 77.45047 59.04112 47.98336
#
# Poissons Ratio (x) = -0.04278 0.22595
# Poissons Ratio (y) = -0.05612 0.41229
# Poissons Ratio (z) = 0.36470 0.50730
#
# Static dielectric constant tensor:
#      x y z
#    x 2.052180 -0.789200 0.291080 
#    y -0.789200 3.311860 -0.113800 
#    z 0.291080 -0.113800 3.424960 
# 
# 
# High freq. dielectric constant tensor:
#      x y z
#    x 1.763990 -0.021720 -0.009360 
#    y -0.021720 1.727940 -0.030030 
#    z -0.009360 -0.030030 1.751450 
# 
# From -- ./inp_files/65639.got.cif
#   From: 2010.06.25/outbox.cif.g09.slc.cpg/sg2_33_cif.got.tgz:65639.got - 2010.06.27 13:26:56.
