data_PCOD8001055
_publ_section_title
;
Structure prediction by ZEFSAII (Michael W. Deem and Ramdas Pophale) SiO2 
 PCOD8001055
Probable space group: P -1
;
_chemical_formula_sum "Si O2"
_cell_formula_units_Z 14
_cell_length_a 12.282963
_cell_length_b 24.967071
_cell_length_c 5.206655
_cell_angle_alpha 120.491257
_cell_angle_beta 54.623492
_cell_angle_gamma 145.732785
_cell_volume 731.586739
_symmetry_space_group_name_H-M "P -1"
_symmetry_group_IT_number 2
_symmetry_cell_setting 'triclinic'
loop_
_space_group_symop_operation_xyz
x,y,z
-x,-y,-z
loop_
_atom_site_type_symbol
_atom_site_label
_atom_site_fract_x
_atom_site_fract_y
_atom_site_fract_z
Si Si1 0.621818 0.978233 0.304281
Si Si2 0.944325 0.259583 0.030213
Si Si3 0.760057 0.385402 0.246755
Si Si4 0.733162 0.058918 0.848548
Si Si5 0.258745 0.761421 0.250053
Si Si6 0.365346 0.461938 0.841735
Si Si7 0.764179 0.447384 0.891805
O O1 0.474585 0.867996 0.290510
O O2 0.500000 0.000000 0.500000
O O3 0.782114 0.039414 0.471014
O O4 0.750607 0.016544 0.958526
O O5 0.894731 0.285022 0.409680
O O6 0.892169 0.170434 0.955558
O O7 0.815018 0.231066 0.887636
O O8 0.181540 0.347975 0.843553
O O9 0.663791 0.366954 0.613631
O O10 0.998392 0.482180 0.208181
O O11 0.712311 0.300068 0.004475
O O12 0.664947 0.397814 0.186616
O O13 0.500000 0.000000 0.000000
O O14 0.500000 0.500000 0.500000
O O15 0.500000 0.500000 0.000000
O O16 0.264028 0.493464 0.030327
#
# Coordination Sequence:
#
# PCOD8001055 Si02
#       7
#     2   2   2   2   2   2   2
#     4  10  16  27  43  72 110 146 154 201 262 341
#     4  12  21  32  52  75 111 148 176 219 267 324
#     4  10  21  33  55  81 104 141 176 219 285 334
#     4  10  16  29  44  73 106 145 160 203 275 335
#     4  12  19  30  51  80 112 143 172 204 272 344
#     4  12  26  41  56  77 107 151 198 231 260 305
#     4  10  21  38  54  74 106 138 184 233 271 317
#
# _framework density 19.136485
#
# number of rings (size 3 to 8) (size 9 to 14) (size 15 to 20)
#    0.000    1.143    7.143    2.571    4.000    0.000 
#    0.000    0.000    0.000    0.000    0.000    0.000 
#    0.000   22.857    0.000    0.000    0.000    0.000 
#
# Total GULP energy -173469.698845 kJ/mol
# GULP energy per Si atom -12390.692775 kJ/mol
# Density = 1.909293 g / cm^3
# Si number density = 19.136485 Si / 1000 Ang^3
#
#
#
# Elastic Constant Matrix: (Units=GPa)
#
#
# Indices 1 2 3 4 5 6 
#
# 1 83.1286 20.1266 38.2857 -6.0404 37.8968 -8.1690
# 2 20.1266 118.0037 41.9140 9.9664 7.1182 -13.7061
# 3 38.2857 41.9140 106.5194 5.3999 45.2113 -4.9976
# 4 -6.0404 9.9664 5.3999 31.4083 -3.3280 6.4901
# 5 37.8968 7.1182 45.2113 -3.3280 33.8077 -5.7306
# 6 -8.1690 -13.7061 -4.9976 6.4901 -5.7306 16.8734
#
#
#
# Elastic Compliance Matrix: (Units=1/GPa)
#
#
# Indices 1 2 3 4 5 6 
#
# 1 0.031017 -0.007851 0.013835 0.001706 -0.052419 -0.005722
# 2 -0.007851 0.014831 -0.012422 -0.004513 0.024313 0.014560
# 3 0.013835 -0.012422 0.035679 -0.003556 -0.063144 -0.012902
# 4 0.001706 -0.004513 -0.003556 0.038220 0.004674 -0.017007
# 5 -0.052419 0.024313 -0.063144 0.004674 0.173692 0.032862
# 6 -0.005722 0.014560 -0.012902 -0.017007 0.032862 0.082203
#
#
# Mechanical properties :
#
#
# Convention : Reuss Voigt Hill
#
# Bulk Modulus (GPa) = 14.56626 56.47823 35.52225
# Shear Modulus (GPa) = 12.15357 30.23957 21.19657
#
# Velocity S-wave (km/s) = 2.52285 3.97949 3.33175
# Velocity P-wave (km/s) = 4.01431 7.11987 5.77959
#
# Compressibility (1/GPa) = 0.06865180
#
# Stress axis : x y z
#
# Youngs Moduli (GPa) = 32.24008 67.42546 28.02774
#
# Poissons Ratio (x) = 0.52936 -0.38776
# Poissons Ratio (y) = 0.25312 0.34815
# Poissons Ratio (z) = -0.44604 0.83754
#
# Static dielectric constant tensor:
#      x y z
#    x -1.887690 0.241760 -4.953460 
#    y 0.241760 3.441550 0.613820 
#    z -4.953460 0.613820 -2.025040 
# 
# 
# High freq. dielectric constant tensor:
#      x y z
#    x 1.722850 -0.030070 0.059130 
#    y -0.030070 1.729640 0.020920 
#    z 0.059130 0.020920 1.740820 
# 
# From -- ./inp_files/84564.got.cif
#   From: 2010.06.25/outbox.cif.g09.slc.cpg/sg2_43_cif.got.tgz:84564.got - 2010.06.27 13:26:56.
