data_PCOD8001858
_publ_section_title
;
Structure prediction by ZEFSAII (Michael W. Deem and Ramdas Pophale) SiO2 
 PCOD8001858
Probable space group: P -1
;
_chemical_formula_sum "Si O2"
_cell_formula_units_Z 16
_cell_length_a 18.069167
_cell_length_b 12.083399
_cell_length_c 21.213558
_cell_angle_alpha 33.083387
_cell_angle_beta 19.086685
_cell_angle_gamma 41.534714
_cell_volume 802.087249
_symmetry_space_group_name_H-M "P -1"
_symmetry_group_IT_number 2
_symmetry_cell_setting 'triclinic'
loop_
_space_group_symop_operation_xyz
x,y,z
-x,-y,-z
loop_
_atom_site_type_symbol
_atom_site_label
_atom_site_fract_x
_atom_site_fract_y
_atom_site_fract_z
Si Si1 0.798542 0.569784 0.878391
Si Si2 0.158114 0.798234 0.392508
Si Si3 0.800646 0.432232 0.141014
Si Si4 0.126565 0.469320 0.348797
Si Si5 0.663089 0.769195 0.009431
Si Si6 0.525644 0.269244 0.141309
Si Si7 0.912507 0.216637 0.029828
Si Si8 0.371198 0.088358 0.690850
O O1 0.981377 0.771811 0.606490
O O2 0.639197 0.636692 0.027730
O O3 0.620680 0.459525 0.021460
O O4 0.946730 0.414322 0.861384
O O5 0.411378 0.801123 0.215455
O O6 0.074673 0.598866 0.509046
O O7 0.159322 0.007395 0.252426
O O8 0.763449 0.649398 0.040538
O O9 0.865059 0.280920 0.108172
O O10 0.560663 0.304348 0.425874
O O11 0.000000 0.500000 0.000000
O O12 0.261849 0.282309 0.333094
O O13 0.000000 0.500000 0.500000
O O14 0.309164 0.684408 0.076384
O O15 0.523046 0.047249 0.279548
O O16 0.699498 0.033615 0.260538
O O17 0.145706 0.136012 0.882182
#
# Coordination Sequence:
#
# PCOD8001858 Si02
#       8
#     2   2   2   2   2   2   2   2
#     4   9  17  35  58  79 108 140 182 235 277 324
#     4  10  20  34  58  79 108 143 186 229 272 332
#     4  11  24  38  58  84 125 156 188 239 293 347
#     4  10  20  35  55  81 114 143 177 234 286 331
#     4  10  21  36  53  82 107 148 189 220 273 337
#     4   9  20  34  54  84 108 142 185 230 285 332
#     4   9  20  38  62  87 109 151 201 239 290 335
#     4  10  20  38  61  84 115 149 202 243 276 346
#
# _framework density 19.947955
#
# number of rings (size 3 to 8) (size 9 to 14) (size 15 to 20)
#    0.000    2.250    0.000    2.250    1.750    2.500 
#    0.000    0.000    0.000    0.000    0.000    0.000 
#    0.000    0.000    0.000    0.000    0.000    0.000 
#
# Total GULP energy -198380.423813 kJ/mol
# GULP energy per Si atom -12398.776488 kJ/mol
# Density = 1.990255 g / cm^3
# Si number density = 19.947955 Si / 1000 Ang^3
#
#
#
# Elastic Constant Matrix: (Units=GPa)
#
#
# Indices 1 2 3 4 5 6 
#
# 1 82.9125 19.1427 29.8970 4.0353 4.1920 -8.7655
# 2 19.1427 65.9603 22.3200 -4.9362 5.2209 -15.9399
# 3 29.8970 22.3200 99.9522 -7.4418 5.5048 -13.1950
# 4 4.0353 -4.9362 -7.4418 24.1704 -0.9455 4.1953
# 5 4.1920 5.2209 5.5048 -0.9455 27.8589 -1.1163
# 6 -8.7655 -15.9399 -13.1950 4.1953 -1.1163 31.0038
#
#
#
# Elastic Compliance Matrix: (Units=1/GPa)
#
#
# Indices 1 2 3 4 5 6 
#
# 1 0.014509 -0.002795 -0.003780 -0.004478 -0.000999 0.001627
# 2 -0.002795 0.018873 -0.002073 0.002266 -0.002324 0.007640
# 3 -0.003780 -0.002073 0.012266 0.003490 -0.001245 0.002569
# 4 -0.004478 0.002266 0.003490 0.044492 0.000885 -0.004605
# 5 -0.000999 -0.002324 -0.001245 0.000885 0.036725 -0.000805
# 6 0.001627 0.007640 0.002569 -0.004605 -0.000805 0.038330
#
#
# Mechanical properties :
#
#
# Convention : Reuss Voigt Hill
#
# Bulk Modulus (GPa) = 35.26943 43.50493 39.38718
# Shear Modulus (GPa) = 26.04975 28.43765 27.24370
#
# Velocity S-wave (km/s) = 3.61762 3.77980 3.69960
# Velocity P-wave (km/s) = 5.93032 6.39576 6.16743
#
# Compressibility (1/GPa) = 0.02835316
#
# Stress axis : x y z
#
# Youngs Moduli (GPa) = 68.92044 52.98541 81.52793
#
# Poissons Ratio (x) = 0.14809 0.30814
# Poissons Ratio (y) = 0.19262 0.16903
# Poissons Ratio (z) = 0.26049 0.10985
#
# Static dielectric constant tensor:
#      x y z
#    x 3.568690 -0.078700 0.102240 
#    y -0.078700 3.526340 -0.083520 
#    z 0.102240 -0.083520 3.616180 
# 
# 
# High freq. dielectric constant tensor:
#      x y z
#    x 1.773020 -0.011120 0.007400 
#    y -0.011120 1.770330 0.002570 
#    z 0.007400 0.002570 1.780520 
# 
# From -- ./inp_files/308135.got.cif
#   From: 2010.06.25/outbox.cif.g09.slc.cpg/sg2_155_cif.got.tgz:308135.got - 2010.06.27 13:26:56.
