data_PCOD8001015
_publ_section_title
;
Structure prediction by ZEFSAII (Michael W. Deem and Ramdas Pophale) SiO2 
 PCOD8001015
Probable space group: P -1
;
_chemical_formula_sum "Si O2"
_cell_formula_units_Z 14
_cell_length_a 11.978564
_cell_length_b 9.426212
_cell_length_c 13.566058
_cell_angle_alpha 150.309411
_cell_angle_beta 117.651057
_cell_angle_gamma 53.934121
_cell_volume 608.997381
_symmetry_space_group_name_H-M "P -1"
_symmetry_group_IT_number 2
_symmetry_cell_setting 'triclinic'
loop_
_space_group_symop_operation_xyz
x,y,z
-x,-y,-z
loop_
_atom_site_type_symbol
_atom_site_label
_atom_site_fract_x
_atom_site_fract_y
_atom_site_fract_z
Si Si1 0.867026 0.326912 0.160707
Si Si2 0.416104 0.248997 0.753726
Si Si3 0.654669 0.760875 0.900651
Si Si4 0.351768 0.790554 0.306891
Si Si5 0.415114 0.305352 0.378437
Si Si6 0.056785 0.228414 0.438694
Si Si7 0.204968 0.802989 0.733201
O O1 0.733390 0.445787 0.102417
O O2 0.921693 0.605143 0.352157
O O3 0.799361 0.304808 0.222948
O O4 0.000000 0.000000 0.000000
O O5 0.529878 0.363457 0.822529
O O6 0.388713 0.029455 0.530657
O O7 0.479143 0.048461 0.757835
O O8 0.673148 0.446075 0.772667
O O9 0.677890 0.710524 0.761826
O O10 0.500000 0.000000 0.000000
O O11 0.756944 0.898885 0.072612
O O12 0.202273 0.968093 0.300368
O O13 0.500000 0.500000 0.500000
O O14 0.317176 0.487491 0.538392
O O15 0.000000 0.500000 0.500000
O O16 0.943076 0.084544 0.316762
#
# Coordination Sequence:
#
# PCOD8001015 Si02
#       7
#     2   2   2   2   2   2   2
#     4  10  22  42  71 104 137 173 233 282 333 409
#     4  10  19  40  70 101 131 177 225 283 343 391
#     4  12  24  42  67 104 137 175 228 284 337 407
#     4  10  20  40  72  98 131 179 231 278 335 407
#     4  12  23  43  71  99 139 179 224 281 344 402
#     4   9  20  41  66  94 132 181 218 277 339 395
#     4  11  24  44  67  94 143 186 219 279 349 394
#
# _framework density 22.988603000000001
#
# number of rings (size 3 to 8) (size 9 to 14) (size 15 to 20)
#    0.000    1.429    2.857    4.286    2.000    0.571 
#    5.143    3.571    0.000    0.000    0.000    0.000 
#    0.000    0.000    0.000    0.000    0.000    0.000 
#
# Total GULP energy -173490.249000 kJ/mol
# GULP energy per Si atom -12392.160643 kJ/mol
# Density = 2.293628 g / cm^3
# Si number density = 22.988603 Si / 1000 Ang^3
#
#
#
# Elastic Constant Matrix: (Units=GPa)
#
#
# Indices 1 2 3 4 5 6 
#
# 1 134.3845 71.3320 64.1807 6.7263 6.4710 -25.0889
# 2 71.3320 138.6741 44.4507 30.4619 0.8192 -18.6038
# 3 64.1807 44.4507 87.0500 9.8418 -1.6573 -18.1114
# 4 6.7263 30.4619 9.8418 31.0118 -7.8915 -1.2479
# 5 6.4710 0.8192 -1.6573 -7.8915 41.9115 -5.7532
# 6 -25.0889 -18.6038 -18.1114 -1.2479 -5.7532 51.0816
#
#
#
# Elastic Compliance Matrix: (Units=1/GPa)
#
#
# Indices 1 2 3 4 5 6 
#
# 1 0.014410 -0.005614 -0.007844 0.004651 -0.001244 0.002225
# 2 -0.005614 0.013180 -0.001039 -0.011724 -0.001472 0.001222
# 3 -0.007844 -0.001039 0.018660 -0.002635 0.001820 0.002525
# 4 0.004651 -0.011724 -0.002635 0.045552 0.007857 -0.000922
# 5 -0.001244 -0.001472 0.001820 0.007857 0.025991 0.002618
# 6 0.002225 0.001222 0.002525 -0.000922 0.002618 0.022282
#
#
# Mechanical properties :
#
#
# Convention : Reuss Voigt Hill
#
# Bulk Modulus (GPa) = 57.95438 80.00394 68.97916
# Shear Modulus (GPa) = 28.60056 36.81066 32.70561
#
# Velocity S-wave (km/s) = 3.53103 4.00591 3.77595
# Velocity P-wave (km/s) = 6.47217 7.50157 7.00580
#
# Compressibility (1/GPa) = 0.01725495
#
# Stress axis : x y z
#
# Youngs Moduli (GPa) = 69.39601 75.87252 53.59090
#
# Poissons Ratio (x) = 0.42593 0.42038
# Poissons Ratio (y) = 0.38957 0.05571
# Poissons Ratio (z) = 0.54436 0.07887
#
# Static dielectric constant tensor:
#      x y z
#    x 4.549960 0.750620 -1.115020 
#    y 0.750620 0.245650 5.117910 
#    z -1.115020 5.117910 -2.532300 
# 
# 
# High freq. dielectric constant tensor:
#      x y z
#    x 1.904100 -0.021440 0.010320 
#    y -0.021440 1.903620 -0.003130 
#    z 0.010320 -0.003130 1.910820 
# 
# From -- ./inp_files/516497.got.cif
#   From: 2010.06.25/outbox.cif.g09.slc.cpg/sg2_259_cif.got.tgz:516497.got - 2010.06.27 13:26:56.
