data_PCOD8001159
_publ_section_title
;
Structure prediction by ZEFSAII (Michael W. Deem and Ramdas Pophale) SiO2 
 PCOD8001159
Probable space group: P -1
;
_chemical_formula_sum "Si O2"
_cell_formula_units_Z 16
_cell_length_a 14.159276
_cell_length_b 14.266830
_cell_length_c 15.356681
_cell_angle_alpha 27.460127
_cell_angle_beta 150.038978
_cell_angle_gamma 151.338843
_cell_volume 629.792117
_symmetry_space_group_name_H-M "P -1"
_symmetry_group_IT_number 2
_symmetry_cell_setting 'triclinic'
loop_
_space_group_symop_operation_xyz
x,y,z
-x,-y,-z
loop_
_atom_site_type_symbol
_atom_site_label
_atom_site_fract_x
_atom_site_fract_y
_atom_site_fract_z
Si Si1 0.448170 0.241949 0.945136
Si Si2 0.331642 0.421497 0.007479
Si Si3 0.713491 0.551400 0.754874
Si Si4 0.926584 0.482064 0.826468
Si Si5 0.729809 0.056826 0.672455
Si Si6 0.246445 0.955949 0.606454
Si Si7 0.973379 0.782976 0.365588
Si Si8 0.874576 0.335739 0.720761
O O1 0.536370 0.066629 0.190695
O O2 0.548455 0.468515 0.898703
O O3 0.512289 0.341418 0.815762
O O4 0.188901 0.105553 0.863972
O O5 0.220563 0.147748 0.146519
O O6 0.500000 0.500000 0.000000
O O7 0.132299 0.472614 0.795387
O O8 0.730441 0.457664 0.749975
O O9 0.695776 0.784943 0.533299
O O10 0.929404 0.608970 0.932925
O O11 0.828453 0.306340 0.811326
O O12 0.062797 0.751937 0.685364
O O13 0.747107 0.105156 0.750517
O O14 0.927003 0.255621 0.613219
O O15 0.500000 0.000000 0.500000
O O16 0.168333 0.929639 0.466029
O O17 0.807160 0.524796 0.478025
#
# Coordination Sequence:
#
# PCOD8001159 Si02
#       8
#     2   2   2   2   2   2   2   2
#     4  11  23  44  68 103 144 185 230 293 346 414
#     4  12  23  43  64  98 140 175 224 284 344 414
#     4  10  19  41  72 104 134 189 234 285 359 411
#     4   9  20  39  72 103 143 179 233 299 345 409
#     4  12  26  42  69 101 135 188 232 281 355 421
#     4  10  21  41  69 101 143 180 239 285 351 413
#     4  11  23  44  67 101 143 180 232 291 342 420
#     4  11  22  44  64 101 140 180 230 287 344 411
#
# _framework density 25.405207000000001
#
# number of rings (size 3 to 8) (size 9 to 14) (size 15 to 20)
#    0.000    1.250    3.750    4.125    0.000    0.000 
#    2.250    2.500    0.000   20.250    0.000    0.000 
#    0.000    0.000    0.000    0.000    0.000    0.000 
#
# Total GULP energy -198311.883890 kJ/mol
# GULP energy per Si atom -12394.492743 kJ/mol
# Density = 2.534738 g / cm^3
# Si number density = 25.405207 Si / 1000 Ang^3
#
#
#
# Elastic Constant Matrix: (Units=GPa)
#
#
# Indices 1 2 3 4 5 6 
#
# 1 194.1307 53.8415 60.2265 24.0623 0.5548 -18.7115
# 2 53.8415 71.4848 44.0965 14.4949 7.9164 -10.8836
# 3 60.2265 44.0965 123.9487 7.4804 13.8981 -11.5685
# 4 24.0623 14.4949 7.4804 33.6033 -1.8350 11.3010
# 5 0.5548 7.9164 13.8981 -1.8350 34.9746 5.6559
# 6 -18.7115 -10.8836 -11.5685 11.3010 5.6559 36.3649
#
#
#
# Elastic Compliance Matrix: (Units=1/GPa)
#
#
# Indices 1 2 3 4 5 6 
#
# 1 0.007579 -0.002899 -0.002040 -0.004997 0.000460 0.003864
# 2 -0.002899 0.022772 -0.004881 -0.009435 -0.004870 0.007461
# 3 -0.002040 -0.004881 0.011324 0.000329 -0.003596 0.001549
# 4 -0.004997 -0.009435 0.000329 0.044599 0.007715 -0.020350
# 5 0.000460 -0.004870 -0.003596 0.007715 0.033124 -0.009914
# 6 0.003864 0.007461 0.001549 -0.020350 -0.009914 0.040079
#
#
# Mechanical properties :
#
#
# Convention : Reuss Voigt Hill
#
# Bulk Modulus (GPa) = 45.38564 78.43259 61.90911
# Shear Modulus (GPa) = 26.81520 36.41520 31.61520
#
# Velocity S-wave (km/s) = 3.25237 3.79010 3.53149
# Velocity P-wave (km/s) = 5.65751 7.07763 6.40704
#
# Compressibility (1/GPa) = 0.02203340
#
# Stress axis : x y z
#
# Youngs Moduli (GPa) = 131.94945 43.91421 88.31044
#
# Poissons Ratio (x) = 0.12730 0.18020
# Poissons Ratio (y) = 0.38251 0.43104
# Poissons Ratio (z) = 0.26924 0.21434
#
# Static dielectric constant tensor:
#      x y z
#    x 4.822260 -0.133510 0.175210 
#    y -0.133510 3.450500 0.908220 
#    z 0.175210 0.908220 3.490980 
# 
# 
# High freq. dielectric constant tensor:
#      x y z
#    x 2.022510 0.002220 0.005750 
#    y 0.002220 1.993310 -0.003820 
#    z 0.005750 -0.003820 2.029010 
# 
# From -- ./inp_files/534194.got.cif
#   From: 2010.06.25/outbox.cif.g09.slc.cpg/sg2_268_cif.got.tgz:534194.got - 2010.06.27 13:26:56.
