data_PCOD8001902
_publ_section_title
;
Structure prediction by ZEFSAII (Michael W. Deem and Ramdas Pophale) SiO2 
 PCOD8001902
Probable space group: P -1
;
_chemical_formula_sum "Si O2"
_cell_formula_units_Z 16
_cell_length_a 16.905918
_cell_length_b 6.555906
_cell_length_c 8.533931
_cell_angle_alpha 76.555544
_cell_angle_beta 53.263028
_cell_angle_gamma 78.471513
_cell_volume 734.974191
_symmetry_space_group_name_H-M "P -1"
_symmetry_group_IT_number 2
_symmetry_cell_setting 'triclinic'
loop_
_space_group_symop_operation_xyz
x,y,z
-x,-y,-z
loop_
_atom_site_type_symbol
_atom_site_label
_atom_site_fract_x
_atom_site_fract_y
_atom_site_fract_z
Si Si1 0.753062 0.562516 0.449880
Si Si2 0.544644 0.500437 0.654755
Si Si3 0.813421 0.213981 0.652435
Si Si4 0.809245 0.326403 0.125455
Si Si5 0.546751 0.835720 0.347477
Si Si6 0.847844 0.946285 0.369691
Si Si7 0.349755 0.784876 0.908472
Si Si8 0.964011 0.319797 0.686408
O O1 0.643176 0.500422 0.643486
O O2 0.829310 0.425655 0.496919
O O3 0.778377 0.514601 0.247000
O O4 0.765043 0.806452 0.421437
O O5 0.582925 0.620960 0.432595
O O6 0.525337 0.255784 0.683302
O O7 0.450350 0.629821 0.822047
O O8 0.905222 0.166401 0.670917
O O9 0.807793 0.022980 0.572878
O O10 0.711404 0.256862 0.858045
O O11 0.710231 0.257332 0.170916
O O12 0.861138 0.131713 0.197628
O O13 0.886122 0.412423 0.893933
O O14 0.500000 0.000000 0.500000
O O15 0.630667 0.966040 0.146504
O O16 0.951595 0.813883 0.295343
O O17 0.000000 0.500000 0.500000
#
# Coordination Sequence:
#
# PCOD8001902 Si02
#       8
#     2   2   2   2   2   2   2   2
#     4  11  22  40  60  93 127 163 204 252 304 362
#     4  10  20  34  59  86 124 165 205 252 299 355
#     4  10  24  42  61  90 126 158 208 257 303 374
#     4  10  23  40  64  95 125 154 212 254 296 375
#     4   9  17  32  54  83 115 157 205 248 297 350
#     4  11  23  43  65  89 124 168 199 252 317 364
#     4  10  21  39  60  90 123 163 209 254 299 358
#     4  11  22  46  67  91 122 162 199 258 317 370
#
# _framework density 21.769470999999999
#
# number of rings (size 3 to 8) (size 9 to 14) (size 15 to 20)
#    0.000    1.750    1.250    3.750    0.000    5.000 
#    9.000    1.250    0.000    0.000    0.000    0.000 
#    0.000    0.000    0.000    0.000    0.000    0.000 
#
# Total GULP energy -198278.014858 kJ/mol
# GULP energy per Si atom -12392.375929 kJ/mol
# Density = 2.171992 g / cm^3
# Si number density = 21.769471 Si / 1000 Ang^3
#
#
#
# Elastic Constant Matrix: (Units=GPa)
#
#
# Indices 1 2 3 4 5 6 
#
# 1 103.5628 36.5756 46.1774 11.3351 -5.7771 11.5216
# 2 36.5756 108.5255 46.1295 6.6643 -4.7207 29.8072
# 3 46.1774 46.1295 120.8426 8.5131 -4.3559 17.9254
# 4 11.3351 6.6643 8.5131 27.8865 -3.0646 -0.8989
# 5 -5.7771 -4.7207 -4.3559 -3.0646 25.6075 3.6045
# 6 11.5216 29.8072 17.9254 -0.8989 3.6045 39.4166
#
#
#
# Elastic Compliance Matrix: (Units=1/GPa)
#
#
# Indices 1 2 3 4 5 6 
#
# 1 0.012561 -0.002312 -0.003553 -0.003323 0.001478 -0.000518
# 2 -0.002312 0.013829 -0.002903 -0.001476 0.002586 -0.008732
# 3 -0.003553 -0.002903 0.011139 -0.001250 0.000679 -0.001922
# 4 -0.003323 -0.001476 -0.001250 0.038368 0.002898 0.003266
# 5 0.001478 0.002586 0.000679 0.002898 0.041225 -0.006400
# 6 -0.000518 -0.008732 -0.001922 0.003266 -0.006400 0.033658
#
#
# Mechanical properties :
#
#
# Convention : Reuss Voigt Hill
#
# Bulk Modulus (GPa) = 50.02007 65.63289 57.82648
# Shear Modulus (GPa) = 28.57475 32.18536 30.38005
#
# Velocity S-wave (km/s) = 3.62692 3.84925 3.73974
# Velocity P-wave (km/s) = 6.36918 7.06896 6.72817
#
# Compressibility (1/GPa) = 0.01999197
#
# Stress axis : x y z
#
# Youngs Moduli (GPa) = 79.61405 72.31174 89.77715
#
# Poissons Ratio (x) = 0.16722 0.31896
# Poissons Ratio (y) = 0.18410 0.26061
# Poissons Ratio (z) = 0.28286 0.20991
#
# Static dielectric constant tensor:
#      x y z
#    x 4.178790 0.231460 -0.040830 
#    y 0.231460 4.044090 -0.202000 
#    z -0.040830 -0.202000 3.877390 
# 
# 
# High freq. dielectric constant tensor:
#      x y z
#    x 1.864550 0.008150 -0.000620 
#    y 0.008150 1.846400 0.002330 
#    z -0.000620 0.002330 1.846870 
# 
# From -- ./inp_files/323521.got.cif
#   From: 2010.06.25/outbox.cif.g09.slc.cpg/sg2_162_cif.got.tgz:323521.got - 2010.06.27 13:26:56.
