data_PCOD8001572
_publ_section_title
;
Structure prediction by ZEFSAII (Michael W. Deem and Ramdas Pophale) SiO2 
 PCOD8001572
Probable space group: P -1
;
_chemical_formula_sum "Si O2"
_cell_formula_units_Z 14
_cell_length_a 13.491575
_cell_length_b 9.729941
_cell_length_c 10.475231
_cell_angle_alpha 61.168261
_cell_angle_beta 33.611133
_cell_angle_gamma 62.408767
_cell_volume 661.444842
_symmetry_space_group_name_H-M "P -1"
_symmetry_group_IT_number 2
_symmetry_cell_setting 'triclinic'
loop_
_space_group_symop_operation_xyz
x,y,z
-x,-y,-z
loop_
_atom_site_type_symbol
_atom_site_label
_atom_site_fract_x
_atom_site_fract_y
_atom_site_fract_z
Si Si1 0.868047 0.351730 0.086509
Si Si2 0.033661 0.285267 0.686733
Si Si3 0.618275 0.987706 0.193747
Si Si4 0.763012 0.020353 0.296763
Si Si5 0.627601 0.577851 0.672974
Si Si6 0.294229 0.714052 0.127648
Si Si7 0.255761 0.356916 0.765318
O O1 0.776571 0.192090 0.262939
O O2 0.723650 0.494665 0.231086
O O3 0.921824 0.392639 0.866417
O O4 0.045982 0.334725 0.990728
O O5 0.224028 0.350487 0.428916
O O6 0.915102 0.293795 0.681942
O O7 0.065304 0.106331 0.792015
O O8 0.411035 0.043476 0.426084
O O9 0.646218 0.804141 0.204511
O O10 0.744438 0.019372 0.164473
O O11 0.674635 0.102129 0.968412
O O12 0.658112 0.387619 0.749945
O O13 0.653112 0.618518 0.480121
O O14 0.426245 0.646983 0.899492
#
# Coordination Sequence:
#
# PCOD8001572 Si02
#       7
#     2   2   2   2   2   2   2
#     4  10  20  33  56  84 115 145 182 234 285 329
#     4  11  19  35  58  87 110 144 190 237 273 333
#     4  11  19  34  57  84 113 145 185 237 279 321
#     4  11  19  33  57  86 113 139 190 241 274 322
#     4  10  21  38  53  84 118 145 188 231 275 341
#     4  11  21  34  60  82 113 151 184 234 283 319
#     4  10  21  37  55  82 117 147 182 230 285 335
#
# _framework density 21.165787999999999
#
# number of rings (size 3 to 8) (size 9 to 14) (size 15 to 20)
#    0.000    1.429    5.714    2.571    0.000    0.571 
#    0.000    0.000    0.000   16.286    0.000    0.000 
#    0.000    0.000    0.000    0.000    0.000    0.000 
#
# Total GULP energy -173579.439876 kJ/mol
# GULP energy per Si atom -12398.531420 kJ/mol
# Density = 2.111761 g / cm^3
# Si number density = 21.165788 Si / 1000 Ang^3
#
#
#
# Elastic Constant Matrix: (Units=GPa)
#
#
# Indices 1 2 3 4 5 6 
#
# 1 29.4518 27.6450 8.8622 -0.8086 -9.0367 -6.8351
# 2 27.6450 148.0175 25.1379 -10.9878 12.2800 -6.4044
# 3 8.8622 25.1379 56.5331 -7.5387 -9.8955 -3.0695
# 4 -0.8086 -10.9878 -7.5387 36.9067 -5.7605 3.2590
# 5 -9.0367 12.2800 -9.8955 -5.7605 20.4346 -4.0265
# 6 -6.8351 -6.4044 -3.0695 3.2590 -4.0265 34.0177
#
#
#
# Elastic Compliance Matrix: (Units=1/GPa)
#
#
# Indices 1 2 3 4 5 6 
#
# 1 0.064647 -0.015940 0.006205 0.003629 0.045261 0.015558
# 2 -0.015940 0.012135 -0.006373 -0.000576 -0.018300 -0.003604
# 3 0.006205 -0.006373 0.024230 0.006076 0.020831 0.004117
# 4 0.003629 -0.000576 0.006076 0.030352 0.013420 -0.000151
# 5 0.045261 -0.018300 0.020831 0.013420 0.097320 0.017762
# 6 0.015558 -0.003604 0.004117 -0.000151 0.017762 0.034332
#
#
# Mechanical properties :
#
#
# Convention : Reuss Voigt Hill
#
# Bulk Modulus (GPa) = 14.53597 39.69916 27.11756
# Shear Modulus (GPa) = 15.71519 29.76230 22.73874
#
# Velocity S-wave (km/s) = 2.72781 3.75394 3.28123
# Velocity P-wave (km/s) = 4.09925 6.13077 5.21489
#
# Compressibility (1/GPa) = 0.06879487
#
# Stress axis : x y z
#
# Youngs Moduli (GPa) = 15.46869 82.40687 41.27156
#
# Poissons Ratio (x) = 1.31358 -0.25608
# Poissons Ratio (y) = 0.24657 0.26302
# Poissons Ratio (z) = -0.09598 0.52517
#
# Static dielectric constant tensor:
#      x y z
#    x 3.385910 -0.149780 -0.305040 
#    y -0.149780 4.104870 -0.144810 
#    z -0.305040 -0.144810 3.846240 
# 
# 
# High freq. dielectric constant tensor:
#      x y z
#    x 1.779140 -0.023190 -0.037900 
#    y -0.023190 1.837090 -0.014770 
#    z -0.037900 -0.014770 1.832140 
# 
# From -- ./inp_files/239937.got.cif
#   From: 2010.06.25/outbox.cif.g09.slc.cpg/sg2_120_cif.got.tgz:239937.got - 2010.06.27 13:26:56.
