data_PCOD8001549
_publ_section_title
;
Structure prediction by ZEFSAII (Michael W. Deem and Ramdas Pophale) SiO2 
 PCOD8001549
Probable space group: P -1
;
_chemical_formula_sum "Si O2"
_cell_formula_units_Z 16
_cell_length_a 16.819489
_cell_length_b 11.039540
_cell_length_c 5.262699
_cell_angle_alpha 83.754138
_cell_angle_beta 68.745455
_cell_angle_gamma 56.221357
_cell_volume 751.525705
_symmetry_space_group_name_H-M "P -1"
_symmetry_group_IT_number 2
_symmetry_cell_setting 'triclinic'
loop_
_space_group_symop_operation_xyz
x,y,z
-x,-y,-z
loop_
_atom_site_type_symbol
_atom_site_label
_atom_site_fract_x
_atom_site_fract_y
_atom_site_fract_z
Si Si1 0.399955 0.185241 0.328762
Si Si2 0.620777 0.539050 0.906324
Si Si3 0.254889 0.725284 0.865066
Si Si4 0.969403 0.879387 0.360008
Si Si5 0.368922 0.065119 0.882413
Si Si6 0.412946 0.668462 0.326415
Si Si7 0.759467 0.050278 0.819434
Si Si8 0.062467 0.822949 0.764758
O O1 0.356388 0.355136 0.293720
O O2 0.351288 0.175237 0.650099
O O3 0.522850 0.090261 0.240129
O O4 0.364243 0.131133 0.147665
O O5 0.585315 0.466840 0.763744
O O6 0.724119 0.411110 0.957724
O O7 0.527696 0.633008 0.198335
O O8 0.366943 0.687827 0.658302
O O9 0.184085 0.744290 0.702417
O O10 0.199088 0.877856 0.052572
O O11 0.042067 0.770447 0.531497
O O12 0.850278 0.946170 0.540378
O O13 0.991737 0.004153 0.258472
O O14 0.007587 0.791348 0.066815
O O15 0.275473 0.043510 0.972553
O O16 0.340130 0.822215 0.237527
#
# Coordination Sequence:
#
# PCOD8001549 Si02
#       8
#     2   2   2   2   2   2   2   2
#     4  10  22  40  56  80 109 152 192 238 272 325
#     4  10  22  37  53  81 115 157 191 228 278 335
#     4  11  22  33  57  82 119 155 185 231 280 348
#     4  10  20  33  55  78 119 150 179 230 284 345
#     4  10  23  37  59  80 110 148 194 236 279 324
#     4  10  21  35  53  83 117 151 189 226 276 348
#     4  11  21  35  55  87 115 151 187 232 288 341
#     4  10  20  34  51  84 115 150 184 223 286 345
#
# _framework density 21.290023999999999
#
# number of rings (size 3 to 8) (size 9 to 14) (size 15 to 20)
#    0.000    1.750    2.500    2.625    5.250    1.000 
#    0.000    0.000    0.000    0.000    0.000    5.250 
#    0.000    0.000    0.000    0.000    0.000    0.000 
#
# Total GULP energy -198322.514809 kJ/mol
# GULP energy per Si atom -12395.157176 kJ/mol
# Density = 2.124157 g / cm^3
# Si number density = 21.290024 Si / 1000 Ang^3
#
#
#
# Elastic Constant Matrix: (Units=GPa)
#
#
# Indices 1 2 3 4 5 6 
#
# 1 67.8518 38.9427 39.6654 -13.2014 -5.2327 -15.7446
# 2 38.9427 58.4790 33.4795 -25.2837 -8.6493 0.5221
# 3 39.6654 33.4795 142.7655 -17.6198 -6.1979 -7.1727
# 4 -13.2014 -25.2837 -17.6198 30.3048 -6.2482 -5.0998
# 5 -5.2327 -8.6493 -6.1979 -6.2482 37.3928 -5.2138
# 6 -15.7446 0.5221 -7.1727 -5.0998 -5.2138 14.7695
#
#
#
# Elastic Compliance Matrix: (Units=1/GPa)
#
#
# Indices 1 2 3 4 5 6 
#
# 1 0.044695 -0.023103 -0.002680 0.009685 0.009599 0.053894
# 2 -0.023103 0.047164 -0.001380 0.028325 0.010291 -0.013553
# 3 -0.002680 -0.001380 0.008788 0.003749 0.001865 0.003412
# 4 0.009685 0.028325 0.003749 0.076801 0.027991 0.047544
# 5 0.009599 0.010291 0.001865 0.027991 0.040286 0.034662
# 6 0.053894 -0.013553 0.003412 0.047544 0.034662 0.155949
#
#
# Mechanical properties :
#
#
# Convention : Reuss Voigt Hill
#
# Bulk Modulus (GPa) = 21.58854 54.80794 38.19824
# Shear Modulus (GPa) = 11.27523 26.96066 19.11794
#
# Velocity S-wave (km/s) = 2.30380 3.56244 2.99988
# Velocity P-wave (km/s) = 4.15198 6.53611 5.47538
#
# Compressibility (1/GPa) = 0.04632087
#
# Stress axis : x y z
#
# Youngs Moduli (GPa) = 22.37380 21.20241 113.79313
#
# Poissons Ratio (x) = 0.48984 0.30500
# Poissons Ratio (y) = 0.51690 0.15702
# Poissons Ratio (z) = 0.05997 0.02926
#
# Static dielectric constant tensor:
#      x y z
#    x 3.512460 -0.175170 0.146020 
#    y -0.175170 3.535090 -0.059360 
#    z 0.146020 -0.059360 4.321520 
# 
# 
# High freq. dielectric constant tensor:
#      x y z
#    x 1.798990 -0.028640 0.007080 
#    y -0.028640 1.791540 -0.007350 
#    z 0.007080 -0.007350 1.859010 
# 
# From -- ./inp_files/108916.got.cif
#   From: 2010.06.25/outbox.cif.g09.slc.cpg/sg2_55_cif.got.tgz:108916.got - 2010.06.27 13:26:56.
