data_PCOD8001560
_publ_section_title
;
Structure prediction by ZEFSAII (Michael W. Deem and Ramdas Pophale) SiO2 
 PCOD8001560
Probable space group: P -1
;
_chemical_formula_sum "Si O2"
_cell_formula_units_Z 16
_cell_length_a 9.827377
_cell_length_b 14.431999
_cell_length_c 23.835983
_cell_angle_alpha 163.932660
_cell_angle_beta 130.430557
_cell_angle_gamma 48.053150
_cell_volume 695.585330
_symmetry_space_group_name_H-M "P -1"
_symmetry_group_IT_number 2
_symmetry_cell_setting 'triclinic'
loop_
_space_group_symop_operation_xyz
x,y,z
-x,-y,-z
loop_
_atom_site_type_symbol
_atom_site_label
_atom_site_fract_x
_atom_site_fract_y
_atom_site_fract_z
Si Si1 0.837723 0.997947 0.339032
Si Si2 0.182532 0.267175 0.590700
Si Si3 0.769467 0.961863 0.928016
Si Si4 0.923308 0.165878 0.986102
Si Si5 0.322345 0.119572 0.659692
Si Si6 0.986565 0.798246 0.087963
Si Si7 0.369504 0.095773 0.877837
Si Si8 0.316164 0.871015 0.289263
O O1 0.736957 0.089230 0.425368
O O2 0.684130 0.061316 0.286257
O O3 0.970345 0.261022 0.519335
O O4 0.960334 0.612692 0.142908
O O5 0.217947 0.645922 0.826976
O O6 0.240875 0.044601 0.533776
O O7 0.309382 0.099317 0.475600
O O8 0.847472 0.890093 0.843357
O O9 0.566077 0.888412 0.833050
O O10 0.905368 0.725181 0.871049
O O11 0.756446 0.483878 0.114846
O O12 0.997359 0.011386 0.855980
O O13 0.543139 0.033734 0.663580
O O14 0.779272 0.917842 0.122231
O O15 0.114334 0.927573 0.242523
O O16 0.394522 0.478934 0.098172
#
# Coordination Sequence:
#
# PCOD8001560 Si02
#       8
#     2   2   2   2   2   2   2   2
#     4  10  20  33  55  84 113 136 177 225 281 319
#     4  11  19  36  52  84 118 140 167 225 283 326
#     4  10  22  36  60  77 107 151 184 218 263 317
#     4   9  20  39  53  81 104 149 190 220 250 324
#     4  10  21  32  59  83 108 144 179 224 269 321
#     4  10  20  33  57  82 112 140 179 230 267 316
#     4  11  19  35  55  85 107 145 178 223 270 319
#     4  11  19  33  54  90 110 137 173 225 286 321
#
# _framework density 23.002210999999999
#
# number of rings (size 3 to 8) (size 9 to 14) (size 15 to 20)
#    0.000    1.750    5.000    1.500    1.750    2.000 
#    0.000    0.625    0.000    6.750    0.000    0.000 
#    0.000    0.000    0.000    0.000    0.000    0.000 
#
# Total GULP energy -198308.027340 kJ/mol
# GULP energy per Si atom -12394.251709 kJ/mol
# Density = 2.294986 g / cm^3
# Si number density = 23.002211 Si / 1000 Ang^3
#
#
#
# Elastic Constant Matrix: (Units=GPa)
#
#
# Indices 1 2 3 4 5 6 
#
# 1 180.1824 43.6922 26.7636 -22.6276 -16.5800 -14.6134
# 2 43.6922 46.1159 9.7681 -12.1129 -3.4784 -14.6361
# 3 26.7636 9.7681 66.3902 -17.5294 0.5136 5.7603
# 4 -22.6276 -12.1129 -17.5294 13.8380 1.4861 2.0610
# 5 -16.5800 -3.4784 0.5136 1.4861 19.5900 -21.7382
# 6 -14.6134 -14.6361 5.7603 2.0610 -21.7382 44.4150
#
#
#
# Elastic Compliance Matrix: (Units=1/GPa)
#
#
# Indices 1 2 3 4 5 6 
#
# 1 0.011362 0.000362 -0.004723 0.006811 0.030417 0.019041
# 2 0.000362 0.043827 -0.004209 0.022828 0.048272 0.037674
# 3 -0.004723 -0.004209 0.028987 0.033322 -0.037609 -0.026654
# 4 0.006811 0.022828 0.033322 0.147292 -0.008265 -0.005438
# 5 0.030417 0.048272 -0.037609 -0.008265 0.266076 0.161403
# 6 0.019041 0.037674 -0.026654 -0.005438 0.161403 0.123900
#
#
# Mechanical properties :
#
#
# Convention : Reuss Voigt Hill
#
# Bulk Modulus (GPa) = 14.91722 50.34848 32.63285
# Shear Modulus (GPa) = 7.56509 29.73290 18.64899
#
# Velocity S-wave (km/s) = 1.81549 3.59919 2.85045
# Velocity P-wave (km/s) = 3.30058 6.26165 5.00510
#
# Compressibility (1/GPa) = 0.06703663
#
# Stress axis : x y z
#
# Youngs Moduli (GPa) = 88.01097 22.81683 34.49773
#
# Poissons Ratio (x) = -0.00825 0.16293
# Poissons Ratio (y) = -0.03183 0.14520
# Poissons Ratio (z) = 0.41566 0.09604
#
# Static dielectric constant tensor:
#      x y z
#    x 4.381210 0.072210 -0.150200 
#    y 0.072210 4.178320 -0.286090 
#    z -0.150200 -0.286090 3.774220 
# 
# 
# High freq. dielectric constant tensor:
#      x y z
#    x 1.923000 -0.006470 -0.012220 
#    y -0.006470 1.896320 -0.025120 
#    z -0.012220 -0.025120 1.875140 
# 
# From -- ./inp_files/257531.got.cif
#   From: 2010.06.25/outbox.cif.g09.slc.cpg/sg2_129_cif.got.tgz:257531.got - 2010.06.27 13:26:56.
