data_PCOD8001731
_publ_section_title
;
Structure prediction by ZEFSAII (Michael W. Deem and Ramdas Pophale) SiO2 
 PCOD8001731
Probable space group: P -1
;
_chemical_formula_sum "Si O2"
_cell_formula_units_Z 16
_cell_length_a 29.218834
_cell_length_b 19.818154
_cell_length_c 16.256586
_cell_angle_alpha 18.669507
_cell_angle_beta 161.502395
_cell_angle_gamma 162.114964
_cell_volume 814.151345
_symmetry_space_group_name_H-M "P -1"
_symmetry_group_IT_number 2
_symmetry_cell_setting 'triclinic'
loop_
_space_group_symop_operation_xyz
x,y,z
-x,-y,-z
loop_
_atom_site_type_symbol
_atom_site_label
_atom_site_fract_x
_atom_site_fract_y
_atom_site_fract_z
Si Si1 0.853824 0.870972 0.512398
Si Si2 0.490312 0.603067 0.277983
Si Si3 0.348813 0.345903 0.170580
Si Si4 0.688966 0.737604 0.215712
Si Si5 0.095386 0.499720 0.541692
Si Si6 0.872842 0.249051 0.864226
Si Si7 0.254010 0.802520 0.625676
Si Si8 0.902625 0.577778 0.683214
O O1 0.680907 0.764029 0.388380
O O2 0.822990 0.887241 0.344463
O O3 0.976244 0.132165 0.462588
O O4 0.939685 0.707903 0.857277
O O5 0.500000 0.500000 0.500000
O O6 0.381356 0.385327 0.278384
O O7 0.406218 0.768078 0.953231
O O8 0.497834 0.579078 0.105213
O O9 0.335816 0.093302 0.417678
O O10 0.174559 0.326660 0.871031
O O11 0.731584 0.543907 0.470834
O O12 0.721977 0.960656 0.953160
O O13 0.143858 0.670378 0.347751
O O14 0.177390 0.683835 0.544788
O O15 0.893311 0.318003 0.417302
O O16 0.851850 0.423389 0.691360
O O17 0.000000 0.500000 0.000000
#
# Coordination Sequence:
#
# PCOD8001731 Si02
#       8
#     2   2   2   2   2   2   2   2
#     4  10  20  34  54  85 119 148 183 228 284 343
#     4  10  22  37  58  91 117 143 185 235 287 338
#     4  10  23  39  61  82 114 155 189 231 284 340
#     4  10  21  36  54  86 117 148 188 231 284 339
#     4  10  23  41  60  83 109 152 196 239 280 327
#     4  11  21  36  58  85 118 148 192 237 274 336
#     4  10  22  42  63  79 115 151 188 238 286 332
#     4  11  19  32  57  81 113 154 182 220 285 338
#
# _framework density 19.652366000000001
#
# number of rings (size 3 to 8) (size 9 to 14) (size 15 to 20)
#    0.000    1.750    2.500    1.875    1.750    5.000 
#    0.000    1.250    0.000    0.000    0.000    0.000 
#    0.000    0.000    0.000    0.000    0.000    0.000 
#
# Total GULP energy -198404.631250 kJ/mol
# GULP energy per Si atom -12400.289453 kJ/mol
# Density = 1.960764 g / cm^3
# Si number density = 19.652366 Si / 1000 Ang^3
#
#
#
# Elastic Constant Matrix: (Units=GPa)
#
#
# Indices 1 2 3 4 5 6 
#
# 1 110.1337 30.6675 61.7870 -2.9155 -3.1717 12.1676
# 2 30.6675 67.2028 36.1769 -11.0520 8.9147 8.7698
# 3 61.7870 36.1769 104.0123 -9.8653 9.8573 2.0105
# 4 -2.9155 -11.0520 -9.8653 29.3133 2.1880 6.4230
# 5 -3.1717 8.9147 9.8573 2.1880 43.7992 -1.7475
# 6 12.1676 8.7698 2.0105 6.4230 -1.7475 19.1032
#
#
#
# Elastic Compliance Matrix: (Units=1/GPa)
#
#
# Indices 1 2 3 4 5 6 
#
# 1 0.015397 -0.001903 -0.008711 -0.000717 0.003200 -0.007483
# 2 -0.001903 0.022171 -0.005029 0.009445 -0.004470 -0.012021
# 3 -0.008711 -0.005029 0.016952 0.002080 -0.003324 0.005070
# 4 -0.000717 0.009445 0.002080 0.042866 -0.005342 -0.018999
# 5 0.003200 -0.004470 -0.003324 -0.005342 0.025166 0.004462
# 6 -0.007483 -0.012021 0.005070 -0.018999 0.004462 0.068894
#
#
# Mechanical properties :
#
#
# Convention : Reuss Voigt Hill
#
# Bulk Modulus (GPa) = 43.04014 59.84571 51.44293
# Shear Modulus (GPa) = 21.69418 28.62433 25.15926
#
# Velocity S-wave (km/s) = 3.32610 3.82060 3.58189
# Velocity P-wave (km/s) = 6.05796 7.06972 6.58330
#
# Compressibility (1/GPa) = 0.02323413
#
# Stress axis : x y z
#
# Youngs Moduli (GPa) = 64.94972 45.10390 58.98866
#
# Poissons Ratio (x) = 0.08582 0.51385
# Poissons Ratio (y) = 0.12358 0.29667
# Poissons Ratio (z) = 0.56577 0.22684
#
# Static dielectric constant tensor:
#      x y z
#    x 0.564340 -0.982670 0.310520 
#    y -0.982670 3.113020 0.036320 
#    z 0.310520 0.036320 3.755350 
# 
# 
# High freq. dielectric constant tensor:
#      x y z
#    x 1.771710 0.008520 0.014200 
#    y 0.008520 1.754440 -0.000650 
#    z 0.014200 -0.000650 1.773040 
# 
# From -- ./inp_files/70302.got.cif
#   From: 2010.06.25/outbox.cif.g09.slc.cpg/sg2_36_cif.got.tgz:70302.got - 2010.06.27 13:26:56.
