data_PCOD8001625
_publ_section_title
;
Structure prediction by ZEFSAII (Michael W. Deem and Ramdas Pophale) SiO2 
 PCOD8001625
Probable space group: P -1
;
_chemical_formula_sum "Si O2"
_cell_formula_units_Z 16
_cell_length_a 12.368493
_cell_length_b 11.032896
_cell_length_c 16.106372
_cell_angle_alpha 38.433209
_cell_angle_beta 148.265363
_cell_angle_gamma 129.784907
_cell_volume 716.274550
_symmetry_space_group_name_H-M "P -1"
_symmetry_group_IT_number 2
_symmetry_cell_setting 'triclinic'
loop_
_space_group_symop_operation_xyz
x,y,z
-x,-y,-z
loop_
_atom_site_type_symbol
_atom_site_label
_atom_site_fract_x
_atom_site_fract_y
_atom_site_fract_z
Si Si1 0.578905 0.419759 0.182523
Si Si2 0.540078 0.986816 0.436893
Si Si3 0.264091 0.699995 0.894234
Si Si4 0.153024 0.809986 0.204576
Si Si5 0.338930 0.627802 0.270388
Si Si6 0.692108 0.852775 0.342432
Si Si7 0.023118 0.570426 0.646649
Si Si8 0.862664 0.728343 0.701702
O O1 0.828631 0.422803 0.341228
O O2 0.513813 0.201211 0.265852
O O3 0.500000 0.500000 0.000000
O O4 0.476011 0.556206 0.117073
O O5 0.377467 0.853541 0.360516
O O6 0.771382 0.886920 0.624267
O O7 0.500000 0.000000 0.500000
O O8 0.146324 0.607482 0.791093
O O9 0.113501 0.708404 0.872268
O O10 0.326896 0.916039 0.802100
O O11 0.170297 0.741431 0.157747
O O12 0.068043 0.641055 0.296579
O O13 0.000000 0.000000 0.000000
O O14 0.500000 0.500000 0.500000
O O15 0.464257 0.778768 0.218220
O O16 0.214983 0.482743 0.210524
O O17 0.777648 0.799094 0.518267
O O18 0.841158 0.745423 0.427913
#
# Coordination Sequence:
#
# PCOD8001625 Si02
#       8
#     2   2   2   2   2   2   2   2
#     4  10  21  36  56  87 123 153 203 250 298 346
#     4  12  25  41  60  89 128 166 195 241 312 373
#     4  10  18  29  53  85 115 147 195 251 298 337
#     4  12  22  35  60  90 123 153 204 259 300 345
#     4  10  17  31  53  84 116 148 200 253 295 343
#     4  10  16  27  51  83 114 143 192 248 302 339
#     4  10  18  31  51  86 114 150 193 253 299 345
#     4  10  17  34  54  80 117 155 201 242 294 360
#
# _framework density 22.337803999999998
#
# number of rings (size 3 to 8) (size 9 to 14) (size 15 to 20)
#    0.000    1.500    6.250    5.250    1.750    0.000 
#    0.000    1.250    0.000    0.000    0.000    2.625 
#    0.000    0.000    0.000    0.000    0.000    0.000 
#
# Total GULP energy -198305.562011 kJ/mol
# GULP energy per Si atom -12394.097626 kJ/mol
# Density = 2.228696 g / cm^3
# Si number density = 22.337804 Si / 1000 Ang^3
#
#
#
# Elastic Constant Matrix: (Units=GPa)
#
#
# Indices 1 2 3 4 5 6 
#
# 1 141.2537 47.5374 57.5423 -14.6846 48.4369 20.9901
# 2 47.5374 103.0201 42.8720 -42.3521 4.7841 35.2499
# 3 57.5423 42.8720 66.5887 -36.0049 33.0137 -0.0244
# 4 -14.6846 -42.3521 -36.0049 35.9613 -4.5622 -0.7789
# 5 48.4369 4.7841 33.0137 -4.5622 46.8994 -4.3902
# 6 20.9901 35.2499 -0.0244 -0.7789 -4.3902 37.7066
#
#
#
# Elastic Compliance Matrix: (Units=1/GPa)
#
#
# Indices 1 2 3 4 5 6 
#
# 1 0.018156 -0.007275 -0.018627 -0.020837 -0.007355 -0.004605
# 2 -0.007275 0.049368 0.010925 0.064870 -0.002747 -0.041074
# 3 -0.018627 0.010925 0.096476 0.096645 -0.040623 -0.002515
# 4 -0.020837 0.064870 0.096645 0.186350 -0.039658 -0.049750
# 5 -0.007355 -0.002747 -0.040623 -0.039658 0.055081 0.012230
# 6 -0.004605 -0.041074 -0.002515 -0.049750 0.012230 0.067876
#
#
# Mechanical properties :
#
#
# Convention : Reuss Voigt Hill
#
# Bulk Modulus (GPa) = 7.46021 67.41844 37.43933
# Shear Modulus (GPa) = 9.12501 34.97420 22.04960
#
# Velocity S-wave (km/s) = 2.02333 3.96118 3.14522
# Velocity P-wave (km/s) = 2.96740 7.15319 5.47602
#
# Compressibility (1/GPa) = 0.13404441
#
# Stress axis : x y z
#
# Youngs Moduli (GPa) = 55.07777 20.25616 10.36526
#
# Poissons Ratio (x) = 0.14737 0.19308
# Poissons Ratio (y) = 0.40070 -0.11324
# Poissons Ratio (z) = 1.02595 -0.22129
#
# Static dielectric constant tensor:
#      x y z
#    x 4.658770 0.510200 0.946080 
#    y 0.510200 4.106670 -0.105580 
#    z 0.946080 -0.105580 4.013330 
# 
# 
# High freq. dielectric constant tensor:
#      x y z
#    x 1.879860 0.032420 0.045150 
#    y 0.032420 1.871300 -0.036000 
#    z 0.045150 -0.036000 1.855170 
# 
# From -- ./inp_files/568523.got.cif
#   From: 2010.06.25/outbox.cif.g09.slc.cpg/sg2_285_cif.got.tgz:568523.got - 2010.06.27 13:26:56.
