data_PCOD8001485
_publ_section_title
;
Structure prediction by ZEFSAII (Michael W. Deem and Ramdas Pophale) SiO2 
 PCOD8001485
Probable space group: P -1
;
_chemical_formula_sum "Si O2"
_cell_formula_units_Z 14
_cell_length_a 11.148495
_cell_length_b 13.658370
_cell_length_c 8.536545
_cell_angle_alpha 145.832262
_cell_angle_beta 90.009099
_cell_angle_gamma 88.319402
_cell_volume 729.038206
_symmetry_space_group_name_H-M "P -1"
_symmetry_group_IT_number 2
_symmetry_cell_setting 'triclinic'
loop_
_space_group_symop_operation_xyz
x,y,z
-x,-y,-z
loop_
_atom_site_type_symbol
_atom_site_label
_atom_site_fract_x
_atom_site_fract_y
_atom_site_fract_z
Si Si1 0.404544 0.148720 0.639515
Si Si2 0.354955 0.518914 0.256761
Si Si3 0.135384 0.679404 0.282795
Si Si4 0.747318 0.982537 0.286779
Si Si5 0.519963 0.140654 0.320729
Si Si6 0.961248 0.499155 0.251333
Si Si7 0.824585 0.626484 0.707731
O O1 0.276466 0.094769 0.640238
O O2 0.404490 0.156912 0.459967
O O3 0.500000 0.000000 0.500000
O O4 0.428497 0.342188 0.964819
O O5 0.259450 0.578420 0.201154
O O6 0.449389 0.668093 0.492301
O O7 0.281870 0.487047 0.374771
O O8 0.029399 0.655644 0.376570
O O9 0.146803 0.885577 0.536223
O O10 0.100112 0.615511 0.028529
O O11 0.628685 0.080026 0.350624
O O12 0.781682 0.827827 0.962775
O O13 0.500000 0.000000 0.000000
O O14 0.854152 0.569476 0.456093
O O15 0.057530 0.382286 0.195260
#
# Coordination Sequence:
#
# PCOD8001485 Si02
#       7
#     2   2   2   2   2   2   2
#     4   9  18  34  51  69  95 129 163 195 240 290
#     4   9  18  34  52  69  98 132 159 197 242 285
#     4   9  18  32  50  72  97 127 161 194 237 287
#     4   9  19  34  49  69  98 128 159 198 239 285
#     4  10  20  33  50  74  98 124 164 204 240 283
#     4   9  18  32  50  72  96 126 160 194 237 288
#     4   9  18  33  50  71  99 126 157 198 242 281
#
# _framework density 19.203382000000001
#
# number of rings (size 3 to 8) (size 9 to 14) (size 15 to 20)
#    0.000    2.857    0.000    0.429    0.000    3.429 
#    0.000    6.429    0.000    0.000    0.000    0.000 
#    0.000    0.000    0.000    0.000    0.000    0.000 
#
# Total GULP energy -173498.580475 kJ/mol
# GULP energy per Si atom -12392.755748 kJ/mol
# Density = 1.915967 g / cm^3
# Si number density = 19.203382 Si / 1000 Ang^3
#
#
#
# Elastic Constant Matrix: (Units=GPa)
#
#
# Indices 1 2 3 4 5 6 
#
# 1 21.4079 25.3972 19.2132 -1.7450 0.7592 14.4322
# 2 25.3972 103.3597 71.8642 -0.9556 3.7688 30.1890
# 3 19.2132 71.8642 110.7707 3.4641 -1.0415 26.2428
# 4 -1.7450 -0.9556 3.4641 42.8092 5.4086 -2.3638
# 5 0.7592 3.7688 -1.0415 5.4086 35.3975 -0.0064
# 6 14.4322 30.1890 26.2428 -2.3638 -0.0064 23.1942
#
#
#
# Elastic Compliance Matrix: (Units=1/GPa)
#
#
# Indices 1 2 3 4 5 6 
#
# 1 0.085325 -0.009567 0.001330 0.000952 -0.000925 -0.042048
# 2 -0.009567 0.022826 -0.010356 0.000628 -0.002628 -0.011976
# 3 0.001330 -0.010356 0.017295 -0.002213 0.001920 -0.007141
# 4 0.000952 0.000628 -0.002213 0.024276 -0.003861 0.003567
# 5 -0.000925 -0.002628 0.001920 -0.003861 0.029197 0.001439
# 6 -0.042048 -0.011976 -0.007141 0.003567 0.001439 0.093309
#
#
# Mechanical properties :
#
#
# Convention : Reuss Voigt Hill
#
# Bulk Modulus (GPa) = 11.33019 52.05417 31.69218
# Shear Modulus (GPa) = 14.75650 28.21775 21.48712
#
# Velocity S-wave (km/s) = 2.77507 3.83745 3.34866
# Velocity P-wave (km/s) = 4.02255 6.84108 5.61165
#
# Compressibility (1/GPa) = 0.08825976
#
# Stress axis : x y z
#
# Youngs Moduli (GPa) = 11.71992 43.81007 57.82052
#
# Poissons Ratio (x) = 0.41912 -0.07691
# Poissons Ratio (y) = 0.11212 0.59881
# Poissons Ratio (z) = -0.01559 0.45371
#
# Static dielectric constant tensor:
#      x y z
#    x 3.442550 0.382650 -0.167850 
#    y 0.382650 3.882560 0.087270 
#    z -0.167850 0.087270 3.550600 
# 
# 
# High freq. dielectric constant tensor:
#      x y z
#    x 1.724210 0.020770 -0.013950 
#    y 0.020770 1.756630 0.006780 
#    z -0.013950 0.006780 1.742500 
# 
# From -- ./inp_files/48168.got.cif
#   From: 2010.06.25/outbox.cif.g09.slc.cpg/sg2_25_cif.got.tgz:48168.got - 2010.06.27 13:26:56.
