data_PCOD8001821
_publ_section_title
;
Structure prediction by ZEFSAII (Michael W. Deem and Ramdas Pophale) SiO2 
 PCOD8001821
Probable space group: P -1
;
_chemical_formula_sum "Si O2"
_cell_formula_units_Z 16
_cell_length_a 10.643527
_cell_length_b 24.276954
_cell_length_c 11.349272
_cell_angle_alpha 155.315295
_cell_angle_beta 130.945290
_cell_angle_gamma 46.193951
_cell_volume 880.467983
_symmetry_space_group_name_H-M "P -1"
_symmetry_group_IT_number 2
_symmetry_cell_setting 'triclinic'
loop_
_space_group_symop_operation_xyz
x,y,z
-x,-y,-z
loop_
_atom_site_type_symbol
_atom_site_label
_atom_site_fract_x
_atom_site_fract_y
_atom_site_fract_z
Si Si1 0.545472 0.039894 0.731517
Si Si2 0.374462 0.661618 0.121007
Si Si3 0.188752 0.831690 0.766859
Si Si4 0.064860 0.100552 0.062961
Si Si5 0.335324 0.154402 0.032281
Si Si6 0.030670 0.857677 0.173617
Si Si7 0.419373 0.132528 0.371176
Si Si8 0.554092 0.353264 0.603346
O O1 0.500000 0.000000 0.500000
O O2 0.612325 0.897253 0.569316
O O3 0.699230 0.109290 0.956989
O O4 0.378014 0.146099 0.901755
O O5 0.205933 0.747895 0.113729
O O6 0.532199 0.727085 0.333574
O O7 0.337498 0.654137 0.223152
O O8 0.436080 0.509041 0.806389
O O9 0.306848 0.692254 0.506119
O O10 0.040593 0.805134 0.709297
O O11 0.116638 0.941369 0.829663
O O12 0.234862 0.146630 0.220745
O O13 0.951097 0.117530 0.906624
O O14 0.426857 0.257277 0.350572
O O15 0.128165 0.204465 0.020096
O O16 0.424981 0.999681 0.841832
O O17 0.000000 0.000000 0.500000
#
# Coordination Sequence:
#
# PCOD8001821 Si02
#       8
#     2   2   2   2   2   2   2   2
#     4   8  16  30  53  79 112 138 178 229 269 315
#     4  11  23  36  59  84 111 146 185 234 271 325
#     4   9  19  34  57  80 109 152 180 219 277 334
#     4  10  20  34  57  83 112 142 186 229 273 325
#     4   9  20  35  56  79 113 145 181 223 280 330
#     4  12  22  32  55  90 113 133 188 243 270 308
#     4   9  19  36  54  84 106 148 184 223 275 327
#     4  10  21  42  57  77 115 153 184 213 284 346
#
# _framework density 18.172153999999999
#
# number of rings (size 3 to 8) (size 9 to 14) (size 15 to 20)
#    0.750    1.500    2.500    1.500    3.500    1.500 
#    2.250    1.250    0.000    0.000    0.000    0.000 
#    0.000    0.000    0.000    0.000    0.000    0.000 
#
# Total GULP energy -198273.960080 kJ/mol
# GULP energy per Si atom -12392.122505 kJ/mol
# Density = 1.813079 g / cm^3
# Si number density = 18.172154 Si / 1000 Ang^3
#
#
#
# Elastic Constant Matrix: (Units=GPa)
#
#
# Indices 1 2 3 4 5 6 
#
# 1 71.3910 31.6508 25.8114 -6.3451 -7.1914 -16.8759
# 2 31.6508 112.8706 44.2544 -15.3230 -17.0927 -2.7099
# 3 25.8114 44.2544 90.3262 2.8656 -13.4859 -3.6974
# 4 -6.3451 -15.3230 2.8656 25.2920 3.2852 -4.6734
# 5 -7.1914 -17.0927 -13.4859 3.2852 29.2923 -3.0511
# 6 -16.8759 -2.7099 -3.6974 -4.6734 -3.0511 21.6390
#
#
#
# Elastic Compliance Matrix: (Units=1/GPa)
#
#
# Indices 1 2 3 4 5 6 
#
# 1 0.021839 -0.002701 -0.003957 0.007224 0.003029 0.018005
# 2 -0.002701 0.013398 -0.005422 0.007708 0.003884 0.000858
# 3 -0.003957 -0.005422 0.015523 -0.006887 0.003565 -0.002098
# 4 0.007224 0.007708 -0.006887 0.049878 -0.000819 0.016079
# 5 0.003029 0.003884 0.003565 -0.000819 0.039808 0.008894
# 6 0.018005 0.000858 -0.002098 0.016079 0.008894 0.064730
#
#
# Mechanical properties :
#
#
# Convention : Reuss Voigt Hill
#
# Bulk Modulus (GPa) = 37.59435 53.11342 45.35389
# Shear Modulus (GPa) = 20.99050 26.76942 23.87996
#
# Velocity S-wave (km/s) = 3.40235 3.84226 3.62898
# Velocity P-wave (km/s) = 6.01394 6.99824 6.52468
#
# Compressibility (1/GPa) = 0.02659974
#
# Stress axis : x y z
#
# Youngs Moduli (GPa) = 45.79021 74.63807 64.41937
#
# Poissons Ratio (x) = 0.20157 0.25494
# Poissons Ratio (y) = 0.12366 0.34929
# Poissons Ratio (z) = 0.18121 0.40470
#
# Static dielectric constant tensor:
#      x y z
#    x 3.360750 -0.082950 -0.032170 
#    y -0.082950 3.229160 -0.128590 
#    z -0.032170 -0.128590 3.179570 
# 
# 
# High freq. dielectric constant tensor:
#      x y z
#    x 1.707650 -0.001220 -0.004910 
#    y -0.001220 1.687330 -0.022000 
#    z -0.004910 -0.022000 1.684010 
# 
# From -- ./inp_files/439621.got.cif
#   From: 2010.06.25/outbox.cif.g09.slc.cpg/sg2_220_cif.got.tgz:439621.got - 2010.06.27 13:26:56.
