data_PCOD8001323
_publ_section_title
;
Structure prediction by ZEFSAII (Michael W. Deem and Ramdas Pophale) SiO2 
 PCOD8001323
Probable space group: P -1
;
_chemical_formula_sum "Si O2"
_cell_formula_units_Z 16
_cell_length_a 11.851495
_cell_length_b 9.251067
_cell_length_c 19.580314
_cell_angle_alpha 104.611055
_cell_angle_beta 128.990510
_cell_angle_gamma 118.823935
_cell_volume 845.192612
_symmetry_space_group_name_H-M "P -1"
_symmetry_group_IT_number 2
_symmetry_cell_setting 'triclinic'
loop_
_space_group_symop_operation_xyz
x,y,z
-x,-y,-z
loop_
_atom_site_type_symbol
_atom_site_label
_atom_site_fract_x
_atom_site_fract_y
_atom_site_fract_z
Si Si1 0.708023 0.899979 0.608037
Si Si2 0.885366 0.598257 0.410185
Si Si3 0.999843 0.377136 0.396113
Si Si4 0.880884 0.764341 0.838683
Si Si5 0.619212 0.878219 0.421331
Si Si6 0.898773 0.756796 0.689526
Si Si7 0.385476 0.978125 0.298171
Si Si8 0.267987 0.058943 0.140464
O O1 0.697740 0.978004 0.541697
O O2 0.925087 0.951738 0.696863
O O3 0.414173 0.572081 0.476511
O O4 0.798841 0.104142 0.722873
O O5 0.848059 0.403854 0.335553
O O6 0.574588 0.386823 0.275044
O O7 0.052602 0.733947 0.561538
O O8 0.085613 0.881376 0.475985
O O9 0.907918 0.179478 0.277949
O O10 0.323495 0.685085 0.548379
O O11 0.564956 0.432083 0.690486
O O12 0.991777 0.826294 0.812267
O O13 0.878524 0.939485 0.871116
O O14 0.091514 0.867938 0.983040
O O15 0.425445 0.838655 0.311445
O O16 0.264628 0.906018 0.167706
#
# Coordination Sequence:
#
# PCOD8001323 Si02
#       8
#     2   2   2   2   2   2   2   2
#     4   9  16  27  49  78 103 130 162 213 262 286
#     4   9  18  33  51  76 105 135 161 204 261 304
#     4   8  16  30  52  74 101 136 169 202 251 308
#     4  10  21  35  52  80  97 135 177 212 241 295
#     4  10  20  30  51  83 105 121 168 218 256 291
#     4   9  16  30  51  74 101 131 176 210 240 297
#     4   9  16  31  51  75 104 134 163 212 254 297
#     4  10  20  36  56  68 105 143 171 196 251 312
#
# _framework density 18.930595
#
# number of rings (size 3 to 8) (size 9 to 14) (size 15 to 20)
#    0.000    2.750    1.250    1.125    5.250    2.000 
#    0.000    0.625    0.000    2.250    0.000    0.000 
#    0.000    0.000    0.000    0.000    0.000    0.000 
#
# Total GULP energy -198256.467289 kJ/mol
# GULP energy per Si atom -12391.029206 kJ/mol
# Density = 1.888751 g / cm^3
# Si number density = 18.930595 Si / 1000 Ang^3
#
#
#
# Elastic Constant Matrix: (Units=GPa)
#
#
# Indices 1 2 3 4 5 6 
#
# 1 92.8127 15.7159 19.9552 -15.2737 -17.4973 3.3708
# 2 15.7159 64.3963 13.5480 -15.3791 0.8287 3.7608
# 3 19.9552 13.5480 61.5668 -19.0875 -7.1555 3.9022
# 4 -15.2737 -15.3791 -19.0875 24.5503 1.9567 6.9499
# 5 -17.4973 0.8287 -7.1555 1.9567 18.7181 0.6243
# 6 3.3708 3.7608 3.9022 6.9499 0.6243 16.3764
#
#
#
# Elastic Compliance Matrix: (Units=1/GPa)
#
#
# Indices 1 2 3 4 5 6 
#
# 1 0.015497 -0.001072 0.000665 0.010688 0.013943 -0.008170
# 2 -0.001072 0.020180 0.001518 0.016697 -0.002668 -0.011759
# 3 0.000665 0.001518 0.025805 0.025837 0.008316 -0.017916
# 4 0.010688 0.016697 0.025837 0.091610 0.011270 -0.051499
# 5 0.013943 -0.002668 0.008316 0.011270 0.068965 -0.011651
# 6 -0.008170 -0.011759 -0.017916 -0.051499 -0.011651 0.092014
#
#
# Mechanical properties :
#
#
# Convention : Reuss Voigt Hill
#
# Bulk Modulus (GPa) = 15.69729 35.24600 25.47165
# Shear Modulus (GPa) = 15.01125 23.23273 19.12199
#
# Velocity S-wave (km/s) = 2.81901 3.50703 3.18167
# Velocity P-wave (km/s) = 4.34808 5.92097 5.19441
#
# Compressibility (1/GPa) = 0.06370525
#
# Stress axis : x y z
#
# Youngs Moduli (GPa) = 64.52797 49.55524 38.75187
#
# Poissons Ratio (x) = 0.05311 -0.02577
# Poissons Ratio (y) = 0.06915 -0.05884
# Poissons Ratio (z) = -0.04291 -0.07525
#
# Static dielectric constant tensor:
#      x y z
#    x 3.758790 0.056400 -0.183410 
#    y 0.056400 3.432420 -0.347690 
#    z -0.183410 -0.347690 3.148730 
# 
# 
# High freq. dielectric constant tensor:
#      x y z
#    x 1.739700 0.001510 -0.015910 
#    y 0.001510 1.724720 -0.030380 
#    z -0.015910 -0.030380 1.684710 
# 
# From -- ./inp_files/248392.got.cif
#   From: 2010.06.25/outbox.cif.g09.slc.cpg/sg2_125_cif.got.tgz:248392.got - 2010.06.27 13:26:56.
