data_PCOD8001054
_publ_section_title
;
Structure prediction by ZEFSAII (Michael W. Deem and Ramdas Pophale) SiO2 
 PCOD8001054
Probable space group: P -1
;
_chemical_formula_sum "Si O2"
_cell_formula_units_Z 16
_cell_length_a 9.869233
_cell_length_b 11.282818
_cell_length_c 16.464741
_cell_angle_alpha 32.025880
_cell_angle_beta 56.935477
_cell_angle_gamma 71.250208
_cell_volume 772.638022
_symmetry_space_group_name_H-M "P -1"
_symmetry_group_IT_number 2
_symmetry_cell_setting 'triclinic'
loop_
_space_group_symop_operation_xyz
x,y,z
-x,-y,-z
loop_
_atom_site_type_symbol
_atom_site_label
_atom_site_fract_x
_atom_site_fract_y
_atom_site_fract_z
Si Si1 0.429477 0.906086 0.776035
Si Si2 0.689796 0.482361 0.835138
Si Si3 0.003439 0.655026 0.227715
Si Si4 0.896781 0.788341 0.732956
Si Si5 0.877394 0.627601 0.002662
Si Si6 0.551430 0.267378 0.295977
Si Si7 0.185596 0.782425 0.544059
Si Si8 0.909480 0.012521 0.145002
O O1 0.378487 0.721109 0.825870
O O2 0.290868 0.045505 0.735752
O O3 0.614295 0.088207 0.588509
O O4 0.428548 0.768724 0.941523
O O5 0.838522 0.443629 0.752549
O O6 0.758403 0.639246 0.800753
O O7 0.600556 0.617716 0.724539
O O8 0.838915 0.449419 0.367346
O O9 0.064238 0.853764 0.025350
O O10 0.952812 0.767942 0.260585
O O11 0.825663 0.749317 0.870041
O O12 0.077124 0.724799 0.698912
O O13 0.920581 0.063189 0.552735
O O14 0.965100 0.826441 0.923470
O O15 0.702083 0.437371 0.204411
O O16 0.000000 0.500000 0.000000
O O17 0.500000 0.000000 0.500000
#
# Coordination Sequence:
#
# PCOD8001054 Si02
#       8
#     2   2   2   2   2   2   2   2
#     4  11  20  36  60  89 120 152 194 242 295 348
#     4  10  19  41  62  84 119 159 196 234 296 361
#     4   9  21  41  63  79 112 164 203 235 282 360
#     4  10  20  35  58  86 116 156 193 239 293 360
#     4  12  22  37  57  85 123 155 190 240 305 345
#     4  12  25  34  59  97 125 144 186 256 304 340
#     4  10  20  32  61  86 111 148 203 242 284 342
#     4  10  22  40  59  84 116 159 201 237 291 350
#
# _framework density 20.708272999999998
#
# number of rings (size 3 to 8) (size 9 to 14) (size 15 to 20)
#    0.000    1.500    3.750    2.625    3.500    0.500 
#    0.000    1.250    0.000    0.000    0.000    0.000 
#    0.000    0.000    0.000    0.000    0.000    0.000 
#
# Total GULP energy -198238.726206 kJ/mol
# GULP energy per Si atom -12389.920388 kJ/mol
# Density = 2.066114 g / cm^3
# Si number density = 20.708273 Si / 1000 Ang^3
#
#
#
# Elastic Constant Matrix: (Units=GPa)
#
#
# Indices 1 2 3 4 5 6 
#
# 1 106.4390 42.0952 27.8597 -0.2348 -16.5926 -18.4147
# 2 42.0952 118.2156 19.4098 -21.2202 -10.6433 -12.6396
# 3 27.8597 19.4098 68.5484 1.7923 -20.8499 -8.0103
# 4 -0.2348 -21.2202 1.7923 20.8086 -3.8739 1.4318
# 5 -16.5926 -10.6433 -20.8499 -3.8739 35.3917 -3.3083
# 6 -18.4147 -12.6396 -8.0103 1.4318 -3.3083 25.0993
#
#
#
# Elastic Compliance Matrix: (Units=1/GPa)
#
#
# Indices 1 2 3 4 5 6 
#
# 1 0.013516 -0.003806 -0.002048 -0.003294 0.004383 0.008111
# 2 -0.003806 0.013112 -0.001174 0.013827 0.003269 0.003078
# 3 -0.002048 -0.001174 0.019698 -0.001319 0.010678 0.005676
# 4 -0.003294 0.013827 -0.001319 0.063790 0.008975 0.001669
# 5 0.004383 0.003269 0.010678 0.008975 0.039781 0.013001
# 6 0.008111 0.003078 0.005676 0.001669 0.013001 0.050773
#
#
# Mechanical properties :
#
#
# Convention : Reuss Voigt Hill
#
# Bulk Modulus (GPa) = 30.98753 52.43691 41.71222
# Shear Modulus (GPa) = 22.17461 29.84913 26.01187
#
# Velocity S-wave (km/s) = 3.27587 3.80071 3.54801
# Velocity P-wave (km/s) = 5.41339 6.68111 6.08038
#
# Compressibility (1/GPa) = 0.03227105
#
# Stress axis : x y z
#
# Youngs Moduli (GPa) = 73.98795 76.26332 50.76533
#
# Poissons Ratio (x) = 0.29026 0.10398
# Poissons Ratio (y) = 0.28160 0.05957
# Poissons Ratio (z) = 0.15155 0.08950
#
# Static dielectric constant tensor:
#      x y z
#    x 4.133900 0.057670 0.536320 
#    y 0.057670 4.449440 0.314250 
#    z 0.536320 0.314250 4.478000 
# 
# 
# High freq. dielectric constant tensor:
#      x y z
#    x 1.805700 -0.016670 -0.004780 
#    y -0.016670 1.781130 -0.001980 
#    z -0.004780 -0.001980 1.816340 
# 
# From -- ./inp_files/558830.got.cif
#   From: 2010.06.25/outbox.cif.g09.slc.cpg/sg2_280_cif.got.tgz:558830.got - 2010.06.27 13:26:56.
