data_PCOD8001654
_publ_section_title
;
Structure prediction by ZEFSAII (Michael W. Deem and Ramdas Pophale) SiO2 
 PCOD8001654
Probable space group: P -1
;
_chemical_formula_sum "Si O2"
_cell_formula_units_Z 16
_cell_length_a 6.061117
_cell_length_b 15.136097
_cell_length_c 15.107747
_cell_angle_alpha 124.374985
_cell_angle_beta 48.885917
_cell_angle_gamma 119.667742
_cell_volume 844.632166
_symmetry_space_group_name_H-M "P -1"
_symmetry_group_IT_number 2
_symmetry_cell_setting 'triclinic'
loop_
_space_group_symop_operation_xyz
x,y,z
-x,-y,-z
loop_
_atom_site_type_symbol
_atom_site_label
_atom_site_fract_x
_atom_site_fract_y
_atom_site_fract_z
Si Si1 0.705010 0.108712 0.315200
Si Si2 0.144279 0.123007 0.560632
Si Si3 0.511701 0.007354 0.126265
Si Si4 0.284967 0.652834 0.984411
Si Si5 0.157511 0.085076 0.736145
Si Si6 0.660541 0.836012 0.873549
Si Si7 0.607169 0.558344 0.094300
Si Si8 0.354537 0.744346 0.216186
O O1 0.441134 0.169369 0.449895
O O2 0.016587 0.189880 0.254494
O O3 0.592245 0.029434 0.218469
O O4 0.762178 0.033697 0.340144
O O5 0.240521 0.126348 0.638910
O O6 0.922236 0.205393 0.648427
O O7 0.000000 0.000000 0.500000
O O8 0.192232 0.923540 0.157623
O O9 0.508690 0.121839 0.141517
O O10 0.731811 0.937847 0.981877
O O11 0.326717 0.709730 0.101393
O O12 0.938167 0.631444 0.038812
O O13 0.467785 0.726367 0.901970
O O14 0.398100 0.536751 0.885339
O O15 0.339960 0.167244 0.805597
O O16 0.381434 0.642080 0.216337
O O17 0.500000 0.500000 0.000000
#
# Coordination Sequence:
#
# PCOD8001654 Si02
#       8
#     2   2   2   2   2   2   2   2
#     4  11  22  34  49  74 111 152 186 218 264 318
#     4  12  22  34  52  78 113 151 188 229 258 316
#     4  10  20  34  48  78 108 145 187 220 264 326
#     4  10  20  39  57  86 110 136 179 226 281 330
#     4  11  20  34  54  76 110 147 186 224 274 309
#     4  10  21  32  52  74 111 146 176 222 268 330
#     4   9  20  36  60  84 107 134 176 229 282 330
#     4  11  21  33  57  83 111 144 179 230 275 317
#
# _framework density 18.943159000000001
#
# number of rings (size 3 to 8) (size 9 to 14) (size 15 to 20)
#    0.000    1.500    2.500    3.750    0.000    4.000 
#    0.000    0.000    0.000    0.750    0.000   13.125 
#    0.000    0.000    0.000    0.000    0.000    0.000 
#
# Total GULP energy -198308.399078 kJ/mol
# GULP energy per Si atom -12394.274942 kJ/mol
# Density = 1.890004 g / cm^3
# Si number density = 18.943159 Si / 1000 Ang^3
#
#
#
# Elastic Constant Matrix: (Units=GPa)
#
#
# Indices 1 2 3 4 5 6 
#
# 1 91.5189 47.1109 37.4658 -1.3820 -9.2341 0.1195
# 2 47.1109 111.2760 52.8637 -9.7743 -21.1652 -3.4171
# 3 37.4658 52.8637 90.2120 -5.6893 -23.2901 -12.0167
# 4 -1.3820 -9.7743 -5.6893 26.1523 -3.3069 -3.4241
# 5 -9.2341 -21.1652 -23.2901 -3.3069 33.6505 8.8452
# 6 0.1195 -3.4171 -12.0167 -3.4241 8.8452 33.3277
#
#
#
# Elastic Compliance Matrix: (Units=1/GPa)
#
#
# Indices 1 2 3 4 5 6 
#
# 1 0.014970 -0.004949 -0.004134 -0.002407 -0.001611 -0.001871
# 2 -0.004949 0.014922 -0.005215 0.004677 0.005202 -0.001233
# 3 -0.004134 -0.005215 0.018652 0.003450 0.007643 0.004531
# 4 -0.002407 0.004677 0.003450 0.042113 0.007756 0.004000
# 5 -0.001611 0.005202 0.007643 0.007756 0.040337 -0.006614
# 6 -0.001871 -0.001233 0.004531 0.004000 -0.006614 0.033686
#
#
# Mechanical properties :
#
#
# Convention : Reuss Voigt Hill
#
# Bulk Modulus (GPa) = 50.13049 63.09861 56.61455
# Shear Modulus (GPa) = 25.00919 28.99721 27.00320
#
# Velocity S-wave (km/s) = 3.63743 3.91672 3.77966
# Velocity P-wave (km/s) = 6.64547 7.33730 6.99994
#
# Compressibility (1/GPa) = 0.01994794
#
# Stress axis : x y z
#
# Youngs Moduli (GPa) = 66.79853 67.01576 53.61313
#
# Poissons Ratio (x) = 0.33168 0.22163
# Poissons Ratio (y) = 0.33061 0.27959
# Poissons Ratio (z) = 0.27614 0.34948
#
# Static dielectric constant tensor:
#      x y z
#    x 3.852480 -0.229840 -0.221700 
#    y -0.229840 3.601410 0.099700 
#    z -0.221700 0.099700 3.463550 
# 
# 
# High freq. dielectric constant tensor:
#      x y z
#    x 1.760480 -0.005310 -0.010180 
#    y -0.005310 1.710770 -0.000570 
#    z -0.010180 -0.000570 1.711000 
# 
# From -- ./inp_files/75736.got.cif
#   From: 2010.06.25/outbox.cif.g09.slc.cpg/sg2_38_cif.got.tgz:75736.got - 2010.06.27 13:26:56.
