data_PCOD8001910
_publ_section_title
;
Structure prediction by ZEFSAII (Michael W. Deem and Ramdas Pophale) SiO2 
 PCOD8001910
Probable space group: P -1
;
_chemical_formula_sum "Si O2"
_cell_formula_units_Z 16
_cell_length_a 5.501263
_cell_length_b 8.712182
_cell_length_c 18.467251
_cell_angle_alpha 89.121176
_cell_angle_beta 80.973503
_cell_angle_gamma 53.295151
_cell_volume 697.370840
_symmetry_space_group_name_H-M "P -1"
_symmetry_group_IT_number 2
_symmetry_cell_setting 'triclinic'
loop_
_space_group_symop_operation_xyz
x,y,z
-x,-y,-z
loop_
_atom_site_type_symbol
_atom_site_label
_atom_site_fract_x
_atom_site_fract_y
_atom_site_fract_z
Si Si1 0.682724 0.117636 0.743787
Si Si2 0.272133 0.117796 0.863796
Si Si3 0.188530 0.302490 0.651613
Si Si4 0.294503 0.778150 0.897784
Si Si5 0.240873 0.583505 0.209499
Si Si6 0.193962 0.281554 0.016212
Si Si7 0.440182 0.693449 0.478456
Si Si8 0.887868 0.989869 0.394974
O O1 0.582145 0.011977 0.799954
O O2 0.419577 0.276094 0.701079
O O3 0.725160 0.246637 0.792777
O O4 0.973836 0.964389 0.679724
O O5 0.026462 0.331269 0.840019
O O6 0.149288 0.987446 0.868487
O O7 0.357284 0.140889 0.940580
O O8 0.236759 0.378007 0.574310
O O9 0.280468 0.092451 0.631384
O O10 0.852085 0.441220 0.704739
O O11 0.459835 0.620260 0.827871
O O12 0.541407 0.753114 0.943666
O O13 0.032372 0.765847 0.941610
O O14 0.000000 0.500000 0.000000
O O15 0.500000 0.500000 0.500000
O O16 0.154117 0.824602 0.436814
O O17 0.372028 0.815929 0.553090
#
# Coordination Sequence:
#
# PCOD8001910 Si02
#       8
#     2   2   2   2   2   2   2   2
#     4   9  20  39  63  84 121 163 206 250 314 370
#     4  11  24  40  65  91 124 162 208 263 315 378
#     4   9  19  38  58  86 120 161 201 250 308 369
#     4  12  27  42  66  97 126 167 213 266 319 380
#     4  10  22  41  63  87 123 167 205 259 315 378
#     4  12  25  45  67  93 129 168 210 265 323 380
#     4  10  20  34  59  89 117 156 200 252 302 366
#     4   9  19  38  58  84 121 158 198 249 305 367
#
# _framework density 22.943314999999998
#
# number of rings (size 3 to 8) (size 9 to 14) (size 15 to 20)
#    0.000    1.750    1.250    2.250    5.250    1.500 
#    0.000   11.250    0.000    0.000    0.000    0.000 
#    0.000    0.000    0.000    0.000    0.000    0.000 
#
# Total GULP energy -198225.056127 kJ/mol
# GULP energy per Si atom -12389.066008 kJ/mol
# Density = 2.289110 g / cm^3
# Si number density = 22.943315 Si / 1000 Ang^3
#
#
#
# Elastic Constant Matrix: (Units=GPa)
#
#
# Indices 1 2 3 4 5 6 
#
# 1 84.5075 3.5766 46.4695 -7.3366 -24.9324 15.2626
# 2 3.5766 75.5770 52.2290 -0.3996 -21.0248 8.4069
# 3 46.4695 52.2290 163.6832 20.6306 -41.5363 16.1774
# 4 -7.3366 -0.3996 20.6306 25.8420 13.4613 -8.6110
# 5 -24.9324 -21.0248 -41.5363 13.4613 48.0153 -9.2641
# 6 15.2626 8.4069 16.1774 -8.6110 -9.2641 23.1933
#
#
#
# Elastic Compliance Matrix: (Units=1/GPa)
#
#
# Indices 1 2 3 4 5 6 
#
# 1 0.017329 0.004768 -0.005854 0.006157 0.003240 -0.005468
# 2 0.004768 0.018980 -0.007229 0.005402 0.002650 -0.001911
# 3 -0.005854 -0.007229 0.018917 -0.028962 0.016151 -0.011023
# 4 0.006157 0.005402 -0.028962 0.095638 -0.039781 0.033809
# 5 0.003240 0.002650 0.016151 -0.039781 0.046779 -0.010443
# 6 -0.005468 -0.001911 -0.011023 0.033809 -0.010443 0.063476
#
#
# Mechanical properties :
#
#
# Convention : Reuss Voigt Hill
#
# Bulk Modulus (GPa) = 25.91094 58.70201 42.30647
# Shear Modulus (GPa) = 17.20488 34.17630 25.69059
#
# Velocity S-wave (km/s) = 2.74138 3.86372 3.34988
# Velocity P-wave (km/s) = 4.61933 6.74875 5.78290
#
# Compressibility (1/GPa) = 0.03859374
#
# Stress axis : x y z
#
# Youngs Moduli (GPa) = 57.70736 52.68638 52.86359
#
# Poissons Ratio (x) = -0.25120 0.30949
# Poissons Ratio (y) = -0.27514 0.38218
# Poissons Ratio (z) = 0.33784 0.38089
#
# Static dielectric constant tensor:
#      x y z
#    x 4.247460 0.171080 -0.208640 
#    y 0.171080 3.862890 0.110490 
#    z -0.208640 0.110490 4.683720 
# 
# 
# High freq. dielectric constant tensor:
#      x y z
#    x 1.909490 0.016360 -0.007090 
#    y 0.016360 1.871120 0.008300 
#    z -0.007090 0.008300 1.931220 
# 
# From -- ./inp_files/51125.got.cif
#   From: 2010.06.25/outbox.cif.g09.slc.cpg/sg2_26_cif.got.tgz:51125.got - 2010.06.27 13:26:56.
