data_PCOD8001365
_publ_section_title
;
Structure prediction by ZEFSAII (Michael W. Deem and Ramdas Pophale) SiO2 
 PCOD8001365
Probable space group: P -1
;
_chemical_formula_sum "Si O2"
_cell_formula_units_Z 16
_cell_length_a 9.991491
_cell_length_b 11.564345
_cell_length_c 12.546794
_cell_angle_alpha 97.588432
_cell_angle_beta 144.623110
_cell_angle_gamma 76.295638
_cell_volume 810.596950
_symmetry_space_group_name_H-M "P -1"
_symmetry_group_IT_number 2
_symmetry_cell_setting 'triclinic'
loop_
_space_group_symop_operation_xyz
x,y,z
-x,-y,-z
loop_
_atom_site_type_symbol
_atom_site_label
_atom_site_fract_x
_atom_site_fract_y
_atom_site_fract_z
Si Si1 0.729363 0.695160 0.503588
Si Si2 0.831488 0.473330 0.169279
Si Si3 0.595087 0.532712 0.233415
Si Si4 0.038047 0.137368 0.455346
Si Si5 0.150144 0.288133 0.896317
Si Si6 0.595116 0.298281 0.312671
Si Si7 0.760296 0.945576 0.207751
Si Si8 0.378358 0.641108 0.426837
O O1 0.690353 0.640383 0.357294
O O2 0.490475 0.716169 0.420505
O O3 0.904210 0.602730 0.684139
O O4 0.837413 0.807713 0.554974
O O5 0.779928 0.461832 0.259218
O O6 0.788334 0.613281 0.131650
O O7 0.656941 0.412517 0.979323
O O8 0.565126 0.440035 0.294049
O O9 0.822122 0.226424 0.386583
O O10 0.238159 0.082937 0.667360
O O11 0.933398 0.036193 0.315442
O O12 0.132459 0.172913 0.803237
O O13 0.893392 0.344915 0.787661
O O14 0.356959 0.257258 0.115778
O O15 0.622278 0.284059 0.455172
O O16 0.500000 0.000000 0.000000
O O17 0.500000 0.500000 0.500000
#
# Coordination Sequence:
#
# PCOD8001365 Si02
#       8
#     2   2   2   2   2   2   2   2
#     4  12  23  38  59  92 133 164 201 252 311 380
#     4  10  20  33  58  94 124 158 199 262 313 370
#     4  10  20  31  55  90 128 158 198 250 317 360
#     4  11  24  40  69  97 118 159 217 267 313 366
#     4  11  22  39  64  90 127 163 212 260 306 373
#     4  11  21  38  63  91 122 163 212 254 305 366
#     4  11  23  43  70  96 118 157 216 273 316 356
#     4  12  24  39  59  92 136 177 200 242 313 383
#
# _framework density 19.738541000000001
#
# number of rings (size 3 to 8) (size 9 to 14) (size 15 to 20)
#    0.000    1.000    6.250    1.125    0.000    2.500 
#    0.000    0.625    0.000    1.500    0.000    0.000 
#    0.000    0.000    0.000    0.000    0.000    0.000 
#
# Total GULP energy -198336.627175 kJ/mol
# GULP energy per Si atom -12396.039198 kJ/mol
# Density = 1.969361 g / cm^3
# Si number density = 19.738541 Si / 1000 Ang^3
#
#
#
# Elastic Constant Matrix: (Units=GPa)
#
#
# Indices 1 2 3 4 5 6 
#
# 1 12.0236 22.7670 41.8619 -32.1095 28.4589 39.6508
# 2 22.7670 74.0621 25.5104 12.2087 5.6811 13.4171
# 3 41.8619 25.5104 111.0901 -1.7714 12.6661 7.9430
# 4 -32.1095 12.2087 -1.7714 20.7727 4.4866 13.1678
# 5 28.4589 5.6811 12.6661 4.4866 24.8457 -5.8779
# 6 39.6508 13.4171 7.9430 13.1678 -5.8779 15.5512
#
#
#
# Elastic Compliance Matrix: (Units=1/GPa)
#
#
# Indices 1 2 3 4 5 6 
#
# 1 -0.000403 -0.000585 -0.001643 -0.010706 0.006668 0.013957
# 2 -0.000585 0.017337 -0.002877 -0.005139 -0.002973 -0.008768
# 3 -0.001643 -0.002877 0.011113 0.003356 -0.004578 -0.003578
# 4 -0.010706 -0.005139 0.003356 0.023651 0.010784 0.014067
# 5 0.006668 -0.002973 -0.004578 0.010784 0.031469 -0.009334
# 6 0.013957 -0.008768 -0.003578 0.014067 -0.009334 0.022671
#
#
# Mechanical properties :
#
#
# Convention : Reuss Voigt Hill
#
# Bulk Modulus (GPa) = 56.06282 41.93937 49.00110
# Shear Modulus (GPa) = 40.98603 19.36970 30.17786
#
# Velocity S-wave (km/s) = 4.56175 3.13599 3.91433
# Velocity P-wave (km/s) = 7.49736 5.86568 6.73114
#
# Compressibility (1/GPa) = 0.01783713
#
# Stress axis : x y z
#
# Youngs Moduli (GPa) = -2482.13304 57.68152 89.98739
#
# Poissons Ratio (x) = 0.03377 0.14782
# Poissons Ratio (y) = -1.45302 0.25886
# Poissons Ratio (z) = -4.07727 0.16593
#
# Static dielectric constant tensor:
#      x y z
#    x 3.441530 0.070070 0.104740 
#    y 0.070070 3.458060 0.024390 
#    z 0.104740 0.024390 3.892170 
# 
# 
# High freq. dielectric constant tensor:
#      x y z
#    x 1.747900 0.007130 0.006980 
#    y 0.007130 1.746830 0.004810 
#    z 0.006980 0.004810 1.793830 
# 
# From -- ./inp_files/390550.got.cif
#   From: 2010.06.25/outbox.cif.g09.slc.cpg/sg2_196_cif.got.tgz:390550.got - 2010.06.27 13:26:56.
