data_PCOD8001346
_publ_section_title
;
Structure prediction by ZEFSAII (Michael W. Deem and Ramdas Pophale) SiO2 
 PCOD8001346
Probable space group: P -1
;
_chemical_formula_sum "Si O2"
_cell_formula_units_Z 12
_cell_length_a 21.190510
_cell_length_b 11.214295
_cell_length_c 21.311341
_cell_angle_alpha 32.162980
_cell_angle_beta 13.465491
_cell_angle_gamma 31.972786
_cell_volume 614.832887
_symmetry_space_group_name_H-M "P -1"
_symmetry_group_IT_number 2
_symmetry_cell_setting 'triclinic'
loop_
_space_group_symop_operation_xyz
x,y,z
-x,-y,-z
loop_
_atom_site_type_symbol
_atom_site_label
_atom_site_fract_x
_atom_site_fract_y
_atom_site_fract_z
Si Si1 0.947273 0.772179 0.621490
Si Si2 0.721542 0.740001 0.721515
Si Si3 0.840278 0.213024 0.816834
Si Si4 0.211187 0.970613 0.920069
Si Si5 0.398162 0.840539 0.618871
Si Si6 0.543444 0.487307 0.186821
O O1 0.807271 0.837770 0.660248
O O2 0.232175 0.588362 0.420505
O O3 0.733423 0.674424 0.915620
O O4 0.000000 0.000000 0.500000
O O5 0.802923 0.466524 0.767855
O O6 0.869153 0.844929 0.474638
O O7 0.394282 0.814306 0.994372
O O8 0.836695 0.038714 0.955113
O O9 0.338694 0.720077 0.881709
O O10 0.421415 0.143094 0.625726
O O11 0.924077 0.072242 0.119299
O O12 0.451754 0.588927 0.710552
O O13 0.500000 0.000000 0.500000
#
# Coordination Sequence:
#
# PCOD8001346 Si02
#       6
#     2   2   2   2   2   2
#     4  12  24  38  56  78 109 153 190 219 261 313
#     4  10  21  34  50  79 108 144 180 216 268 322
#     4  10  20  32  55  78 111 142 168 220 279 328
#     4  11  19  33  54  84 111 143 170 214 287 336
#     4  10  20  31  52  81 112 142 174 214 279 338
#     4  11  21  36  53  79 114 144 178 229 266 317
#
# _framework density 19.517498
#
# number of rings (size 3 to 8) (size 9 to 14) (size 15 to 20)
#    0.000    1.333    1.667    7.500    4.667    0.000 
#    0.000    0.000    0.000    0.000    0.000   23.333 
#    0.000    0.000    0.000    0.000    0.000    0.000 
#
# Total GULP energy -148806.843488 kJ/mol
# GULP energy per Si atom -12400.570291 kJ/mol
# Density = 1.947308 g / cm^3
# Si number density = 19.517498 Si / 1000 Ang^3
#
#
#
# Elastic Constant Matrix: (Units=GPa)
#
#
# Indices 1 2 3 4 5 6 
#
# 1 107.2813 35.5346 31.9755 -17.1670 6.1677 -10.9062
# 2 35.5346 33.0032 17.3432 -7.1028 -0.5022 -8.8909
# 3 31.9755 17.3432 116.4616 -9.4369 12.1375 -11.4063
# 4 -17.1670 -7.1028 -9.4369 31.7015 -16.7590 -0.0735
# 5 6.1677 -0.5022 12.1375 -16.7590 43.7593 -11.1771
# 6 -10.9062 -8.8909 -11.4063 -0.0735 -11.1771 21.8006
#
#
#
# Elastic Compliance Matrix: (Units=1/GPa)
#
#
# Indices 1 2 3 4 5 6 
#
# 1 0.015458 -0.014466 -0.001617 0.004763 0.000212 0.001112
# 2 -0.014466 0.055244 -0.002729 0.010463 0.012643 0.020383
# 3 -0.001617 -0.002729 0.009894 0.000547 -0.001733 0.002368
# 4 0.004763 0.010463 0.000547 0.048694 0.022737 0.018758
# 5 0.000212 0.012643 -0.001733 0.022737 0.038304 0.024071
# 6 0.001112 0.020383 0.002368 0.018758 0.024071 0.068383
#
#
# Mechanical properties :
#
#
# Convention : Reuss Voigt Hill
#
# Bulk Modulus (GPa) = 23.27039 47.38363 35.32701
# Shear Modulus (GPa) = 17.36567 30.91181 24.13874
#
# Velocity S-wave (km/s) = 2.98610 3.98402 3.52060
# Velocity P-wave (km/s) = 4.88240 6.74488 5.88775
#
# Compressibility (1/GPa) = 0.04297307
#
# Stress axis : x y z
#
# Youngs Moduli (GPa) = 64.69268 18.10135 101.07377
#
# Poissons Ratio (x) = 0.26185 0.16344
# Poissons Ratio (y) = 0.93582 0.27580
# Poissons Ratio (z) = 0.10461 0.04939
#
# Static dielectric constant tensor:
#      x y z
#    x 3.778280 -0.619060 0.441710 
#    y -0.619060 3.344020 -0.341290 
#    z 0.441710 -0.341290 4.320360 
# 
# 
# High freq. dielectric constant tensor:
#      x y z
#    x 1.756860 -0.036980 0.005440 
#    y -0.036980 1.700430 -0.002700 
#    z 0.005440 -0.002700 1.793990 
# 
# From -- ./inp_files/60892.got.cif
#   From: 2010.06.25/outbox.cif.g09.slc.cpg/sg2_31_cif.got.tgz:60892.got - 2010.06.27 13:26:56.
