data_PCOD8001735
_publ_section_title
;
Structure prediction by ZEFSAII (Michael W. Deem and Ramdas Pophale) SiO2 
 PCOD8001735
Probable space group: P -1
;
_chemical_formula_sum "Si O2"
_cell_formula_units_Z 16
_cell_length_a 13.305257
_cell_length_b 13.496083
_cell_length_c 13.722987
_cell_angle_alpha 32.498356
_cell_angle_beta 35.455681
_cell_angle_gamma 47.378136
_cell_volume 767.612776
_symmetry_space_group_name_H-M "P -1"
_symmetry_group_IT_number 2
_symmetry_cell_setting 'triclinic'
loop_
_space_group_symop_operation_xyz
x,y,z
-x,-y,-z
loop_
_atom_site_type_symbol
_atom_site_label
_atom_site_fract_x
_atom_site_fract_y
_atom_site_fract_z
Si Si1 0.327403 0.718847 0.633539
Si Si2 0.722228 0.652698 0.357154
Si Si3 0.200490 0.964348 0.086786
Si Si4 0.405001 0.116513 0.171326
Si Si5 0.830717 0.004598 0.698268
Si Si6 0.955630 0.426161 0.490854
Si Si7 0.857252 0.395273 0.311263
Si Si8 0.199751 0.450516 0.101278
O O1 0.515977 0.646163 0.520730
O O2 0.183132 0.616358 0.762457
O O3 0.326782 0.940124 0.440690
O O4 0.277965 0.650458 0.838373
O O5 0.787669 0.528839 0.497475
O O6 0.782866 0.576079 0.268737
O O7 0.801251 0.863116 0.129986
O O8 0.140367 0.050444 0.166647
O O9 0.072344 0.795530 0.296997
O O10 0.391240 0.884092 0.003094
O O11 0.322643 0.119265 0.125872
O O12 0.350408 0.301987 0.115630
O O13 0.763723 0.214155 0.582981
O O14 0.000000 0.000000 0.500000
O O15 0.000000 0.500000 0.500000
O O16 0.115557 0.477018 0.251266
O O17 0.060490 0.378295 0.190457
#
# Coordination Sequence:
#
# PCOD8001735 Si02
#       8
#     2   2   2   2   2   2   2   2
#     4  10  22  35  57  90 128 158 195 239 292 369
#     4  10  22  40  60  88 119 158 200 248 305 358
#     4  11  22  40  61  86 124 159 201 252 297 363
#     4  10  22  36  58  90 128 166 192 233 300 361
#     4  11  19  34  55  89 130 165 200 234 284 357
#     4  11  25  46  65  85 113 155 211 263 308 353
#     4  10  20  34  54  88 128 168 195 232 289 355
#     4  11  21  37  60  87 120 160 203 249 293 351
#
# _framework density 20.843843
#
# number of rings (size 3 to 8) (size 9 to 14) (size 15 to 20)
#    0.000    1.500    3.750    1.875    1.750    6.500 
#    0.000    2.500    0.000    3.000    0.000    0.000 
#    0.000    0.000    0.000    0.000    0.000    0.000 
#
# Total GULP energy -198308.558865 kJ/mol
# GULP energy per Si atom -12394.284929 kJ/mol
# Density = 2.079640 g / cm^3
# Si number density = 20.843843 Si / 1000 Ang^3
#
#
#
# Elastic Constant Matrix: (Units=GPa)
#
#
# Indices 1 2 3 4 5 6 
#
# 1 58.6615 33.0038 24.5233 -3.1061 13.5638 12.8046
# 2 33.0038 80.2311 32.8298 4.2078 7.2603 -1.9632
# 3 24.5233 32.8298 95.0550 -2.7273 15.8534 16.1668
# 4 -3.1061 4.2078 -2.7273 31.9719 -4.0387 -2.6097
# 5 13.5638 7.2603 15.8534 -4.0387 16.8163 1.2758
# 6 12.8046 -1.9632 16.1668 -2.6097 1.2758 23.8349
#
#
#
# Elastic Compliance Matrix: (Units=1/GPa)
#
#
# Indices 1 2 3 4 5 6 
#
# 1 0.032469 -0.013185 0.003132 0.000822 -0.021781 -0.019398
# 2 -0.013185 0.020656 -0.007157 -0.002687 0.006834 0.012979
# 3 0.003132 -0.007157 0.016756 -0.000183 -0.014299 -0.012892
# 4 0.000822 -0.002687 -0.000183 0.032969 0.008389 0.002622
# 5 -0.021781 0.006834 -0.014299 0.008389 0.088201 0.018160
# 6 -0.019398 0.012979 -0.012892 0.002622 0.018160 0.061505
#
#
# Mechanical properties :
#
#
# Convention : Reuss Voigt Hill
#
# Bulk Modulus (GPa) = 28.19851 46.07348 37.13599
# Shear Modulus (GPa) = 16.73373 24.09734 20.41554
#
# Velocity S-wave (km/s) = 2.83647 3.40382 3.13301
# Velocity P-wave (km/s) = 4.92801 6.13189 5.56261
#
# Compressibility (1/GPa) = 0.03546287
#
# Stress axis : x y z
#
# Youngs Moduli (GPa) = 30.79816 48.41093 59.67927
#
# Poissons Ratio (x) = 0.63830 -0.18694
# Poissons Ratio (y) = 0.40608 0.42712
# Poissons Ratio (z) = -0.09647 0.34647
#
# Static dielectric constant tensor:
#      x y z
#    x 3.355380 -0.240030 0.069330 
#    y -0.240030 3.790920 -0.188770 
#    z 0.069330 -0.188770 3.948830 
# 
# 
# High freq. dielectric constant tensor:
#      x y z
#    x 1.761960 -0.022610 0.003020 
#    y -0.022610 1.820020 -0.007800 
#    z 0.003020 -0.007800 1.829230 
# 
# From -- ./inp_files/344951.got.cif
#   From: 2010.06.25/outbox.cif.g09.slc.cpg/sg2_173_cif.got.tgz:344951.got - 2010.06.27 13:26:56.
