data_PCOD8001754
_publ_section_title
;
Structure prediction by ZEFSAII (Michael W. Deem and Ramdas Pophale) SiO2 
 PCOD8001754
Probable space group: P -1
;
_chemical_formula_sum "Si O2"
_cell_formula_units_Z 16
_cell_length_a 5.017840
_cell_length_b 17.305140
_cell_length_c 9.305327
_cell_angle_alpha 84.303877
_cell_angle_beta 71.728618
_cell_angle_gamma 80.866342
_cell_volume 756.499392
_symmetry_space_group_name_H-M "P -1"
_symmetry_group_IT_number 2
_symmetry_cell_setting 'triclinic'
loop_
_space_group_symop_operation_xyz
x,y,z
-x,-y,-z
loop_
_atom_site_type_symbol
_atom_site_label
_atom_site_fract_x
_atom_site_fract_y
_atom_site_fract_z
Si Si1 0.734839 0.764380 0.451610
Si Si2 0.263846 0.945349 0.028314
Si Si3 0.218641 0.696080 0.192726
Si Si4 0.634374 0.466889 0.693127
Si Si5 0.886627 0.434472 0.348554
Si Si6 0.128888 0.740043 0.647038
Si Si7 0.921862 0.192429 0.050341
Si Si8 0.516892 0.834670 0.211604
O O1 0.465651 0.728498 0.565206
O O2 0.620596 0.841487 0.358770
O O3 0.915323 0.702431 0.324870
O O4 0.942006 0.784385 0.541340
O O5 0.302381 0.870259 0.926376
O O6 0.257541 0.902022 0.195533
O O7 0.500000 0.000000 0.000000
O O8 0.000000 0.000000 0.000000
O O9 0.356376 0.605540 0.184353
O O10 0.418985 0.748853 0.233557
O O11 0.182904 0.725998 0.029125
O O12 0.739582 0.431172 0.528759
O O13 0.315303 0.510084 0.734104
O O14 0.819614 0.531695 0.702669
O O15 0.957470 0.345907 0.296555
O O16 0.052173 0.793183 0.788868
O O17 0.225225 0.155037 0.942177
#
# Coordination Sequence:
#
# PCOD8001754 Si02
#       8
#     2   2   2   2   2   2   2   2
#     4  11  22  37  65  89 123 162 213 256 300 360
#     4  11  22  41  69  98 125 157 203 247 297 368
#     4  10  21  39  62  91 119 166 217 261 295 362
#     4  10  20  34  55  82 117 159 216 257 304 347
#     4  10  21  33  54  84 119 159 207 263 306 362
#     4  12  24  40  60  94 128 163 205 260 322 358
#     4  10  25  40  67  95 128 159 203 254 309 373
#     4  10  21  42  65 100 116 166 210 250 293 366
#
# _framework density 21.150051999999999
#
# number of rings (size 3 to 8) (size 9 to 14) (size 15 to 20)
#    0.000    1.500    3.750    0.750   10.500    0.000 
#    0.000    1.250    0.000    4.500    0.000    0.000 
#    0.000    0.000    0.000    0.000    0.000    0.000 
#
# Total GULP energy -198235.739791 kJ/mol
# GULP energy per Si atom -12389.733737 kJ/mol
# Density = 2.110191 g / cm^3
# Si number density = 21.150052 Si / 1000 Ang^3
#
#
#
# Elastic Constant Matrix: (Units=GPa)
#
#
# Indices 1 2 3 4 5 6 
#
# 1 115.6609 33.7600 41.3164 -5.3736 23.9207 -0.7800
# 2 33.7600 101.1608 48.0435 -18.2401 20.9542 5.1396
# 3 41.3164 48.0435 89.3319 -4.6877 29.7550 -1.9241
# 4 -5.3736 -18.2401 -4.6877 21.4451 -4.6527 11.8501
# 5 23.9207 20.9542 29.7550 -4.6527 44.3350 -15.0231
# 6 -0.7800 5.1396 -1.9241 11.8501 -15.0231 37.6800
#
#
#
# Elastic Compliance Matrix: (Units=1/GPa)
#
#
# Indices 1 2 3 4 5 6 
#
# 1 0.010908 -0.001031 -0.003245 0.001269 -0.003647 -0.001652
# 2 -0.001031 0.018647 -0.007037 0.018999 -0.005267 -0.010999
# 3 -0.003245 -0.007037 0.018943 -0.004428 -0.008093 0.000026
# 4 0.001269 0.018999 -0.004428 0.077113 -0.008976 -0.030622
# 5 -0.003647 -0.005267 -0.008093 -0.008976 0.037619 0.018051
# 6 -0.001652 -0.010999 0.000026 -0.030622 0.018051 0.044834
#
#
# Mechanical properties :
#
#
# Convention : Reuss Voigt Hill
#
# Bulk Modulus (GPa) = 38.65102 61.37703 50.01403
# Shear Modulus (GPa) = 20.89296 32.89427 26.89361
#
# Velocity S-wave (km/s) = 3.14641 3.94798 3.56977
# Velocity P-wave (km/s) = 5.61375 7.06151 6.37884
#
# Compressibility (1/GPa) = 0.02587254
#
# Stress axis : x y z
#
# Youngs Moduli (GPa) = 91.67482 53.62815 52.78896
#
# Poissons Ratio (x) = 0.05530 0.17128
# Poissons Ratio (y) = 0.09453 0.37148
# Poissons Ratio (z) = 0.29745 0.37739
#
# Static dielectric constant tensor:
#      x y z
#    x 4.131590 -0.033200 0.335310 
#    y -0.033200 3.698130 -0.425990 
#    z 0.335310 -0.425990 3.685380 
# 
# 
# High freq. dielectric constant tensor:
#      x y z
#    x 1.859000 0.003190 0.024020 
#    y 0.003190 1.798870 -0.038540 
#    z 0.024020 -0.038540 1.796150 
# 
# From -- ./inp_files/106518.got.cif
#   From: 2010.06.25/outbox.cif.g09.slc.cpg/sg2_54_cif.got.tgz:106518.got - 2010.06.27 13:26:56.
