data_PCOD8001890
_publ_section_title
;
Structure prediction by ZEFSAII (Michael W. Deem and Ramdas Pophale) SiO2 
 PCOD8001890
Probable space group: P -1
;
_chemical_formula_sum "Si O2"
_cell_formula_units_Z 16
_cell_length_a 15.658427
_cell_length_b 9.392593
_cell_length_c 9.224904
_cell_angle_alpha 149.088275
_cell_angle_beta 86.922449
_cell_angle_gamma 93.051230
_cell_volume 695.905227
_symmetry_space_group_name_H-M "P -1"
_symmetry_group_IT_number 2
_symmetry_cell_setting 'triclinic'
loop_
_space_group_symop_operation_xyz
x,y,z
-x,-y,-z
loop_
_atom_site_type_symbol
_atom_site_label
_atom_site_fract_x
_atom_site_fract_y
_atom_site_fract_z
Si Si1 0.646062 0.167547 0.909467
Si Si2 0.868799 0.041106 0.462073
Si Si3 0.484249 0.287455 0.183217
Si Si4 0.265444 0.284396 0.648377
Si Si5 0.962173 0.144343 0.840565
Si Si6 0.695010 0.927175 0.003323
Si Si7 0.114306 0.406372 0.564738
Si Si8 0.798782 0.396284 0.537753
O O1 0.552197 0.304260 0.059396
O O2 0.702232 0.411127 0.043937
O O3 0.653364 0.908349 0.572359
O O4 0.684247 0.064609 0.967756
O O5 0.785502 0.845279 0.324648
O O6 0.937954 0.858941 0.211140
O O7 0.904895 0.146579 0.703323
O O8 0.843183 0.309427 0.606561
O O9 0.500000 0.500000 0.500000
O O10 0.387733 0.263728 0.109497
O O11 0.500000 0.000000 0.000000
O O12 0.205826 0.319984 0.544642
O O13 0.937558 0.879046 0.711453
O O14 0.943451 0.429002 0.171861
O O15 0.772515 0.716492 0.824657
O O16 0.718419 0.186227 0.331385
O O17 0.129751 0.602444 0.595274
#
# Coordination Sequence:
#
# PCOD8001890 Si02
#       8
#     2   2   2   2   2   2   2   2
#     4  11  19  36  62  90 118 159 206 250 292 357
#     4  10  26  43  61  94 122 170 204 258 311 379
#     4  10  20  34  58  93 128 156 201 253 307 352
#     4  11  21  36  63  87 122 158 211 247 294 362
#     4  10  24  44  65  84 123 162 219 252 307 367
#     4  11  21  38  60  94 128 161 194 263 313 361
#     4  11  21  39  65  90 117 164 200 273 305 361
#     4  12  24  38  64  92 131 157 205 256 325 361
#
# _framework density 22.991636
#
# number of rings (size 3 to 8) (size 9 to 14) (size 15 to 20)
#    0.000    1.250    2.500    5.250    0.000   10.500 
#    0.000    0.000    0.000    4.500    0.000    0.000 
#    0.000    0.000    0.000    0.000    0.000    0.000 
#
# Total GULP energy -198309.529710 kJ/mol
# GULP energy per Si atom -12394.345607 kJ/mol
# Density = 2.293931 g / cm^3
# Si number density = 22.991636 Si / 1000 Ang^3
#
#
#
# Elastic Constant Matrix: (Units=GPa)
#
#
# Indices 1 2 3 4 5 6 
#
# 1 84.9278 37.6459 24.9253 -1.0076 -15.2948 22.0716
# 2 37.6459 117.9306 11.1908 15.0111 -0.8901 11.2965
# 3 24.9253 11.1908 100.3146 23.5244 -13.6230 4.8874
# 4 -1.0076 15.0111 23.5244 16.6946 4.3673 0.7172
# 5 -15.2948 -0.8901 -13.6230 4.3673 33.8173 1.2770
# 6 22.0716 11.2965 4.8874 0.7172 1.2770 29.5424
#
#
#
# Elastic Compliance Matrix: (Units=1/GPa)
#
#
# Indices 1 2 3 4 5 6 
#
# 1 0.021444 -0.007093 -0.007310 0.017258 0.004819 -0.012727
# 2 -0.007093 0.012776 0.005201 -0.019705 0.001770 -0.000045
# 3 -0.007310 0.005201 0.021583 -0.038282 0.010455 0.000379
# 4 0.017258 -0.019705 -0.038282 0.139485 -0.026100 -0.001284
# 5 0.004819 0.001770 0.010455 -0.026100 0.039647 -0.007087
# 6 -0.012727 -0.000045 0.000379 -0.001284 -0.007087 0.043650
#
#
# Mechanical properties :
#
#
# Convention : Reuss Voigt Hill
#
# Bulk Modulus (GPa) = 26.73795 50.07743 38.40769
# Shear Modulus (GPa) = 16.15732 31.30492 23.73112
#
# Velocity S-wave (km/s) = 2.65381 3.69396 3.21622
# Velocity P-wave (km/s) = 4.58748 6.32628 5.52570
#
# Compressibility (1/GPa) = 0.03740003
#
# Stress axis : x y z
#
# Youngs Moduli (GPa) = 46.63207 78.27070 46.33189
#
# Poissons Ratio (x) = 0.55518 0.33867
# Poissons Ratio (y) = 0.33077 -0.24096
# Poissons Ratio (z) = 0.34086 -0.40706
#
# Static dielectric constant tensor:
#      x y z
#    x 1.701520 -0.412840 0.030090 
#    y -0.412840 3.804310 0.275260 
#    z 0.030090 0.275260 3.953630 
# 
# 
# High freq. dielectric constant tensor:
#      x y z
#    x 1.902320 0.026020 -0.014450 
#    y 0.026020 1.884710 0.026200 
#    z -0.014450 0.026200 1.909630 
# 
# From -- ./inp_files/329727.got.cif
#   From: 2010.06.25/outbox.cif.g09.slc.cpg/sg2_165_cif.got.tgz:329727.got - 2010.06.27 13:26:56.
