data_PCOD8001579
_publ_section_title
;
Structure prediction by ZEFSAII (Michael W. Deem and Ramdas Pophale) SiO2 
 PCOD8001579
Probable space group: P -1
;
_chemical_formula_sum "Si O2"
_cell_formula_units_Z 16
_cell_length_a 14.239346
_cell_length_b 17.763437
_cell_length_c 20.594040
_cell_angle_alpha 19.999417
_cell_angle_beta 148.213430
_cell_angle_gamma 135.198028
_cell_volume 815.308848
_symmetry_space_group_name_H-M "P -1"
_symmetry_group_IT_number 2
_symmetry_cell_setting 'triclinic'
loop_
_space_group_symop_operation_xyz
x,y,z
-x,-y,-z
loop_
_atom_site_type_symbol
_atom_site_label
_atom_site_fract_x
_atom_site_fract_y
_atom_site_fract_z
Si Si1 0.813421 0.359940 0.331096
Si Si2 0.162318 0.766983 0.408616
Si Si3 0.268879 0.840084 0.204774
Si Si4 0.544530 0.297225 0.982382
Si Si5 0.378482 0.828637 0.726472
Si Si6 0.783152 0.635704 0.454089
Si Si7 0.496984 0.068216 0.838324
Si Si8 0.513498 0.214371 0.491394
O O1 0.876243 0.197523 0.565922
O O2 0.796316 0.184680 0.407331
O O3 0.981316 0.435198 0.347351
O O4 0.601556 0.616363 0.006657
O O5 0.295199 0.466768 0.710630
O O6 0.299639 0.893366 0.364104
O O7 0.946985 0.898808 0.137712
O O8 0.231770 0.604816 0.384214
O O9 0.400426 0.799930 0.249775
O O10 0.391860 0.865463 0.316553
O O11 0.618583 0.478842 0.843449
O O12 0.661251 0.201492 0.196999
O O13 0.595870 0.061256 0.158332
O O14 0.365102 0.098325 0.486600
O O15 0.689244 0.714008 0.407303
O O16 0.666105 0.863424 0.150931
#
# Coordination Sequence:
#
# PCOD8001579 Si02
#       8
#     2   2   2   2   2   2   2   2
#     4  10  21  39  57  84 117 153 188 235 279 340
#     4   9  20  33  55  90 114 144 180 237 288 341
#     4  12  20  36  58  88 116 147 187 233 292 341
#     4   9  20  37  53  88 111 148 188 230 283 334
#     4  10  20  38  61  80 117 150 190 236 286 327
#     4  11  23  39  57  84 116 154 190 229 287 331
#     4  11  22  38  60  81 116 154 189 236 274 346
#     4  10  20  33  56  86 114 146 180 232 289 336
#
# _framework density 19.624464
#
# number of rings (size 3 to 8) (size 9 to 14) (size 15 to 20)
#    0.750    1.000    3.750    1.500    0.000    2.000 
#    2.250    0.625    0.000    0.750    0.000    0.000 
#    0.000    0.000    0.000    0.000    0.000    0.000 
#
# Total GULP energy -198356.471179 kJ/mol
# GULP energy per Si atom -12397.279449 kJ/mol
# Density = 1.957980 g / cm^3
# Si number density = 19.624464 Si / 1000 Ang^3
#
#
#
# Elastic Constant Matrix: (Units=GPa)
#
#
# Indices 1 2 3 4 5 6 
#
# 1 75.6580 11.0152 7.4738 1.9647 -16.2061 2.8490
# 2 11.0152 95.2964 2.6026 -9.7545 -7.6394 1.4100
# 3 7.4738 2.6026 23.7634 -5.5706 -8.6852 2.6056
# 4 1.9647 -9.7545 -5.5706 16.9850 0.4759 -3.9672
# 5 -16.2061 -7.6394 -8.6852 0.4759 23.6650 -7.3239
# 6 2.8490 1.4100 2.6056 -3.9672 -7.3239 31.2732
#
#
#
# Elastic Compliance Matrix: (Units=1/GPa)
#
#
# Indices 1 2 3 4 5 6 
#
# 1 0.015801 -0.001333 -0.002071 -0.003390 0.009910 0.000684
# 2 -0.001333 0.011681 0.002265 0.007803 0.003941 0.001319
# 3 -0.002071 0.002265 0.053838 0.019261 0.019492 0.002609
# 4 -0.003390 0.007803 0.019261 0.072050 0.008772 0.009547
# 5 0.009910 0.003941 0.019492 0.008772 0.061238 0.012750
# 6 0.000684 0.001319 0.002609 0.009547 0.012750 0.035834
#
#
# Mechanical properties :
#
#
# Convention : Reuss Voigt Hill
#
# Bulk Modulus (GPa) = 12.65161 26.32233 19.48697
# Shear Modulus (GPa) = 17.91678 25.95972 21.93825
#
# Velocity S-wave (km/s) = 3.02484 3.64101 3.34713
# Velocity P-wave (km/s) = 4.31977 5.57836 4.98891
#
# Compressibility (1/GPa) = 0.07904129
#
# Stress axis : x y z
#
# Youngs Moduli (GPa) = 63.28682 85.61035 18.57425
#
# Poissons Ratio (x) = 0.11408 0.03847
# Poissons Ratio (y) = 0.08433 -0.04206
# Poissons Ratio (z) = 0.13109 -0.19387
#
# Static dielectric constant tensor:
#      x y z
#    x 3.659220 -0.085690 -0.217330 
#    y -0.085690 3.424730 -0.058130 
#    z -0.217330 -0.058130 3.288490 
# 
# 
# High freq. dielectric constant tensor:
#      x y z
#    x 1.768240 -0.005260 -0.025080 
#    y -0.005260 1.754210 -0.009540 
#    z -0.025080 -0.009540 1.738080 
# 
# From -- ./inp_files/454377.got.cif
#   From: 2010.06.25/outbox.cif.g09.slc.cpg/sg2_228_cif.got.tgz:454377.got - 2010.06.27 13:26:56.
