data_PCOD8001854
_publ_section_title
;
Structure prediction by ZEFSAII (Michael W. Deem and Ramdas Pophale) SiO2 
 PCOD8001854
Probable space group: P -1
;
_chemical_formula_sum "Si O2"
_cell_formula_units_Z 16
_cell_length_a 9.143983
_cell_length_b 15.612587
_cell_length_c 11.347154
_cell_angle_alpha 91.392153
_cell_angle_beta 47.912004
_cell_angle_gamma 128.070336
_cell_volume 706.110184
_symmetry_space_group_name_H-M "P -1"
_symmetry_group_IT_number 2
_symmetry_cell_setting 'triclinic'
loop_
_space_group_symop_operation_xyz
x,y,z
-x,-y,-z
loop_
_atom_site_type_symbol
_atom_site_label
_atom_site_fract_x
_atom_site_fract_y
_atom_site_fract_z
Si Si1 0.937963 0.401870 0.861095
Si Si2 0.164402 0.455197 0.981705
Si Si3 0.838873 0.074057 0.538707
Si Si4 0.149102 0.339863 0.289644
Si Si5 0.822518 0.909609 0.211895
Si Si6 0.269799 0.074971 0.190874
Si Si7 0.819856 0.407734 0.477307
Si Si8 0.675681 0.167986 0.358457
O O1 0.183953 0.445793 0.828908
O O2 0.132010 0.503576 0.645555
O O3 0.769933 0.422233 0.022136
O O4 0.655504 0.236302 0.965981
O O5 0.456085 0.507710 0.898675
O O6 0.800467 0.294788 0.218872
O O7 0.007194 0.227817 0.466190
O O8 0.081020 0.090201 0.347427
O O9 0.747179 0.012206 0.716818
O O10 0.497485 0.960201 0.640785
O O11 0.989998 0.376934 0.355362
O O12 0.007767 0.241828 0.243591
O O13 0.581579 0.744834 0.300461
O O14 0.589935 0.899349 0.398812
O O15 0.111733 0.986261 0.150939
O O16 0.000000 0.000000 0.000000
O O17 0.000000 0.500000 0.500000
#
# Coordination Sequence:
#
# PCOD8001854 Si02
#       8
#     2   2   2   2   2   2   2   2
#     4  11  21  37  63  93 130 162 203 257 304 377
#     4  11  21  35  62  98 130 160 201 251 326 364
#     4  10  20  34  57  93 127 160 197 248 322 368
#     4  11  22  37  62  94 129 163 200 259 311 374
#     4  10  21  38  62  85 119 168 214 246 298 369
#     4  10  20  34  60  90 125 163 202 253 303 369
#     4  11  25  44  65  90 122 166 216 256 306 369
#     4  10  20  37  56  93 131 155 200 258 308 372
#
# _framework density 22.659351000000001
#
# number of rings (size 3 to 8) (size 9 to 14) (size 15 to 20)
#    0.000    1.500    5.000    1.500    1.750    0.000 
#    0.000    3.125    0.000    3.750    0.000    0.000 
#    0.000    0.000    0.000    0.000    0.000    0.000 
#
# Total GULP energy -198227.453719 kJ/mol
# GULP energy per Si atom -12389.215857 kJ/mol
# Density = 2.260778 g / cm^3
# Si number density = 22.659351 Si / 1000 Ang^3
#
#
#
# Elastic Constant Matrix: (Units=GPa)
#
#
# Indices 1 2 3 4 5 6 
#
# 1 78.9494 15.5535 38.6046 4.7722 7.6626 36.7803
# 2 15.5535 75.9460 34.8286 -18.7309 3.6743 40.1167
# 3 38.6046 34.8286 117.7918 -19.0239 28.8801 22.9291
# 4 4.7722 -18.7309 -19.0239 30.6436 9.6410 1.4145
# 5 7.6626 3.6743 28.8801 9.6410 40.1275 -6.0089
# 6 36.7803 40.1167 22.9291 1.4145 -6.0089 55.3419
#
#
#
# Elastic Compliance Matrix: (Units=1/GPa)
#
#
# Indices 1 2 3 4 5 6 
#
# 1 0.023188 0.008863 -0.004682 0.001515 -0.005305 -0.020510
# 2 0.008863 0.040541 0.004312 0.035188 -0.023022 -0.040464
# 3 -0.004682 0.004312 0.019574 0.022514 -0.020636 -0.010940
# 4 0.001515 0.035188 0.022514 0.084487 -0.046460 -0.043046
# 5 -0.005305 -0.023022 -0.020636 -0.046460 0.059508 0.036412
# 6 -0.020510 -0.040464 -0.010940 -0.043046 0.036412 0.070618
#
#
# Mechanical properties :
#
#
# Convention : Reuss Voigt Hill
#
# Bulk Modulus (GPa) = 9.97119 50.07339 30.02229
# Shear Modulus (GPa) = 15.90521 37.46930 26.68725
#
# Velocity S-wave (km/s) = 2.65226 4.07085 3.43557
# Velocity P-wave (km/s) = 3.71340 6.65147 5.38662
#
# Compressibility (1/GPa) = 0.10028893
#
# Stress axis : x y z
#
# Youngs Moduli (GPa) = 43.12504 24.66640 51.08716
#
# Poissons Ratio (x) = -0.21861 0.23921
# Poissons Ratio (y) = -0.38221 -0.22030
# Poissons Ratio (z) = 0.20193 -0.10637
#
# Static dielectric constant tensor:
#      x y z
#    x 4.328260 0.597070 0.124730 
#    y 0.597070 4.945870 -0.806530 
#    z 0.124730 -0.806530 4.001650 
# 
# 
# High freq. dielectric constant tensor:
#      x y z
#    x 1.900790 0.035820 0.027890 
#    y 0.035820 1.875110 -0.048970 
#    z 0.027890 -0.048970 1.876450 
# 
# From -- ./inp_files/308290.got.cif
#   From: 2010.06.25/outbox.cif.g09.slc.cpg/sg2_155_cif.got.tgz:308290.got - 2010.06.27 13:26:56.
