data_PCOD8001376
_publ_section_title
;
Structure prediction by ZEFSAII (Michael W. Deem and Ramdas Pophale) SiO2 
 PCOD8001376
Probable space group: P -1
;
_chemical_formula_sum "Si O2"
_cell_formula_units_Z 16
_cell_length_a 6.212694
_cell_length_b 17.502936
_cell_length_c 31.304881
_cell_angle_alpha 20.882643
_cell_angle_beta 132.258412
_cell_angle_gamma 131.896934
_cell_volume 887.950135
_symmetry_space_group_name_H-M "P -1"
_symmetry_group_IT_number 2
_symmetry_cell_setting 'triclinic'
loop_
_space_group_symop_operation_xyz
x,y,z
-x,-y,-z
loop_
_atom_site_type_symbol
_atom_site_label
_atom_site_fract_x
_atom_site_fract_y
_atom_site_fract_z
Si Si1 0.177068 0.256861 0.566534
Si Si2 0.783366 0.620337 0.322269
Si Si3 0.117920 0.650052 0.997923
Si Si4 0.190125 0.047630 0.146081
Si Si5 0.852610 0.190744 0.175029
Si Si6 0.735055 0.842381 0.996118
Si Si7 0.656829 0.515810 0.448325
Si Si8 0.633619 0.141769 0.904127
O O1 0.426800 0.296740 0.541948
O O2 0.365366 0.312166 0.606766
O O3 0.921307 0.401196 0.446816
O O4 0.016997 0.009083 0.680493
O O5 0.573327 0.598178 0.347754
O O6 0.573243 0.673149 0.227819
O O7 0.052892 0.811163 0.268049
O O8 0.468523 0.648929 0.051434
O O9 0.959489 0.403932 0.105482
O O10 0.052140 0.770556 0.881908
O O11 0.007961 0.774241 0.958497
O O12 0.504689 0.125951 0.167716
O O13 0.189567 0.025539 0.106435
O O14 0.029157 0.749723 0.098843
O O15 0.624791 0.996856 0.936201
O O16 0.000000 0.500000 0.500000
O O17 0.500000 0.000000 0.000000
#
# Coordination Sequence:
#
# PCOD8001376 Si02
#       8
#     2   2   2   2   2   2   2   2
#     4  10  20  32  48  75 110 145 178 209 261 322
#     4  11  21  31  54  77 111 139 173 219 272 322
#     4  10  20  36  53  77 108 143 184 225 259 311
#     4  11  19  33  53  79 109 142 174 221 265 322
#     4  10  21  33  53  77 108 149 183 213 261 317
#     4  10  21  34  55  79 106 137 176 223 278 318
#     4   9  18  31  46  73 106 146 173 209 257 314
#     4  11  21  36  55  82 108 138 174 228 280 323
#
# _framework density 18.019030000000001
#
# number of rings (size 3 to 8) (size 9 to 14) (size 15 to 20)
#    0.000    1.750    2.500    3.375    3.500    1.000 
#    0.000    0.000    0.000    0.750    0.000    4.375 
#    0.000    0.000    0.000    0.000    0.000    0.000 
#
# Total GULP energy -198281.082443 kJ/mol
# GULP energy per Si atom -12392.567653 kJ/mol
# Density = 1.797802 g / cm^3
# Si number density = 18.019030 Si / 1000 Ang^3
#
#
#
# Elastic Constant Matrix: (Units=GPa)
#
#
# Indices 1 2 3 4 5 6 
#
# 1 101.8152 32.2447 52.3521 -0.9747 -12.2725 -2.6226
# 2 32.2447 73.4444 50.3917 -1.8279 0.5118 12.9173
# 3 52.3521 50.3917 137.4585 -4.4066 -3.9594 10.1730
# 4 -0.9747 -1.8279 -4.4066 31.9972 4.7438 -1.4533
# 5 -12.2725 0.5118 -3.9594 4.7438 31.2089 7.5755
# 6 -2.6226 12.9173 10.1730 -1.4533 7.5755 28.9177
#
#
#
# Elastic Compliance Matrix: (Units=1/GPa)
#
#
# Indices 1 2 3 4 5 6 
#
# 1 0.013667 -0.003937 -0.003902 -0.000837 0.004293 0.003204
# 2 -0.003937 0.020380 -0.005450 0.000081 -0.000807 -0.007328
# 3 -0.003902 -0.005450 0.010928 0.000961 0.000226 -0.001775
# 4 -0.000837 0.000081 0.000961 0.032343 -0.005777 0.002689
# 5 0.004293 -0.000807 0.000226 -0.005777 0.036905 -0.009288
# 6 0.003204 -0.007328 -0.001775 0.002689 -0.009288 0.041337
#
#
# Mechanical properties :
#
#
# Convention : Reuss Voigt Hill
#
# Bulk Modulus (GPa) = 54.35981 64.74391 59.55186
# Shear Modulus (GPa) = 26.55744 30.27341 28.41542
#
# Velocity S-wave (km/s) = 3.84325 4.10332 3.97541
# Velocity P-wave (km/s) = 7.06594 7.64582 7.36159
#
# Compressibility (1/GPa) = 0.01839594
#
# Stress axis : x y z
#
# Youngs Moduli (GPa) = 73.16839 49.06714 91.51054
#
# Poissons Ratio (x) = 0.19319 0.35708
# Poissons Ratio (y) = 0.28809 0.49874
# Poissons Ratio (z) = 0.28551 0.26742
#
# Static dielectric constant tensor:
#      x y z
#    x 3.702360 0.027250 -0.258370 
#    y 0.027250 3.219990 0.151830 
#    z -0.258370 0.151830 3.334910 
# 
# 
# High freq. dielectric constant tensor:
#      x y z
#    x 1.719000 0.011390 -0.013280 
#    y 0.011390 1.660730 0.011060 
#    z -0.013280 0.011060 1.681320 
# 
# From -- ./inp_files/95198.got.cif
#   From: 2010.06.25/outbox.cif.g09.slc.cpg/sg2_48_cif.got.tgz:95198.got - 2010.06.27 13:26:56.
