data_PCOD8001717
_publ_section_title
;
Structure prediction by ZEFSAII (Michael W. Deem and Ramdas Pophale) SiO2 
 PCOD8001717
Probable space group: P -1
;
_chemical_formula_sum "Si O2"
_cell_formula_units_Z 16
_cell_length_a 19.975483
_cell_length_b 6.055481
_cell_length_c 6.148871
_cell_angle_alpha 107.125070
_cell_angle_beta 76.781092
_cell_angle_gamma 124.012827
_cell_volume 587.266340
_symmetry_space_group_name_H-M "P -1"
_symmetry_group_IT_number 2
_symmetry_cell_setting 'triclinic'
loop_
_space_group_symop_operation_xyz
x,y,z
-x,-y,-z
loop_
_atom_site_type_symbol
_atom_site_label
_atom_site_fract_x
_atom_site_fract_y
_atom_site_fract_z
Si Si1 0.342133 0.140479 0.526973
Si Si2 0.749362 0.449647 0.637496
Si Si3 0.604724 0.506837 0.823133
Si Si4 0.292857 0.513160 0.816418
Si Si5 0.569362 0.913060 0.196519
Si Si6 0.880358 0.720233 0.016733
Si Si7 0.022800 0.665957 0.812543
Si Si8 0.923048 0.697979 0.462214
O O1 0.388564 0.380001 0.389728
O O2 0.304893 0.258816 0.760903
O O3 0.403421 0.059414 0.563067
O O4 0.270553 0.856758 0.394733
O O5 0.685794 0.506041 0.836102
O O6 0.735160 0.487445 0.408043
O O7 0.848052 0.659661 0.662979
O O8 0.525630 0.197696 0.790598
O O9 0.589391 0.690048 0.044748
O O10 0.218027 0.472375 0.019792
O O11 0.376751 0.800440 0.886775
O O12 0.889109 0.627142 0.221829
O O13 0.944236 0.687750 0.801811
O O14 0.903275 0.030200 0.103441
O O15 0.049501 0.520230 0.573009
O O16 0.000000 0.500000 0.000000
O O17 0.000000 0.000000 0.500000
#
# Coordination Sequence:
#
# PCOD8001717 Si02
#       8
#     2   2   2   2   2   2   2   2
#     4  10  20  37  61  83 112 155 189 229 287 333
#     4   9  20  37  56  79 111 148 188 236 283 337
#     4  10  22  39  57  84 119 148 188 237 282 336
#     4   9  19  35  57  82 110 147 193 234 279 337
#     4  10  22  38  58  86 115 149 192 235 278 338
#     4   9  18  35  55  78 109 147 185 228 276 328
#     4   9  18  33  53  75 103 141 183 224 270 326
#     4  10  20  34  54  81 110 143 183 228 280 334
#
# _framework density 27.244879999999998
#
# number of rings (size 3 to 8) (size 9 to 14) (size 15 to 20)
#    0.000    2.500    0.000    1.125    0.000    9.000 
#    0.000   10.000    0.000    0.000    0.000    0.000 
#    0.000    0.000    0.000    0.000    0.000    0.000 
#
# Total GULP energy -198394.641386 kJ/mol
# GULP energy per Si atom -12399.665087 kJ/mol
# Density = 2.718287 g / cm^3
# Si number density = 27.244880 Si / 1000 Ang^3
#
#
#
# Elastic Constant Matrix: (Units=GPa)
#
#
# Indices 1 2 3 4 5 6 
#
# 1 200.0206 89.9566 60.1732 7.0219 -10.8129 41.1541
# 2 89.9566 161.1300 54.1473 20.8614 -24.5258 29.9501
# 3 60.1732 54.1473 102.1924 -0.7354 -31.1402 16.0479
# 4 7.0219 20.8614 -0.7354 51.6022 -1.1548 -0.7802
# 5 -10.8129 -24.5258 -31.1402 -1.1548 38.6826 0.0475
# 6 41.1541 29.9501 16.0479 -0.7802 0.0475 51.2905
#
#
#
# Elastic Compliance Matrix: (Units=1/GPa)
#
#
# Indices 1 2 3 4 5 6 
#
# 1 0.007945 -0.003038 -0.003196 -0.000004 -0.002274 -0.003599
# 2 -0.003038 0.010190 -0.001982 -0.003692 0.003909 -0.002952
# 3 -0.003196 -0.001982 0.016304 0.001695 0.011027 -0.001364
# 4 -0.000004 -0.003692 0.001695 0.020918 -0.000355 0.001947
# 5 -0.002274 0.003909 0.011027 -0.000355 0.036566 -0.003948
# 6 -0.003599 -0.002952 -0.001364 0.001947 -0.003948 0.024568
#
#
# Mechanical properties :
#
#
# Convention : Reuss Voigt Hill
#
# Bulk Modulus (GPa) = 55.53565 96.87747 76.20656
# Shear Modulus (GPa) = 35.99021 45.58612 40.78817
#
# Velocity S-wave (km/s) = 3.63849 4.09491 3.87343
# Velocity P-wave (km/s) = 6.17086 7.61531 6.93082
#
# Compressibility (1/GPa) = 0.01800645
#
# Stress axis : x y z
#
# Youngs Moduli (GPa) = 125.86401 98.13344 61.33327
#
# Poissons Ratio (x) = 0.29816 0.19604
# Poissons Ratio (y) = 0.38241 0.12156
# Poissons Ratio (z) = 0.40230 0.19450
#
# Static dielectric constant tensor:
#      x y z
#    x 5.854790 0.059600 -0.322830 
#    y 0.059600 4.946440 -0.204230 
#    z -0.322830 -0.204230 5.885900 
# 
# 
# High freq. dielectric constant tensor:
#      x y z
#    x 2.133460 -0.003210 0.019480 
#    y -0.003210 2.088890 -0.020730 
#    z 0.019480 -0.020730 2.143360 
# 
# From -- ./inp_files/52286.got.cif
#   From: 2010.06.25/outbox.cif.g09.slc.cpg/sg2_27_cif.got.tgz:52286.got - 2010.06.27 13:26:56.
