data_PCOD8001378
_publ_section_title
;
Structure prediction by ZEFSAII (Michael W. Deem and Ramdas Pophale) SiO2 
 PCOD8001378
Probable space group: P -1
;
_chemical_formula_sum "Si O2"
_cell_formula_units_Z 14
_cell_length_a 12.935671
_cell_length_b 9.168011
_cell_length_c 8.526364
_cell_angle_alpha 114.611635
_cell_angle_beta 64.280763
_cell_angle_gamma 127.043922
_cell_volume 710.038206
_symmetry_space_group_name_H-M "P -1"
_symmetry_group_IT_number 2
_symmetry_cell_setting 'triclinic'
loop_
_space_group_symop_operation_xyz
x,y,z
-x,-y,-z
loop_
_atom_site_type_symbol
_atom_site_label
_atom_site_fract_x
_atom_site_fract_y
_atom_site_fract_z
Si Si1 0.656609 0.585011 0.602739
Si Si2 0.179556 0.532641 0.370077
Si Si3 0.034098 0.766756 0.057153
Si Si4 0.179364 0.166582 0.654853
Si Si5 0.898684 0.208615 0.326174
Si Si6 0.801543 0.359476 0.945254
Si Si7 0.604700 0.442060 0.247647
O O1 0.704615 0.509330 0.680616
O O2 0.780866 0.773513 0.527380
O O3 0.591417 0.423612 0.438179
O O4 0.540967 0.621991 0.758466
O O5 0.173950 0.669886 0.565629
O O6 0.207657 0.638050 0.234084
O O7 0.042878 0.333941 0.367993
O O8 0.091249 0.846006 0.882960
O O9 0.914169 0.554066 0.031587
O O10 0.156322 0.789258 0.095023
O O11 0.971703 0.880460 0.229548
O O12 0.287916 0.339711 0.769749
O O13 0.185208 0.982362 0.606432
O O14 0.657564 0.309908 0.087473
#
# Coordination Sequence:
#
# PCOD8001378 Si02
#       7
#     2   2   2   2   2   2   2
#     4   9  18  34  53  75  96 130 171 200 242 293
#     4  10  21  31  48  77 103 135 159 194 255 302
#     4   9  17  30  52  73  99 129 164 204 246 290
#     4   9  18  32  54  77  98 125 168 208 245 281
#     4  10  20  32  49  76 108 125 162 203 250 299
#     4   9  17  31  51  74  98 131 165 201 243 295
#     4   8  17  34  56  70  96 130 175 199 239 286
#
# _framework density 19.717247
#
# number of rings (size 3 to 8) (size 9 to 14) (size 15 to 20)
#    0.857    2.000    0.000    1.286    6.000    1.143 
#    0.000    0.714    0.000    0.857    0.000    0.000 
#    0.000    0.000    0.000    0.000    0.000    0.000 
#
# Total GULP energy -173489.020698 kJ/mol
# GULP energy per Si atom -12392.072907 kJ/mol
# Density = 1.967237 g / cm^3
# Si number density = 19.717247 Si / 1000 Ang^3
#
#
#
# Elastic Constant Matrix: (Units=GPa)
#
#
# Indices 1 2 3 4 5 6 
#
# 1 138.9605 35.3264 46.4944 -10.8092 -20.4898 -26.8084
# 2 35.3264 63.0427 22.0099 -6.9338 1.4094 -18.4331
# 3 46.4944 22.0099 63.2392 -14.2445 -20.4932 -2.2067
# 4 -10.8092 -6.9338 -14.2445 12.9911 -0.6040 4.2238
# 5 -20.4898 1.4094 -20.4932 -0.6040 29.8548 -3.4260
# 6 -26.8084 -18.4331 -2.2067 4.2238 -3.4260 16.5555
#
#
#
# Elastic Compliance Matrix: (Units=1/GPa)
#
#
# Indices 1 2 3 4 5 6 
#
# 1 0.017372 0.003379 -0.012232 -0.007786 0.007078 0.033714
# 2 0.003379 0.029466 -0.015914 -0.011499 -0.005882 0.037875
# 3 -0.012232 -0.015914 0.045634 0.044893 0.020144 -0.038729
# 4 -0.007786 -0.011499 0.044893 0.130222 0.023157 -0.047859
# 5 0.007078 -0.005882 0.020144 0.023157 0.054413 0.012949
# 6 0.033714 0.037875 -0.038729 -0.047859 0.012949 0.166894
#
#
# Mechanical properties :
#
#
# Convention : Reuss Voigt Hill
#
# Bulk Modulus (GPa) = 23.29005 52.54486 37.91746
# Shear Modulus (GPa) = 9.84548 22.64105 16.24326
#
# Velocity S-wave (km/s) = 2.23700 3.39231 2.87332
# Velocity P-wave (km/s) = 4.30231 6.48466 5.50276
#
# Compressibility (1/GPa) = 0.04293679
#
# Stress axis : x y z
#
# Youngs Moduli (GPa) = 57.56382 33.93737 21.91365
#
# Poissons Ratio (x) = -0.11467 0.26805
# Poissons Ratio (y) = -0.19450 0.34874
# Poissons Ratio (z) = 0.70412 0.54009
#
# Static dielectric constant tensor:
#      x y z
#    x 3.516610 -0.142460 -0.274610 
#    y -0.142460 3.077320 -0.071140 
#    z -0.274610 -0.071140 3.430590 
# 
# 
# High freq. dielectric constant tensor:
#      x y z
#    x 1.757730 -0.022390 -0.019730 
#    y -0.022390 1.723220 -0.009180 
#    z -0.019730 -0.009180 1.757840 
# 
# From -- ./inp_files/240280.got.cif
#   From: 2010.06.25/outbox.cif.g09.slc.cpg/sg2_121_cif.got.tgz:240280.got - 2010.06.27 13:26:56.
