data_PCOD8001570
_publ_section_title
;
Structure prediction by ZEFSAII (Michael W. Deem and Ramdas Pophale) SiO2 
 PCOD8001570
Probable space group: P -1
;
_chemical_formula_sum "Si O2"
_cell_formula_units_Z 14
_cell_length_a 10.917994
_cell_length_b 11.189779
_cell_length_c 11.451194
_cell_angle_alpha 45.019212
_cell_angle_beta 48.676061
_cell_angle_gamma 59.132663
_cell_volume 740.326522
_symmetry_space_group_name_H-M "P -1"
_symmetry_group_IT_number 2
_symmetry_cell_setting 'triclinic'
loop_
_space_group_symop_operation_xyz
x,y,z
-x,-y,-z
loop_
_atom_site_type_symbol
_atom_site_label
_atom_site_fract_x
_atom_site_fract_y
_atom_site_fract_z
Si Si1 0.022818 0.192984 0.874325
Si Si2 0.516574 0.154436 0.632156
Si Si3 0.765728 0.927195 0.980922
Si Si4 0.718400 0.293275 0.867643
Si Si5 0.814551 0.966581 0.656205
Si Si6 0.312274 0.348864 0.453599
Si Si7 0.410812 0.198713 0.246094
O O1 0.158056 0.255278 0.658283
O O2 0.849838 0.302435 0.885312
O O3 0.087767 0.194556 0.965885
O O4 0.000000 0.000000 0.000000
O O5 0.462405 0.317223 0.474116
O O6 0.703450 0.142275 0.571163
O O7 0.494180 0.990334 0.675619
O O8 0.404157 0.143371 0.825065
O O9 0.784389 0.905990 0.847031
O O10 0.765824 0.124556 0.879597
O O11 0.734556 0.450748 0.662123
O O12 0.535449 0.312524 0.022036
O O13 0.756890 0.816133 0.713151
O O14 0.000000 0.000000 0.500000
O O15 0.367002 0.276714 0.343834
#
# Coordination Sequence:
#
# PCOD8001570 Si02
#       7
#     2   2   2   2   2   2   2
#     4   9  20  33  56  81 103 142 176 221 257 302
#     4   8  19  33  56  78 100 143 175 220 256 303
#     4   9  18  37  55  76 107 137 184 212 256 320
#     4  10  20  33  56  83 109 143 164 222 275 308
#     4  10  21  34  57  79  97 141 187 222 253 302
#     4  11  19  35  54  86 112 132 175 218 273 317
#     4   9  21  34  54  79 109 139 179 215 265 311
#
# _framework density 18.910575000000001
#
# number of rings (size 3 to 8) (size 9 to 14) (size 15 to 20)
#    0.857    1.714    0.000    2.571    4.000    1.143 
#    0.000    0.714    0.000    1.714    0.000    0.000 
#    0.000    0.000    0.000    0.000    0.000    0.000 
#
# Total GULP energy -173433.558758 kJ/mol
# GULP energy per Si atom -12388.111340 kJ/mol
# Density = 1.886753 g / cm^3
# Si number density = 18.910575 Si / 1000 Ang^3
#
#
#
# Elastic Constant Matrix: (Units=GPa)
#
#
# Indices 1 2 3 4 5 6 
#
# 1 143.4859 27.8705 67.0337 10.7090 3.7113 -30.8265
# 2 27.8705 34.5536 37.7805 6.9451 10.0090 -6.3342
# 3 67.0337 37.7805 117.6642 -0.0924 8.4831 -9.9656
# 4 10.7090 6.9451 -0.0924 27.8778 -5.3974 10.6329
# 5 3.7113 10.0090 8.4831 -5.3974 35.3538 5.3968
# 6 -30.8265 -6.3342 -9.9656 10.6329 5.3968 23.7590
#
#
#
# Elastic Compliance Matrix: (Units=1/GPa)
#
#
# Indices 1 2 3 4 5 6 
#
# 1 0.023601 0.016542 -0.013431 -0.035144 -0.016774 0.048936
# 2 0.016542 0.079241 -0.026683 -0.058431 -0.036747 0.065893
# 3 -0.013431 -0.026683 0.021318 0.025662 0.012328 -0.029882
# 4 -0.035144 -0.058431 0.025662 0.117049 0.049347 -0.114004
# 5 -0.016774 -0.036747 0.012328 0.049347 0.054308 -0.060809
# 6 0.048936 0.065893 -0.029882 -0.114004 -0.060809 0.175448
#
#
# Mechanical properties :
#
#
# Convention : Reuss Voigt Hill
#
# Bulk Modulus (GPa) = 12.98419 62.34145 37.66282
# Shear Modulus (GPa) = 9.19488 28.26605 18.73046
#
# Velocity S-wave (km/s) = 2.20745 3.87036 3.15060
# Velocity P-wave (km/s) = 3.65761 7.28086 5.76147
#
# Compressibility (1/GPa) = 0.07701673
#
# Stress axis : x y z
#
# Youngs Moduli (GPa) = 42.37100 12.61977 46.90813
#
# Poissons Ratio (x) = -0.20876 0.63001
# Poissons Ratio (y) = -0.70090 1.25165
# Poissons Ratio (z) = 0.56907 0.33673
#
# Static dielectric constant tensor:
#      x y z
#    x 3.825700 -0.308330 0.104830 
#    y -0.308330 3.114290 -0.019590 
#    z 0.104830 -0.019590 3.439150 
# 
# 
# High freq. dielectric constant tensor:
#      x y z
#    x 1.742250 -0.017470 0.006860 
#    y -0.017470 1.693930 0.008730 
#    z 0.006860 0.008730 1.734130 
# 
# From -- ./inp_files/308094.got.cif
#   From: 2010.06.25/outbox.cif.g09.slc.cpg/sg2_155_cif.got.tgz:308094.got - 2010.06.27 13:26:56.
