data_PCOD8001189
_publ_section_title
;
Structure prediction by ZEFSAII (Michael W. Deem and Ramdas Pophale) SiO2 
 PCOD8001189
Probable space group: P -1
;
_chemical_formula_sum "Si O2"
_cell_formula_units_Z 16
_cell_length_a 17.867112
_cell_length_b 11.312483
_cell_length_c 7.548376
_cell_angle_alpha 92.933662
_cell_angle_beta 48.115418
_cell_angle_gamma 59.328272
_cell_volume 772.797172
_symmetry_space_group_name_H-M "P -1"
_symmetry_group_IT_number 2
_symmetry_cell_setting 'triclinic'
loop_
_space_group_symop_operation_xyz
x,y,z
-x,-y,-z
loop_
_atom_site_type_symbol
_atom_site_label
_atom_site_fract_x
_atom_site_fract_y
_atom_site_fract_z
Si Si1 0.949832 0.833081 0.823585
Si Si2 0.260181 0.779470 0.744805
Si Si3 0.647085 0.725246 0.397999
Si Si4 0.551949 0.912970 0.098371
Si Si5 0.165004 0.693811 0.167338
Si Si6 0.455098 0.325202 0.752149
Si Si7 0.164281 0.621352 0.779701
Si Si8 0.843459 0.686660 0.819986
O O1 0.038167 0.821926 0.523442
O O2 0.046122 0.695407 0.820905
O O3 0.857036 0.807208 0.883161
O O4 0.846020 0.017160 0.099245
O O5 0.425674 0.673940 0.428256
O O6 0.226986 0.700639 0.653256
O O7 0.235946 0.755176 0.984661
O O8 0.540962 0.728828 0.457436
O O9 0.712642 0.590405 0.447354
O O10 0.551488 0.923065 0.596967
O O11 0.785667 0.647809 0.057170
O O12 0.513788 0.807037 0.168654
O O13 0.724874 0.789674 0.853659
O O14 0.500000 0.000000 0.000000
O O15 0.292190 0.516117 0.061287
O O16 0.107100 0.670663 0.081419
O O17 0.000000 0.500000 0.500000
#
# Coordination Sequence:
#
# PCOD8001189 Si02
#       8
#     2   2   2   2   2   2   2   2
#     4  12  21  41  65  89 133 165 209 269 319 372
#     4  10  21  40  63  95 119 170 215 257 318 386
#     4  10  21  41  62  90 127 170 214 260 325 377
#     4  11  24  41  64  97 128 165 217 269 311 389
#     4   9  22  38  63  91 127 163 211 258 319 377
#     4  10  19  42  65  85 125 166 206 261 324 372
#     4   9  23  37  63  92 129 164 214 259 321 371
#     4  11  24  42  66  96 126 171 218 259 327 389
#
# _framework density 20.704008999999999
#
# number of rings (size 3 to 8) (size 9 to 14) (size 15 to 20)
#    0.750    1.000    0.000    6.375    3.500    0.500 
#    6.750    1.875    0.000    0.000    0.000    0.000 
#    0.000    0.000    0.000    0.000    0.000    0.000 
#
# Total GULP energy -198220.476442 kJ/mol
# GULP energy per Si atom -12388.779778 kJ/mol
# Density = 2.065689 g / cm^3
# Si number density = 20.704009 Si / 1000 Ang^3
#
#
#
# Elastic Constant Matrix: (Units=GPa)
#
#
# Indices 1 2 3 4 5 6 
#
# 1 72.6086 39.8710 31.3339 -6.5726 -23.2913 -3.8439
# 2 39.8710 120.7595 14.6269 12.0724 -15.4094 -8.7397
# 3 31.3339 14.6269 79.7927 7.2156 -13.0654 -4.7599
# 4 -6.5726 12.0724 7.2156 24.3270 5.3736 -0.0897
# 5 -23.2913 -15.4094 -13.0654 5.3736 21.1217 -0.8892
# 6 -3.8439 -8.7397 -4.7599 -0.0897 -0.8892 37.7449
#
#
#
# Elastic Compliance Matrix: (Units=1/GPa)
#
#
# Indices 1 2 3 4 5 6 
#
# 1 0.027305 -0.006561 -0.007187 0.008634 0.018715 0.000817
# 2 -0.006561 0.012015 0.002295 -0.009622 0.005505 0.002510
# 3 -0.007187 0.002295 0.017050 -0.009640 0.006836 0.002088
# 4 0.008634 -0.009622 -0.009640 0.054942 -0.017560 -0.002848
# 5 0.018715 0.005505 0.006836 -0.017560 0.080943 0.005908
# 6 0.000817 0.002510 0.002088 -0.002848 0.005908 0.027554
#
#
# Mechanical properties :
#
#
# Convention : Reuss Voigt Hill
#
# Bulk Modulus (GPa) = 29.88293 49.42494 39.65394
# Shear Modulus (GPa) = 19.69524 29.12734 24.41129
#
# Velocity S-wave (km/s) = 3.08762 3.75486 3.43747
# Velocity P-wave (km/s) = 5.21306 6.53626 5.91179
#
# Compressibility (1/GPa) = 0.03346392
#
# Stress axis : x y z
#
# Youngs Moduli (GPa) = 36.62344 83.22901 58.65190
#
# Poissons Ratio (x) = 0.54603 0.42155
# Poissons Ratio (y) = 0.24027 -0.13460
# Poissons Ratio (z) = 0.26323 -0.19101
#
# Static dielectric constant tensor:
#      x y z
#    x 3.424960 0.013180 -0.298810 
#    y 0.013180 3.771960 -0.007150 
#    z -0.298810 -0.007150 3.230920 
# 
# 
# High freq. dielectric constant tensor:
#      x y z
#    x 1.791940 0.010050 -0.004280 
#    y 0.010050 1.829060 0.013920 
#    z -0.004280 0.013920 1.791560 
# 
# From -- ./inp_files/345242.got.cif
#   From: 2010.06.25/outbox.cif.g09.slc.cpg/sg2_173_cif.got.tgz:345242.got - 2010.06.27 13:26:56.
