data_PCOD8001770
_publ_section_title
;
Structure prediction by ZEFSAII (Michael W. Deem and Ramdas Pophale) SiO2 
 PCOD8001770
Probable space group: P -1
;
_chemical_formula_sum "Si O2"
_cell_formula_units_Z 14
_cell_length_a 11.919597
_cell_length_b 8.920691
_cell_length_c 13.275663
_cell_angle_alpha 92.099298
_cell_angle_beta 111.325676
_cell_angle_gamma 38.615047
_cell_volume 742.545875
_symmetry_space_group_name_H-M "P -1"
_symmetry_group_IT_number 2
_symmetry_cell_setting 'triclinic'
loop_
_space_group_symop_operation_xyz
x,y,z
-x,-y,-z
loop_
_atom_site_type_symbol
_atom_site_label
_atom_site_fract_x
_atom_site_fract_y
_atom_site_fract_z
Si Si1 0.831192 0.157095 0.652199
Si Si2 0.850031 0.938746 0.289946
Si Si3 0.839208 0.601961 0.530605
Si Si4 0.609223 0.389293 0.374022
Si Si5 0.107134 0.235399 0.269304
Si Si6 0.478611 0.196236 0.714219
Si Si7 0.669941 0.826929 0.138718
O O1 0.769948 0.234635 0.516531
O O2 0.628454 0.407426 0.660933
O O3 0.035609 0.052490 0.742017
O O4 0.916231 0.904429 0.695394
O O5 0.719358 0.948724 0.185220
O O6 0.056141 0.658022 0.403769
O O7 0.684296 0.179590 0.320473
O O8 0.799927 0.757062 0.611624
O O9 0.614334 0.800218 0.410538
O O10 0.000000 0.500000 0.500000
O O11 0.608877 0.543859 0.313581
O O12 0.883405 0.526765 0.162160
O O13 0.266583 0.070257 0.222219
O O14 0.416197 0.180125 0.796146
O O15 0.500000 0.000000 0.000000
#
# Coordination Sequence:
#
# PCOD8001770 Si02
#       7
#     2   2   2   2   2   2   2
#     4  10  20  34  55  91 126 147 178 218 292 366
#     4  11  21  34  59  83 118 152 184 237 285 343
#     4  11  19  33  54  92 121 154 183 227 294 353
#     4  10  21  33  56  91 124 153 172 222 291 364
#     4  10  22  37  60  85 119 154 187 238 288 348
#     4  11  21  38  59  85 120 153 190 235 290 348
#     4  11  26  44  59  80 109 156 213 250 282 321
#
# _framework density 18.854054000000001
#
# number of rings (size 3 to 8) (size 9 to 14) (size 15 to 20)
#    0.000    1.429    4.286    2.571    0.000    2.857 
#    0.000    2.857    0.000    3.429    0.000    0.000 
#    0.000    0.000    0.000    0.000    0.000    0.000 
#
# Total GULP energy -173569.957546 kJ/mol
# GULP energy per Si atom -12397.854110 kJ/mol
# Density = 1.881114 g / cm^3
# Si number density = 18.854054 Si / 1000 Ang^3
#
#
#
# Elastic Constant Matrix: (Units=GPa)
#
#
# Indices 1 2 3 4 5 6 
#
# 1 121.2104 67.8100 49.6804 -1.3495 10.1297 8.9858
# 2 67.8100 92.3258 34.9129 -3.5172 12.1730 14.2186
# 3 49.6804 34.9129 105.0205 -14.0658 14.2480 5.0170
# 4 -1.3495 -3.5172 -14.0658 15.1032 -0.2169 -0.2141
# 5 10.1297 12.1730 14.2480 -0.2169 12.1889 -2.6156
# 6 8.9858 14.2186 5.0170 -0.2141 -2.6156 26.2563
#
#
#
# Elastic Compliance Matrix: (Units=1/GPa)
#
#
# Indices 1 2 3 4 5 6 
#
# 1 0.015898 -0.010652 -0.005412 -0.006018 0.004012 0.001712
# 2 -0.010652 0.022209 0.001047 0.004812 -0.016655 -0.010201
# 3 -0.005412 0.001047 0.015918 0.014316 -0.015586 -0.003193
# 4 -0.006018 0.004812 0.014316 0.079837 -0.016025 -0.004227
# 5 0.004012 -0.016655 -0.015586 -0.016025 0.118050 0.022254
# 6 0.001712 -0.010201 -0.003193 -0.004227 0.022254 0.045817
#
#
# Mechanical properties :
#
#
# Convention : Reuss Voigt Hill
#
# Bulk Modulus (GPa) = 41.67974 69.26260 55.47117
# Shear Modulus (GPa) = 14.89158 21.78658 18.33908
#
# Velocity S-wave (km/s) = 2.81345 3.40301 3.12218
# Velocity P-wave (km/s) = 5.71913 7.22887 6.51786
#
# Compressibility (1/GPa) = 0.02399247
#
# Stress axis : x y z
#
# Youngs Moduli (GPa) = 62.90019 45.02649 62.82076
#
# Poissons Ratio (x) = 0.47963 0.33996
# Poissons Ratio (y) = 0.67002 -0.06579
# Poissons Ratio (z) = 0.34039 -0.04715
#
# Static dielectric constant tensor:
#      x y z
#    x 3.634510 0.000600 -0.015090 
#    y 0.000600 3.513100 -0.089680 
#    z -0.015090 -0.089680 3.033370 
# 
# 
# High freq. dielectric constant tensor:
#      x y z
#    x 1.755560 0.000320 -0.001370 
#    y 0.000320 1.748000 -0.008840 
#    z -0.001370 -0.008840 1.680700 
# 
# From -- ./inp_files/164147.got.cif
#   From: 2010.06.25/outbox.cif.g09.slc.cpg/sg2_83_cif.got.tgz:164147.got - 2010.06.27 13:26:56.
