data_PCOD8001042
_publ_section_title
;
Structure prediction by ZEFSAII (Michael W. Deem and Ramdas Pophale) SiO2 
 PCOD8001042
Probable space group: P -1
;
_chemical_formula_sum "Si O2"
_cell_formula_units_Z 16
_cell_length_a 8.679951
_cell_length_b 15.536261
_cell_length_c 7.664109
_cell_angle_alpha 82.432176
_cell_angle_beta 99.937371
_cell_angle_gamma 50.824056
_cell_volume 748.946279
_symmetry_space_group_name_H-M "P -1"
_symmetry_group_IT_number 2
_symmetry_cell_setting 'triclinic'
loop_
_space_group_symop_operation_xyz
x,y,z
-x,-y,-z
loop_
_atom_site_type_symbol
_atom_site_label
_atom_site_fract_x
_atom_site_fract_y
_atom_site_fract_z
Si Si1 0.440695 0.898898 0.119719
Si Si2 0.553107 0.319771 0.340291
Si Si3 0.026876 0.878380 0.936041
Si Si4 0.651761 0.524666 0.047673
Si Si5 0.444376 0.711399 0.262438
Si Si6 0.706421 0.098390 0.253518
Si Si7 0.322622 0.074155 0.591144
Si Si8 0.941707 0.279881 0.278337
O O1 0.511277 0.787307 0.270275
O O2 0.578543 0.928543 0.206279
O O3 0.474176 0.865053 0.930295
O O4 0.190828 0.008821 0.057415
O O5 0.503938 0.352954 0.525535
O O6 0.604624 0.199277 0.350449
O O7 0.747807 0.308337 0.332731
O O8 0.353684 0.420327 0.151409
O O9 0.105305 0.921479 0.801552
O O10 0.992730 0.799515 0.856570
O O11 0.195871 0.800521 0.144043
O O12 0.574158 0.615277 0.163099
O O13 0.882098 0.400192 0.173241
O O14 0.500000 0.500000 0.000000
O O15 0.785834 0.980414 0.393513
O O16 0.143143 0.208915 0.463441
O O17 0.500000 0.000000 0.500000
#
# Coordination Sequence:
#
# PCOD8001042 Si02
#       8
#     2   2   2   2   2   2   2   2
#     4  11  22  39  59  91 131 163 197 253 313 367
#     4  10  21  36  66  92 118 162 203 257 307 356
#     4  10  20  38  61  94 124 156 198 263 307 359
#     4  10  19  41  59  89 127 154 203 262 302 355
#     4  11  20  37  65  93 120 156 210 251 307 363
#     4  10  21  39  60  89 126 159 204 255 309 356
#     4  12  24  38  58  89 127 167 206 243 303 383
#     4  10  22  38  58  88 127 161 198 256 306 354
#
# _framework density 21.363348999999999
#
# number of rings (size 3 to 8) (size 9 to 14) (size 15 to 20)
#    0.000    1.500    6.250    2.625    3.500    3.000 
#    0.000    0.625    0.000    1.500    0.000    0.000 
#    0.000    0.000    0.000    0.000    0.000    0.000 
#
# Total GULP energy -198326.843709 kJ/mol
# GULP energy per Si atom -12395.427732 kJ/mol
# Density = 2.131473 g / cm^3
# Si number density = 21.363349 Si / 1000 Ang^3
#
#
#
# Elastic Constant Matrix: (Units=GPa)
#
#
# Indices 1 2 3 4 5 6 
#
# 1 38.4825 24.1576 22.6108 -8.9091 6.8346 8.6418
# 2 24.1576 109.9808 51.3231 -17.9815 2.0730 10.0369
# 3 22.6108 51.3231 136.1250 -9.2819 -4.2062 -5.5529
# 4 -8.9091 -17.9815 -9.2819 44.1821 0.3379 3.6185
# 5 6.8346 2.0730 -4.2062 0.3379 29.5486 1.8258
# 6 8.6418 10.0369 -5.5529 3.6185 1.8258 21.3147
#
#
#
# Elastic Compliance Matrix: (Units=1/GPa)
#
#
# Indices 1 2 3 4 5 6 
#
# 1 0.037692 -0.003012 -0.005579 0.006553 -0.008405 -0.015709
# 2 -0.003012 0.013192 -0.004469 0.004388 -0.000491 -0.006858
# 3 -0.005579 -0.004469 0.010232 -0.001391 0.002641 0.007042
# 4 0.006553 0.004388 -0.001391 0.026231 -0.001741 -0.009390
# 5 -0.008405 -0.000491 0.002641 -0.001741 0.036123 0.001529
# 6 -0.015709 -0.006858 0.007042 -0.009390 0.001529 0.059812
#
#
# Mechanical properties :
#
#
# Convention : Reuss Voigt Hill
#
# Bulk Modulus (GPa) = 28.57480 53.41904 40.99692
# Shear Modulus (GPa) = 22.61742 31.44221 27.02982
#
# Velocity S-wave (km/s) = 3.25730 3.84054 3.56088
# Velocity P-wave (km/s) = 5.24894 6.68772 6.01153
#
# Compressibility (1/GPa) = 0.03499587
#
# Stress axis : x y z
#
# Youngs Moduli (GPa) = 26.53054 75.80139 97.73359
#
# Poissons Ratio (x) = 0.22834 0.54523
# Poissons Ratio (y) = 0.07992 0.43680
# Poissons Ratio (z) = 0.14801 0.33878
#
# Static dielectric constant tensor:
#      x y z
#    x 3.495710 0.321110 -0.007650 
#    y 0.321110 4.258000 -0.329250 
#    z -0.007650 -0.329250 4.244140 
# 
# 
# High freq. dielectric constant tensor:
#      x y z
#    x 1.794900 0.025980 0.000420 
#    y 0.025980 1.838190 0.001740 
#    z 0.000420 0.001740 1.850160 
# 
# From -- ./inp_files/206996.got.cif
#   From: 2010.06.25/outbox.cif.g09.slc.cpg/sg2_104_cif.got.tgz:206996.got - 2010.06.27 13:26:56.
