data_PCOD8001862
_publ_section_title
;
Structure prediction by ZEFSAII (Michael W. Deem and Ramdas Pophale) SiO2 
 PCOD8001862
Probable space group: P -1
;
_chemical_formula_sum "Si O2"
_cell_formula_units_Z 14
_cell_length_a 9.793961
_cell_length_b 15.887057
_cell_length_c 9.011013
_cell_angle_alpha 110.229044
_cell_angle_beta 58.725485
_cell_angle_gamma 145.015314
_cell_volume 677.967788
_symmetry_space_group_name_H-M "P -1"
_symmetry_group_IT_number 2
_symmetry_cell_setting 'triclinic'
loop_
_space_group_symop_operation_xyz
x,y,z
-x,-y,-z
loop_
_atom_site_type_symbol
_atom_site_label
_atom_site_fract_x
_atom_site_fract_y
_atom_site_fract_z
Si Si1 0.696741 0.590852 0.807955
Si Si2 0.674962 0.684446 0.319781
Si Si3 0.106444 0.784112 0.930756
Si Si4 0.865100 0.951544 0.269052
Si Si5 0.736657 0.324163 0.064791
Si Si6 0.715028 0.747130 0.655167
Si Si7 0.351842 0.074173 0.909147
O O1 0.618653 0.476158 0.668253
O O2 0.668682 0.671979 0.787074
O O3 0.500000 0.500000 0.000000
O O4 0.987599 0.713191 0.789497
O O5 0.697798 0.800968 0.355030
O O6 0.709741 0.680760 0.473253
O O7 0.889369 0.721956 0.132747
O O8 0.221779 0.742467 0.894669
O O9 0.337590 0.961926 0.888812
O O10 0.666763 0.917109 0.251502
O O11 0.995364 0.076612 0.392423
O O12 0.103036 0.012417 0.083294
O O13 0.520524 0.287049 0.247935
O O14 0.624667 0.238453 0.917546
O O15 0.000000 0.500000 0.000000
#
# Coordination Sequence:
#
# PCOD8001862 Si02
#       7
#     2   2   2   2   2   2   2
#     4  10  20  34  58  83 112 149 193 225 269 339
#     4  10  21  34  62  86 115 145 189 238 283 329
#     4  10  20  38  57  86 112 150 190 229 281 339
#     4   9  18  33  60  88 108 144 196 235 273 331
#     4  11  23  34  58  86 116 144 190 234 282 334
#     4  11  21  39  58  87 116 147 187 237 286 329
#     4   9  18  34  58  83 112 148 190 233 273 332
#
# _framework density 20.64995
#
# number of rings (size 3 to 8) (size 9 to 14) (size 15 to 20)
#    0.000    2.000    1.429    3.000    8.000    0.000 
#    0.000    0.714    3.143    1.714    0.000    0.000 
#    0.000    0.000    0.000    0.000    0.000    0.000 
#
# Total GULP energy -173552.914391 kJ/mol
# GULP energy per Si atom -12396.636742 kJ/mol
# Density = 2.060295 g / cm^3
# Si number density = 20.649950 Si / 1000 Ang^3
#
#
#
# Elastic Constant Matrix: (Units=GPa)
#
#
# Indices 1 2 3 4 5 6 
#
# 1 135.9568 56.7925 37.6139 6.2225 24.5324 -8.4612
# 2 56.7925 169.1978 27.2832 24.8516 11.8178 5.3625
# 3 37.6139 27.2832 57.3133 20.4782 17.6872 6.7046
# 4 6.2225 24.8516 20.4782 29.6161 5.5871 12.0936
# 5 24.5324 11.8178 17.6872 5.5871 21.0233 2.0328
# 6 -8.4612 5.3625 6.7046 12.0936 2.0328 36.7137
#
#
#
# Elastic Compliance Matrix: (Units=1/GPa)
#
#
# Indices 1 2 3 4 5 6 
#
# 1 0.011791 -0.003201 -0.005382 0.004279 -0.008883 0.003250
# 2 -0.003201 0.007795 0.000439 -0.006335 0.000658 0.000094
# 3 -0.005382 0.000439 0.032445 -0.018498 -0.016325 -0.000233
# 4 0.004279 -0.006335 -0.018498 0.056312 0.000450 -0.013285
# 5 -0.008883 0.000658 -0.016325 0.000450 0.071493 -0.003269
# 6 0.003250 0.000094 -0.000233 -0.013285 -0.003269 0.032573
#
#
# Mechanical properties :
#
#
# Convention : Reuss Voigt Hill
#
# Bulk Modulus (GPa) = 27.97656 67.31635 47.64646
# Shear Modulus (GPa) = 20.78040 33.52250 27.15145
#
# Velocity S-wave (km/s) = 3.17569 4.03348 3.63001
# Velocity P-wave (km/s) = 5.19847 7.37302 6.37909
#
# Compressibility (1/GPa) = 0.03574421
#
# Stress axis : x y z
#
# Youngs Moduli (GPa) = 84.81343 128.28222 30.82095
#
# Poissons Ratio (x) = 0.41060 0.16588
# Poissons Ratio (y) = 0.27147 -0.01354
# Poissons Ratio (z) = 0.45647 -0.05634
#
# Static dielectric constant tensor:
#      x y z
#    x 3.713320 0.085870 0.374300 
#    y 0.085870 4.300030 0.324160 
#    z 0.374300 0.324160 3.377590 
# 
# 
# High freq. dielectric constant tensor:
#      x y z
#    x 1.799220 -0.006520 0.036920 
#    y -0.006520 1.832400 0.019430 
#    z 0.036920 0.019430 1.767670 
# 
# From -- ./inp_files/151709.got.cif
#   From: 2010.06.25/outbox.cif.g09.slc.cpg/sg2_76_cif.got.tgz:151709.got - 2010.06.27 13:26:56.
