data_PCOD8001077
_publ_section_title
;
Structure prediction by ZEFSAII (Michael W. Deem and Ramdas Pophale) SiO2 
 PCOD8001077
Probable space group: P -1
;
_chemical_formula_sum "Si O2"
_cell_formula_units_Z 14
_cell_length_a 9.272071
_cell_length_b 12.220076
_cell_length_c 11.671097
_cell_angle_alpha 137.795453
_cell_angle_beta 81.653036
_cell_angle_gamma 73.928603
_cell_volume 717.075002
_symmetry_space_group_name_H-M "P -1"
_symmetry_group_IT_number 2
_symmetry_cell_setting 'triclinic'
loop_
_space_group_symop_operation_xyz
x,y,z
-x,-y,-z
loop_
_atom_site_type_symbol
_atom_site_label
_atom_site_fract_x
_atom_site_fract_y
_atom_site_fract_z
Si Si1 0.750840 0.270220 0.229919
Si Si2 0.713422 0.906231 0.629078
Si Si3 0.968405 0.946811 0.774173
Si Si4 0.522852 0.723047 0.586936
Si Si5 0.247129 0.935756 0.591046
Si Si6 0.805961 0.691078 0.208192
Si Si7 0.528311 0.293266 0.814124
O O1 0.683570 0.492745 0.381441
O O2 0.595372 0.242029 0.260114
O O3 0.892391 0.204697 0.264614
O O4 0.829839 0.154383 0.013099
O O5 0.874983 0.854769 0.652717
O O6 0.598604 0.856534 0.681719
O O7 0.795897 0.763626 0.396389
O O8 0.584210 0.144243 0.800371
O O9 0.056528 0.993816 0.698590
O O10 0.399590 0.775808 0.533139
O O11 0.296907 0.828771 0.380274
O O12 0.242633 0.133827 0.738440
O O13 0.653063 0.654311 0.183071
O O14 0.000000 0.500000 0.000000
O O15 0.500000 0.500000 0.000000
#
# Coordination Sequence:
#
# PCOD8001077 Si02
#       7
#     2   2   2   2   2   2   2
#     4   9  22  41  63  85 119 158 214 248 308 344
#     4  11  23  39  63  90 128 155 203 243 305 359
#     4  10  23  39  60  95 118 161 201 261 291 356
#     4  10  19  41  65  82 116 170 196 256 299 361
#     4  10  21  40  62  85 130 156 199 242 306 358
#     4  11  24  40  60  94 121 160 196 249 300 370
#     4  11  24  40  61  93 122 159 199 242 300 382
#
# _framework density 19.523758999999998
#
# number of rings (size 3 to 8) (size 9 to 14) (size 15 to 20)
#    0.000    1.714    2.857    0.857    8.000    2.286 
#    0.000    0.000    0.000    0.000    0.000    0.000 
#    0.000    0.000    0.000    0.000    0.000    0.000 
#
# Total GULP energy -173556.909755 kJ/mol
# GULP energy per Si atom -12396.922125 kJ/mol
# Density = 1.947932 g / cm^3
# Si number density = 19.523759 Si / 1000 Ang^3
#
#
#
# Elastic Constant Matrix: (Units=GPa)
#
#
# Indices 1 2 3 4 5 6 
#
# 1 130.4303 48.2819 68.2416 -7.2753 11.7067 16.4425
# 2 48.2819 94.5041 59.1602 12.5858 1.3633 20.7962
# 3 68.2416 59.1602 130.4466 17.4589 -5.4554 6.1945
# 4 -7.2753 12.5858 17.4589 30.1980 0.9947 2.8817
# 5 11.7067 1.3633 -5.4554 0.9947 34.5423 -0.5594
# 6 16.4425 20.7962 6.1945 2.8817 -0.5594 34.4933
#
#
#
# Elastic Compliance Matrix: (Units=1/GPa)
#
#
# Indices 1 2 3 4 5 6 
#
# 1 0.014359 -0.002724 -0.007607 0.009653 -0.006315 -0.004745
# 2 -0.002724 0.017959 -0.005831 -0.003967 -0.000724 -0.008162
# 3 -0.007607 -0.005831 0.015486 -0.009037 0.005599 0.005206
# 4 0.009653 -0.003967 -0.009037 0.042918 -0.005847 -0.004267
# 5 -0.006315 -0.000724 0.005599 -0.005847 0.032227 0.003453
# 6 -0.004745 -0.008162 0.005206 -0.004267 0.003453 0.035651
#
#
# Mechanical properties :
#
#
# Convention : Reuss Voigt Hill
#
# Bulk Modulus (GPa) = 64.60342 78.52759 71.56550
# Shear Modulus (GPa) = 25.49917 31.82656 28.66286
#
# Velocity S-wave (km/s) = 3.61786 4.04189 3.83574
# Velocity P-wave (km/s) = 7.11431 7.87980 7.50682
#
# Compressibility (1/GPa) = 0.01547906
#
# Stress axis : x y z
#
# Youngs Moduli (GPa) = 69.64395 55.68386 64.57289
#
# Poissons Ratio (x) = 0.15170 0.49120
# Poissons Ratio (y) = 0.18973 0.37654
# Poissons Ratio (z) = 0.52977 0.32470
#
# Static dielectric constant tensor:
#      x y z
#    x 3.678500 0.177750 -0.231890 
#    y 0.177750 3.792210 0.023190 
#    z -0.231890 0.023190 3.517650 
# 
# 
# High freq. dielectric constant tensor:
#      x y z
#    x 1.763510 0.008210 -0.013200 
#    y 0.008210 1.769960 0.003770 
#    z -0.013200 0.003770 1.752040 
# 
# From -- ./inp_files/167310.got.cif
#   From: 2010.06.25/outbox.cif.g09.slc.cpg/sg2_84_cif.got.tgz:167310.got - 2010.06.27 13:26:56.
