data_PCOD8001787
_publ_section_title
;
Structure prediction by ZEFSAII (Michael W. Deem and Ramdas Pophale) SiO2 
 PCOD8001787
Probable space group: P -1
;
_chemical_formula_sum "Si O2"
_cell_formula_units_Z 16
_cell_length_a 17.619117
_cell_length_b 6.753258
_cell_length_c 8.828518
_cell_angle_alpha 126.237686
_cell_angle_beta 59.781028
_cell_angle_gamma 99.349899
_cell_volume 718.265710
_symmetry_space_group_name_H-M "P -1"
_symmetry_group_IT_number 2
_symmetry_cell_setting 'triclinic'
loop_
_space_group_symop_operation_xyz
x,y,z
-x,-y,-z
loop_
_atom_site_type_symbol
_atom_site_label
_atom_site_fract_x
_atom_site_fract_y
_atom_site_fract_z
Si Si1 0.875646 0.344767 0.105414
Si Si2 0.744983 0.154379 0.371322
Si Si3 0.546921 0.208546 0.623533
Si Si4 0.277668 0.402794 0.201057
Si Si5 0.831392 0.632594 0.987213
Si Si6 0.520868 0.757991 0.971448
Si Si7 0.892408 0.618402 0.484944
Si Si8 0.980011 0.820831 0.736140
O O1 0.788068 0.274334 0.239057
O O2 0.856938 0.403898 0.975011
O O3 0.900656 0.584418 0.278598
O O4 0.960635 0.112516 0.931170
O O5 0.643993 0.146024 0.421215
O O6 0.740417 0.309682 0.600019
O O7 0.800168 0.880800 0.230328
O O8 0.506545 0.509959 0.778361
O O9 0.500000 0.000000 0.500000
O O10 0.548640 0.183831 0.793284
O O11 0.379015 0.270671 0.073256
O O12 0.209152 0.269966 0.308805
O O13 0.253034 0.399782 0.047217
O O14 0.915380 0.658818 0.811680
O O15 0.500000 0.000000 0.000000
O O16 0.958324 0.790449 0.564348
O O17 0.920316 0.324561 0.387185
#
# Coordination Sequence:
#
# PCOD8001787 Si02
#       8
#     2   2   2   2   2   2   2   2
#     4  10  20  34  56  82 108 147 191 229 275 332
#     4   9  20  37  55  79 111 145 185 229 279 341
#     4  10  21  39  59  85 118 148 187 242 296 348
#     4   9  19  38  57  78 112 149 185 234 287 337
#     4  10  20  35  57  83 112 146 188 233 278 333
#     4  10  22  40  62  87 115 152 197 241 292 353
#     4   9  18  35  56  77 112 151 183 228 279 332
#     4   9  19  36  53  79 116 148 183 230 279 327
#
# _framework density 22.275879
#
# number of rings (size 3 to 8) (size 9 to 14) (size 15 to 20)
#    0.000    2.500    0.000    1.125    0.000    5.000 
#    0.000   23.125    0.000    0.000    0.000    0.000 
#    0.000    0.000    0.000    0.000    0.000    0.000 
#
# Total GULP energy -198209.603890 kJ/mol
# GULP energy per Si atom -12388.100243 kJ/mol
# Density = 2.222518 g / cm^3
# Si number density = 22.275879 Si / 1000 Ang^3
#
#
#
# Elastic Constant Matrix: (Units=GPa)
#
#
# Indices 1 2 3 4 5 6 
#
# 1 74.3012 18.2075 11.3613 -8.8329 1.5263 -6.5523
# 2 18.2075 96.2920 22.8129 2.3694 -0.6809 -15.7147
# 3 11.3613 22.8129 77.9229 3.4595 2.4323 -6.5777
# 4 -8.8329 2.3694 3.4595 18.5869 0.4303 3.9736
# 5 1.5263 -0.6809 2.4323 0.4303 34.2420 0.5809
# 6 -6.5523 -15.7147 -6.5777 3.9736 0.5809 27.5726
#
#
#
# Elastic Compliance Matrix: (Units=1/GPa)
#
#
# Indices 1 2 3 4 5 6 
#
# 1 0.015363 -0.002581 -0.001755 0.007835 -0.000721 0.000647
# 2 -0.002581 0.012653 -0.002628 -0.003752 0.000490 0.006501
# 3 -0.001755 -0.002628 0.014216 -0.003552 -0.000973 0.002009
# 4 0.007835 -0.003752 -0.003552 0.060792 -0.000768 -0.009868
# 5 -0.000721 0.000490 -0.000973 -0.000768 0.029335 -0.000631
# 6 0.000647 0.006501 0.002009 -0.009868 -0.000631 0.042042
#
#
# Mechanical properties :
#
#
# Convention : Reuss Voigt Hill
#
# Bulk Modulus (GPa) = 35.33166 39.25328 37.29247
# Shear Modulus (GPa) = 25.28283 29.15593 27.21938
#
# Velocity S-wave (km/s) = 3.37261 3.62174 3.49939
# Velocity P-wave (km/s) = 5.57327 5.92866 5.75371
#
# Compressibility (1/GPa) = 0.02830323
#
# Stress axis : x y z
#
# Youngs Moduli (GPa) = 65.09170 79.03560 70.34312
#
# Poissons Ratio (x) = 0.20403 0.12345
# Poissons Ratio (y) = 0.16803 0.18484
# Poissons Ratio (z) = 0.11423 0.20769
#
# Static dielectric constant tensor:
#      x y z
#    x 4.063040 0.241640 -0.039420 
#    y 0.241640 3.613220 0.108020 
#    z -0.039420 0.108020 4.373380 
# 
# 
# High freq. dielectric constant tensor:
#      x y z
#    x 1.870540 0.015630 0.001670 
#    y 0.015630 1.834440 0.010170 
#    z 0.001670 0.010170 1.901750 
# 
# From -- ./inp_files/324083.got.cif
#   From: 2010.06.25/outbox.cif.g09.slc.cpg/sg2_163_cif.got.tgz:324083.got - 2010.06.27 13:26:56.
