data_PCOD8001544
_publ_section_title
;
Structure prediction by ZEFSAII (Michael W. Deem and Ramdas Pophale) SiO2 
 PCOD8001544
Probable space group: P -1
;
_chemical_formula_sum "Si O2"
_cell_formula_units_Z 16
_cell_length_a 11.694711
_cell_length_b 14.447198
_cell_length_c 13.869228
_cell_angle_alpha 45.835109
_cell_angle_beta 29.345579
_cell_angle_gamma 45.240397
_cell_volume 791.929692
_symmetry_space_group_name_H-M "P -1"
_symmetry_group_IT_number 2
_symmetry_cell_setting 'triclinic'
loop_
_space_group_symop_operation_xyz
x,y,z
-x,-y,-z
loop_
_atom_site_type_symbol
_atom_site_label
_atom_site_fract_x
_atom_site_fract_y
_atom_site_fract_z
Si Si1 0.225293 0.388099 0.240906
Si Si2 0.322305 0.225526 0.913679
Si Si3 0.266235 0.941565 0.396015
Si Si4 0.425039 0.190385 0.078584
Si Si5 0.390175 0.494229 0.687297
Si Si6 0.410158 0.610534 0.877890
Si Si7 0.734168 0.377981 0.689688
Si Si8 0.817275 0.237205 0.248189
O O1 0.233034 0.306416 0.195009
O O2 0.477004 0.328642 0.159125
O O3 0.017251 0.364250 0.480502
O O4 0.195558 0.545105 0.119117
O O5 0.574146 0.171107 0.711059
O O6 0.237404 0.386697 0.868900
O O7 0.339545 0.168199 0.050187
O O8 0.103239 0.184343 0.051339
O O9 0.256245 0.878646 0.554848
O O10 0.418686 0.048572 0.231419
O O11 0.000000 0.000000 0.500000
O O12 0.678801 0.233531 0.857628
O O13 0.500000 0.500000 0.500000
O O14 0.612941 0.436615 0.636632
O O15 0.223703 0.635311 0.743648
O O16 0.627151 0.483418 0.775797
O O17 0.324897 0.724111 0.776366
#
# Coordination Sequence:
#
# PCOD8001544 Si02
#       8
#     2   2   2   2   2   2   2   2
#     4  10  20  38  65  83 124 153 193 259 290 350
#     4  11  23  38  59  86 121 157 196 245 300 364
#     4  12  25  40  59  85 123 164 202 243 290 356
#     4  10  23  36  56  90 111 152 211 231 288 352
#     4  10  20  33  54  89 120 147 191 234 312 352
#     4   9  21  39  58  96 113 153 204 238 308 353
#     4   9  20  34  59  87 118 155 191 246 294 354
#     4  11  23  38  60  86 124 158 191 250 297 360
#
# _framework density 20.203813
#
# number of rings (size 3 to 8) (size 9 to 14) (size 15 to 20)
#    0.000    1.750    2.500    1.875    7.000    0.000 
#    0.000    0.625    0.000    1.500    0.000    0.000 
#    0.000    0.000    0.000    0.000    0.000    0.000 
#
# Total GULP energy -198242.214135 kJ/mol
# GULP energy per Si atom -12390.138383 kJ/mol
# Density = 2.015783 g / cm^3
# Si number density = 20.203813 Si / 1000 Ang^3
#
#
#
# Elastic Constant Matrix: (Units=GPa)
#
#
# Indices 1 2 3 4 5 6 
#
# 1 76.2868 10.5467 28.7234 -3.6128 11.9289 -14.4889
# 2 10.5467 49.9200 38.2264 -11.9511 -1.4051 -9.5671
# 3 28.7234 38.2264 129.8607 -15.2742 -2.7072 -17.2799
# 4 -3.6128 -11.9511 -15.2742 39.0047 -1.8180 7.2466
# 5 11.9289 -1.4051 -2.7072 -1.8180 28.6187 -7.2389
# 6 -14.4889 -9.5671 -17.2799 7.2466 -7.2389 21.9528
#
#
#
# Elastic Compliance Matrix: (Units=1/GPa)
#
#
# Indices 1 2 3 4 5 6 
#
# 1 0.016347 -0.000400 -0.002825 -0.001273 -0.005404 0.007029
# 2 -0.000400 0.027534 -0.006618 0.004854 0.002669 0.005804
# 3 -0.002825 -0.006618 0.011109 0.001356 0.003150 0.004587
# 4 -0.001273 0.004854 0.001356 0.028858 0.000996 -0.006855
# 5 -0.005404 0.002669 0.003150 0.000996 0.041046 0.013282
# 6 0.007029 0.005804 0.004587 -0.006855 0.013282 0.062974
#
#
# Mechanical properties :
#
#
# Convention : Reuss Voigt Hill
#
# Bulk Modulus (GPa) = 28.32506 45.67340 36.99923
# Shear Modulus (GPa) = 22.79755 29.81995 26.30875
#
# Velocity S-wave (km/s) = 3.36278 3.84599 3.61247
# Velocity P-wave (km/s) = 5.39702 6.50980 5.97935
#
# Compressibility (1/GPa) = 0.03530443
#
# Stress axis : x y z
#
# Youngs Moduli (GPa) = 61.17278 36.31939 90.01848
#
# Poissons Ratio (x) = 0.01453 0.25430
# Poissons Ratio (y) = 0.02447 0.59570
# Poissons Ratio (z) = 0.17281 0.24034
#
# Static dielectric constant tensor:
#      x y z
#    x 3.605410 0.039180 0.092330 
#    y 0.039180 3.487510 -0.111210 
#    z 0.092330 -0.111210 3.853860 
# 
# 
# High freq. dielectric constant tensor:
#      x y z
#    x 1.772920 0.009150 0.013950 
#    y 0.009150 1.754310 -0.009550 
#    z 0.013950 -0.009550 1.810840 
# 
# From -- ./inp_files/98365.got.cif
#   From: 2010.06.25/outbox.cif.g09.slc.cpg/sg2_50_cif.got.tgz:98365.got - 2010.06.27 13:26:56.
