data_PCOD8001990
_publ_section_title
;
Structure prediction by ZEFSAII (Michael W. Deem and Ramdas Pophale) SiO2 
 PCOD8001990
Probable space group: P -1
;
_chemical_formula_sum "Si O2"
_cell_formula_units_Z 14
_cell_length_a 8.873501
_cell_length_b 15.260478
_cell_length_c 9.388750
_cell_angle_alpha 144.609427
_cell_angle_beta 64.207726
_cell_angle_gamma 109.114157
_cell_volume 662.048969
_symmetry_space_group_name_H-M "P -1"
_symmetry_group_IT_number 2
_symmetry_cell_setting 'triclinic'
loop_
_space_group_symop_operation_xyz
x,y,z
-x,-y,-z
loop_
_atom_site_type_symbol
_atom_site_label
_atom_site_fract_x
_atom_site_fract_y
_atom_site_fract_z
Si Si1 0.744164 0.051769 0.570929
Si Si2 0.877478 0.278855 0.259839
Si Si3 0.357046 0.169357 0.196851
Si Si4 0.768438 0.603284 0.671690
Si Si5 0.422660 0.846100 0.644522
Si Si6 0.556631 0.785209 0.204136
Si Si7 0.890158 0.975467 0.697427
O O1 0.611495 0.195342 0.799210
O O2 0.756009 0.977979 0.626136
O O3 0.673957 0.928475 0.327089
O O4 0.929203 0.101510 0.519073
O O5 0.784291 0.422764 0.410379
O O6 0.764744 0.213949 0.347258
O O7 0.050552 0.327209 0.318111
O O8 0.913612 0.150148 0.956907
O O9 0.334606 0.322489 0.319018
O O10 0.489221 0.205301 0.312093
O O11 0.182647 0.122183 0.275675
O O12 0.420661 0.030354 0.882700
O O13 0.668345 0.640519 0.910153
O O14 0.509070 0.768843 0.368378
#
# Coordination Sequence:
#
# PCOD8001990 Si02
#       7
#     2   2   2   2   2   2   2
#     4  10  20  34  62  91 123 150 197 250 305 341
#     4  10  24  41  60  85 123 164 198 239 292 365
#     4  10  21  37  62  92 118 151 201 254 290 349
#     4  11  24  41  61  85 126 161 199 235 302 357
#     4  10  22  38  62  90 121 148 204 250 297 339
#     4  11  21  37  60  91 119 159 190 252 294 358
#     4  10  20  38  62  93 117 155 199 252 293 350
#
# _framework density 21.146471999999999
#
# number of rings (size 3 to 8) (size 9 to 14) (size 15 to 20)
#    0.000    1.714    2.857    1.714    6.000    2.286 
#    0.000    0.000    0.000    5.143    0.000    0.000 
#    0.000    0.000    0.000    0.000    0.000    0.000 
#
# Total GULP energy -173577.043324 kJ/mol
# GULP energy per Si atom -12398.360237 kJ/mol
# Density = 2.109834 g / cm^3
# Si number density = 21.146472 Si / 1000 Ang^3
#
#
#
# Elastic Constant Matrix: (Units=GPa)
#
#
# Indices 1 2 3 4 5 6 
#
# 1 81.8668 13.9825 11.2007 -3.1381 -7.8117 -0.9808
# 2 13.9825 62.4635 25.0642 -14.3351 -6.7686 -6.0196
# 3 11.2007 25.0642 50.8796 -8.3723 -12.7433 1.3860
# 4 -3.1381 -14.3351 -8.3723 33.0270 -1.3495 -4.9788
# 5 -7.8117 -6.7686 -12.7433 -1.3495 24.5043 -3.5505
# 6 -0.9808 -6.0196 1.3860 -4.9788 -3.5505 34.4282
#
#
#
# Elastic Compliance Matrix: (Units=1/GPa)
#
#
# Indices 1 2 3 4 5 6 
#
# 1 0.013021 -0.002058 -0.001039 0.000270 0.003117 0.000413
# 2 -0.002058 0.022797 -0.008989 0.008377 0.002258 0.005733
# 3 -0.001039 -0.008989 0.027823 0.003376 0.011692 -0.001027
# 4 0.000270 0.008377 0.003376 0.036193 0.007208 0.007314
# 5 0.003117 0.002258 0.011692 0.007208 0.049801 0.006191
# 6 0.000413 0.005733 -0.001027 0.007314 0.006191 0.031798
#
#
# Mechanical properties :
#
#
# Convention : Reuss Voigt Hill
#
# Bulk Modulus (GPa) = 25.33651 32.85608 29.09629
# Shear Modulus (GPa) = 22.85598 28.05608 25.45603
#
# Velocity S-wave (km/s) = 3.29118 3.64641 3.47334
# Velocity P-wave (km/s) = 5.14295 5.77057 5.46578
#
# Compressibility (1/GPa) = 0.03946874
#
# Stress axis : x y z
#
# Youngs Moduli (GPa) = 76.79673 43.86582 35.94159
#
# Poissons Ratio (x) = 0.09030 0.03733
# Poissons Ratio (y) = 0.15808 0.32308
# Poissons Ratio (z) = 0.07976 0.39432
#
# Static dielectric constant tensor:
#      x y z
#    x 3.965940 0.083830 -0.198340 
#    y 0.083830 3.541330 -0.130480 
#    z -0.198340 -0.130480 3.671920 
# 
# 
# High freq. dielectric constant tensor:
#      x y z
#    x 1.844850 0.007110 -0.016310 
#    y 0.007110 1.812590 -0.023460 
#    z -0.016310 -0.023460 1.805450 
# 
# From -- ./inp_files/174851.got.cif
#   From: 2010.06.25/outbox.cif.g09.slc.cpg/sg2_88_cif.got.tgz:174851.got - 2010.06.27 13:26:56.
