data_PCOD8001488
_publ_section_title
;
Structure prediction by ZEFSAII (Michael W. Deem and Ramdas Pophale) SiO2 
 PCOD8001488
Probable space group: P -1
;
_chemical_formula_sum "Si O2"
_cell_formula_units_Z 16
_cell_length_a 25.800558
_cell_length_b 13.333674
_cell_length_c 25.948964
_cell_angle_alpha 28.007446
_cell_angle_beta 168.612599
_cell_angle_gamma 150.052025
_cell_volume 827.617272
_symmetry_space_group_name_H-M "P -1"
_symmetry_group_IT_number 2
_symmetry_cell_setting 'triclinic'
loop_
_space_group_symop_operation_xyz
x,y,z
-x,-y,-z
loop_
_atom_site_type_symbol
_atom_site_label
_atom_site_fract_x
_atom_site_fract_y
_atom_site_fract_z
Si Si1 0.763938 0.122775 0.188377
Si Si2 0.423560 0.758559 0.861075
Si Si3 0.114686 0.117351 0.674467
Si Si4 0.509395 0.734907 0.838892
Si Si5 0.971109 0.158523 0.750639
Si Si6 0.040805 0.456800 0.363648
Si Si7 0.802423 0.861729 0.805562
Si Si8 0.273608 0.723348 0.387792
O O1 0.786913 0.358355 0.129713
O O2 0.815998 0.108457 0.183514
O O3 0.000000 0.000000 0.500000
O O4 0.500000 0.000000 0.000000
O O5 0.416563 0.808936 0.770963
O O6 0.185879 0.881279 0.600816
O O7 0.698412 0.844301 0.112190
O O8 0.388439 0.507272 0.951067
O O9 0.168953 0.300098 0.601402
O O10 0.261328 0.753966 0.551092
O O11 0.759455 0.881889 0.999685
O O12 0.055634 0.329312 0.799403
O O13 0.871381 0.940182 0.779301
O O14 0.259359 0.519574 0.504897
O O15 0.539735 0.715986 0.617128
O O16 0.749677 0.062276 0.699380
O O17 0.035421 0.713908 0.119599
#
# Coordination Sequence:
#
# PCOD8001488 Si02
#       8
#     2   2   2   2   2   2   2   2
#     4  10  22  34  50  72 100 131 176 210 235 285
#     4  11  21  34  50  70 101 129 174 209 247 278
#     4  11  20  35  50  71 100 138 168 207 245 281
#     4  11  21  33  49  75  97 133 170 209 238 305
#     4  11  20  32  53  71 104 133 170 194 251 306
#     4  10  20  33  51  73  99 141 167 196 242 300
#     4   9  18  31  44  70  95 130 157 205 239 288
#     4   9  18  30  46  66  99 126 165 196 240 287
#
# _framework density 19.332606999999999
#
# number of rings (size 3 to 8) (size 9 to 14) (size 15 to 20)
#    0.000    1.750    2.500    3.000    0.000    8.000 
#    0.000    0.000    0.000    0.000    0.000    0.000 
#    0.000   20.000    0.000    0.000    0.000    0.000 
#
# Total GULP energy -198318.972886 kJ/mol
# GULP energy per Si atom -12394.935805 kJ/mol
# Density = 1.928861 g / cm^3
# Si number density = 19.332607 Si / 1000 Ang^3
#
#
#
# Elastic Constant Matrix: (Units=GPa)
#
#
# Indices 1 2 3 4 5 6 
#
# 1 117.8974 37.7304 46.1212 10.1646 5.0406 14.4382
# 2 37.7304 44.1136 28.0684 19.9998 -1.2562 13.7241
# 3 46.1212 28.0684 119.6645 28.2808 8.7082 11.7617
# 4 10.1646 19.9998 28.2808 23.6099 5.1760 4.0924
# 5 5.0406 -1.2562 8.7082 5.1760 30.5359 6.3433
# 6 14.4382 13.7241 11.7617 4.0924 6.3433 30.9612
#
#
#
# Elastic Compliance Matrix: (Units=1/GPa)
#
#
# Indices 1 2 3 4 5 6 
#
# 1 0.014333 -0.015995 -0.004884 0.013938 -0.004262 0.001292
# 2 -0.015995 0.063999 0.004286 -0.052884 0.016967 -0.019024
# 3 -0.004884 0.004286 0.013573 -0.017471 0.000612 -0.002595
# 4 0.013938 -0.052884 -0.017471 0.104056 -0.020025 0.013928
# 5 -0.004262 0.016967 0.000612 -0.020025 0.039708 -0.011254
# 6 0.001292 -0.019024 -0.002595 0.013928 -0.011254 0.041580
#
#
# Mechanical properties :
#
#
# Convention : Reuss Voigt Hill
#
# Bulk Modulus (GPa) = 17.02927 56.16840 36.59884
# Shear Modulus (GPa) = 15.15122 28.33845 21.74483
#
# Velocity S-wave (km/s) = 2.80252 3.83278 3.35741
# Velocity P-wave (km/s) = 4.39316 6.97880 5.83111
#
# Compressibility (1/GPa) = 0.05872242
#
# Stress axis : x y z
#
# Youngs Moduli (GPa) = 69.76694 15.62515 73.67527
#
# Poissons Ratio (x) = 0.24992 0.35980
# Poissons Ratio (y) = 1.11589 -0.31581
# Poissons Ratio (z) = 0.34072 -0.06698
#
# Static dielectric constant tensor:
#      x y z
#    x 3.763540 -0.071530 -0.023290 
#    y -0.071530 3.737170 0.288350 
#    z -0.023290 0.288350 3.466440 
# 
# 
# High freq. dielectric constant tensor:
#      x y z
#    x 1.746260 0.015160 0.000310 
#    y 0.015160 1.706510 0.025340 
#    z 0.000310 0.025340 1.758840 
# 
# From -- ./inp_files/522715.got.cif
#   From: 2010.06.25/outbox.cif.g09.slc.cpg/sg2_262_cif.got.tgz:522715.got - 2010.06.27 13:26:56.
