data_PCOD8001986
_publ_section_title
;
Structure prediction by ZEFSAII (Michael W. Deem and Ramdas Pophale) SiO2 
 PCOD8001986
Probable space group: P -1
;
_chemical_formula_sum "Si O2"
_cell_formula_units_Z 12
_cell_length_a 11.118701
_cell_length_b 9.491391
_cell_length_c 12.135427
_cell_angle_alpha 144.604849
_cell_angle_beta 54.546381
_cell_angle_gamma 117.035331
_cell_volume 603.790669
_symmetry_space_group_name_H-M "P -1"
_symmetry_group_IT_number 2
_symmetry_cell_setting 'triclinic'
loop_
_space_group_symop_operation_xyz
x,y,z
-x,-y,-z
loop_
_atom_site_type_symbol
_atom_site_label
_atom_site_fract_x
_atom_site_fract_y
_atom_site_fract_z
Si Si1 0.272120 0.597345 0.245080
Si Si2 0.970913 0.743465 0.904738
Si Si3 0.708920 0.346740 0.364904
Si Si4 0.476475 0.738801 0.798451
Si Si5 0.747714 0.984282 0.318205
Si Si6 0.415956 0.481465 0.876724
O O1 0.138245 0.414229 0.212611
O O2 0.412438 0.482147 0.162681
O O3 0.223648 0.860635 0.488328
O O4 0.313606 0.626806 0.113027
O O5 0.128794 0.599102 0.735698
O O6 0.892810 0.807149 0.104364
O O7 0.000000 0.000000 0.000000
O O8 0.634555 0.603682 0.604849
O O9 0.614459 0.226640 0.243074
O O10 0.712668 0.162145 0.347673
O O11 0.383601 0.587974 0.840690
O O12 0.500000 0.000000 0.000000
O O13 0.611213 0.807633 0.293937
#
# Coordination Sequence:
#
# PCOD8001986 Si02
#       6
#     2   2   2   2   2   2
#     4  10  20  34  62  89 115 151 191 241 298 330
#     4   9  21  36  58  90 121 148 192 246 289 349
#     4  10  23  40  58  89 119 151 198 236 295 345
#     4  11  25  38  59  85 121 161 189 236 294 352
#     4  10  20  38  66  89 115 150 194 256 287 335
#     4  10  22  37  59  92 116 150 202 242 285 349
#
# _framework density 19.874438000000001
#
# number of rings (size 3 to 8) (size 9 to 14) (size 15 to 20)
#    0.000    2.000    1.667    0.500    9.333    5.333 
#    0.000    3.333    0.000    6.000    0.000    0.000 
#    0.000    0.000    0.000    0.000    0.000    0.000 
#
# Total GULP energy -148754.861219 kJ/mol
# GULP energy per Si atom -12396.238435 kJ/mol
# Density = 1.982920 g / cm^3
# Si number density = 19.874438 Si / 1000 Ang^3
#
#
#
# Elastic Constant Matrix: (Units=GPa)
#
#
# Indices 1 2 3 4 5 6 
#
# 1 81.8420 46.0484 76.4963 2.4182 -5.0922 26.0046
# 2 46.0484 71.5053 56.6480 3.3400 -1.2379 16.7936
# 3 76.4963 56.6480 176.3318 4.4551 21.0583 17.2048
# 4 2.4182 3.3400 4.4551 24.8879 4.5410 9.5610
# 5 -5.0922 -1.2379 21.0583 4.5410 32.6222 0.0270
# 6 26.0046 16.7936 17.2048 9.5610 0.0270 32.0452
#
#
#
# Elastic Compliance Matrix: (Units=1/GPa)
#
#
# Indices 1 2 3 4 5 6 
#
# 1 0.035068 -0.008440 -0.012259 0.004932 0.012397 -0.018934
# 2 -0.008440 0.023143 -0.003702 -0.000831 0.002069 -0.003046
# 3 -0.012259 -0.003702 0.012922 -0.000736 -0.010297 0.005179
# 4 0.004932 -0.000831 -0.000736 0.047602 -0.005398 -0.017370
# 5 0.012397 0.002069 -0.010297 -0.005398 0.040069 -0.004039
# 6 -0.018934 -0.003046 0.005179 -0.017370 -0.004039 0.050572
#
#
# Mechanical properties :
#
#
# Convention : Reuss Voigt Hill
#
# Bulk Modulus (GPa) = 44.78388 76.45161 60.61775
# Shear Modulus (GPa) = 18.82364 27.94349 23.38356
#
# Velocity S-wave (km/s) = 3.08088 3.75374 3.43383
# Velocity P-wave (km/s) = 5.93617 7.57220 6.80354
#
# Compressibility (1/GPa) = 0.02232946
#
# Stress axis : x y z
#
# Youngs Moduli (GPa) = 28.51614 43.20914 77.38786
#
# Poissons Ratio (x) = 0.36468 0.94872
# Poissons Ratio (y) = 0.24068 0.28652
# Poissons Ratio (z) = 0.34959 0.15998
#
# Static dielectric constant tensor:
#      x y z
#    x 3.650530 0.280600 -0.206700 
#    y 0.280600 3.678650 -0.408570 
#    z -0.206700 -0.408570 4.295920 
# 
# 
# High freq. dielectric constant tensor:
#      x y z
#    x 1.749610 0.020450 0.009480 
#    y 0.020450 1.761620 -0.012910 
#    z 0.009480 -0.012910 1.798990 
# 
# From -- ./inp_files/257742.got.cif
#   From: 2010.06.25/outbox.cif.g09.slc.cpg/sg2_129_cif.got.tgz:257742.got - 2010.06.27 13:26:56.
