data_PCOD8001356
_publ_section_title
;
Structure prediction by ZEFSAII (Michael W. Deem and Ramdas Pophale) SiO2 
 PCOD8001356
Probable space group: P -1
;
_chemical_formula_sum "Si O2"
_cell_formula_units_Z 16
_cell_length_a 11.436834
_cell_length_b 15.802922
_cell_length_c 18.866891
_cell_angle_alpha 30.093621
_cell_angle_beta 30.140214
_cell_angle_gamma 37.538620
_cell_volume 844.864518
_symmetry_space_group_name_H-M "P -1"
_symmetry_group_IT_number 2
_symmetry_cell_setting 'triclinic'
loop_
_space_group_symop_operation_xyz
x,y,z
-x,-y,-z
loop_
_atom_site_type_symbol
_atom_site_label
_atom_site_fract_x
_atom_site_fract_y
_atom_site_fract_z
Si Si1 0.696319 0.547215 0.780612
Si Si2 0.093630 0.342455 0.941052
Si Si3 0.217194 0.694138 0.661254
Si Si4 0.591096 0.443689 0.199910
Si Si5 0.472043 0.767238 0.852869
Si Si6 0.965797 0.742271 0.124008
Si Si7 0.716431 0.796008 0.918020
Si Si8 0.489569 0.947378 0.265781
O O1 0.650791 0.584321 0.693632
O O2 0.631777 0.727370 0.726832
O O3 0.955685 0.443362 0.742438
O O4 0.501854 0.421297 0.987625
O O5 0.202721 0.514614 0.762490
O O6 0.134837 0.275168 0.888799
O O7 0.235137 0.204200 0.022752
O O8 0.818327 0.375570 0.081303
O O9 0.393604 0.666538 0.656253
O O10 0.959859 0.781434 0.758314
O O11 0.316852 0.812481 0.466246
O O12 0.581565 0.641354 0.081571
O O13 0.569820 0.903100 0.752356
O O14 0.194264 0.835960 0.931313
O O15 0.762114 0.855613 0.194841
O O16 0.555982 0.971982 0.847539
#
# Coordination Sequence:
#
# PCOD8001356 Si02
#       8
#     2   2   2   2   2   2   2   2
#     4   9  16  32  57  76  88 134 181 205 232 296
#     4   9  17  34  55  75  94 135 181 201 236 301
#     4   9  21  31  53  76 104 134 166 209 251 299
#     4   9  14  34  57  76  91 129 186 207 229 296
#     4   9  18  31  54  77  95 132 174 206 242 296
#     4  10  20  31  54  78 104 129 169 212 247 302
#     4   9  18  32  54  73  98 137 173 207 237 300
#     4  12  21  33  47  82 113 127 155 217 269 288
#
# _framework density 18.937946
#
# number of rings (size 3 to 8) (size 9 to 14) (size 15 to 20)
#    0.750    1.750    2.500    2.250    1.750    1.000 
#    0.000    1.250    0.000    0.000    0.000    0.000 
#    0.000    0.000    0.000    0.000    0.000    0.000 
#
# Total GULP energy -198241.532164 kJ/mol
# GULP energy per Si atom -12390.095760 kJ/mol
# Density = 1.889484 g / cm^3
# Si number density = 18.937946 Si / 1000 Ang^3
#
#
#
# Elastic Constant Matrix: (Units=GPa)
#
#
# Indices 1 2 3 4 5 6 
#
# 1 119.4680 32.5632 13.9233 -6.1963 14.0340 -5.8653
# 2 32.5632 68.5284 21.2583 -3.6808 2.4905 -10.6603
# 3 13.9233 21.2583 38.4714 -12.1675 -1.6382 -2.3683
# 4 -6.1963 -3.6808 -12.1675 13.1886 -0.9578 -0.2241
# 5 14.0340 2.4905 -1.6382 -0.9578 13.6471 1.1317
# 6 -5.8653 -10.6603 -2.3683 -0.2241 1.1317 24.0893
#
#
#
# Elastic Compliance Matrix: (Units=1/GPa)
#
#
# Indices 1 2 3 4 5 6 
#
# 1 0.011100 -0.004108 -0.001532 0.001890 -0.010821 0.001260
# 2 -0.004108 0.021114 -0.012129 -0.007264 -0.002190 0.007186
# 3 -0.001532 -0.012129 0.046111 0.039298 0.012200 -0.001415
# 4 0.001890 -0.007264 0.039298 0.111825 0.011816 0.001595
# 5 -0.010821 -0.002190 0.012200 0.011816 0.087628 -0.006411
# 6 0.001260 0.007186 -0.001415 0.001595 -0.006411 0.045176
#
#
# Mechanical properties :
#
#
# Convention : Reuss Voigt Hill
#
# Bulk Modulus (GPa) = 23.37168 40.21751 31.79459
# Shear Modulus (GPa) = 13.41360 20.76654 17.09007
#
# Velocity S-wave (km/s) = 2.66426 3.31502 3.00730
# Velocity P-wave (km/s) = 4.67251 5.99459 5.37436
#
# Compressibility (1/GPa) = 0.04278683
#
# Stress axis : x y z
#
# Youngs Moduli (GPa) = 90.09175 47.36092 21.68658
#
# Poissons Ratio (x) = 0.19457 0.03323
# Poissons Ratio (y) = 0.37012 0.26303
# Poissons Ratio (z) = 0.13806 0.57443
#
# Static dielectric constant tensor:
#      x y z
#    x 3.588150 -0.147440 0.185580 
#    y -0.147440 3.225650 -0.125730 
#    z 0.185580 -0.125730 2.948400 
# 
# 
# High freq. dielectric constant tensor:
#      x y z
#    x 1.749670 -0.009290 0.012380 
#    y -0.009290 1.717610 -0.007560 
#    z 0.012380 -0.007560 1.679140 
# 
# From -- ./inp_files/570234.got.cif
#   From: 2010.06.25/outbox.cif.g09.slc.cpg/sg2_286_cif.got.tgz:570234.got - 2010.06.27 13:26:56.
