data_PCOD8001750
_publ_section_title
;
Structure prediction by ZEFSAII (Michael W. Deem and Ramdas Pophale) SiO2 
 PCOD8001750
Probable space group: P -1
;
_chemical_formula_sum "Si O2"
_cell_formula_units_Z 16
_cell_length_a 7.574258
_cell_length_b 19.214467
_cell_length_c 19.496007
_cell_angle_alpha 20.990824
_cell_angle_beta 42.921782
_cell_angle_gamma 40.632517
_cell_volume 658.443014
_symmetry_space_group_name_H-M "P -1"
_symmetry_group_IT_number 2
_symmetry_cell_setting 'triclinic'
loop_
_space_group_symop_operation_xyz
x,y,z
-x,-y,-z
loop_
_atom_site_type_symbol
_atom_site_label
_atom_site_fract_x
_atom_site_fract_y
_atom_site_fract_z
Si Si1 0.869722 0.043550 0.088553
Si Si2 0.913409 0.028979 0.365241
Si Si3 0.190006 0.381843 0.206011
Si Si4 0.951058 0.249860 0.016247
Si Si5 0.462684 0.973751 0.955199
Si Si6 0.565875 0.569078 0.181836
Si Si7 0.730525 0.447388 0.104458
Si Si8 0.484361 0.205885 0.607250
O O1 0.761741 0.850509 0.309257
O O2 0.620885 0.193729 0.974544
O O3 0.155814 0.964021 0.039839
O O4 0.899160 0.158733 0.043165
O O5 0.785960 0.208027 0.291278
O O6 0.761993 0.854858 0.575259
O O7 0.230249 0.925030 0.388080
O O8 0.863331 0.118663 0.220846
O O9 0.226049 0.506785 0.150157
O O10 0.887175 0.524256 0.140615
O O11 0.382400 0.410473 0.062192
O O12 0.278966 0.225212 0.954468
O O13 0.500000 0.000000 0.000000
O O14 0.486124 0.165840 0.725877
O O15 0.521244 0.506133 0.173584
O O16 0.443111 0.442892 0.386882
O O17 0.000000 0.500000 0.000000
#
# Coordination Sequence:
#
# PCOD8001750 Si02
#       8
#     2   2   2   2   2   2   2   2
#     4  11  21  35  55  78 112 144 173 224 276 319
#     4   9  18  34  56  80 108 144 185 222 260 314
#     4   9  18  34  57  78 106 144 184 224 260 313
#     4   9  19  36  55  77 105 143 185 221 264 318
#     4   9  19  37  59  79 104 142 181 219 268 323
#     4  10  21  33  53  83 110 138 176 221 271 318
#     4   9  17  31  53  83 111 140 180 221 265 315
#     4  10  20  34  55  82 109 138 175 221 271 321
#
# _framework density 24.29975
#
# number of rings (size 3 to 8) (size 9 to 14) (size 15 to 20)
#    0.000    2.500    0.000    3.375    0.000    7.000 
#    0.000    5.000    0.000   26.250    0.000    0.000 
#    0.000    0.000    0.000    0.000    0.000    0.000 
#
# Total GULP energy -198246.273565 kJ/mol
# GULP energy per Si atom -12390.392098 kJ/mol
# Density = 2.424444 g / cm^3
# Si number density = 24.299750 Si / 1000 Ang^3
#
#
#
# Elastic Constant Matrix: (Units=GPa)
#
#
# Indices 1 2 3 4 5 6 
#
# 1 65.0938 14.2972 4.6825 2.5934 -0.6506 -8.1135
# 2 14.2972 86.4029 38.5095 -0.0947 11.9297 17.9445
# 3 4.6825 38.5095 116.7462 3.6257 -1.9026 6.7986
# 4 2.5934 -0.0947 3.6257 33.2338 3.8547 3.7855
# 5 -0.6506 11.9297 -1.9026 3.8547 23.1649 -2.3984
# 6 -8.1135 17.9445 6.7986 3.7855 -2.3984 35.7155
#
#
#
# Elastic Compliance Matrix: (Units=1/GPa)
#
#
# Indices 1 2 3 4 5 6 
#
# 1 0.017530 -0.005374 0.000815 -0.002810 0.004532 0.007129
# 2 -0.005374 0.018943 -0.005714 0.003740 -0.012123 -0.010861
# 3 0.000815 -0.005714 0.010456 -0.001897 0.004301 0.001556
# 4 -0.002810 0.003740 -0.001897 0.032168 -0.008147 -0.006113
# 5 0.004532 -0.012123 0.004301 -0.008147 0.052354 0.010681
# 6 0.007129 -0.010861 0.001556 -0.006113 0.010681 0.036144
#
#
# Mechanical properties :
#
#
# Convention : Reuss Voigt Hill
#
# Bulk Modulus (GPa) = 37.90114 42.58016 40.24065
# Shear Modulus (GPa) = 25.38908 32.47308 28.93108
#
# Velocity S-wave (km/s) = 3.23589 3.65958 3.45424
# Velocity P-wave (km/s) = 5.43990 5.95127 5.70132
#
# Compressibility (1/GPa) = 0.02638443
#
# Stress axis : x y z
#
# Youngs Moduli (GPa) = 57.04544 52.78938 95.63732
#
# Poissons Ratio (x) = 0.28367 -0.07798
# Poissons Ratio (y) = 0.30654 0.54649
# Poissons Ratio (z) = -0.04651 0.30165
#
# Static dielectric constant tensor:
#      x y z
#    x 4.922190 0.008020 0.062900 
#    y 0.008020 4.971950 0.201250 
#    z 0.062900 0.201250 4.202220 
# 
# 
# High freq. dielectric constant tensor:
#      x y z
#    x 1.992920 -0.002520 -0.003870 
#    y -0.002520 1.985130 0.008120 
#    z -0.003870 0.008120 1.939560 
# 
# From -- ./inp_files/591578.got.cif
#   From: 2010.06.25/outbox.cif.g09.slc.cpg/sg2_296_cif.got.tgz:591578.got - 2010.06.27 13:26:56.
