data_PCOD8001445
_publ_section_title
;
Structure prediction by ZEFSAII (Michael W. Deem and Ramdas Pophale) SiO2 
 PCOD8001445
Probable space group: P -1
;
_chemical_formula_sum "Si O2"
_cell_formula_units_Z 12
_cell_length_a 13.355704
_cell_length_b 13.087144
_cell_length_c 12.898802
_cell_angle_alpha 134.890057
_cell_angle_beta 135.346080
_cell_angle_gamma 21.446489
_cell_volume 570.948593
_symmetry_space_group_name_H-M "P -1"
_symmetry_group_IT_number 2
_symmetry_cell_setting 'triclinic'
loop_
_space_group_symop_operation_xyz
x,y,z
-x,-y,-z
loop_
_atom_site_type_symbol
_atom_site_label
_atom_site_fract_x
_atom_site_fract_y
_atom_site_fract_z
Si Si1 0.282916 0.768093 0.602946
Si Si2 0.983437 0.434582 0.105744
Si Si3 0.288236 0.695594 0.787104
Si Si4 0.767487 0.862615 0.128940
Si Si5 0.417075 0.871207 0.108432
Si Si6 0.797580 0.094491 0.839226
O O1 0.500000 0.500000 0.500000
O O2 0.289044 0.679193 0.652856
O O3 0.349402 0.878615 0.745625
O O4 0.000000 0.000000 0.500000
O O5 0.925458 0.653874 0.195498
O O6 0.739998 0.585331 0.108319
O O7 0.275110 0.150308 0.177647
O O8 0.006679 0.331265 0.937752
O O9 0.573125 0.393160 0.833125
O O10 0.254250 0.893096 0.935723
O O11 0.013202 0.846685 0.733423
O O12 0.500000 0.000000 0.000000
O O13 0.376257 0.875984 0.204713
O O14 0.000000 0.000000 0.000000
#
# Coordination Sequence:
#
# PCOD8001445 Si02
#       6
#     2   2   2   2   2   2
#     4  12  28  42  64  94 131 174 217 252 315 384
#     4  11  21  33  61  85 125 153 202 251 319 358
#     4  11  20  37  55  82 133 167 199 259 317 373
#     4  11  24  41  63  90 127 171 209 262 320 366
#     4  11  19  33  56  93 119 157 200 259 317 371
#     4  10  20  32  56  88 123 164 203 253 327 381
#
# _framework density 21.017652999999999
#
# number of rings (size 3 to 8) (size 9 to 14) (size 15 to 20)
#    0.000    1.000    3.333    6.000    7.000    0.000 
#    0.000    0.000    0.000    0.000    0.000   23.333 
#    0.000    0.000    0.000    0.000    0.000    0.000 
#
# Total GULP energy -148698.165949 kJ/mol
# GULP energy per Si atom -12391.513829 kJ/mol
# Density = 2.096982 g / cm^3
# Si number density = 21.017653 Si / 1000 Ang^3
#
#
#
# Elastic Constant Matrix: (Units=GPa)
#
#
# Indices 1 2 3 4 5 6 
#
# 1 135.6912 71.5349 53.3951 9.9443 -37.2911 -4.3812
# 2 71.5349 170.0802 44.4244 5.2200 -18.5006 2.7784
# 3 53.3951 44.4244 70.4734 10.3524 -15.5527 -0.7271
# 4 9.9443 5.2200 10.3524 34.1643 -0.3883 -11.7098
# 5 -37.2911 -18.5006 -15.5527 -0.3883 35.0950 1.0277
# 6 -4.3812 2.7784 -0.7271 -11.7098 1.0277 53.8184
#
#
#
# Elastic Compliance Matrix: (Units=1/GPa)
#
#
# Indices 1 2 3 4 5 6 
#
# 1 0.014861 -0.003311 -0.006493 -0.001465 0.011129 0.000762
# 2 -0.003311 0.007908 -0.002642 0.000334 -0.000498 -0.000631
# 3 -0.006493 -0.002642 0.021741 -0.004670 0.001324 -0.001140
# 4 -0.001465 0.000334 -0.004670 0.033473 -0.003289 0.007146
# 5 0.011129 -0.000498 0.001324 -0.003289 0.040624 -0.000542
# 6 0.000762 -0.000631 -0.001140 0.007146 -0.000542 0.020225
#
#
# Mechanical properties :
#
#
# Convention : Reuss Voigt Hill
#
# Bulk Modulus (GPa) = 50.97378 79.43928 65.20653
# Shear Modulus (GPa) = 29.36618 38.40823 33.88721
#
# Velocity S-wave (km/s) = 3.74199 4.27948 4.01973
# Velocity P-wave (km/s) = 6.55557 7.89285 7.25509
#
# Compressibility (1/GPa) = 0.01961793
#
# Stress axis : x y z
#
# Youngs Moduli (GPa) = 67.29024 126.45094 45.99564
#
# Poissons Ratio (x) = 0.41873 0.29866
# Poissons Ratio (y) = 0.22282 0.12151
# Poissons Ratio (z) = 0.43692 0.33405
#
# Static dielectric constant tensor:
#      x y z
#    x 4.562010 -0.042030 -0.371430 
#    y -0.042030 4.024880 0.144410 
#    z -0.371430 0.144410 3.231380 
# 
# 
# High freq. dielectric constant tensor:
#      x y z
#    x 1.846610 0.000880 -0.034190 
#    y 0.000880 1.855410 0.008090 
#    z -0.034190 0.008090 1.739430 
# 
# From -- ./inp_files/286368.got.cif
#   From: 2010.06.25/outbox.cif.g09.slc.cpg/sg2_144_cif.got.tgz:286368.got - 2010.06.27 13:26:56.
