data_PCOD8001334
_publ_section_title
;
Structure prediction by ZEFSAII (Michael W. Deem and Ramdas Pophale) SiO2 
 PCOD8001334
Probable space group: P -1
;
_chemical_formula_sum "Si O2"
_cell_formula_units_Z 16
_cell_length_a 11.289685
_cell_length_b 18.720651
_cell_length_c 12.562455
_cell_angle_alpha 43.078475
_cell_angle_beta 112.361556
_cell_angle_gamma 144.989131
_cell_volume 864.914001
_symmetry_space_group_name_H-M "P -1"
_symmetry_group_IT_number 2
_symmetry_cell_setting 'triclinic'
loop_
_space_group_symop_operation_xyz
x,y,z
-x,-y,-z
loop_
_atom_site_type_symbol
_atom_site_label
_atom_site_fract_x
_atom_site_fract_y
_atom_site_fract_z
Si Si1 0.077405 0.934638 0.582118
Si Si2 0.566444 0.923765 0.038404
Si Si3 0.550485 0.494592 0.906438
Si Si4 0.114619 0.663813 0.279724
Si Si5 0.170067 0.062207 0.251496
Si Si6 0.288667 0.463986 0.687861
Si Si7 0.073827 0.935522 0.128889
Si Si8 0.726834 0.910178 0.302284
O O1 0.843437 0.693415 0.769619
O O2 0.192717 0.005133 0.426374
O O3 0.267904 0.040521 0.627929
O O4 0.000000 0.000000 0.500000
O O5 0.264276 0.712321 0.180187
O O6 0.701365 0.986607 0.127588
O O7 0.669850 0.111746 0.837719
O O8 0.653607 0.901655 0.003138
O O9 0.427862 0.488801 0.789992
O O10 0.500000 0.500000 0.000000
O O11 0.439028 0.301366 0.061231
O O12 0.000000 0.500000 0.500000
O O13 0.887763 0.579730 0.258315
O O14 0.088414 0.934887 0.262080
O O15 0.980702 0.026203 0.240123
O O16 0.492269 0.670247 0.466146
O O17 0.130388 0.288283 0.739484
O O18 0.000000 0.000000 0.000000
#
# Coordination Sequence:
#
# PCOD8001334 Si02
#       8
#     2   2   2   2   2   2   2   2
#     4  10  20  31  48  76 108 144 178 221 267 321
#     4  10  21  36  54  80 111 141 182 230 270 325
#     4  12  19  32  54  78 113 143 178 225 276 322
#     4  10  20  36  55  78 110 142 187 228 271 315
#     4  11  20  35  48  75 118 146 178 213 269 336
#     4  11  21  33  54  84 110 148 182 220 281 326
#     4  11  21  34  52  79 118 153 175 216 279 340
#     4  11  18  34  53  78 113 138 180 230 269 319
#
# _framework density 18.498947999999999
#
# number of rings (size 3 to 8) (size 9 to 14) (size 15 to 20)
#    0.000    1.250    8.750    0.750    0.000    0.500 
#    2.250    0.000    0.000    0.000    0.000   11.375 
#    0.000    0.500    0.000    0.000    0.000    0.000 
#
# Total GULP energy -198283.993412 kJ/mol
# GULP energy per Si atom -12392.749588 kJ/mol
# Density = 1.845684 g / cm^3
# Si number density = 18.498948 Si / 1000 Ang^3
#
#
#
# Elastic Constant Matrix: (Units=GPa)
#
#
# Indices 1 2 3 4 5 6 
#
# 1 61.3458 20.6339 26.5060 0.6766 -9.4051 -11.0566
# 2 20.6339 99.1827 37.0994 6.8718 0.6163 -17.2293
# 3 26.5060 37.0994 120.6617 -12.8814 -3.6356 -9.3019
# 4 0.6766 6.8718 -12.8814 42.8517 -0.0650 -7.3841
# 5 -9.4051 0.6163 -3.6356 -0.0650 18.0775 2.5325
# 6 -11.0566 -17.2293 -9.3019 -7.3841 2.5325 14.8648
#
#
#
# Elastic Compliance Matrix: (Units=1/GPa)
#
#
# Indices 1 2 3 4 5 6 
#
# 1 0.021530 -0.001508 -0.003019 0.000957 0.009065 0.011308
# 2 -0.001508 0.013968 -0.003144 -0.000874 -0.003760 0.013307
# 3 -0.003019 -0.003144 0.010591 0.004215 0.000292 0.002782
# 4 0.000957 -0.000874 0.004215 0.027508 -0.000786 0.016135
# 5 0.009065 -0.003760 0.000292 -0.000786 0.061378 -0.008281
# 6 0.011308 0.013307 0.002782 0.016135 -0.008281 0.102274
#
#
# Mechanical properties :
#
#
# Convention : Reuss Voigt Hill
#
# Bulk Modulus (GPa) = 32.52427 49.96319 41.24373
# Shear Modulus (GPa) = 19.02312 28.28888 23.65600
#
# Velocity S-wave (km/s) = 3.21025 3.91476 3.57988
# Velocity P-wave (km/s) = 5.60007 6.89210 6.27941
#
# Compressibility (1/GPa) = 0.03074627
#
# Stress axis : x y z
#
# Youngs Moduli (GPa) = 46.44694 71.59400 94.42217
#
# Poissons Ratio (x) = 0.10798 0.28504
# Poissons Ratio (y) = 0.07005 0.29687
# Poissons Ratio (z) = 0.14021 0.22509
#
# Static dielectric constant tensor:
#      x y z
#    x 3.334420 0.010950 -0.208880 
#    y 0.010950 3.493070 -0.110140 
#    z -0.208880 -0.110140 3.792170 
# 
# 
# High freq. dielectric constant tensor:
#      x y z
#    x 1.676490 0.006470 -0.006800 
#    y 0.006470 1.697340 -0.006450 
#    z -0.006800 -0.006450 1.740920 
# 
# From -- ./inp_files/436631.got.cif
#   From: 2010.06.25/outbox.cif.g09.slc.cpg/sg2_219_cif.got.tgz:436631.got - 2010.06.27 13:26:56.
