data_PCOD8001817
_publ_section_title
;
Structure prediction by ZEFSAII (Michael W. Deem and Ramdas Pophale) SiO2 
 PCOD8001817
Probable space group: P -1
;
_chemical_formula_sum "Si O2"
_cell_formula_units_Z 16
_cell_length_a 8.962797
_cell_length_b 10.182383
_cell_length_c 15.143396
_cell_angle_alpha 134.798420
_cell_angle_beta 97.713092
_cell_angle_gamma 107.408216
_cell_volume 805.156354
_symmetry_space_group_name_H-M "P -1"
_symmetry_group_IT_number 2
_symmetry_cell_setting 'triclinic'
loop_
_space_group_symop_operation_xyz
x,y,z
-x,-y,-z
loop_
_atom_site_type_symbol
_atom_site_label
_atom_site_fract_x
_atom_site_fract_y
_atom_site_fract_z
Si Si1 0.836047 0.173715 0.475902
Si Si2 0.165437 0.384263 0.727067
Si Si3 0.170757 0.713126 0.003054
Si Si4 0.443794 0.268122 0.662867
Si Si5 0.221366 0.501360 0.070721
Si Si6 0.711248 0.834608 0.710532
Si Si7 0.065341 0.090333 0.747066
Si Si8 0.621557 0.382678 0.544031
O O1 0.775589 0.335187 0.517869
O O2 0.034824 0.323393 0.605119
O O3 0.692849 0.991432 0.447639
O O4 0.850166 0.053441 0.333119
O O5 0.342154 0.395243 0.714138
O O6 0.056398 0.197244 0.705316
O O7 0.231283 0.628759 0.885405
O O8 0.242539 0.677990 0.084226
O O9 0.254983 0.976290 0.127325
O O10 0.951550 0.571405 0.916473
O O11 0.600502 0.384840 0.803127
O O12 0.522507 0.278555 0.578773
O O13 0.195615 0.285394 0.918635
O O14 0.718597 0.649480 0.678482
O O15 0.516133 0.727007 0.600026
O O16 0.862130 0.937461 0.694771
#
# Coordination Sequence:
#
# PCOD8001817 Si02
#       8
#     2   2   2   2   2   2   2   2
#     4  11  21  34  56  82 106 138 175 220 265 307
#     4  10  20  34  57  82 107 136 173 219 267 311
#     4   9  18  35  55  77 107 141 175 213 260 313
#     4  11  21  35  54  81 112 135 171 224 264 307
#     4   9  18  32  56  83 106 136 174 216 264 312
#     4  10  21  39  55  75 107 142 175 216 259 313
#     4   9  19  36  56  80 109 138 171 215 266 311
#     4  11  23  35  55  79 105 141 180 213 259 315
#
# _framework density 19.871917
#
# number of rings (size 3 to 8) (size 9 to 14) (size 15 to 20)
#    0.000    2.000    0.000    5.625    0.000    6.000 
#    0.000    6.250    0.000    0.000    0.000    0.000 
#    0.000    0.000    0.000    0.000    0.000    0.000 
#
# Total GULP energy -198452.665894 kJ/mol
# GULP energy per Si atom -12403.291618 kJ/mol
# Density = 1.982669 g / cm^3
# Si number density = 19.871917 Si / 1000 Ang^3
#
#
#
# Elastic Constant Matrix: (Units=GPa)
#
#
# Indices 1 2 3 4 5 6 
#
# 1 123.5694 21.8185 47.0661 3.3820 -9.0983 -30.4019
# 2 21.8185 28.1784 16.4481 9.7505 -3.7657 -14.6395
# 3 47.0661 16.4481 87.1440 14.3076 -9.5669 -25.0730
# 4 3.3820 9.7505 14.3076 27.7027 -8.1886 -4.1955
# 5 -9.0983 -3.7657 -9.5669 -8.1886 42.4952 0.1387
# 6 -30.4019 -14.6395 -25.0730 -4.1955 0.1387 27.9344
#
#
#
# Elastic Compliance Matrix: (Units=1/GPa)
#
#
# Indices 1 2 3 4 5 6 
#
# 1 0.012425 -0.003955 -0.003909 0.003814 0.002137 0.008503
# 2 -0.003955 0.055757 0.001111 -0.015789 0.001225 0.023535
# 3 -0.003909 0.001111 0.018021 -0.006910 0.001950 0.011455
# 4 0.003814 -0.015789 -0.006910 0.046246 0.006784 -0.003414
# 5 0.002137 0.001225 0.001950 0.006784 0.025826 0.005608
# 6 0.008503 0.023535 0.011455 -0.003414 0.005608 0.067128
#
#
# Mechanical properties :
#
#
# Convention : Reuss Voigt Hill
#
# Bulk Modulus (GPa) = 13.75606 45.50635 29.63120
# Shear Modulus (GPa) = 19.00111 29.86372 24.43242
#
# Velocity S-wave (km/s) = 3.09557 3.88082 3.51022
# Velocity P-wave (km/s) = 4.44006 6.55976 5.60110
#
# Compressibility (1/GPa) = 0.07269525
#
# Stress axis : x y z
#
# Youngs Moduli (GPa) = 80.48348 17.93510 55.48933
#
# Poissons Ratio (x) = 0.07094 0.21692
# Poissons Ratio (y) = 0.31833 -0.06162
# Poissons Ratio (z) = 0.31462 -0.01992
#
# Static dielectric constant tensor:
#      x y z
#    x 3.741960 -0.080900 -0.228480 
#    y -0.080900 3.313060 0.113880 
#    z -0.228480 0.113880 3.692990 
# 
# 
# High freq. dielectric constant tensor:
#      x y z
#    x 1.784340 -0.007160 -0.011680 
#    y -0.007160 1.735220 0.002270 
#    z -0.011680 0.002270 1.784430 
# 
# From -- ./inp_files/205426.got.cif
#   From: 2010.06.25/outbox.cif.g09.slc.cpg/sg2_103_cif.got.tgz:205426.got - 2010.06.27 13:26:56.
