data_PCOD8001474
_publ_section_title
;
Structure prediction by ZEFSAII (Michael W. Deem and Ramdas Pophale) SiO2 
 PCOD8001474
Probable space group: P -1
;
_chemical_formula_sum "Si O2"
_cell_formula_units_Z 16
_cell_length_a 13.847021
_cell_length_b 7.958520
_cell_length_c 11.579741
_cell_angle_alpha 74.324117
_cell_angle_beta 139.651001
_cell_angle_gamma 126.401976
_cell_volume 623.077146
_symmetry_space_group_name_H-M "P -1"
_symmetry_group_IT_number 2
_symmetry_cell_setting 'triclinic'
loop_
_space_group_symop_operation_xyz
x,y,z
-x,-y,-z
loop_
_atom_site_type_symbol
_atom_site_label
_atom_site_fract_x
_atom_site_fract_y
_atom_site_fract_z
Si Si1 0.694126 0.532040 0.066372
Si Si2 0.302107 0.840579 0.787562
Si Si3 0.776852 0.634138 0.514390
Si Si4 0.071991 0.363148 0.121640
Si Si5 0.761166 0.840822 0.257175
Si Si6 0.615537 0.554993 0.741439
Si Si7 0.627740 0.156651 0.413272
Si Si8 0.729351 0.018357 0.745058
O O1 0.787812 0.415371 0.217320
O O2 0.801243 0.770563 0.186016
O O3 0.466302 0.356609 0.902416
O O4 0.735333 0.599837 0.957903
O O5 0.334361 0.895153 0.669467
O O6 0.182350 0.912886 0.723563
O O7 0.500000 0.000000 0.000000
O O8 0.936615 0.689863 0.740608
O O9 0.873268 0.823248 0.467671
O O10 0.611182 0.636588 0.419320
O O11 0.680036 0.398527 0.408016
O O12 0.293944 0.506719 0.260615
O O13 0.000000 0.500000 0.000000
O O14 0.934088 0.133444 0.969059
O O15 0.644159 0.771116 0.680657
O O16 0.754205 0.151120 0.626554
O O17 0.407179 0.981583 0.285760
#
# Coordination Sequence:
#
# PCOD8001474 Si02
#       8
#     2   2   2   2   2   2   2   2
#     4   9  18  37  58  92 127 154 214 262 311 362
#     4  10  20  32  62  98 124 156 211 265 312 368
#     4  10  20  39  64  90 129 165 207 261 311 378
#     4  12  24  40  59  93 127 163 212 259 318 367
#     4   9  18  32  59  92 120 164 203 262 309 369
#     4  10  23  40  64  90 125 171 205 259 312 382
#     4  10  20  40  62  95 126 163 207 265 313 372
#     4  10  23  39  63  88 126 169 207 254 318 378
#
# _framework density 25.679003000000002
#
# number of rings (size 3 to 8) (size 9 to 14) (size 15 to 20)
#    0.000    2.000    2.500    0.750    7.000    3.000 
#    0.000    0.000    0.000    5.250    0.000    0.000 
#    0.000    0.000    0.000    0.000    0.000    0.000 
#
# Total GULP energy -198294.383088 kJ/mol
# GULP energy per Si atom -12393.398943 kJ/mol
# Density = 2.562056 g / cm^3
# Si number density = 25.679003 Si / 1000 Ang^3
#
#
#
# Elastic Constant Matrix: (Units=GPa)
#
#
# Indices 1 2 3 4 5 6 
#
# 1 80.7874 42.8513 33.5157 -11.8381 -19.4443 -19.6267
# 2 42.8513 104.3404 23.8344 -39.3130 -13.2593 -17.9579
# 3 33.5157 23.8344 130.4282 -30.5904 -27.8313 -2.9951
# 4 -11.8381 -39.3130 -30.5904 38.9784 5.8764 -2.7146
# 5 -19.4443 -13.2593 -27.8313 5.8764 40.4218 -4.4030
# 6 -19.6267 -17.9579 -2.9951 -2.7146 -4.4030 35.8392
#
#
#
# Elastic Compliance Matrix: (Units=1/GPa)
#
#
# Indices 1 2 3 4 5 6 
#
# 1 0.020336 -0.006719 -0.003207 -0.003576 0.006768 0.008063
# 2 -0.006719 0.023259 0.004720 0.025100 0.005187 0.010907
# 3 -0.003207 0.004720 0.012108 0.012487 0.006899 0.003414
# 4 -0.003576 0.025100 0.012487 0.059628 0.008315 0.017200
# 5 0.006768 0.005187 0.006899 0.008315 0.034517 0.011752
# 6 0.008063 0.010907 0.003414 0.017200 0.011752 0.040815
#
#
# Mechanical properties :
#
#
# Convention : Reuss Voigt Hill
#
# Bulk Modulus (GPa) = 22.07944 57.32876 39.70410
# Shear Modulus (GPa) = 23.12970 37.40486 30.26728
#
# Velocity S-wave (km/s) = 3.00446 3.82073 3.43691
# Velocity P-wave (km/s) = 4.54452 6.46819 5.58973
#
# Compressibility (1/GPa) = 0.04529099
#
# Stress axis : x y z
#
# Youngs Moduli (GPa) = 49.17282 42.99498 82.59224
#
# Poissons Ratio (x) = 0.28888 0.26490
# Poissons Ratio (y) = 0.33039 -0.38987
# Poissons Ratio (z) = 0.15771 -0.20295
#
# Static dielectric constant tensor:
#      x y z
#    x 4.438460 -0.176680 -0.127270 
#    y -0.176680 4.901660 -0.117240 
#    z -0.127270 -0.117240 4.868430 
# 
# 
# High freq. dielectric constant tensor:
#      x y z
#    x 2.012570 -0.008580 -0.008810 
#    y -0.008580 2.020930 -0.019380 
#    z -0.008810 -0.019380 2.033450 
# 
# From -- ./inp_files/445940.got.cif
#   From: 2010.06.25/outbox.cif.g09.slc.cpg/sg2_223_cif.got.tgz:445940.got - 2010.06.27 13:26:56.
