data_PCOD8001382
_publ_section_title
;
Structure prediction by ZEFSAII (Michael W. Deem and Ramdas Pophale) SiO2 
 PCOD8001382
Probable space group: P -1
;
_chemical_formula_sum "Si O2"
_cell_formula_units_Z 16
_cell_length_a 23.502767
_cell_length_b 8.916607
_cell_length_c 12.211013
_cell_angle_alpha 46.787810
_cell_angle_beta 149.371372
_cell_angle_gamma 142.250807
_cell_volume 798.079655
_symmetry_space_group_name_H-M "P -1"
_symmetry_group_IT_number 2
_symmetry_cell_setting 'triclinic'
loop_
_space_group_symop_operation_xyz
x,y,z
-x,-y,-z
loop_
_atom_site_type_symbol
_atom_site_label
_atom_site_fract_x
_atom_site_fract_y
_atom_site_fract_z
Si Si1 0.972438 0.711867 0.475236
Si Si2 0.373833 0.105401 0.171723
Si Si3 0.145998 0.415081 0.314429
Si Si4 0.145905 0.877090 0.083159
Si Si5 0.198383 0.189538 0.712309
Si Si6 0.198303 0.207235 0.203344
Si Si7 0.972400 0.233154 0.714658
Si Si8 0.373822 0.642320 0.403244
O O1 0.846176 0.719632 0.301580
O O2 0.999894 0.784310 0.357580
O O3 0.943722 0.443836 0.582266
O O4 0.095509 0.902576 0.659753
O O5 0.499984 0.317619 0.341204
O O6 0.239490 0.972535 0.085828
O O7 0.406268 0.906295 0.283490
O O8 0.341106 0.225618 0.956594
O O9 0.128382 0.628547 0.224131
O O10 0.215540 0.351093 0.555188
O O11 0.239545 0.506567 0.318990
O O12 0.000064 0.178657 0.160889
O O13 0.215355 0.080349 0.190074
O O14 0.341022 0.456621 0.340945
O O15 0.095297 0.288308 0.966846
O O16 0.153958 0.027088 0.325209
#
# Coordination Sequence:
#
# PCOD8001382 Si02
#       8
#     2   2   2   2   2   2   2   2
#     4  10  20  32  49  79 112 135 165 215 268 313
#     4  10  22  38  54  76 107 141 178 219 262 311
#     4  10  20  35  56  82 109 137 174 218 262 312
#     4  10  20  35  56  82 109 137 174 218 262 312
#     4  11  19  32  55  77 101 140 180 213 258 312
#     4  11  19  32  55  77 101 140 180 213 258 312
#     4  10  20  32  49  79 112 135 165 215 268 313
#     4  10  22  38  54  76 107 141 178 219 262 311
#
# _framework density 20.048123
#
# number of rings (size 3 to 8) (size 9 to 14) (size 15 to 20)
#    0.000    1.750    0.000    6.750    0.000    3.000 
#    0.000    0.000    0.000    3.750    0.000    0.000 
#    0.000    0.000    0.000    0.000    0.000    0.000 
#
# Total GULP energy -198406.548420 kJ/mol
# GULP energy per Si atom -12400.409276 kJ/mol
# Density = 2.000249 g / cm^3
# Si number density = 20.048123 Si / 1000 Ang^3
#
#
#
# Elastic Constant Matrix: (Units=GPa)
#
#
# Indices 1 2 3 4 5 6 
#
# 1 50.7685 18.2508 15.2699 -2.9378 -14.3073 -11.2183
# 2 18.2508 103.2061 57.4438 2.3046 -9.7074 -26.9071
# 3 15.2699 57.4438 139.9972 -1.4068 -9.5402 -13.6819
# 4 -2.9378 2.3046 -1.4068 37.4035 2.8423 -1.8704
# 5 -14.3073 -9.7074 -9.5402 2.8423 26.4378 4.4528
# 6 -11.2183 -26.9071 -13.6819 -1.8704 4.4528 28.6854
#
#
#
# Elastic Compliance Matrix: (Units=1/GPa)
#
#
# Indices 1 2 3 4 5 6 
#
# 1 0.025202 -0.001232 -0.000790 0.001473 0.011629 0.006615
# 2 -0.001232 0.016031 -0.005200 -0.000800 0.001442 0.011800
# 3 -0.000790 -0.005200 0.009360 0.000481 0.001135 -0.000867
# 4 0.001473 -0.000800 0.000481 0.027230 -0.002628 0.002239
# 5 0.011629 0.001442 0.001135 -0.002628 0.045472 -0.000788
# 6 0.006615 0.011800 -0.000867 0.002239 -0.000788 0.048371
#
#
# Mechanical properties :
#
#
# Convention : Reuss Voigt Hill
#
# Bulk Modulus (GPa) = 27.66243 52.87789 40.27016
# Shear Modulus (GPa) = 25.23220 32.03914 28.63567
#
# Velocity S-wave (km/s) = 3.55150 4.00198 3.78345
# Velocity P-wave (km/s) = 5.53584 6.91283 6.26229
#
# Compressibility (1/GPa) = 0.03615011
#
# Stress axis : x y z
#
# Youngs Moduli (GPa) = 39.68007 62.37776 106.83324
#
# Poissons Ratio (x) = 0.07682 0.08437
# Poissons Ratio (y) = 0.04887 0.55556
# Poissons Ratio (z) = 0.03134 0.32438
#
# Static dielectric constant tensor:
#      x y z
#    x 3.436350 -0.187900 -0.051680 
#    y -0.187900 3.797000 -0.200350 
#    z -0.051680 -0.200350 3.598460 
# 
# 
# High freq. dielectric constant tensor:
#      x y z
#    x 1.765010 -0.017930 -0.012640 
#    y -0.017930 1.787590 -0.017280 
#    z -0.012640 -0.017280 1.775950 
# 
# From -- ./inp_files/175355.got.cif
#   From: 2010.06.25/outbox.cif.g09.slc.cpg/sg2_88_cif.got.tgz:175355.got - 2010.06.27 13:26:56.
