data_PCOD8001408
_publ_section_title
;
Structure prediction by ZEFSAII (Michael W. Deem and Ramdas Pophale) SiO2 
 PCOD8001408
Probable space group: P -1
;
_chemical_formula_sum "Si O2"
_cell_formula_units_Z 12
_cell_length_a 15.095307
_cell_length_b 17.544326
_cell_length_c 15.173805
_cell_angle_alpha 164.052424
_cell_angle_beta 35.595854
_cell_angle_gamma 145.440807
_cell_volume 620.454872
_symmetry_space_group_name_H-M "P -1"
_symmetry_group_IT_number 2
_symmetry_cell_setting 'triclinic'
loop_
_space_group_symop_operation_xyz
x,y,z
-x,-y,-z
loop_
_atom_site_type_symbol
_atom_site_label
_atom_site_fract_x
_atom_site_fract_y
_atom_site_fract_z
Si Si1 0.357448 0.707023 0.124848
Si Si2 0.283265 0.258134 0.102805
Si Si3 0.070937 0.648909 0.197099
Si Si4 0.607260 0.814959 0.247231
Si Si5 0.905733 0.311396 0.288342
Si Si6 0.921591 0.721931 0.066450
O O1 0.261985 0.677208 0.075818
O O2 0.324287 0.006364 0.522185
O O3 0.537852 0.702353 0.964065
O O4 0.267260 0.437925 0.960901
O O5 0.230744 0.550122 0.484828
O O6 0.263065 0.191329 0.939652
O O7 0.170587 0.006318 0.968600
O O8 0.034544 0.955467 0.574266
O O9 0.996698 0.454867 0.126862
O O10 0.000000 0.500000 0.000000
O O11 0.500000 0.000000 0.500000
O O12 0.500000 0.500000 0.000000
O O13 0.000000 0.500000 0.500000
O O14 0.022606 0.291396 0.092974
#
# Coordination Sequence:
#
# PCOD8001408 Si02
#       6
#     2   2   2   2   2   2
#     4   9  23  36  65  88 120 156 215 259 299 342
#     4  11  23  37  59  87 126 165 203 244 294 363
#     4  10  22  40  69  92 116 154 214 270 312 349
#     4  10  20  32  52  85 122 155 194 243 291 343
#     4  12  25  39  58  88 133 171 196 232 308 383
#     4  10  23  39  64  89 125 157 209 249 313 364
#
# _framework density 19.34065
#
# number of rings (size 3 to 8) (size 9 to 14) (size 15 to 20)
#    1.000    0.667    0.000    5.000    9.333    0.000 
#    0.000    0.000    0.000    6.000    0.000    0.000 
#    0.000    0.000    0.000    0.000    0.000    0.000 
#
# Total GULP energy -148658.570628 kJ/mol
# GULP energy per Si atom -12388.214219 kJ/mol
# Density = 1.929663 g / cm^3
# Si number density = 19.340650 Si / 1000 Ang^3
#
#
#
# Elastic Constant Matrix: (Units=GPa)
#
#
# Indices 1 2 3 4 5 6 
#
# 1 96.4665 27.0291 29.1782 4.2012 23.5036 4.2396
# 2 27.0291 116.7551 34.3306 14.4175 7.0037 -14.8124
# 3 29.1782 34.3306 101.5142 24.9233 8.3482 -3.8183
# 4 4.2012 14.4175 24.9233 33.4620 -5.2573 -9.7087
# 5 23.5036 7.0037 8.3482 -5.2573 35.7911 3.0211
# 6 4.2396 -14.8124 -3.8183 -9.7087 3.0211 26.4662
#
#
#
# Elastic Compliance Matrix: (Units=1/GPa)
#
#
# Indices 1 2 3 4 5 6 
#
# 1 0.013887 -0.002316 -0.002379 -0.001217 -0.008003 -0.003397
# 2 -0.002316 0.010704 -0.002462 -0.000920 -0.000619 0.005740
# 3 -0.002379 -0.002462 0.013972 -0.010141 -0.002500 -0.002415
# 4 -0.001217 -0.000920 -0.010141 0.043123 0.008576 0.013057
# 5 -0.008003 -0.000619 -0.002500 0.008576 0.035185 -0.000295
# 6 -0.003397 0.005740 -0.002415 0.013057 -0.000295 0.046016
#
#
# Mechanical properties :
#
#
# Convention : Reuss Voigt Hill
#
# Bulk Modulus (GPa) = 41.23900 55.09018 48.16459
# Shear Modulus (GPa) = 26.98592 34.09040 30.53816
#
# Velocity S-wave (km/s) = 3.73942 4.20292 3.97793
# Velocity P-wave (km/s) = 6.32559 7.21794 6.78645
#
# Compressibility (1/GPa) = 0.02424889
#
# Stress axis : x y z
#
# Youngs Moduli (GPa) = 72.00934 93.42504 71.57328
#
# Poissons Ratio (x) = 0.21636 0.17029
# Poissons Ratio (y) = 0.16677 0.17619
# Poissons Ratio (z) = 0.17133 0.22998
#
# Static dielectric constant tensor:
#      x y z
#    x 3.510970 -0.049910 -0.230920 
#    y -0.049910 3.506960 0.316740 
#    z -0.230920 0.316740 3.045410 
# 
# 
# High freq. dielectric constant tensor:
#      x y z
#    x 1.746730 -0.008170 -0.020490 
#    y -0.008170 1.747510 0.026380 
#    z -0.020490 0.026380 1.750120 
# 
# From -- ./inp_files/455337.got.cif
#   From: 2010.06.25/outbox.cif.g09.slc.cpg/sg2_228_cif.got.tgz:455337.got - 2010.06.27 13:26:56.
