data_PCOD8001266
_publ_section_title
;
Structure prediction by ZEFSAII (Michael W. Deem and Ramdas Pophale) SiO2 
 PCOD8001266
Probable space group: P -1
;
_chemical_formula_sum "Si O2"
_cell_formula_units_Z 16
_cell_length_a 17.524196
_cell_length_b 9.463028
_cell_length_c 18.256395
_cell_angle_alpha 141.016654
_cell_angle_beta 151.779782
_cell_angle_gamma 29.927028
_cell_volume 713.011240
_symmetry_space_group_name_H-M "P -1"
_symmetry_group_IT_number 2
_symmetry_cell_setting 'triclinic'
loop_
_space_group_symop_operation_xyz
x,y,z
-x,-y,-z
loop_
_atom_site_type_symbol
_atom_site_label
_atom_site_fract_x
_atom_site_fract_y
_atom_site_fract_z
Si Si1 0.410018 0.941552 0.784212
Si Si2 0.782592 0.124581 0.952362
Si Si3 0.862265 0.057282 0.338839
Si Si4 0.243470 0.731223 0.443212
Si Si5 0.782744 0.342665 0.886743
Si Si6 0.661023 0.648406 0.333605
Si Si7 0.323441 0.477175 0.859190
Si Si8 0.652056 0.151707 0.571467
O O1 0.303736 0.894487 0.609600
O O2 0.646246 0.670742 0.881396
O O3 0.295453 0.998615 0.788568
O O4 0.411669 0.200672 0.871320
O O5 0.740669 0.310637 0.921040
O O6 0.581384 0.148555 0.805949
O O7 0.834965 0.250428 0.114769
O O8 0.978602 0.796710 0.977236
O O9 0.013789 0.845128 0.316601
O O10 0.732453 0.386779 0.340319
O O11 0.000000 0.000000 0.500000
O O12 0.406180 0.392693 0.456189
O O13 0.240251 0.802853 0.384495
O O14 0.728327 0.174036 0.722892
O O15 0.774317 0.529608 0.302265
O O16 0.714172 0.837803 0.492958
O O17 0.500000 0.500000 0.000000
#
# Coordination Sequence:
#
# PCOD8001266 Si02
#       8
#     2   2   2   2   2   2   2   2
#     4  10  19  43  66  92 131 174 214 273 327 381
#     4  10  23  44  59  95 134 173 220 260 325 393
#     4  10  22  39  62  98 135 164 214 268 326 395
#     4   9  20  39  62 101 133 163 213 269 337 387
#     4  10  22  41  66  93 132 176 217 265 325 394
#     4  11  22  43  67  98 131 170 217 275 326 383
#     4  10  23  42  67  91 128 173 221 267 320 386
#     4  10  21  39  71  95 133 169 212 276 328 383
#
# _framework density 22.440038000000001
#
# number of rings (size 3 to 8) (size 9 to 14) (size 15 to 20)
#    0.000    2.000    2.500    0.000    1.750    3.500 
#    4.500    2.500    0.000    0.000    0.000    0.000 
#    0.000    0.000    0.000    0.000    0.000    0.000 
#
# Total GULP energy -198345.749689 kJ/mol
# GULP energy per Si atom -12396.609356 kJ/mol
# Density = 2.238896 g / cm^3
# Si number density = 22.440038 Si / 1000 Ang^3
#
#
#
# Elastic Constant Matrix: (Units=GPa)
#
#
# Indices 1 2 3 4 5 6 
#
# 1 123.5144 48.9706 27.0087 5.5337 -0.4142 -5.3016
# 2 48.9706 85.9972 16.0103 -3.1574 19.6293 7.6555
# 3 27.0087 16.0103 41.2163 -2.8411 -1.5217 -1.6352
# 4 5.5337 -3.1574 -2.8411 31.0152 -4.1465 2.8356
# 5 -0.4142 19.6293 -1.5217 -4.1465 20.7906 3.7714
# 6 -5.3016 7.6555 -1.6352 2.8356 3.7714 38.7172
#
#
#
# Elastic Compliance Matrix: (Units=1/GPa)
#
#
# Indices 1 2 3 4 5 6 
#
# 1 0.012678 -0.008111 -0.005012 -0.002930 0.006467 0.002713
# 2 -0.008111 0.022027 -0.004078 0.000929 -0.020397 -0.003720
# 3 -0.005012 -0.004078 0.029672 0.004047 0.006651 0.000429
# 4 -0.002930 0.000929 0.004047 0.034482 0.006893 -0.003611
# 5 0.006467 -0.020397 0.006651 0.006893 0.069727 -0.002097
# 6 0.002713 -0.003720 0.000429 -0.003611 -0.002097 0.027422
#
#
# Mechanical properties :
#
#
# Convention : Reuss Voigt Hill
#
# Bulk Modulus (GPa) = 33.36163 48.30078 40.83121
# Shear Modulus (GPa) = 20.79847 28.68716 24.74282
#
# Velocity S-wave (km/s) = 3.04772 3.57934 3.32417
# Velocity P-wave (km/s) = 5.22342 6.21718 5.74184
#
# Compressibility (1/GPa) = 0.02997455
#
# Stress axis : x y z
#
# Youngs Moduli (GPa) = 78.87925 45.39826 33.70146
#
# Poissons Ratio (x) = 0.36824 0.16892
# Poissons Ratio (y) = 0.63981 0.13742
# Poissons Ratio (z) = 0.39537 0.18512
#
# Static dielectric constant tensor:
#      x y z
#    x 4.680270 -0.460360 -0.201910 
#    y -0.460360 4.081520 -0.096480 
#    z -0.201910 -0.096480 3.840420 
# 
# 
# High freq. dielectric constant tensor:
#      x y z
#    x 1.898980 -0.013780 -0.015460 
#    y -0.013780 1.882050 -0.012930 
#    z -0.015460 -0.012930 1.858190 
# 
# From -- ./inp_files/562652.got.cif
#   From: 2010.06.25/outbox.cif.g09.slc.cpg/sg2_282_cif.got.tgz:562652.got - 2010.06.27 13:26:56.
