data_PCOD8001479
_publ_section_title
;
Structure prediction by ZEFSAII (Michael W. Deem and Ramdas Pophale) SiO2 
 PCOD8001479
Probable space group: P -1
;
_chemical_formula_sum "Si O2"
_cell_formula_units_Z 16
_cell_length_a 14.809549
_cell_length_b 14.803090
_cell_length_c 15.181903
_cell_angle_alpha 51.352836
_cell_angle_beta 19.005748
_cell_angle_gamma 51.186071
_cell_volume 837.858995
_symmetry_space_group_name_H-M "P -1"
_symmetry_group_IT_number 2
_symmetry_cell_setting 'triclinic'
loop_
_space_group_symop_operation_xyz
x,y,z
-x,-y,-z
loop_
_atom_site_type_symbol
_atom_site_label
_atom_site_fract_x
_atom_site_fract_y
_atom_site_fract_z
Si Si1 0.340094 0.255770 0.242288
Si Si2 0.035998 0.132330 0.242120
Si Si3 0.261259 0.640874 0.691755
Si Si4 0.154432 0.475068 0.741818
Si Si5 0.949714 0.512229 0.715382
Si Si6 0.441441 0.423915 0.184504
Si Si7 0.836716 0.127606 0.760553
Si Si8 0.595992 0.119849 0.806884
O O1 0.373823 0.300137 0.284789
O O2 0.222358 0.360540 0.221112
O O3 0.144787 0.156073 0.477671
O O4 0.644386 0.194605 0.971274
O O5 0.864061 0.222722 0.278219
O O6 0.840835 0.099854 0.521338
O O7 0.148540 0.012518 0.160187
O O8 0.306991 0.191092 0.990814
O O9 0.225114 0.588916 0.659211
O O10 0.586815 0.629343 0.424229
O O11 0.117786 0.569835 0.940581
O O12 0.107387 0.512371 0.662058
O O13 0.176252 0.484243 0.446557
O O14 0.729347 0.417058 0.979756
O O15 0.500000 0.500000 0.000000
O O16 0.716843 0.178226 0.745375
O O17 0.500000 0.000000 0.000000
#
# Coordination Sequence:
#
# PCOD8001479 Si02
#       8
#     2   2   2   2   2   2   2   2
#     4  11  21  34  53  84 114 140 176 223 267 332
#     4  11  21  37  54  74 112 154 181 224 278 309
#     4  10  22  39  55  80 112 143 185 244 265 305
#     4  10  22  38  57  82 107 139 197 230 271 321
#     4  11  21  36  59  80 111 149 179 221 284 335
#     4  10  20  37  54  81 114 144 176 224 279 337
#     4  11  21  32  51  81 109 145 184 213 259 342
#     4  10  20  33  49  74 111 146 186 220 250 323
#
# _framework density 19.096291999999998
#
# number of rings (size 3 to 8) (size 9 to 14) (size 15 to 20)
#    0.000    1.500    0.000    9.000    3.500    0.000 
#    0.000    0.000    0.000    0.000    0.000   17.500 
#    0.000    0.000    0.000    0.000    0.000    0.000 
#
# Total GULP energy -198373.135729 kJ/mol
# GULP energy per Si atom -12398.320983 kJ/mol
# Density = 1.905283 g / cm^3
# Si number density = 19.096292 Si / 1000 Ang^3
#
#
#
# Elastic Constant Matrix: (Units=GPa)
#
#
# Indices 1 2 3 4 5 6 
#
# 1 72.6334 32.7484 17.6438 4.5916 -6.3370 2.2159
# 2 32.7484 81.9795 13.8655 15.0866 2.1168 -1.8014
# 3 17.6438 13.8655 73.3469 13.2443 -5.1746 10.2223
# 4 4.5916 15.0866 13.2443 29.1311 5.5978 -4.7915
# 5 -6.3370 2.1168 -5.1746 5.5978 31.2692 1.2692
# 6 2.2159 -1.8014 10.2223 -4.7915 1.2692 22.0163
#
#
#
# Elastic Compliance Matrix: (Units=1/GPa)
#
#
# Indices 1 2 3 4 5 6 
#
# 1 0.017860 -0.007001 -0.002823 0.001272 0.003438 -0.000981
# 2 -0.007001 0.016366 -0.000401 -0.006780 -0.001413 0.000836
# 3 -0.002823 -0.000401 0.018041 -0.010198 0.004697 -0.010616
# 4 0.001272 -0.006780 -0.010198 0.046609 -0.009914 0.014768
# 5 0.003438 -0.001413 0.004697 -0.009914 0.035603 -0.006853
# 6 -0.000981 0.000836 -0.010616 0.014768 -0.006853 0.054126
#
#
# Mechanical properties :
#
#
# Convention : Reuss Voigt Hill
#
# Bulk Modulus (GPa) = 31.43215 39.60833 35.52024
# Shear Modulus (GPa) = 22.76229 27.39679 25.07954
#
# Velocity S-wave (km/s) = 3.45624 3.79181 3.62791
# Velocity P-wave (km/s) = 5.69412 6.32114 6.01581
#
# Compressibility (1/GPa) = 0.03181456
#
# Stress axis : x y z
#
# Youngs Moduli (GPa) = 55.99175 61.10378 55.42867
#
# Poissons Ratio (x) = 0.42782 0.15648
# Poissons Ratio (y) = 0.39202 0.02225
# Poissons Ratio (z) = 0.15807 0.02453
#
# Static dielectric constant tensor:
#      x y z
#    x 3.775000 0.209820 -0.459940 
#    y 0.209820 3.316960 0.112910 
#    z -0.459940 0.112910 3.828920 
# 
# 
# High freq. dielectric constant tensor:
#      x y z
#    x 1.722310 0.013950 -0.018580 
#    y 0.013950 1.717460 0.015410 
#    z -0.018580 0.015410 1.765960 
# 
# From -- ./inp_files/534314.got.cif
#   From: 2010.06.25/outbox.cif.g09.slc.cpg/sg2_268_cif.got.tgz:534314.got - 2010.06.27 13:26:56.
