data_PCOD8001790
_publ_section_title
;
Structure prediction by ZEFSAII (Michael W. Deem and Ramdas Pophale) SiO2 
 PCOD8001790
Probable space group: P -1
;
_chemical_formula_sum "Si O2"
_cell_formula_units_Z 16
_cell_length_a 6.616422
_cell_length_b 8.983559
_cell_length_c 18.605031
_cell_angle_alpha 124.174129
_cell_angle_beta 64.844464
_cell_angle_gamma 130.616573
_cell_volume 691.385856
_symmetry_space_group_name_H-M "P -1"
_symmetry_group_IT_number 2
_symmetry_cell_setting 'triclinic'
loop_
_space_group_symop_operation_xyz
x,y,z
-x,-y,-z
loop_
_atom_site_type_symbol
_atom_site_label
_atom_site_fract_x
_atom_site_fract_y
_atom_site_fract_z
Si Si1 0.285132 0.647425 0.902022
Si Si2 0.697358 0.028486 0.538114
Si Si3 0.138039 0.000616 0.838956
Si Si4 0.653030 0.169983 0.734630
Si Si5 0.832532 0.399401 0.253139
Si Si6 0.296914 0.045925 0.981439
Si Si7 0.726013 0.631180 0.444314
Si Si8 0.829927 0.158111 0.852551
O O1 0.324839 0.650812 0.811649
O O2 0.062185 0.410458 0.900727
O O3 0.194788 0.818185 0.976042
O O4 0.575076 0.750125 0.926986
O O5 0.589008 0.021088 0.633469
O O6 0.972284 0.257210 0.541305
O O7 0.500000 0.000000 0.500000
O O8 0.722532 0.828261 0.465874
O O9 0.408631 0.181181 0.806405
O O10 0.098077 0.030165 0.940587
O O11 0.899170 0.997519 0.834824
O O12 0.155094 0.794765 0.769413
O O13 0.859302 0.414628 0.748520
O O14 0.786587 0.104649 0.759152
O O15 0.668654 0.458035 0.345421
O O16 0.549108 0.104296 0.908913
O O17 0.500000 0.500000 0.500000
#
# Coordination Sequence:
#
# PCOD8001790 Si02
#       8
#     2   2   2   2   2   2   2   2
#     4   9  18  35  55  75 111 148 176 224 279 325
#     4  10  22  39  60  87 116 149 192 238 286 343
#     4  10  20  34  56  83 109 142 188 228 268 330
#     4   9  20  38  55  78 113 145 179 227 279 331
#     4   9  19  37  56  79 111 148 185 226 280 335
#     4   9  19  36  53  78 112 143 180 226 274 327
#     4  10  21  39  61  85 116 152 191 237 287 342
#     4  10  20  34  57  81 106 145 184 225 273 323
#
# _framework density 23.141922999999998
#
# number of rings (size 3 to 8) (size 9 to 14) (size 15 to 20)
#    0.000    2.500    0.000    1.125    0.000    6.000 
#    0.000   14.375    0.000    0.000    0.000    0.000 
#    0.000    0.000    0.000    0.000    0.000    0.000 
#
# Total GULP energy -198279.449729 kJ/mol
# GULP energy per Si atom -12392.465608 kJ/mol
# Density = 2.308925 g / cm^3
# Si number density = 23.141923 Si / 1000 Ang^3
#
#
#
# Elastic Constant Matrix: (Units=GPa)
#
#
# Indices 1 2 3 4 5 6 
#
# 1 85.7325 10.4308 35.7718 4.4788 30.3627 -14.8987
# 2 10.4308 87.2916 28.6796 -2.5850 2.6229 -3.1881
# 3 35.7718 28.6796 145.9193 6.0656 5.8967 -7.5459
# 4 4.4788 -2.5850 6.0656 35.1761 5.9573 -4.8473
# 5 30.3627 2.6229 5.8967 5.9573 36.7096 -5.1664
# 6 -14.8987 -3.1881 -7.5459 -4.8473 -5.1664 22.7457
#
#
#
# Elastic Compliance Matrix: (Units=1/GPa)
#
#
# Indices 1 2 3 4 5 6 
#
# 1 0.020069 -0.000297 -0.003876 0.001847 -0.015016 0.008800
# 2 -0.000297 0.012358 -0.002354 0.001553 -0.000370 0.001004
# 3 -0.003876 -0.002354 0.008238 -0.001480 0.002301 0.000071
# 4 0.001847 0.001553 -0.001480 0.030336 -0.005457 0.006162
# 5 -0.015016 -0.000370 0.002301 -0.005457 0.040035 -0.001194
# 6 0.008800 0.001004 0.000071 0.006162 -0.001194 0.050935
#
#
# Mechanical properties :
#
#
# Convention : Reuss Voigt Hill
#
# Bulk Modulus (GPa) = 36.21779 52.07864 44.14822
# Shear Modulus (GPa) = 27.14004 35.19702 31.16853
#
# Velocity S-wave (km/s) = 3.42828 3.90413 3.67392
# Velocity P-wave (km/s) = 5.59956 6.54796 6.09225
#
# Compressibility (1/GPa) = 0.02761074
#
# Stress axis : x y z
#
# Youngs Moduli (GPa) = 49.82899 80.91609 121.38572
#
# Poissons Ratio (x) = 0.02405 0.47052
# Poissons Ratio (y) = 0.01481 0.28572
# Poissons Ratio (z) = 0.19315 0.19046
#
# Static dielectric constant tensor:
#      x y z
#    x 5.413080 1.024390 -1.110200 
#    y 1.024390 4.987930 -0.793430 
#    z -1.110200 -0.793430 6.404880 
# 
# 
# High freq. dielectric constant tensor:
#      x y z
#    x 1.909290 0.016770 0.005840 
#    y 0.016770 1.929000 -0.011130 
#    z 0.005840 -0.011130 1.922690 
# 
# From -- ./inp_files/548302.got.cif
#   From: 2010.06.25/outbox.cif.g09.slc.cpg/sg2_275_cif.got.tgz:548302.got - 2010.06.27 13:26:56.
