data_PCOD8001959
_publ_section_title
;
Structure prediction by ZEFSAII (Michael W. Deem and Ramdas Pophale) SiO2 
 PCOD8001959
Probable space group: P -1
;
_chemical_formula_sum "Si O2"
_cell_formula_units_Z 16
_cell_length_a 6.721259
_cell_length_b 13.939419
_cell_length_c 12.249765
_cell_angle_alpha 108.507901
_cell_angle_beta 95.771208
_cell_angle_gamma 44.165971
_cell_volume 744.106747
_symmetry_space_group_name_H-M "P -1"
_symmetry_group_IT_number 2
_symmetry_cell_setting 'triclinic'
loop_
_space_group_symop_operation_xyz
x,y,z
-x,-y,-z
loop_
_atom_site_type_symbol
_atom_site_label
_atom_site_fract_x
_atom_site_fract_y
_atom_site_fract_z
Si Si1 0.674377 0.247589 0.943291
Si Si2 0.607332 0.291548 0.709234
Si Si3 0.119896 0.207943 0.612803
Si Si4 0.047445 0.448358 0.608450
Si Si5 0.740211 0.020748 0.618579
Si Si6 0.004739 0.924267 0.818811
Si Si7 0.178460 0.161495 0.051475
Si Si8 0.374361 0.305336 0.155674
O O1 0.526256 0.323735 0.845508
O O2 0.439880 0.347626 0.064586
O O3 0.774152 0.093956 0.903763
O O4 0.961276 0.212807 0.958240
O O5 0.322433 0.406758 0.660141
O O6 0.774070 0.126231 0.628163
O O7 0.826647 0.303882 0.701982
O O8 0.091938 0.310698 0.562394
O O9 0.401718 0.127184 0.674933
O O10 0.175992 0.080525 0.512919
O O11 0.000000 0.500000 0.500000
O O12 0.774372 0.571456 0.715735
O O13 0.964184 0.911117 0.686211
O O14 0.327832 0.846845 0.830316
O O15 0.961698 0.835824 0.847990
O O16 0.173061 0.284140 0.106798
O O17 0.500000 0.000000 0.000000
#
# Coordination Sequence:
#
# PCOD8001959 Si02
#       8
#     2   2   2   2   2   2   2   2
#     4  10  21  39  62  98 124 153 210 262 320 374
#     4  10  23  42  68  94 125 163 211 264 315 374
#     4  10  22  43  64  88 129 164 211 266 311 365
#     4  11  28  46  61  90 128 174 221 250 304 381
#     4   9  21  38  65  99 121 159 211 261 324 369
#     4  10  20  34  60  99 126 156 202 256 322 376
#     4  11  19  33  61  93 127 162 200 249 321 372
#     4  11  23  40  60  90 134 167 205 261 305 372
#
# _framework density 21.502293000000002
#
# number of rings (size 3 to 8) (size 9 to 14) (size 15 to 20)
#    0.000    1.750    2.500    1.125    5.250    4.000 
#    2.250    1.250    0.000    0.000    0.000    0.000 
#    0.000    0.000    0.000    0.000    0.000    0.000 
#
# Total GULP energy -198353.698453 kJ/mol
# GULP energy per Si atom -12397.106153 kJ/mol
# Density = 2.145335 g / cm^3
# Si number density = 21.502293 Si / 1000 Ang^3
#
#
#
# Elastic Constant Matrix: (Units=GPa)
#
#
# Indices 1 2 3 4 5 6 
#
# 1 120.3823 27.8295 38.5820 -18.6711 -5.0105 -9.4296
# 2 27.8295 71.1442 44.5225 -27.9686 -4.0324 -9.4597
# 3 38.5820 44.5225 103.5346 -16.7206 -4.7317 -7.3597
# 4 -18.6711 -27.9686 -16.7206 40.3482 -5.4095 7.4984
# 5 -5.0105 -4.0324 -4.7317 -5.4095 32.1328 0.0371
# 6 -9.4296 -9.4597 -7.3597 7.4984 0.0371 23.0215
#
#
#
# Elastic Compliance Matrix: (Units=1/GPa)
#
#
# Indices 1 2 3 4 5 6 
#
# 1 0.010016 -0.000737 -0.002748 0.002820 0.001537 0.002000
# 2 -0.000737 0.025532 -0.008027 0.014038 0.004267 0.003045
# 3 -0.002748 -0.008027 0.014015 -0.001040 0.000452 0.000395
# 4 0.002820 0.014038 -0.001040 0.037563 0.008378 -0.005658
# 5 0.001537 0.004267 0.000452 0.008378 0.033373 -0.000255
# 6 0.002000 0.003045 0.000395 -0.005658 -0.000255 0.047478
#
#
# Mechanical properties :
#
#
# Convention : Reuss Voigt Hill
#
# Bulk Modulus (GPa) = 37.67729 57.43657 47.55693
# Shear Modulus (GPa) = 25.01917 31.37565 28.19741
#
# Velocity S-wave (km/s) = 3.41480 3.82406 3.62521
# Velocity P-wave (km/s) = 5.75398 6.80204 6.29984
#
# Compressibility (1/GPa) = 0.02654119
#
# Stress axis : x y z
#
# Youngs Moduli (GPa) = 99.84192 39.16582 71.35250
#
# Poissons Ratio (x) = 0.02885 0.19606
# Poissons Ratio (y) = 0.07355 0.57272
# Poissons Ratio (z) = 0.27434 0.31437
#
# Static dielectric constant tensor:
#      x y z
#    x 4.138590 -0.199550 0.119610 
#    y -0.199550 3.709780 -0.075020 
#    z 0.119610 -0.075020 3.677450 
# 
# 
# High freq. dielectric constant tensor:
#      x y z
#    x 1.856980 -0.009690 0.006630 
#    y -0.009690 1.826700 -0.006570 
#    z 0.006630 -0.006570 1.830810 
# 
# From -- ./inp_files/367854.got.cif
#   From: 2010.06.25/outbox.cif.g09.slc.cpg/sg2_184_cif.got.tgz:367854.got - 2010.06.27 13:26:56.
