data_PCOD8001121
_publ_section_title
;
Structure prediction by ZEFSAII (Michael W. Deem and Ramdas Pophale) SiO2 
 PCOD8001121
Probable space group: P -1
;
_chemical_formula_sum "Si O2"
_cell_formula_units_Z 16
_cell_length_a 8.433992
_cell_length_b 8.981703
_cell_length_c 20.020428
_cell_angle_alpha 139.464085
_cell_angle_beta 61.894953
_cell_angle_gamma 128.853298
_cell_volume 767.540942
_symmetry_space_group_name_H-M "P -1"
_symmetry_group_IT_number 2
_symmetry_cell_setting 'triclinic'
loop_
_space_group_symop_operation_xyz
x,y,z
-x,-y,-z
loop_
_atom_site_type_symbol
_atom_site_label
_atom_site_fract_x
_atom_site_fract_y
_atom_site_fract_z
Si Si1 0.694748 0.154695 0.467547
Si Si2 0.686796 0.372001 0.103990
Si Si3 0.868262 0.958112 0.251555
Si Si4 0.732069 0.906978 0.972772
Si Si5 0.320082 0.559853 0.724838
Si Si6 0.262898 0.294516 0.366157
Si Si7 0.969411 0.019441 0.436080
Si Si8 0.890127 0.120125 0.154611
O O1 0.705248 0.418035 0.528995
O O2 0.500000 0.000000 0.500000
O O3 0.710811 0.995396 0.345323
O O4 0.889175 0.224423 0.501486
O O5 0.848790 0.670598 0.162645
O O6 0.504810 0.289208 0.058888
O O7 0.591881 0.327082 0.181627
O O8 0.792689 0.183273 0.017282
O O9 0.815173 0.990187 0.197118
O O10 0.101820 0.160306 0.292259
O O11 0.871180 0.791575 0.873467
O O12 0.763305 0.927163 0.053605
O O13 0.517276 0.683825 0.681341
O O14 0.209616 0.250676 0.646833
O O15 0.148940 0.631368 0.755823
O O16 0.181930 0.115631 0.387704
O O17 0.000000 0.000000 0.500000
#
# Coordination Sequence:
#
# PCOD8001121 Si02
#       8
#     2   2   2   2   2   2   2   2
#     4  11  22  42  64  90 128 171 209 254 309 369
#     4  10  19  41  68  89 121 163 213 251 317 381
#     4  11  22  38  63  97 119 162 216 257 301 381
#     4   9  21  42  64  87 123 169 194 267 328 368
#     4  11  22  42  61  90 130 166 213 252 309 379
#     4  11  23  42  64  89 130 171 211 254 307 370
#     4  11  24  39  60  94 125 169 210 261 313 364
#     4  10  23  39  60  92 126 161 205 262 321 369
#
# _framework density 20.845794000000001
#
# number of rings (size 3 to 8) (size 9 to 14) (size 15 to 20)
#    0.000    1.500    3.750    2.250    3.500    2.500 
#    2.250    0.000    0.000    0.000    0.000    0.000 
#    0.000    0.000    0.000    0.000    0.000    0.000 
#
# Total GULP energy -198310.354974 kJ/mol
# GULP energy per Si atom -12394.397186 kJ/mol
# Density = 2.079835 g / cm^3
# Si number density = 20.845794 Si / 1000 Ang^3
#
#
#
# Elastic Constant Matrix: (Units=GPa)
#
#
# Indices 1 2 3 4 5 6 
#
# 1 103.5455 40.1206 45.9004 -15.2994 -6.9879 -7.7688
# 2 40.1206 117.4768 39.6000 -15.1190 2.4480 2.8451
# 3 45.9004 39.6000 76.8158 -3.1999 -6.1168 -0.6105
# 4 -15.2994 -15.1190 -3.1999 38.0194 -1.2531 7.9966
# 5 -6.9879 2.4480 -6.1168 -1.2531 33.1276 -11.3700
# 6 -7.7688 2.8451 -0.6105 7.9966 -11.3700 38.6701
#
#
#
# Elastic Compliance Matrix: (Units=1/GPa)
#
#
# Indices 1 2 3 4 5 6 
#
# 1 0.014750 -0.002248 -0.007216 0.003877 0.003172 0.003146
# 2 -0.002248 0.011492 -0.004693 0.003814 -0.003100 -0.003072
# 3 -0.007216 -0.004693 0.019828 -0.003146 0.002579 0.000618
# 4 0.003877 0.003814 -0.003146 0.030370 -0.000998 -0.006125
# 5 0.003172 -0.003100 0.002579 -0.000998 0.035486 0.011546
# 6 0.003146 -0.003072 0.000618 -0.006125 0.011546 0.031389
#
#
# Mechanical properties :
#
#
# Convention : Reuss Voigt Hill
#
# Bulk Modulus (GPa) = 56.31872 61.00891 58.66381
# Shear Modulus (GPa) = 28.16123 33.44453 30.80288
#
# Velocity S-wave (km/s) = 3.67949 4.00981 3.84820
# Velocity P-wave (km/s) = 6.71766 7.12520 6.92443
#
# Compressibility (1/GPa) = 0.01775609
#
# Stress axis : x y z
#
# Youngs Moduli (GPa) = 67.79492 87.01629 50.43250
#
# Poissons Ratio (x) = 0.19566 0.36391
# Poissons Ratio (y) = 0.15244 0.23669
# Poissons Ratio (z) = 0.48919 0.40839
#
# Static dielectric constant tensor:
#      x y z
#    x 3.738230 -0.122510 -0.107360 
#    y -0.122510 3.721600 0.036900 
#    z -0.107360 0.036900 4.210090 
# 
# 
# High freq. dielectric constant tensor:
#      x y z
#    x 1.814750 -0.012020 -0.004510 
#    y -0.012020 1.809440 -0.004240 
#    z -0.004510 -0.004240 1.817130 
# 
# From -- ./inp_files/215726.got.cif
#   From: 2010.06.25/outbox.cif.g09.slc.cpg/sg2_108_cif.got.tgz:215726.got - 2010.06.27 13:26:56.
