data_PCOD8001044
_publ_section_title
;
Structure prediction by ZEFSAII (Michael W. Deem and Ramdas Pophale) SiO2 
 PCOD8001044
Probable space group: P -1
;
_chemical_formula_sum "Si O2"
_cell_formula_units_Z 16
_cell_length_a 8.973044
_cell_length_b 18.882842
_cell_length_c 17.986710
_cell_angle_alpha 20.310671
_cell_angle_beta 135.670377
_cell_angle_gamma 134.152890
_cell_volume 735.046277
_symmetry_space_group_name_H-M "P -1"
_symmetry_group_IT_number 2
_symmetry_cell_setting 'triclinic'
loop_
_space_group_symop_operation_xyz
x,y,z
-x,-y,-z
loop_
_atom_site_type_symbol
_atom_site_label
_atom_site_fract_x
_atom_site_fract_y
_atom_site_fract_z
Si Si1 0.033156 0.357673 0.302300
Si Si2 0.534940 0.792735 0.256328
Si Si3 0.415800 0.583441 0.964484
Si Si4 0.540913 0.780282 0.444928
Si Si5 0.381982 0.075186 0.204747
Si Si6 0.281697 0.493708 0.733323
Si Si7 0.119432 0.631557 0.197120
Si Si8 0.001024 0.094937 0.683856
O O1 0.231025 0.305279 0.373428
O O2 0.129625 0.546942 0.201230
O O3 0.942436 0.159915 0.515072
O O4 0.842065 0.430043 0.112836
O O5 0.507990 0.825879 0.302000
O O6 0.353852 0.621928 0.327995
O O7 0.782968 0.751353 0.369000
O O8 0.500000 0.000000 0.000000
O O9 0.505269 0.820967 0.782584
O O10 0.500000 0.500000 0.000000
O O11 0.512505 0.443732 0.199960
O O12 0.333077 0.625084 0.547926
O O13 0.544719 0.985716 0.293714
O O14 0.271316 0.251450 0.947090
O O15 0.202434 0.888618 0.350212
O O16 0.057183 0.518531 0.671227
O O17 0.050571 0.859524 0.938977
#
# Coordination Sequence:
#
# PCOD8001044 Si02
#       8
#     2   2   2   2   2   2   2   2
#     4  11  22  36  62  88 122 155 206 247 292 355
#     4   9  21  39  65  89 118 156 207 244 301 357
#     4  10  20  41  64  90 116 162 205 245 290 356
#     4  11  23  39  57  91 125 160 191 253 302 359
#     4   9  21  39  59  86 127 154 193 249 302 342
#     4   9  21  39  60  85 126 152 205 243 300 354
#     4  10  19  41  60  88 119 156 204 256 290 346
#     4   9  19  38  60  88 116 155 203 245 289 358
#
# _framework density 21.767336
#
# number of rings (size 3 to 8) (size 9 to 14) (size 15 to 20)
#    0.750    1.500    1.250    0.750    0.000    7.000 
#    2.250    8.125    0.000    0.000    0.000    0.000 
#    0.000    0.000    0.000    0.000    0.000    0.000 
#
# Total GULP energy -198224.369390 kJ/mol
# GULP energy per Si atom -12389.023087 kJ/mol
# Density = 2.171779 g / cm^3
# Si number density = 21.767336 Si / 1000 Ang^3
#
#
#
# Elastic Constant Matrix: (Units=GPa)
#
#
# Indices 1 2 3 4 5 6 
#
# 1 135.8523 60.0684 31.4297 1.4876 15.7263 8.9206
# 2 60.0684 140.2635 31.5263 4.7091 12.2874 4.3175
# 3 31.4297 31.5263 34.7883 10.1416 -2.5677 3.1384
# 4 1.4876 4.7091 10.1416 35.1656 6.0719 7.5407
# 5 15.7263 12.2874 -2.5677 6.0719 40.7861 0.7185
# 6 8.9206 4.3175 3.1384 7.5407 0.7185 22.5461
#
#
#
# Elastic Compliance Matrix: (Units=1/GPa)
#
#
# Indices 1 2 3 4 5 6 
#
# 1 0.011331 -0.002354 -0.009326 0.004210 -0.004804 -0.003990
# 2 -0.002354 0.010053 -0.007598 0.001506 -0.002817 -0.000350
# 3 -0.009326 -0.007598 0.049077 -0.015338 0.011204 0.003086
# 4 0.004210 0.001506 -0.015338 0.036423 -0.008258 -0.011738
# 5 -0.004804 -0.002817 0.011204 -0.008258 0.029106 0.002715
# 6 -0.003990 -0.000350 0.003086 -0.011738 0.002715 0.049409
#
#
# Mechanical properties :
#
#
# Convention : Reuss Voigt Hill
#
# Bulk Modulus (GPa) = 31.34471 61.88365 46.61418
# Shear Modulus (GPa) = 21.31373 32.22487 26.76930
#
# Velocity S-wave (km/s) = 3.13255 3.85180 3.51064
# Velocity P-wave (km/s) = 5.24547 6.94789 6.15581
#
# Compressibility (1/GPa) = 0.03190331
#
# Stress axis : x y z
#
# Youngs Moduli (GPa) = 88.25010 99.47763 20.37630
#
# Poissons Ratio (x) = 0.23420 0.19003
# Poissons Ratio (y) = 0.20777 0.15483
# Poissons Ratio (z) = 0.82302 0.75586
#
# Static dielectric constant tensor:
#      x y z
#    x 3.858580 0.354190 0.136810 
#    y 0.354190 4.070770 0.075470 
#    z 0.136810 0.075470 4.129740 
# 
# 
# High freq. dielectric constant tensor:
#      x y z
#    x 1.849440 0.019230 0.017150 
#    y 0.019230 1.835950 -0.005940 
#    z 0.017150 -0.005940 1.873770 
# 
# From -- ./inp_files/591768.got.cif
#   From: 2010.06.25/outbox.cif.g09.slc.cpg/sg2_296_cif.got.tgz:591768.got - 2010.06.27 13:26:56.
