data_PCOD8001208
_publ_section_title
;
Structure prediction by ZEFSAII (Michael W. Deem and Ramdas Pophale) SiO2 
 PCOD8001208
Probable space group: P -1
;
_chemical_formula_sum "Si O2"
_cell_formula_units_Z 12
_cell_length_a 13.350996
_cell_length_b 7.998624
_cell_length_c 9.680920
_cell_angle_alpha 119.079812
_cell_angle_beta 129.926178
_cell_angle_gamma 47.644331
_cell_volume 583.238257
_symmetry_space_group_name_H-M "P -1"
_symmetry_group_IT_number 2
_symmetry_cell_setting 'triclinic'
loop_
_space_group_symop_operation_xyz
x,y,z
-x,-y,-z
loop_
_atom_site_type_symbol
_atom_site_label
_atom_site_fract_x
_atom_site_fract_y
_atom_site_fract_z
Si Si1 0.614800 0.058661 0.193469
Si Si2 0.332844 0.167224 0.362824
Si Si3 0.792371 0.888353 0.030455
Si Si4 0.678029 0.577765 0.786563
Si Si5 0.063979 0.907450 0.169983
Si Si6 0.862515 0.752168 0.515154
O O1 0.498880 0.300027 0.263004
O O2 0.712873 0.074452 0.159280
O O3 0.730178 0.865222 0.326401
O O4 0.500000 0.000000 0.000000
O O5 0.330546 0.374540 0.366753
O O6 0.206998 0.268149 0.411585
O O7 0.500000 0.000000 0.500000
O O8 0.297724 0.026322 0.162205
O O9 0.965832 0.826449 0.134986
O O10 0.781265 0.672410 0.982507
O O11 0.762053 0.311041 0.781754
O O12 0.065536 0.094971 0.339452
O O13 0.000000 0.000000 0.000000
O O14 0.000000 0.500000 0.500000
#
# Coordination Sequence:
#
# PCOD8001208 Si02
#       6
#     2   2   2   2   2   2
#     4  10  21  42  67  95 129 170 216 267 327 373
#     4  10  19  42  66  94 124 174 215 260 322 389
#     4   9  21  39  68  92 130 168 210 262 331 381
#     4   9  21  38  71  88 129 170 218 256 329 380
#     4  12  24  42  64  98 132 174 215 267 328 389
#     4  12  27  41  66  98 135 168 222 270 323 385
#
# _framework density 20.574783
#
# number of rings (size 3 to 8) (size 9 to 14) (size 15 to 20)
#    1.000    0.667    3.333    0.500    7.000    1.333 
#    0.000    0.833    0.000    0.000    0.000    0.000 
#    0.000    0.000    0.000    0.000    0.000    0.000 
#
# Total GULP energy -148661.219831 kJ/mol
# GULP energy per Si atom -12388.434986 kJ/mol
# Density = 2.052795 g / cm^3
# Si number density = 20.574783 Si / 1000 Ang^3
#
#
#
# Elastic Constant Matrix: (Units=GPa)
#
#
# Indices 1 2 3 4 5 6 
#
# 1 101.8707 56.2717 35.1011 4.7314 -31.1226 -36.9426
# 2 56.2717 164.9330 56.5650 -12.8548 -7.9716 -25.3459
# 3 35.1011 56.5650 115.8641 -13.7952 -17.4384 -8.1994
# 4 4.7314 -12.8548 -13.7952 31.0793 1.7072 0.6259
# 5 -31.1226 -7.9716 -17.4384 1.7072 40.1105 8.0145
# 6 -36.9426 -25.3459 -8.1994 0.6259 8.0145 31.0197
#
#
#
# Elastic Compliance Matrix: (Units=1/GPa)
#
#
# Indices 1 2 3 4 5 6 
#
# 1 0.026643 -0.004310 -0.003177 -0.008501 0.014018 0.023919
# 2 -0.004310 0.009016 -0.003083 0.003162 -0.003478 0.002254
# 3 -0.003177 -0.003083 0.011732 0.004351 0.002630 -0.003969
# 4 -0.008501 0.003162 0.004351 0.037075 -0.004457 -0.005986
# 5 0.014018 -0.003478 0.002630 -0.004457 0.035350 0.005505
# 6 0.023919 0.002254 -0.003969 -0.005986 0.005505 0.060214
#
#
# Mechanical properties :
#
#
# Convention : Reuss Voigt Hill
#
# Bulk Modulus (GPa) = 38.09522 75.39371 56.74447
# Shear Modulus (GPa) = 23.81869 36.09055 29.95462
#
# Velocity S-wave (km/s) = 3.40614 4.19276 3.81975
# Velocity P-wave (km/s) = 5.83307 7.75643 6.86247
#
# Compressibility (1/GPa) = 0.02625001
#
# Stress axis : x y z
#
# Youngs Moduli (GPa) = 37.53320 110.91919 85.23997
#
# Poissons Ratio (x) = 0.47803 0.27082
# Poissons Ratio (y) = 0.16176 0.26281
# Poissons Ratio (z) = 0.11925 0.34199
#
# Static dielectric constant tensor:
#      x y z
#    x 4.527850 -0.792110 -0.721640 
#    y -0.792110 3.728420 0.361560 
#    z -0.721640 0.361560 4.250670 
# 
# 
# High freq. dielectric constant tensor:
#      x y z
#    x 1.810430 -0.025370 -0.011350 
#    y -0.025370 1.777630 -0.010500 
#    z -0.011350 -0.010500 1.807540 
# 
# From -- ./inp_files/192822.got.cif
#   From: 2010.06.25/outbox.cif.g09.slc.cpg/sg2_97_cif.got.tgz:192822.got - 2010.06.27 13:26:56.
