data_PCOD8001829
_publ_section_title
;
Structure prediction by ZEFSAII (Michael W. Deem and Ramdas Pophale) SiO2 
 PCOD8001829
Probable space group: P -1
;
_chemical_formula_sum "Si O2"
_cell_formula_units_Z 14
_cell_length_a 8.603489
_cell_length_b 6.828618
_cell_length_c 16.288212
_cell_angle_alpha 101.528395
_cell_angle_beta 102.264127
_cell_angle_gamma 43.434087
_cell_volume 641.412139
_symmetry_space_group_name_H-M "P -1"
_symmetry_group_IT_number 2
_symmetry_cell_setting 'triclinic'
loop_
_space_group_symop_operation_xyz
x,y,z
-x,-y,-z
loop_
_atom_site_type_symbol
_atom_site_label
_atom_site_fract_x
_atom_site_fract_y
_atom_site_fract_z
Si Si1 0.279949 0.093670 0.445920
Si Si2 0.026801 0.148878 0.835260
Si Si3 0.965495 0.700230 0.400380
Si Si4 0.688359 0.777340 0.889376
Si Si5 0.369022 0.805008 0.973846
Si Si6 0.602759 0.072999 0.270933
Si Si7 0.736440 0.295277 0.672972
O O1 0.107261 0.180259 0.505388
O O2 0.152795 0.358295 0.392290
O O3 0.500000 0.000000 0.500000
O O4 0.349653 0.842186 0.377961
O O5 0.224575 0.995050 0.780302
O O6 0.932056 0.450686 0.878959
O O7 0.828143 0.203059 0.770556
O O8 0.141715 0.937806 0.909690
O O9 0.741762 0.825854 0.335316
O O10 0.068612 0.801210 0.375291
O O11 0.535846 0.775753 0.930654
O O12 0.577360 0.901759 0.796496
O O13 0.717170 0.973084 0.944466
O O14 0.500000 0.500000 0.000000
O O15 0.479722 0.366752 0.327403
#
# Coordination Sequence:
#
# PCOD8001829 Si02
#       7
#     2   2   2   2   2   2   2
#     4  11  24  38  57  87 117 147 190 240 289 342
#     4   9  19  37  57  81 113 151 188 228 282 335
#     4  10  22  39  59  84 113 150 192 233 289 342
#     4   9  19  37  56  80 116 147 182 232 277 329
#     4  10  20  34  57  86 112 145 187 229 276 331
#     4   9  19  37  60  82 110 152 191 229 280 333
#     4  10  21  40  61  81 114 153 191 237 285 338
#
# _framework density 21.826837999999999
#
# number of rings (size 3 to 8) (size 9 to 14) (size 15 to 20)
#    0.000    2.286    0.000    1.714    0.000    8.571 
#    0.000   15.714    0.000    0.000    0.000    0.000 
#    0.000    0.000    0.000    0.000    0.000    0.000 
#
# Total GULP energy -173530.953315 kJ/mol
# GULP energy per Si atom -12395.068094 kJ/mol
# Density = 2.177716 g / cm^3
# Si number density = 21.826838 Si / 1000 Ang^3
#
#
#
# Elastic Constant Matrix: (Units=GPa)
#
#
# Indices 1 2 3 4 5 6 
#
# 1 47.9693 41.5113 33.7572 4.8553 17.7552 0.9139
# 2 41.5113 154.6487 90.6200 -17.6732 29.3160 -7.0470
# 3 33.7572 90.6200 127.6578 -7.0902 32.6575 11.7692
# 4 4.8553 -17.6732 -7.0902 56.0175 -8.8692 3.9578
# 5 17.7552 29.3160 32.6575 -8.8692 26.0435 2.8635
# 6 0.9139 -7.0470 11.7692 3.9578 2.8635 29.5183
#
#
#
# Elastic Compliance Matrix: (Units=1/GPa)
#
#
# Indices 1 2 3 4 5 6 
#
# 1 0.034260 -0.006451 -0.000195 -0.008002 -0.018614 0.000356
# 2 -0.006451 0.013912 -0.008556 0.003393 -0.000091 0.006486
# 3 -0.000195 -0.008556 0.017681 -0.001833 -0.012190 -0.007658
# 4 -0.008002 0.003393 -0.001833 0.021350 0.011446 -0.002184
# 5 -0.018614 -0.000091 -0.012190 0.011446 0.070700 -0.002979
# 6 0.000356 0.006486 -0.007658 -0.002184 -0.002979 0.039050
#
#
# Mechanical properties :
#
#
# Convention : Reuss Voigt Hill
#
# Bulk Modulus (GPa) = 28.21058 73.56142 50.88600
# Shear Modulus (GPa) = 20.90521 33.27503 27.09012
#
# Velocity S-wave (km/s) = 3.09815 3.90872 3.52680
# Velocity P-wave (km/s) = 5.07453 7.35841 6.32049
#
# Compressibility (1/GPa) = 0.03544770
#
# Stress axis : x y z
#
# Youngs Moduli (GPa) = 29.18879 71.87974 56.55681
#
# Poissons Ratio (x) = 0.46373 0.01104
# Poissons Ratio (y) = 0.18831 0.48391
# Poissons Ratio (z) = 0.00570 0.61501
#
# Static dielectric constant tensor:
#      x y z
#    x 3.549310 -0.375620 0.118410 
#    y -0.375620 4.040100 -0.235300 
#    z 0.118410 -0.235300 4.572740 
# 
# 
# High freq. dielectric constant tensor:
#      x y z
#    x 1.819620 -0.031690 -0.000160 
#    y -0.031690 1.861480 -0.003700 
#    z -0.000160 -0.003700 1.879680 
# 
# From -- ./inp_files/6167.got.cif
#   From: 2010.06.25/outbox.cif.g09.slc.cpg/sg2_4_cif.got.tgz:6167.got - 2010.06.27 13:26:56.
