data_PCOD8001283
_publ_section_title
;
Structure prediction by ZEFSAII (Michael W. Deem and Ramdas Pophale) SiO2 
 PCOD8001283
Probable space group: P -1
;
_chemical_formula_sum "Si O2"
_cell_formula_units_Z 16
_cell_length_a 8.538801
_cell_length_b 11.269741
_cell_length_c 13.520260
_cell_angle_alpha 125.888309
_cell_angle_beta 44.243723
_cell_angle_gamma 99.815003
_cell_volume 659.929550
_symmetry_space_group_name_H-M "P -1"
_symmetry_group_IT_number 2
_symmetry_cell_setting 'triclinic'
loop_
_space_group_symop_operation_xyz
x,y,z
-x,-y,-z
loop_
_atom_site_type_symbol
_atom_site_label
_atom_site_fract_x
_atom_site_fract_y
_atom_site_fract_z
Si Si1 0.090742 0.909986 0.810723
Si Si2 0.415934 0.385675 0.583949
Si Si3 0.041796 0.786945 0.113547
Si Si4 0.932946 0.364997 0.780571
Si Si5 0.661724 0.664725 0.176363
Si Si6 0.953976 0.739536 0.632861
Si Si7 0.856031 0.147197 0.565055
Si Si8 0.587481 0.595060 0.703765
O O1 0.377002 0.782285 0.635955
O O2 0.940201 0.809769 0.786348
O O3 0.000000 0.000000 0.000000
O O4 0.075933 0.036277 0.794695
O O5 0.400762 0.372864 0.704081
O O6 0.496679 0.537834 0.613407
O O7 0.152247 0.414577 0.670317
O O8 0.341322 0.694853 0.928135
O O9 0.962610 0.792749 0.268024
O O10 0.916378 0.684701 0.064835
O O11 0.828273 0.317186 0.708264
O O12 0.711092 0.512141 0.009004
O O13 0.424733 0.825406 0.320537
O O14 0.709713 0.720580 0.698999
O O15 0.977741 0.876154 0.619538
O O16 0.202392 0.568761 0.421216
O O17 0.000000 0.000000 0.500000
#
# Coordination Sequence:
#
# PCOD8001283 Si02
#       8
#     2   2   2   2   2   2   2   2
#     4  11  25  44  63  97 137 182 226 274 339 415
#     4  10  20  43  72  94 135 174 229 281 339 396
#     4  11  22  41  68 100 132 178 221 278 343 396
#     4  11  22  39  72 103 133 174 230 280 339 406
#     4  11  21  43  69  97 139 176 225 285 336 396
#     4  10  23  46  69  97 138 179 225 283 342 394
#     4  12  25  41  65 106 142 182 219 279 348 409
#     4  10  19  43  74  94 131 185 223 279 338 397
#
# _framework density 24.245011999999999
#
# number of rings (size 3 to 8) (size 9 to 14) (size 15 to 20)
#    0.000    1.250    5.000    1.875    1.750    2.500 
#    9.000    3.125    0.000    0.000    0.000    0.000 
#    0.000    0.000    0.000    0.000    0.000    0.000 
#
# Total GULP energy -198242.602657 kJ/mol
# GULP energy per Si atom -12390.162666 kJ/mol
# Density = 2.418983 g / cm^3
# Si number density = 24.245012 Si / 1000 Ang^3
#
#
#
# Elastic Constant Matrix: (Units=GPa)
#
#
# Indices 1 2 3 4 5 6 
#
# 1 99.2686 19.5037 38.0240 -9.3631 -4.9134 23.6494
# 2 19.5037 76.4216 15.5882 -5.9941 -12.4682 11.1211
# 3 38.0240 15.5882 118.8013 -0.5344 3.8589 17.8114
# 4 -9.3631 -5.9941 -0.5344 23.7304 10.7350 -14.1370
# 5 -4.9134 -12.4682 3.8589 10.7350 48.0843 0.4248
# 6 23.6494 11.1211 17.8114 -14.1370 0.4248 33.6362
#
#
#
# Elastic Compliance Matrix: (Units=1/GPa)
#
#
# Indices 1 2 3 4 5 6 
#
# 1 0.013326 -0.001515 -0.003005 -0.000176 0.001314 -0.007368
# 2 -0.001515 0.014805 -0.001035 -0.000903 0.004002 -0.003711
# 3 -0.003005 -0.001035 0.010184 -0.003626 -0.000544 -0.004455
# 4 -0.000176 -0.000903 -0.003626 0.066873 -0.015161 0.030640
# 5 0.001314 0.004002 -0.000544 -0.015161 0.025474 -0.008653
# 6 -0.007368 -0.003711 -0.004455 0.030640 -0.008653 0.051483
#
#
# Mechanical properties :
#
#
# Convention : Reuss Voigt Hill
#
# Bulk Modulus (GPa) = 36.75863 48.96924 42.86394
# Shear Modulus (GPa) = 24.71274 35.84856 30.28065
#
# Velocity S-wave (km/s) = 3.19610 3.84942 3.53787
# Velocity P-wave (km/s) = 5.36789 6.32447 5.86571
#
# Compressibility (1/GPa) = 0.02720449
#
# Stress axis : x y z
#
# Youngs Moduli (GPa) = 75.03976 67.54323 98.18982
#
# Poissons Ratio (x) = 0.10234 0.29509
# Poissons Ratio (y) = 0.11370 0.10165
# Poissons Ratio (z) = 0.22552 0.06993
#
# Static dielectric constant tensor:
#      x y z
#    x 4.566060 0.424710 0.078030 
#    y 0.424710 4.517060 0.025520 
#    z 0.078030 0.025520 4.191100 
# 
# 
# High freq. dielectric constant tensor:
#      x y z
#    x 1.968940 0.018030 0.002370 
#    y 0.018030 1.953020 0.006600 
#    z 0.002370 0.006600 1.957960 
# 
# From -- ./inp_files/500769.got.cif
#   From: 2010.06.25/outbox.cif.g09.slc.cpg/sg2_251_cif.got.tgz:500769.got - 2010.06.27 13:26:56.
