data_PCOD8001413
_publ_section_title
;
Structure prediction by ZEFSAII (Michael W. Deem and Ramdas Pophale) SiO2 
 PCOD8001413
Probable space group: P -1
;
_chemical_formula_sum "Si O2"
_cell_formula_units_Z 16
_cell_length_a 5.053444
_cell_length_b 10.890380
_cell_length_c 17.388015
_cell_angle_alpha 124.930623
_cell_angle_beta 77.554968
_cell_angle_gamma 109.835615
_cell_volume 737.710093
_symmetry_space_group_name_H-M "P -1"
_symmetry_group_IT_number 2
_symmetry_cell_setting 'triclinic'
loop_
_space_group_symop_operation_xyz
x,y,z
-x,-y,-z
loop_
_atom_site_type_symbol
_atom_site_label
_atom_site_fract_x
_atom_site_fract_y
_atom_site_fract_z
Si Si1 0.848840 0.530214 0.881646
Si Si2 0.132958 0.087272 0.693595
Si Si3 0.693195 0.146535 0.495788
Si Si4 0.703027 0.914945 0.915459
Si Si5 0.444557 0.581834 0.794675
Si Si6 0.203734 0.168697 0.956614
Si Si7 0.624050 0.184769 0.815820
Si Si8 0.238749 0.292202 0.607671
O O1 0.665032 0.522361 0.812390
O O2 0.795473 0.363563 0.865455
O O3 0.177808 0.582204 0.862726
O O4 0.798622 0.652292 0.993470
O O5 0.354830 0.163759 0.771172
O O6 0.188571 0.195825 0.654781
O O7 0.819313 0.073956 0.740193
O O8 0.166111 0.916047 0.608435
O O9 0.477339 0.247831 0.523600
O O10 0.940700 0.254668 0.570261
O O11 0.500000 0.000000 0.500000
O O12 0.560937 0.759930 0.819414
O O13 0.837613 0.845781 0.954227
O O14 0.936751 0.035276 0.891691
O O15 0.500000 0.000000 0.000000
O O16 0.352267 0.473627 0.686645
O O17 0.492101 0.141303 0.894067
#
# Coordination Sequence:
#
# PCOD8001413 Si02
#       8
#     2   2   2   2   2   2   2   2
#     4  11  20  37  52  82 119 148 185 223 278 331
#     4  11  21  34  51  82 117 150 177 227 274 337
#     4  10  20  32  53  78 114 153 179 219 273 338
#     4  10  21  42  58  78 112 143 200 241 273 312
#     4  11  21  34  60  81 111 151 183 236 275 317
#     4  10  24  37  58  81 108 158 188 236 276 324
#     4  12  22  35  55  84 119 149 188 218 281 345
#     4  11  18  34  53  81 113 147 188 217 275 333
#
# _framework density 21.688737
#
# number of rings (size 3 to 8) (size 9 to 14) (size 15 to 20)
#    0.000    1.250    3.750    4.875    1.750    0.000 
#    0.000    3.125    0.000    0.000    0.000    5.250 
#    0.000    0.000    0.000    0.000    0.000    0.000 
#
# Total GULP energy -198284.329168 kJ/mol
# GULP energy per Si atom -12392.770573 kJ/mol
# Density = 2.163937 g / cm^3
# Si number density = 21.688737 Si / 1000 Ang^3
#
#
#
# Elastic Constant Matrix: (Units=GPa)
#
#
# Indices 1 2 3 4 5 6 
#
# 1 98.0148 21.7557 20.4913 4.8103 -18.6336 22.0984
# 2 21.7557 53.8338 47.7933 23.1585 -5.3991 28.5078
# 3 20.4913 47.7933 108.0214 29.1429 -27.6673 20.5783
# 4 4.8103 23.1585 29.1429 35.4305 4.8132 5.8474
# 5 -18.6336 -5.3991 -27.6673 4.8132 50.2493 -0.6542
# 6 22.0984 28.5078 20.5783 5.8474 -0.6542 22.9906
#
#
#
# Elastic Compliance Matrix: (Units=1/GPa)
#
#
# Indices 1 2 3 4 5 6 
#
# 1 0.015654 0.011113 0.001438 -0.007036 0.008099 -0.028094
# 2 0.011113 0.116532 -0.012684 -0.047244 0.012472 -0.131455
# 3 0.001438 -0.012684 0.020428 -0.010078 0.011370 -0.001052
# 4 -0.007036 -0.047244 -0.010078 0.061224 -0.018340 0.058272
# 5 0.008099 0.012472 0.011370 -0.018340 0.031899 -0.027854
# 6 -0.028094 -0.131455 -0.001052 0.058272 -0.027854 0.218829
#
#
# Mechanical properties :
#
#
# Convention : Reuss Voigt Hill
#
# Bulk Modulus (GPa) = 6.56387 48.88341 27.72364
# Shear Modulus (GPa) = 9.69714 33.05606 21.37660
#
# Velocity S-wave (km/s) = 2.11678 3.90822 3.14285
# Velocity P-wave (km/s) = 3.00122 6.55387 5.09708
#
# Compressibility (1/GPa) = 0.15234917
#
# Stress axis : x y z
#
# Youngs Moduli (GPa) = 63.88035 8.58131 48.95165
#
# Poissons Ratio (x) = -0.09537 -0.07039
# Poissons Ratio (y) = -0.70993 0.62092
# Poissons Ratio (z) = -0.09186 0.10885
#
# Static dielectric constant tensor:
#      x y z
#    x 4.224680 0.037970 -0.239020 
#    y 0.037970 4.129380 0.314730 
#    z -0.239020 0.314730 4.361880 
# 
# 
# High freq. dielectric constant tensor:
#      x y z
#    x 1.870800 0.019320 -0.012670 
#    y 0.019320 1.806720 0.034050 
#    z -0.012670 0.034050 1.846290 
# 
# From -- ./inp_files/80604.got.cif
#   From: 2010.06.25/outbox.cif.g09.slc.cpg/sg2_41_cif.got.tgz:80604.got - 2010.06.27 13:26:56.
