data_PCOD8001895
_publ_section_title
;
Structure prediction by ZEFSAII (Michael W. Deem and Ramdas Pophale) SiO2 
 PCOD8001895
Probable space group: P -1
;
_chemical_formula_sum "Si O2"
_cell_formula_units_Z 16
_cell_length_a 9.034577
_cell_length_b 19.395485
_cell_length_c 9.127544
_cell_angle_alpha 53.522397
_cell_angle_beta 86.606268
_cell_angle_gamma 46.831904
_cell_volume 755.563754
_symmetry_space_group_name_H-M "P -1"
_symmetry_group_IT_number 2
_symmetry_cell_setting 'triclinic'
loop_
_space_group_symop_operation_xyz
x,y,z
-x,-y,-z
loop_
_atom_site_type_symbol
_atom_site_label
_atom_site_fract_x
_atom_site_fract_y
_atom_site_fract_z
Si Si1 0.523833 0.364594 0.941058
Si Si2 0.280043 0.244421 0.477238
Si Si3 0.156326 0.620665 0.853784
Si Si4 0.086229 0.544584 0.519803
Si Si5 0.097843 0.076045 0.524900
Si Si6 0.539701 0.963973 0.716421
Si Si7 0.306382 0.856314 0.566658
Si Si8 0.883705 0.340259 0.879634
O O1 0.400581 0.491181 0.902097
O O2 0.319953 0.420080 0.771776
O O3 0.741657 0.315022 0.904367
O O4 0.638209 0.230732 0.188153
O O5 0.448616 0.248036 0.417857
O O6 0.069625 0.331474 0.255097
O O7 0.158669 0.310246 0.560002
O O8 0.466541 0.076652 0.682745
O O9 0.075224 0.758540 0.695255
O O10 0.209457 0.566412 0.086115
O O11 0.178894 0.574085 0.365786
O O12 0.000000 0.500000 0.500000
O O13 0.918485 0.084181 0.588021
O O14 0.332659 0.985190 0.734579
O O15 0.210319 0.992720 0.464484
O O16 0.500000 0.000000 0.500000
O O17 0.816009 0.807052 0.939931
#
# Coordination Sequence:
#
# PCOD8001895 Si02
#       8
#     2   2   2   2   2   2   2   2
#     4  11  25  40  65  94 123 167 216 256 310 373
#     4  10  22  40  63  95 125 161 207 260 312 375
#     4  10  20  39  64  96 120 161 213 257 312 373
#     4  11  29  43  58  87 133 173 210 252 311 375
#     4  10  20  34  59 104 124 150 192 273 321 356
#     4  11  18  38  67  96 121 159 210 259 314 376
#     4  11  20  34  64  99 127 150 203 268 314 358
#     4  12  22  41  66  90 126 170 202 257 313 378
#
# _framework density 21.176238999999999
#
# number of rings (size 3 to 8) (size 9 to 14) (size 15 to 20)
#    0.000    1.250    5.000    0.750    7.000    1.500 
#    0.000    1.250    0.000    1.500    0.000    0.000 
#    0.000    0.000    0.000    0.000    0.000    0.000 
#
# Total GULP energy -198322.671785 kJ/mol
# GULP energy per Si atom -12395.166987 kJ/mol
# Density = 2.112804 g / cm^3
# Si number density = 21.176239 Si / 1000 Ang^3
#
#
#
# Elastic Constant Matrix: (Units=GPa)
#
#
# Indices 1 2 3 4 5 6 
#
# 1 145.5364 48.9538 27.4894 4.9335 2.1376 -13.5794
# 2 48.9538 100.7488 26.6832 2.3543 0.9953 2.8779
# 3 27.4894 26.6832 58.1684 -0.2048 3.0793 -1.8934
# 4 4.9335 2.3543 -0.2048 30.6274 -5.6197 1.6448
# 5 2.1376 0.9953 3.0793 -5.6197 25.7394 0.2852
# 6 -13.5794 2.8779 -1.8934 1.6448 0.2852 37.2604
#
#
#
# Elastic Compliance Matrix: (Units=1/GPa)
#
#
# Indices 1 2 3 4 5 6 
#
# 1 0.008983 -0.003800 -0.002357 -0.001484 -0.000680 0.003518
# 2 -0.003800 0.012976 -0.004258 -0.000219 0.000304 -0.002596
# 3 -0.002357 -0.004258 0.020382 0.000452 -0.001985 0.000501
# 4 -0.001484 -0.000219 0.000452 0.034418 0.007615 -0.002079
# 5 -0.000680 0.000304 -0.001985 0.007615 0.040807 -0.001021
# 6 0.003518 -0.002596 0.000501 -0.002079 -0.001021 0.028446
#
#
# Mechanical properties :
#
#
# Convention : Reuss Voigt Hill
#
# Bulk Modulus (GPa) = 46.48752 56.74513 51.61633
# Shear Modulus (GPa) = 28.73372 32.14725 30.44048
#
# Velocity S-wave (km/s) = 3.68759 3.90048 3.79553
# Velocity P-wave (km/s) = 6.33494 6.86584 6.60573
#
# Compressibility (1/GPa) = 0.02151115
#
# Stress axis : x y z
#
# Youngs Moduli (GPa) = 111.32138 77.06559 49.06402
#
# Poissons Ratio (x) = 0.29283 0.11564
# Poissons Ratio (y) = 0.42299 0.20892
# Poissons Ratio (z) = 0.26237 0.32815
#
# Static dielectric constant tensor:
#      x y z
#    x 4.353620 -0.150930 0.276990 
#    y -0.150930 4.038590 -0.117890 
#    z 0.276990 -0.117890 3.619130 
# 
# 
# High freq. dielectric constant tensor:
#      x y z
#    x 1.860820 -0.007700 0.018880 
#    y -0.007700 1.824170 -0.023130 
#    z 0.018880 -0.023130 1.788900 
# 
# From -- ./inp_files/214758.got.cif
#   From: 2010.06.25/outbox.cif.g09.slc.cpg/sg2_108_cif.got.tgz:214758.got - 2010.06.27 13:26:56.
