data_PCOD8001813
_publ_section_title
;
Structure prediction by ZEFSAII (Michael W. Deem and Ramdas Pophale) SiO2 
 PCOD8001813
Probable space group: P -1
;
_chemical_formula_sum "Si O2"
_cell_formula_units_Z 12
_cell_length_a 15.141572
_cell_length_b 13.586653
_cell_length_c 7.072335
_cell_angle_alpha 50.232541
_cell_angle_beta 130.195141
_cell_angle_gamma 140.285743
_cell_volume 678.856510
_symmetry_space_group_name_H-M "P -1"
_symmetry_group_IT_number 2
_symmetry_cell_setting 'triclinic'
loop_
_space_group_symop_operation_xyz
x,y,z
-x,-y,-z
loop_
_atom_site_type_symbol
_atom_site_label
_atom_site_fract_x
_atom_site_fract_y
_atom_site_fract_z
Si Si1 0.080911 0.241775 0.327779
Si Si2 0.065095 0.014261 0.870544
Si Si3 0.456034 0.917353 0.838185
Si Si4 0.793940 0.420245 0.960595
Si Si5 0.699787 0.039801 0.737488
Si Si6 0.107002 0.664942 0.135272
O O1 0.109915 0.177221 0.632317
O O2 0.217326 0.431639 0.251544
O O3 0.058310 0.138396 0.238274
O O4 0.935330 0.231939 0.165275
O O5 0.210146 0.028839 0.081057
O O6 0.000000 0.000000 0.000000
O O7 0.338605 0.724027 0.925633
O O8 0.594685 0.951442 0.881625
O O9 0.390684 0.992391 0.537323
O O10 0.500000 0.000000 0.000000
O O11 0.952707 0.491714 0.186394
O O12 0.791110 0.356747 0.824502
O O13 0.804615 0.233355 0.681668
#
# Coordination Sequence:
#
# PCOD8001813 Si02
#       6
#     2   2   2   2   2   2
#     4   8  18  35  52  83 111 132 183 228 264 325
#     4  10  20  34  57  80 110 147 179 226 269 315
#     4  11  22  36  56  79 117 149 172 225 285 321
#     4   9  17  33  58  82 110 145 169 230 284 306
#     4  10  22  36  53  87 108 141 194 216 265 346
#     4   8  16  33  56  86 106 133 181 233 268 321
#
# _framework density 17.676784000000001
#
# number of rings (size 3 to 8) (size 9 to 14) (size 15 to 20)
#    1.000    1.667    1.667    0.000    2.333    2.000 
#    3.000    0.833    0.000    2.000    0.000    0.000 
#    0.000    0.000    0.000    0.000    0.000    0.000 
#
# Total GULP energy -148674.473700 kJ/mol
# GULP energy per Si atom -12389.539475 kJ/mol
# Density = 1.763655 g / cm^3
# Si number density = 17.676784 Si / 1000 Ang^3
#
#
#
# Elastic Constant Matrix: (Units=GPa)
#
#
# Indices 1 2 3 4 5 6 
#
# 1 110.7764 46.3199 55.3013 -1.8042 -8.9651 0.9664
# 2 46.3199 86.0009 40.9508 -10.7755 -10.8848 2.6748
# 3 55.3013 40.9508 98.1080 1.4234 -8.3234 -5.7409
# 4 -1.8042 -10.7755 1.4234 29.5540 0.4368 -1.1071
# 5 -8.9651 -10.8848 -8.3234 0.4368 24.9322 -1.7880
# 6 0.9664 2.6748 -5.7409 -1.1071 -1.7880 26.9321
#
#
#
# Elastic Compliance Matrix: (Units=1/GPa)
#
#
# Indices 1 2 3 4 5 6 
#
# 1 0.014012 -0.004629 -0.005951 -0.000608 0.000950 -0.001273
# 2 -0.004629 0.017715 -0.004633 0.006260 0.004267 -0.002040
# 3 -0.005951 -0.004633 0.015882 -0.002688 0.001477 0.004047
# 4 -0.000608 0.006260 -0.002688 0.036211 0.001010 0.000383
# 5 0.000950 0.004267 0.001477 0.001010 0.042986 0.002752
# 6 -0.001273 -0.002040 0.004047 0.000383 0.002752 0.038440
#
#
# Mechanical properties :
#
#
# Convention : Reuss Voigt Hill
#
# Bulk Modulus (GPa) = 58.19949 64.44769 61.32359
# Shear Modulus (GPa) = 24.82625 26.43788 25.63206
#
# Velocity S-wave (km/s) = 3.75167 3.87153 3.81207
# Velocity P-wave (km/s) = 7.19461 7.51818 7.35818
#
# Compressibility (1/GPa) = 0.01718228
#
# Stress axis : x y z
#
# Youngs Moduli (GPa) = 71.36845 56.44880 62.96338
#
# Poissons Ratio (x) = 0.26132 0.37469
# Poissons Ratio (y) = 0.33039 0.29172
# Poissons Ratio (z) = 0.42471 0.26154
#
# Static dielectric constant tensor:
#      x y z
#    x 3.119210 0.024430 0.048610 
#    y 0.024430 3.443650 0.021280 
#    z 0.048610 0.021280 3.080630 
# 
# 
# High freq. dielectric constant tensor:
#      x y z
#    x 1.663510 -0.005460 -0.004150 
#    y -0.005460 1.686660 0.004740 
#    z -0.004150 0.004740 1.664120 
# 
# From -- ./inp_files/93261.got.cif
#   From: 2010.06.25/outbox.cif.g09.slc.cpg/sg2_47_cif.got.tgz:93261.got - 2010.06.27 13:26:56.
