data_PCOD8001187
_publ_section_title
;
Structure prediction by ZEFSAII (Michael W. Deem and Ramdas Pophale) SiO2 
 PCOD8001187
Probable space group: P -1
;
_chemical_formula_sum "Si O2"
_cell_formula_units_Z 16
_cell_length_a 16.688286
_cell_length_b 20.274966
_cell_length_c 6.641536
_cell_angle_alpha 64.742114
_cell_angle_beta 61.250780
_cell_angle_gamma 19.857480
_cell_volume 666.743416
_symmetry_space_group_name_H-M "P -1"
_symmetry_group_IT_number 2
_symmetry_cell_setting 'triclinic'
loop_
_space_group_symop_operation_xyz
x,y,z
-x,-y,-z
loop_
_atom_site_type_symbol
_atom_site_label
_atom_site_fract_x
_atom_site_fract_y
_atom_site_fract_z
Si Si1 0.827653 0.050267 0.804045
Si Si2 0.913028 0.005982 0.309294
Si Si3 0.604317 0.531997 0.289272
Si Si4 0.822408 0.572234 0.028725
Si Si5 0.392529 0.926623 0.805667
Si Si6 0.024111 0.663103 0.141062
Si Si7 0.649872 0.399760 0.750971
Si Si8 0.401706 0.324021 0.438492
O O1 0.962626 0.949618 0.558520
O O2 0.546635 0.281942 0.802783
O O3 0.978394 0.991724 0.854113
O O4 0.808440 0.985446 0.008379
O O5 0.633399 0.207678 0.315773
O O6 0.070647 0.827444 0.237760
O O7 0.635783 0.490366 0.545052
O O8 0.447925 0.584281 0.314035
O O9 0.863520 0.352347 0.101546
O O10 0.697019 0.617718 0.296215
O O11 0.986972 0.399001 0.910877
O O12 0.000000 0.500000 0.000000
O O13 0.611174 0.770807 0.904704
O O14 0.243531 0.113753 0.744182
O O15 0.512516 0.815571 0.589798
O O16 0.191993 0.520656 0.314362
O O17 0.500000 0.500000 0.000000
#
# Coordination Sequence:
#
# PCOD8001187 Si02
#       8
#     2   2   2   2   2   2   2   2
#     4  10  19  42  64  94 140 191 231 285 335 399
#     4  10  21  39  64  92 138 192 237 278 333 403
#     4  10  20  40  59  89 139 182 223 284 338 385
#     4  11  26  51  78 103 138 180 228 291 365 432
#     4  11  24  45  71 107 143 184 229 291 349 416
#     4  11  25  45  72 105 147 176 229 295 353 418
#     4  10  23  37  57  95 134 184 239 277 321 396
#     4  11  24  46  71 108 138 186 235 290 346 422
#
# _framework density 23.997239
#
# number of rings (size 3 to 8) (size 9 to 14) (size 15 to 20)
#    0.000    1.500    3.750    0.750    1.750    7.000 
#    0.000    1.875    0.000    0.000    0.000    0.000 
#    0.000    0.000    0.000    0.000    0.000    0.000 
#
# Total GULP energy -198370.477709 kJ/mol
# GULP energy per Si atom -12398.154857 kJ/mol
# Density = 2.394262 g / cm^3
# Si number density = 23.997239 Si / 1000 Ang^3
#
#
#
# Elastic Constant Matrix: (Units=GPa)
#
#
# Indices 1 2 3 4 5 6 
#
# 1 90.6914 47.4948 4.2896 -13.5523 15.1335 -18.3575
# 2 47.4948 151.2584 40.0562 -5.5608 21.5641 15.2689
# 3 4.2896 40.0562 59.2196 -6.4255 22.3381 5.9415
# 4 -13.5523 -5.5608 -6.4255 26.9127 -1.5784 4.0126
# 5 15.1335 21.5641 22.3381 -1.5784 29.9453 3.2111
# 6 -18.3575 15.2689 5.9415 4.0126 3.2111 34.1407
#
#
#
# Elastic Compliance Matrix: (Units=1/GPa)
#
#
# Indices 1 2 3 4 5 6 
#
# 1 0.020666 -0.007968 0.007741 0.007924 -0.011508 0.013479
# 2 -0.007968 0.011525 -0.007383 -0.002069 0.001994 -0.008098
# 3 0.007741 -0.007383 0.029605 0.007732 -0.020631 0.003344
# 4 0.007924 -0.002069 0.007732 0.042299 -0.005992 -0.000568
# 5 -0.011508 0.001994 -0.020631 -0.005992 0.053689 -0.007835
# 6 0.013479 -0.008098 0.003344 -0.000568 -0.007835 0.040382
#
#
# Mechanical properties :
#
#
# Convention : Reuss Voigt Hill
#
# Bulk Modulus (GPa) = 21.46975 53.87229 37.67102
# Shear Modulus (GPa) = 21.84261 32.15500 26.99881
#
# Velocity S-wave (km/s) = 3.02025 3.66450 3.35786
# Velocity P-wave (km/s) = 4.59660 6.35632 5.54669
#
# Compressibility (1/GPa) = 0.04657717
#
# Stress axis : x y z
#
# Youngs Moduli (GPa) = 48.38901 86.76576 33.77831
#
# Poissons Ratio (x) = 0.69132 -0.26147
# Poissons Ratio (y) = 0.38555 0.24937
# Poissons Ratio (z) = -0.37457 0.64055
#
# Static dielectric constant tensor:
#      x y z
#    x 4.018990 0.151450 0.164140 
#    y 0.151450 4.460310 0.088620 
#    z 0.164140 0.088620 4.330250 
# 
# 
# High freq. dielectric constant tensor:
#      x y z
#    x 1.929290 0.005170 0.026190 
#    y 0.005170 1.955010 0.002620 
#    z 0.026190 0.002620 1.957330 
# 
# From -- ./inp_files/112345.got.cif
#   From: 2010.06.25/outbox.cif.g09.slc.cpg/sg2_57_cif.got.tgz:112345.got - 2010.06.27 13:26:56.
