data_PCOD8001746
_publ_section_title
;
Structure prediction by ZEFSAII (Michael W. Deem and Ramdas Pophale) SiO2 
 PCOD8001746
Probable space group: P -1
;
_chemical_formula_sum "Si O2"
_cell_formula_units_Z 12
_cell_length_a 10.099156
_cell_length_b 12.539013
_cell_length_c 9.229734
_cell_angle_alpha 68.647477
_cell_angle_beta 116.084147
_cell_angle_gamma 61.342633
_cell_volume 630.020704
_symmetry_space_group_name_H-M "P -1"
_symmetry_group_IT_number 2
_symmetry_cell_setting 'triclinic'
loop_
_space_group_symop_operation_xyz
x,y,z
-x,-y,-z
loop_
_atom_site_type_symbol
_atom_site_label
_atom_site_fract_x
_atom_site_fract_y
_atom_site_fract_z
Si Si1 0.479796 0.336535 0.663608
Si Si2 0.173921 0.649792 0.866769
Si Si3 0.642383 0.026993 0.728797
Si Si4 0.467931 0.695686 0.959967
Si Si5 0.840763 0.313094 0.825959
Si Si6 0.332710 0.995893 0.579323
O O1 0.495011 0.205391 0.658576
O O2 0.458707 0.330553 0.826876
O O3 0.702828 0.277151 0.756443
O O4 0.250897 0.537114 0.402951
O O5 0.306602 0.468018 0.942745
O O6 0.912871 0.799759 0.614563
O O7 0.279387 0.709091 0.843563
O O8 0.192119 0.618466 0.062390
O O9 0.650158 0.061180 0.548188
O O10 0.529420 0.970178 0.719381
O O11 0.896636 0.868363 0.995308
O O12 0.357235 0.877389 0.759896
#
# Coordination Sequence:
#
# PCOD8001746 Si02
#       6
#     2   2   2   2   2   2
#     4  10  20  34  55  80 104 133 170 215 260 300
#     4   9  19  36  56  77 102 135 174 212 253 304
#     4  10  21  36  54  76 104 139 174 209 253 306
#     4  10  20  34  55  80 104 133 170 215 260 300
#     4   9  19  36  56  77 102 135 174 212 253 304
#     4  10  21  36  54  76 104 139 174 209 253 306
#
# _framework density 19.046993000000001
#
# number of rings (size 3 to 8) (size 9 to 14) (size 15 to 20)
#    0.000    2.333    0.000    2.000    0.000    4.667 
#    0.000    6.667    0.000    0.000    0.000    0.000 
#    0.000    0.000    0.000    0.000    0.000    0.000 
#
# Total GULP energy -148867.952940 kJ/mol
# GULP energy per Si atom -12405.662745 kJ/mol
# Density = 1.900364 g / cm^3
# Si number density = 19.046993 Si / 1000 Ang^3
#
#
#
# Elastic Constant Matrix: (Units=GPa)
#
#
# Indices 1 2 3 4 5 6 
#
# 1 44.2894 -0.4588 34.7340 -1.7891 -4.2486 -1.0916
# 2 -0.4588 69.7912 20.8483 6.4277 -1.8989 -0.8698
# 3 34.7340 20.8483 110.4806 -8.3009 -11.9523 10.6012
# 4 -1.7891 6.4277 -8.3009 18.1319 -2.9651 0.0973
# 5 -4.2486 -1.8989 -11.9523 -2.9651 22.3804 -0.2557
# 6 -1.0916 -0.8698 10.6012 0.0973 -0.2557 20.6134
#
#
#
# Elastic Compliance Matrix: (Units=1/GPa)
#
#
# Indices 1 2 3 4 5 6 
#
# 1 0.032017 0.004240 -0.011975 -0.003933 -0.000387 0.008047
# 2 0.004240 0.016850 -0.005733 -0.008513 -0.001911 0.003900
# 3 -0.011975 -0.005733 0.016260 0.009501 0.007078 -0.009195
# 4 -0.003933 -0.008513 0.009501 0.064130 0.012038 -0.005607
# 5 -0.000387 -0.001911 0.007078 0.012038 0.049785 -0.003180
# 6 0.008047 0.003900 -0.009195 -0.005607 -0.003180 0.053819
#
#
# Mechanical properties :
#
#
# Convention : Reuss Voigt Hill
#
# Bulk Modulus (GPa) = 26.18555 37.20092 31.69324
# Shear Modulus (GPa) = 18.34685 23.52098 20.93392
#
# Velocity S-wave (km/s) = 3.10698 3.51792 3.31881
# Velocity P-wave (km/s) = 5.16225 6.00620 5.60015
#
# Compressibility (1/GPa) = 0.03818900
#
# Stress axis : x y z
#
# Youngs Moduli (GPa) = 31.23380 59.34872 61.50050
#
# Poissons Ratio (x) = -0.25162 0.73648
# Poissons Ratio (y) = -0.13242 0.35259
# Poissons Ratio (z) = 0.37403 0.34025
#
# Static dielectric constant tensor:
#      x y z
#    x 3.379900 -0.089430 0.037770 
#    y -0.089430 3.327070 0.012740 
#    z 0.037770 0.012740 3.535560 
# 
# 
# High freq. dielectric constant tensor:
#      x y z
#    x 1.730860 -0.003230 -0.000160 
#    y -0.003230 1.736700 -0.003780 
#    z -0.000160 -0.003780 1.748360 
# 
# From -- ./inp_files/186115.got.cif
#   From: 2010.06.25/outbox.cif.g09.slc.cpg/sg2_94_cif.got.tgz:186115.got - 2010.06.27 13:26:56.
