data_PCOD8001917
_publ_section_title
;
Structure prediction by ZEFSAII (Michael W. Deem and Ramdas Pophale) SiO2 
 PCOD8001917
Probable space group: P -1
;
_chemical_formula_sum "Si O2"
_cell_formula_units_Z 16
_cell_length_a 5.244402
_cell_length_b 21.673062
_cell_length_c 15.822438
_cell_angle_alpha 151.884846
_cell_angle_beta 99.682919
_cell_angle_gamma 73.116825
_cell_volume 795.389277
_symmetry_space_group_name_H-M "P -1"
_symmetry_group_IT_number 2
_symmetry_cell_setting 'triclinic'
loop_
_space_group_symop_operation_xyz
x,y,z
-x,-y,-z
loop_
_atom_site_type_symbol
_atom_site_label
_atom_site_fract_x
_atom_site_fract_y
_atom_site_fract_z
Si Si1 0.642534 0.323727 0.704762
Si Si2 0.365846 0.881598 0.840037
Si Si3 0.792969 0.753498 0.107418
Si Si4 0.050998 0.443203 0.786343
Si Si5 0.177321 0.966589 0.100517
Si Si6 0.191904 0.879719 0.179775
Si Si7 0.047987 0.109968 0.572642
Si Si8 0.622405 0.782941 0.577620
O O1 0.336352 0.421492 0.827159
O O2 0.833815 0.417342 0.807640
O O3 0.765943 0.224818 0.670930
O O4 0.629246 0.228518 0.507923
O O5 0.565397 0.759992 0.646830
O O6 0.092882 0.932083 0.831711
O O7 0.500000 0.000000 0.000000
O O8 0.309570 0.846759 0.892157
O O9 0.492920 0.775110 0.081314
O O10 0.766763 0.813619 0.274591
O O11 0.965267 0.825255 0.145253
O O12 0.947835 0.592739 0.921505
O O13 0.105358 0.334969 0.579996
O O14 0.366356 0.062158 0.248401
O O15 0.123134 0.892606 0.092387
O O16 0.191046 0.028421 0.398311
O O17 0.000000 0.000000 0.500000
#
# Coordination Sequence:
#
# PCOD8001917 Si02
#       8
#     2   2   2   2   2   2   2   2
#     4  10  22  37  62  87 115 161 194 249 290 343
#     4   9  18  32  56  93 120 147 184 240 299 350
#     4  11  25  41  58  85 116 167 199 248 284 348
#     4  10  22  39  60  83 117 159 209 239 287 341
#     4  10  20  34  59  91 120 149 189 239 306 352
#     4  11  24  39  62  83 125 154 197 240 304 355
#     4  10  23  39  60  89 122 153 199 244 307 346
#     4   9  19  33  60  85 120 149 191 241 293 341
#
# _framework density 20.115938
#
# number of rings (size 3 to 8) (size 9 to 14) (size 15 to 20)
#    0.750    1.250    0.000    3.375    7.000    3.000 
#    0.000    0.000    0.000    1.500    0.000    0.000 
#    0.000    0.000    0.000    0.000    0.000    0.000 
#
# Total GULP energy -198233.099637 kJ/mol
# GULP energy per Si atom -12389.568727 kJ/mol
# Density = 2.007015 g / cm^3
# Si number density = 20.115938 Si / 1000 Ang^3
#
#
#
# Elastic Constant Matrix: (Units=GPa)
#
#
# Indices 1 2 3 4 5 6 
#
# 1 93.3780 22.9917 1.2840 1.5716 -6.7560 3.3252
# 2 22.9917 108.1274 31.6331 -7.8113 -3.0950 3.4638
# 3 1.2840 31.6331 45.9834 5.6835 -6.4062 5.8518
# 4 1.5716 -7.8113 5.6835 26.6158 -2.6664 -4.5049
# 5 -6.7560 -3.0950 -6.4062 -2.6664 23.6075 0.8335
# 6 3.3252 3.4638 5.8518 -4.5049 0.8335 24.2709
#
#
#
# Elastic Compliance Matrix: (Units=1/GPa)
#
#
# Indices 1 2 3 4 5 6 
#
# 1 0.011907 -0.003452 0.003165 -0.002449 0.003625 -0.002481
# 2 -0.003452 0.013397 -0.010433 0.006622 -0.001398 0.002353
# 3 0.003165 -0.010433 0.032370 -0.010949 0.007405 -0.009036
# 4 -0.002449 0.006622 -0.010949 0.043890 0.001796 0.010115
# 5 0.003625 -0.001398 0.007405 0.001796 0.045543 -0.003313
# 6 -0.002481 0.002353 -0.009036 0.010115 -0.003313 0.045375
#
#
# Mechanical properties :
#
#
# Convention : Reuss Voigt Hill
#
# Bulk Modulus (GPa) = 27.59602 39.92294 33.75948
# Shear Modulus (GPa) = 22.12394 27.67083 24.89739
#
# Velocity S-wave (km/s) = 3.31995 3.71289 3.52190
# Velocity P-wave (km/s) = 5.33333 6.18629 5.77558
#
# Compressibility (1/GPa) = 0.03623711
#
# Stress axis : x y z
#
# Youngs Moduli (GPa) = 83.98173 74.64139 30.89266
#
# Poissons Ratio (x) = 0.25764 -0.09779
# Poissons Ratio (y) = 0.28987 0.32229
# Poissons Ratio (z) = -0.26584 0.77871
#
# Static dielectric constant tensor:
#      x y z
#    x 3.534280 0.024030 -0.114760 
#    y 0.024030 3.711930 -0.494320 
#    z -0.114760 -0.494320 3.851390 
# 
# 
# High freq. dielectric constant tensor:
#      x y z
#    x 1.791770 -0.002170 -0.006670 
#    y -0.002170 1.768480 -0.026030 
#    z -0.006670 -0.026030 1.769240 
# 
# From -- ./inp_files/485257.got.cif
#   From: 2010.06.25/outbox.cif.g09.slc.cpg/sg2_243_cif.got.tgz:485257.got - 2010.06.27 13:26:56.
