data_PCOD8001576
_publ_section_title
;
Structure prediction by ZEFSAII (Michael W. Deem and Ramdas Pophale) SiO2 
 PCOD8001576
Probable space group: P -1
;
_chemical_formula_sum "Si O2"
_cell_formula_units_Z 16
_cell_length_a 26.289947
_cell_length_b 23.493469
_cell_length_c 12.149807
_cell_angle_alpha 33.148831
_cell_angle_beta 146.742121
_cell_angle_gamma 170.204472
_cell_volume 693.082572
_symmetry_space_group_name_H-M "P -1"
_symmetry_group_IT_number 2
_symmetry_cell_setting 'triclinic'
loop_
_space_group_symop_operation_xyz
x,y,z
-x,-y,-z
loop_
_atom_site_type_symbol
_atom_site_label
_atom_site_fract_x
_atom_site_fract_y
_atom_site_fract_z
Si Si1 0.317073 0.887045 0.920749
Si Si2 0.009635 0.826803 0.694394
Si Si3 0.448964 0.747463 0.046503
Si Si4 0.146052 0.391196 0.872502
Si Si5 0.882469 0.865353 0.715117
Si Si6 0.502327 0.269445 0.499318
Si Si7 0.415203 0.397911 0.180793
Si Si8 0.555408 0.344053 0.233687
O O1 0.490942 0.095787 0.011865
O O2 0.283589 0.955167 0.675157
O O3 0.000000 0.500000 0.000000
O O4 0.500000 0.000000 0.000000
O O5 0.808805 0.603602 0.801338
O O6 0.804887 0.604698 0.574008
O O7 0.241130 0.980465 0.855552
O O8 0.164009 0.107551 0.519000
O O9 0.317333 0.651585 0.846964
O O10 0.257261 0.520816 0.737733
O O11 0.268049 0.409635 0.113178
O O12 0.792163 0.030321 0.825455
O O13 0.737140 0.775926 0.695611
O O14 0.229584 0.212202 0.800529
O O15 0.333061 0.201490 0.287869
O O16 0.588765 0.323287 0.445685
O O17 0.309824 0.393043 0.938444
#
# Coordination Sequence:
#
# PCOD8001576 Si02
#       8
#     2   2   2   2   2   2   2   2
#     4  11  24  41  63  88 110 141 190 249 300 335
#     4  10  20  33  56  85 112 152 194 236 283 327
#     4  11  22  39  59  80 113 150 189 236 290 344
#     4  10  22  36  54  82 117 159 189 220 278 344
#     4   9  17  31  48  78 117 150 193 228 266 333
#     4  10  21  38  62  87 118 149 192 243 291 333
#     4   9  18  32  53  83 119 155 187 227 275 331
#     4  10  21  36  58  88 122 156 190 225 271 343
#
# _framework density 23.085272
#
# number of rings (size 3 to 8) (size 9 to 14) (size 15 to 20)
#    0.000    2.000    0.000    4.875    0.000    7.000 
#    0.000    7.500    0.000    4.500    0.000    0.000 
#    0.000    0.000    0.000    0.000    0.000    0.000 
#
# Total GULP energy -198281.094316 kJ/mol
# GULP energy per Si atom -12392.568395 kJ/mol
# Density = 2.303273 g / cm^3
# Si number density = 23.085272 Si / 1000 Ang^3
#
#
#
# Elastic Constant Matrix: (Units=GPa)
#
#
# Indices 1 2 3 4 5 6 
#
# 1 95.1866 29.7531 23.1336 -15.1840 -26.9343 1.8908
# 2 29.7531 59.4479 22.3174 -27.3208 -6.3069 16.3872
# 3 23.1336 22.3174 53.5338 -13.4334 -16.9979 -9.5627
# 4 -15.1840 -27.3208 -13.4334 26.5020 5.1405 -2.4996
# 5 -26.9343 -6.3069 -16.9979 5.1405 33.7521 1.3501
# 6 1.8908 16.3872 -9.5627 -2.4996 1.3501 43.3071
#
#
#
# Elastic Compliance Matrix: (Units=1/GPa)
#
#
# Indices 1 2 3 4 5 6 
#
# 1 0.015938 -0.007619 0.000028 -0.000741 0.011350 0.001797
# 2 -0.007619 0.046294 -0.012632 0.036991 -0.008722 -0.017567
# 3 0.000028 -0.012632 0.030006 0.000882 0.012196 0.011075
# 4 -0.000741 0.036991 0.000882 0.075875 -0.004420 -0.009253
# 5 0.011350 -0.008722 0.012196 -0.004420 0.043715 0.003880
# 6 0.001797 -0.017567 0.011075 -0.009253 0.003880 0.031450
#
#
# Mechanical properties :
#
#
# Convention : Reuss Voigt Hill
#
# Bulk Modulus (GPa) = 19.30795 39.84183 29.57489
# Shear Modulus (GPa) = 16.61191 29.57652 23.09421
#
# Velocity S-wave (km/s) = 2.68543 3.58325 3.16632
# Velocity P-wave (km/s) = 4.24232 5.86648 5.11922
#
# Compressibility (1/GPa) = 0.05179213
#
# Stress axis : x y z
#
# Youngs Moduli (GPa) = 62.74241 21.60092 33.32674
#
# Poissons Ratio (x) = 0.16457 -0.00092
# Poissons Ratio (y) = 0.47802 0.42099
# Poissons Ratio (z) = -0.00173 0.27286
#
# Static dielectric constant tensor:
#      x y z
#    x 4.289110 0.071670 -0.073160 
#    y 0.071670 4.062500 -0.268530 
#    z -0.073160 -0.268530 4.093510 
# 
# 
# High freq. dielectric constant tensor:
#      x y z
#    x 1.914110 0.020450 -0.023590 
#    y 0.020450 1.914220 -0.002800 
#    z -0.023590 -0.002800 1.874960 
# 
# From -- ./inp_files/123344.got.cif
#   From: 2010.06.25/outbox.cif.g09.slc.cpg/sg2_62_cif.got.tgz:123344.got - 2010.06.27 13:26:56.
