data_PCOD8001653
_publ_section_title
;
Structure prediction by ZEFSAII (Michael W. Deem and Ramdas Pophale) SiO2 
 PCOD8001653
Probable space group: P -1
;
_chemical_formula_sum "Si O2"
_cell_formula_units_Z 14
_cell_length_a 5.069471
_cell_length_b 16.722760
_cell_length_c 14.227724
_cell_angle_alpha 54.703605
_cell_angle_beta 67.692021
_cell_angle_gamma 64.994289
_cell_volume 877.101239
_symmetry_space_group_name_H-M "P -1"
_symmetry_group_IT_number 2
_symmetry_cell_setting 'triclinic'
loop_
_space_group_symop_operation_xyz
x,y,z
-x,-y,-z
loop_
_atom_site_type_symbol
_atom_site_label
_atom_site_fract_x
_atom_site_fract_y
_atom_site_fract_z
Si Si1 0.422550 0.712515 0.840309
Si Si2 0.908481 0.609587 0.985075
Si Si3 0.090166 0.495881 0.383394
Si Si4 0.125040 0.330522 0.354971
Si Si5 0.302072 0.467423 0.752759
Si Si6 0.061180 0.120785 0.470917
Si Si7 0.275839 0.910960 0.641024
O O1 0.675844 0.692404 0.898610
O O2 0.576922 0.690443 0.732333
O O3 0.231843 0.831783 0.781451
O O4 0.208977 0.641907 0.936991
O O5 0.758480 0.606294 0.108480
O O6 0.000000 0.500000 0.000000
O O7 0.648396 0.452027 0.705004
O O8 0.818449 0.560657 0.312535
O O9 0.000000 0.500000 0.500000
O O10 0.182200 0.377603 0.416164
O O11 0.013293 0.229383 0.455306
O O12 0.868303 0.415247 0.277383
O O13 0.379785 0.091257 0.396921
O O14 0.804980 0.127171 0.424614
O O15 0.072315 0.027119 0.606164
#
# Coordination Sequence:
#
# PCOD8001653 Si02
#       7
#     2   2   2   2   2   2   2
#     4  11  20  29  45  65  97 126 157 178 212 264
#     4  12  20  30  43  66  93 127 156 181 211 263
#     4  10  20  34  48  65  91 119 149 194 236 267
#     4   9  20  28  49  66  94 122 154 183 224 270
#     4  10  21  31  46  67  91 122 152 185 224 267
#     4   9  17  29  44  62  90 120 156 184 224 262
#     4   9  18  29  42  63  89 126 153 186 216 258
#
# _framework density 15.961669000000001
#
# number of rings (size 3 to 8) (size 9 to 14) (size 15 to 20)
#    0.857    1.143    1.429    4.286    4.000    0.000 
#    0.000    0.000    0.000    0.000    0.000    0.000 
#    0.000    6.857    0.000    0.000    0.000    0.000 
#
# Total GULP energy -173451.035885 kJ/mol
# GULP energy per Si atom -12389.359706 kJ/mol
# Density = 1.592534 g / cm^3
# Si number density = 15.961669 Si / 1000 Ang^3
#
#
#
# Elastic Constant Matrix: (Units=GPa)
#
#
# Indices 1 2 3 4 5 6 
#
# 1 79.1764 15.3304 19.3009 0.2686 1.4963 11.8119
# 2 15.3304 47.4231 45.9864 -3.6537 0.8445 7.2633
# 3 19.3009 45.9864 92.8650 -3.5444 6.9449 6.1956
# 4 0.2686 -3.6537 -3.5444 27.3763 -2.0307 6.3305
# 5 1.4963 0.8445 6.9449 -2.0307 31.0041 -5.2150
# 6 11.8119 7.2633 6.1956 6.3305 -5.2150 15.6530
#
#
#
# Elastic Compliance Matrix: (Units=1/GPa)
#
#
# Indices 1 2 3 4 5 6 
#
# 1 0.015030 -0.001623 -0.001304 0.001989 -0.002212 -0.011614
# 2 -0.001623 0.043838 -0.020380 0.006375 0.001668 -0.013073
# 3 -0.001304 -0.020380 0.021365 -0.000428 -0.004060 0.000805
# 4 0.001989 0.006375 -0.000428 0.042250 -0.001061 -0.021730
# 5 -0.002212 0.001668 -0.004060 -0.001061 0.035646 0.014808
# 6 -0.011614 -0.013073 0.000805 -0.021730 0.014808 0.092119
#
#
# Mechanical properties :
#
#
# Convention : Reuss Voigt Hill
#
# Bulk Modulus (GPa) = 29.74532 42.29999 36.02265
# Shear Modulus (GPa) = 16.23018 24.06313 20.14665
#
# Velocity S-wave (km/s) = 3.19222 3.88694 3.55659
# Velocity P-wave (km/s) = 5.68005 6.83395 6.28355
#
# Compressibility (1/GPa) = 0.03361873
#
# Stress axis : x y z
#
# Youngs Moduli (GPa) = 66.53453 22.81121 46.80497
#
# Poissons Ratio (x) = 0.03702 0.06103
# Poissons Ratio (y) = 0.10797 0.95391
# Poissons Ratio (z) = 0.08676 0.46490
#
# Static dielectric constant tensor:
#      x y z
#    x 3.143430 0.064950 0.042550 
#    y 0.064950 2.900880 -0.408410 
#    z 0.042550 -0.408410 3.100730 
# 
# 
# High freq. dielectric constant tensor:
#      x y z
#    x 1.635550 0.009810 0.007290 
#    y 0.009810 1.564660 -0.034420 
#    z 0.007290 -0.034420 1.594590 
# 
# From -- ./inp_files/368298.got.cif
#   From: 2010.06.25/outbox.cif.g09.slc.cpg/sg2_185_cif.got.tgz:368298.got - 2010.06.27 13:26:56.
