data_PCOD8001184
_publ_section_title
;
Structure prediction by ZEFSAII (Michael W. Deem and Ramdas Pophale) SiO2 
 PCOD8001184
Probable space group: P -1
;
_chemical_formula_sum "Si O2"
_cell_formula_units_Z 12
_cell_length_a 9.359748
_cell_length_b 10.105581
_cell_length_c 7.228656
_cell_angle_alpha 84.152524
_cell_angle_beta 65.999506
_cell_angle_gamma 115.927502
_cell_volume 528.184945
_symmetry_space_group_name_H-M "P -1"
_symmetry_group_IT_number 2
_symmetry_cell_setting 'triclinic'
loop_
_space_group_symop_operation_xyz
x,y,z
-x,-y,-z
loop_
_atom_site_type_symbol
_atom_site_label
_atom_site_fract_x
_atom_site_fract_y
_atom_site_fract_z
Si Si1 0.698685 0.024950 0.887401
Si Si2 0.393625 0.488280 0.748436
Si Si3 0.993023 0.696888 0.508515
Si Si4 0.281151 0.206347 0.363919
Si Si5 0.770460 0.398512 0.431616
Si Si6 0.649684 0.810452 0.251338
O O1 0.703533 0.923653 0.731368
O O2 0.742544 0.972255 0.066640
O O3 0.853871 0.205657 0.744224
O O4 0.500000 0.000000 0.000000
O O5 0.500000 0.500000 0.500000
O O6 0.536219 0.621637 0.794913
O O7 0.234885 0.525368 0.773659
O O8 0.316507 0.309530 0.875881
O O9 0.897342 0.790781 0.610659
O O10 0.835907 0.530161 0.536414
O O11 0.092681 0.667565 0.633764
O O12 0.257550 0.161873 0.600725
O O13 0.567144 0.255120 0.608029
#
# Coordination Sequence:
#
# PCOD8001184 Si02
#       6
#     2   2   2   2   2   2
#     4  12  26  38  58  95 123 155 204 247 298 353
#     4   8  15  36  61  89 109 156 202 233 295 353
#     4  11  19  37  62  92 120 156 198 246 300 352
#     4  10  21  40  66  85 119 166 197 239 303 355
#     4   9  17  35  67  83 119 161 193 245 298 353
#     4  10  19  42  64  87 120 157 199 248 294 360
#
# _framework density 22.719315000000002
#
# number of rings (size 3 to 8) (size 9 to 14) (size 15 to 20)
#    0.000    2.333    6.667    0.500    0.000    2.000 
#    0.000    0.000    0.000    5.000    0.000    0.000 
#    0.000    0.000    0.000    0.000    0.000    0.000 
#
# Total GULP energy -148695.699115 kJ/mol
# GULP energy per Si atom -12391.308260 kJ/mol
# Density = 2.266760 g / cm^3
# Si number density = 22.719315 Si / 1000 Ang^3
#
#
#
# Elastic Constant Matrix: (Units=GPa)
#
#
# Indices 1 2 3 4 5 6 
#
# 1 160.1403 25.8226 23.0267 5.8884 -17.9529 -35.1216
# 2 25.8226 54.6966 19.6706 4.8353 -1.7442 -15.0506
# 3 23.0267 19.6706 35.7350 2.9519 -5.8038 -12.1197
# 4 5.8884 4.8353 2.9519 26.4702 -4.8446 4.0593
# 5 -17.9529 -1.7442 -5.8038 -4.8446 22.3010 -3.8665
# 6 -35.1216 -15.0506 -12.1197 4.0593 -3.8665 36.9280
#
#
#
# Elastic Compliance Matrix: (Units=1/GPa)
#
#
# Indices 1 2 3 4 5 6 
#
# 1 0.009707 -0.001244 -0.000745 -0.001707 0.008815 0.009591
# 2 -0.001244 0.024600 -0.010803 -0.004202 -0.001836 0.005567
# 3 -0.000745 -0.010803 0.039224 -0.001797 0.009934 0.009000
# 4 -0.001707 -0.004202 -0.001797 0.041333 0.005439 -0.007900
# 5 0.008815 -0.001836 0.009934 0.005439 0.058407 0.016413
# 6 0.009591 0.005567 0.009000 -0.007900 0.016413 0.044012
#
#
# Mechanical properties :
#
#
# Convention : Reuss Voigt Hill
#
# Bulk Modulus (GPa) = 20.85555 43.06796 31.96175
# Shear Modulus (GPa) = 19.31651 29.27663 24.29657
#
# Velocity S-wave (km/s) = 2.91902 3.59363 3.27375
# Velocity P-wave (km/s) = 4.53437 6.01803 5.32809
#
# Compressibility (1/GPa) = 0.04794887
#
# Stress axis : x y z
#
# Youngs Moduli (GPa) = 103.02224 40.65095 25.49452
#
# Poissons Ratio (x) = 0.05056 0.01898
# Poissons Ratio (y) = 0.12813 0.27541
# Poissons Ratio (z) = 0.07671 0.43913
#
# Static dielectric constant tensor:
#      x y z
#    x 4.606540 -0.480400 0.058380 
#    y -0.480400 4.384760 -0.414190 
#    z 0.058380 -0.414190 3.623270 
# 
# 
# High freq. dielectric constant tensor:
#      x y z
#    x 1.916250 -0.018920 -0.000810 
#    y -0.018920 1.892890 -0.020490 
#    z -0.000810 -0.020490 1.840590 
# 
# From -- ./inp_files/154510.got.cif
#   From: 2010.06.25/outbox.cif.g09.slc.cpg/sg2_78_cif.got.tgz:154510.got - 2010.06.27 13:26:56.
