data_PCOD8001200
_publ_section_title
;
Structure prediction by ZEFSAII (Michael W. Deem and Ramdas Pophale) SiO2 
 PCOD8001200
Probable space group: P -1
;
_chemical_formula_sum "Si O2"
_cell_formula_units_Z 12
_cell_length_a 7.931766
_cell_length_b 11.700637
_cell_length_c 11.905023
_cell_angle_alpha 146.025022
_cell_angle_beta 67.207145
_cell_angle_gamma 120.420293
_cell_volume 531.221847
_symmetry_space_group_name_H-M "P -1"
_symmetry_group_IT_number 2
_symmetry_cell_setting 'triclinic'
loop_
_space_group_symop_operation_xyz
x,y,z
-x,-y,-z
loop_
_atom_site_type_symbol
_atom_site_label
_atom_site_fract_x
_atom_site_fract_y
_atom_site_fract_z
Si Si1 0.191965 0.201477 0.634550
Si Si2 0.160737 0.763454 0.772332
Si Si3 0.671610 0.356226 0.150007
Si Si4 0.523119 0.964438 0.702103
Si Si5 0.641291 0.737106 0.124793
Si Si6 0.759800 0.747323 0.851662
O O1 0.189768 0.440239 0.795341
O O2 0.209234 0.179103 0.744456
O O3 0.360785 0.176230 0.492920
O O4 0.000000 0.000000 0.500000
O O5 0.213875 0.634055 0.755658
O O6 0.931625 0.651020 0.695669
O O7 0.315546 0.787212 0.652288
O O8 0.178226 0.004576 0.007594
O O9 0.458723 0.381993 0.246371
O O10 0.634526 0.126769 0.907638
O O11 0.487047 0.109645 0.729446
O O12 0.500000 0.500000 0.000000
O O13 0.754791 0.739277 0.982058
#
# Coordination Sequence:
#
# PCOD8001200 Si02
#       6
#     2   2   2   2   2   2
#     4  12  26  40  60  98 126 163 215 257 316 373
#     4   9  19  38  65  97 118 165 212 254 318 371
#     4  10  21  42  64  91 131 164 203 266 311 372
#     4  10  22  41  65  89 125 167 205 263 311 370
#     4  10  19  42  66  85 127 170 206 257 313 374
#     4   9  18  36  70  92 117 168 211 249 313 378
#
# _framework density 22.589431999999999
#
# number of rings (size 3 to 8) (size 9 to 14) (size 15 to 20)
#    0.000    2.333    3.333    2.500    2.333    2.667 
#    6.000    0.833    0.000    0.000    0.000    0.000 
#    0.000    0.000    0.000    0.000    0.000    0.000 
#
# Total GULP energy -148694.349687 kJ/mol
# GULP energy per Si atom -12391.195807 kJ/mol
# Density = 2.253802 g / cm^3
# Si number density = 22.589432 Si / 1000 Ang^3
#
#
#
# Elastic Constant Matrix: (Units=GPa)
#
#
# Indices 1 2 3 4 5 6 
#
# 1 126.9548 46.8068 8.6679 -9.0065 8.5733 -7.2744
# 2 46.8068 98.4803 17.0932 1.7608 0.3419 -9.9517
# 3 8.6679 17.0932 17.3519 -4.6496 -6.0603 2.3373
# 4 -9.0065 1.7608 -4.6496 27.6503 11.4732 3.0843
# 5 8.5733 0.3419 -6.0603 11.4732 34.0531 -4.8431
# 6 -7.2744 -9.9517 2.3373 3.0843 -4.8431 40.7839
#
#
#
# Elastic Compliance Matrix: (Units=1/GPa)
#
#
# Indices 1 2 3 4 5 6 
#
# 1 0.010437 -0.005020 -0.000321 0.005593 -0.004563 -0.000310
# 2 -0.005020 0.015638 -0.014708 -0.006070 0.001154 0.004359
# 3 -0.000321 -0.014708 0.079662 0.011163 0.009518 -0.007926
# 4 0.005593 -0.006070 0.011163 0.047811 -0.016420 -0.006689
# 5 -0.004563 0.001154 0.009518 -0.016420 0.038401 0.004724
# 6 -0.000310 0.004359 -0.007926 -0.006689 0.004724 0.027049
#
#
# Mechanical properties :
#
#
# Convention : Reuss Voigt Hill
#
# Bulk Modulus (GPa) = 15.23492 43.10254 29.16873
# Shear Modulus (GPa) = 17.79507 31.84541 24.82024
#
# Velocity S-wave (km/s) = 2.80975 3.75873 3.31834
# Velocity P-wave (km/s) = 4.15755 6.16115 5.25571
#
# Compressibility (1/GPa) = 0.06563869
#
# Stress axis : x y z
#
# Youngs Moduli (GPa) = 95.81448 63.94585 12.55300
#
# Poissons Ratio (x) = 0.32102 0.00403
# Poissons Ratio (y) = 0.48101 0.18463
# Poissons Ratio (z) = 0.03079 0.94049
#
# Static dielectric constant tensor:
#      x y z
#    x 3.940750 0.136610 -0.046090 
#    y 0.136610 3.516760 0.428690 
#    z -0.046090 0.428690 3.451540 
# 
# 
# High freq. dielectric constant tensor:
#      x y z
#    x 1.891160 -0.002610 -0.000820 
#    y -0.002610 1.903400 0.012170 
#    z -0.000820 0.012170 1.862940 
# 
# From -- ./inp_files/391551.got.cif
#   From: 2010.06.25/outbox.cif.g09.slc.cpg/sg2_196_cif.got.tgz:391551.got - 2010.06.27 13:26:56.
