data_PCOD8001510
_publ_section_title
;
Structure prediction by ZEFSAII (Michael W. Deem and Ramdas Pophale) SiO2 
 PCOD8001510
Probable space group: P -1
;
_chemical_formula_sum "Si O2"
_cell_formula_units_Z 16
_cell_length_a 14.324196
_cell_length_b 11.451143
_cell_length_c 15.287214
_cell_angle_alpha 124.395141
_cell_angle_beta 44.207999
_cell_angle_gamma 150.417192
_cell_volume 850.615782
_symmetry_space_group_name_H-M "P -1"
_symmetry_group_IT_number 2
_symmetry_cell_setting 'triclinic'
loop_
_space_group_symop_operation_xyz
x,y,z
-x,-y,-z
loop_
_atom_site_type_symbol
_atom_site_label
_atom_site_fract_x
_atom_site_fract_y
_atom_site_fract_z
Si Si1 0.548177 0.636670 0.942177
Si Si2 0.250200 0.697558 0.454452
Si Si3 0.016834 0.048721 0.869229
Si Si4 0.686833 0.512012 0.449437
Si Si5 0.285786 0.784706 0.664619
Si Si6 0.809014 0.842972 0.380893
Si Si7 0.928826 0.711296 0.902491
Si Si8 0.264264 0.385672 0.342738
O O1 0.564040 0.561480 0.808585
O O2 0.788442 0.914124 0.918303
O O3 0.500000 0.500000 0.000000
O O4 0.335057 0.563949 0.048796
O O5 0.249244 0.770604 0.580017
O O6 0.314676 0.589004 0.368085
O O7 0.000000 0.500000 0.500000
O O8 0.456145 0.949659 0.369133
O O9 0.204277 0.208858 0.734815
O O10 0.999065 0.872643 0.842944
O O11 0.082320 0.209851 0.968524
O O12 0.773184 0.424707 0.355532
O O13 0.847238 0.736718 0.370538
O O14 0.430901 0.291465 0.490526
O O15 0.695428 0.596434 0.573471
O O16 0.098449 0.726423 0.809186
O O17 0.004693 0.124549 0.385154
#
# Coordination Sequence:
#
# PCOD8001510 Si02
#       8
#     2   2   2   2   2   2   2   2
#     4   9  19  31  49  79 105 133 174 215 264 314
#     4  10  22  33  52  78 110 144 168 215 276 324
#     4   9  20  32  54  78 103 138 179 220 264 311
#     4  10  21  37  54  78 107 144 180 219 265 312
#     4  10  23  34  51  80 112 140 175 215 272 327
#     4  10  20  36  59  77 104 140 186 224 254 316
#     4  10  20  33  53  77 111 137 169 224 270 318
#     4  10  20  34  56  79 106 136 180 225 262 316
#
# _framework density 18.809902000000001
#
# number of rings (size 3 to 8) (size 9 to 14) (size 15 to 20)
#    0.000    2.250    0.000    1.875   15.750    0.000 
#    0.000    0.625    0.000    3.000    0.000    0.000 
#    0.000    0.000    0.000    0.000    0.000    0.000 
#
# Total GULP energy -198292.640509 kJ/mol
# GULP energy per Si atom -12393.290032 kJ/mol
# Density = 1.876709 g / cm^3
# Si number density = 18.809902 Si / 1000 Ang^3
#
#
#
# Elastic Constant Matrix: (Units=GPa)
#
#
# Indices 1 2 3 4 5 6 
#
# 1 70.6886 16.4959 33.3371 0.0336 3.8820 0.7338
# 2 16.4959 57.9218 23.4504 0.2392 1.4348 6.9600
# 3 33.3371 23.4504 58.0776 -12.8981 -0.5108 -3.6205
# 4 0.0336 0.2392 -12.8981 12.7041 4.6561 -3.6855
# 5 3.8820 1.4348 -0.5108 4.6561 34.3706 -10.3823
# 6 0.7338 6.9600 -3.6205 -3.6855 -10.3823 27.8056
#
#
#
# Elastic Compliance Matrix: (Units=1/GPa)
#
#
# Indices 1 2 3 4 5 6 
#
# 1 0.022846 0.002246 -0.019103 -0.020749 -0.002346 -0.007279
# 2 0.002246 0.024892 -0.016508 -0.019805 -0.002477 -0.011989
# 3 -0.019103 -0.016508 0.047983 0.053805 0.001931 0.018736
# 4 -0.020749 -0.019805 0.053805 0.144728 -0.006833 0.029142
# 5 -0.002346 -0.002477 0.001931 -0.006833 0.034294 0.012832
# 6 -0.007279 -0.011989 0.018736 0.029142 0.012832 0.050251
#
#
# Mechanical properties :
#
#
# Convention : Reuss Voigt Hill
#
# Bulk Modulus (GPa) = 34.49217 37.02831 35.76024
# Shear Modulus (GPa) = 12.45683 22.53635 17.49659
#
# Velocity S-wave (km/s) = 2.57621 3.46513 3.05319
# Velocity P-wave (km/s) = 5.21787 5.97811 5.61088
#
# Compressibility (1/GPa) = 0.02899209
#
# Stress axis : x y z
#
# Youngs Moduli (GPa) = 43.77198 40.17337 20.84063
#
# Poissons Ratio (x) = -0.09023 0.39812
# Poissons Ratio (y) = -0.09832 0.34403
# Poissons Ratio (z) = 0.83617 0.66317
#
# Static dielectric constant tensor:
#      x y z
#    x 3.480040 0.283990 0.035830 
#    y 0.283990 3.625240 -0.206560 
#    z 0.035830 -0.206560 3.482460 
# 
# 
# High freq. dielectric constant tensor:
#      x y z
#    x 1.715290 0.028360 0.003840 
#    y 0.028360 1.725760 -0.008890 
#    z 0.003840 -0.008890 1.724830 
# 
# From -- ./inp_files/282497.got.cif
#   From: 2010.06.25/outbox.cif.g09.slc.cpg/sg2_142_cif.got.tgz:282497.got - 2010.06.27 13:26:56.
