data_PCOD8001816
_publ_section_title
;
Structure prediction by ZEFSAII (Michael W. Deem and Ramdas Pophale) SiO2 
 PCOD8001816
Probable space group: P -1
;
_chemical_formula_sum "Si O2"
_cell_formula_units_Z 16
_cell_length_a 10.442684
_cell_length_b 8.765398
_cell_length_c 19.380964
_cell_angle_alpha 106.815042
_cell_angle_beta 30.837852
_cell_angle_gamma 114.927239
_cell_volume 814.548781
_symmetry_space_group_name_H-M "P -1"
_symmetry_group_IT_number 2
_symmetry_cell_setting 'triclinic'
loop_
_space_group_symop_operation_xyz
x,y,z
-x,-y,-z
loop_
_atom_site_type_symbol
_atom_site_label
_atom_site_fract_x
_atom_site_fract_y
_atom_site_fract_z
Si Si1 0.702317 0.123301 0.670875
Si Si2 0.011388 0.209036 0.160274
Si Si3 0.533375 0.731104 0.572036
Si Si4 0.030942 0.070761 0.404452
Si Si5 0.583222 0.647734 0.128858
Si Si6 0.120186 0.323509 0.277908
Si Si7 0.417738 0.614557 0.458162
Si Si8 0.285041 0.156786 0.776276
O O1 0.975039 0.188671 0.506602
O O2 0.646451 0.267062 0.761752
O O3 0.472888 0.061698 0.710289
O O4 0.706519 0.971855 0.700620
O O5 0.744216 0.249226 0.276884
O O6 0.136435 0.275782 0.185105
O O7 0.973104 0.007035 0.146080
O O8 0.222733 0.313535 0.020177
O O9 0.545950 0.707629 0.481189
O O10 0.559231 0.570575 0.580246
O O11 0.783998 0.893467 0.497281
O O12 0.061741 0.152535 0.326312
O O13 0.411378 0.447805 0.184536
O O14 0.756685 0.717122 0.128144
O O15 0.890897 0.402738 0.407870
O O16 0.587571 0.731692 0.334003
#
# Coordination Sequence:
#
# PCOD8001816 Si02
#       8
#     2   2   2   2   2   2   2   2
#     4   9  21  34  57  82 110 140 174 232 270 323
#     4  11  21  39  57  78 112 149 187 215 268 326
#     4  10  20  34  57  81 115 141 174 234 270 324
#     4  11  19  36  56  88 107 138 184 227 283 314
#     4  10  22  38  54  82 110 152 179 219 272 320
#     4  11  21  35  60  82 110 143 181 231 266 328
#     4  10  20  35  56  87 109 138 182 226 287 314
#     4  10  20  38  59  82 105 148 180 225 271 327
#
# _framework density 19.642776999999999
#
# number of rings (size 3 to 8) (size 9 to 14) (size 15 to 20)
#    0.750    1.000    2.500    2.250    0.000    6.000 
#    0.000    2.500    0.000    0.000    0.000    0.000 
#    0.000    0.000    0.000    0.000    0.000    0.000 
#
# Total GULP energy -198209.517616 kJ/mol
# GULP energy per Si atom -12388.094851 kJ/mol
# Density = 1.959807 g / cm^3
# Si number density = 19.642777 Si / 1000 Ang^3
#
#
#
# Elastic Constant Matrix: (Units=GPa)
#
#
# Indices 1 2 3 4 5 6 
#
# 1 66.1136 38.0208 26.8527 -4.2168 12.0992 -11.5385
# 2 38.0208 83.4348 34.9112 -7.1578 -0.5289 5.7899
# 3 26.8527 34.9112 91.3395 -8.0954 15.8093 -2.3303
# 4 -4.2168 -7.1578 -8.0954 22.4446 4.0734 -1.7872
# 5 12.0992 -0.5289 15.8093 4.0734 18.5471 -3.4257
# 6 -11.5385 5.7899 -2.3303 -1.7872 -3.4257 24.3553
#
#
#
# Elastic Compliance Matrix: (Units=1/GPa)
#
#
# Indices 1 2 3 4 5 6 
#
# 1 0.029705 -0.014687 0.001139 0.006028 -0.019246 0.015409
# 2 -0.014687 0.022415 -0.007240 -0.001777 0.014744 -0.011036
# 3 0.001139 -0.007240 0.016942 0.007191 -0.016587 0.002077
# 4 0.006028 -0.001777 0.007191 0.051840 -0.020598 0.004873
# 5 -0.019246 0.014744 -0.016587 -0.020598 0.084855 -0.003786
# 6 0.015409 -0.011036 0.002077 0.004873 -0.003786 0.051006
#
#
# Mechanical properties :
#
#
# Convention : Reuss Voigt Hill
#
# Bulk Modulus (GPa) = 36.38380 48.93970 42.66175
# Shear Modulus (GPa) = 16.26011 22.47627 19.36819
#
# Velocity S-wave (km/s) = 2.88026 3.38635 3.14350
# Velocity P-wave (km/s) = 5.44280 6.34498 5.91113
#
# Compressibility (1/GPa) = 0.02748476
#
# Stress axis : x y z
#
# Youngs Moduli (GPa) = 33.66441 44.61360 59.02568
#
# Poissons Ratio (x) = 0.65525 -0.06725
# Poissons Ratio (y) = 0.49444 0.42737
# Poissons Ratio (z) = -0.03835 0.32302
#
# Static dielectric constant tensor:
#      x y z
#    x 3.609730 0.021110 0.107180 
#    y 0.021110 3.558950 0.116330 
#    z 0.107180 0.116330 3.339000 
# 
# 
# High freq. dielectric constant tensor:
#      x y z
#    x 1.764330 0.008490 0.017250 
#    y 0.008490 1.763810 0.004380 
#    z 0.017250 0.004380 1.747530 
# 
# From -- ./inp_files/389416.got.cif
#   From: 2010.06.25/outbox.cif.g09.slc.cpg/sg2_195_cif.got.tgz:389416.got - 2010.06.27 13:26:56.
