data_PCOD8001666
_publ_section_title
;
Structure prediction by ZEFSAII (Michael W. Deem and Ramdas Pophale) SiO2 
 PCOD8001666
Probable space group: P -1
;
_chemical_formula_sum "Si O2"
_cell_formula_units_Z 16
_cell_length_a 7.804031
_cell_length_b 13.498730
_cell_length_c 15.085250
_cell_angle_alpha 45.625504
_cell_angle_beta 119.397647
_cell_angle_gamma 133.016185
_cell_volume 830.235819
_symmetry_space_group_name_H-M "P -1"
_symmetry_group_IT_number 2
_symmetry_cell_setting 'triclinic'
loop_
_space_group_symop_operation_xyz
x,y,z
-x,-y,-z
loop_
_atom_site_type_symbol
_atom_site_label
_atom_site_fract_x
_atom_site_fract_y
_atom_site_fract_z
Si Si1 0.735206 0.615081 0.042633
Si Si2 0.026008 0.464416 0.159012
Si Si3 0.214408 0.980415 0.076209
Si Si4 0.888654 0.625581 0.263672
Si Si5 0.137424 0.945116 0.888064
Si Si6 0.705304 0.239785 0.074914
Si Si7 0.286427 0.302722 0.654312
Si Si8 0.177713 0.475368 0.378310
O O1 0.917628 0.567982 0.093162
O O2 0.712198 0.596576 0.155330
O O3 0.500000 0.500000 0.000000
O O4 0.861992 0.806324 0.925131
O O5 0.843279 0.296229 0.167249
O O6 0.104969 0.411816 0.298777
O O7 0.240100 0.596836 0.067383
O O8 0.426624 0.133456 0.088022
O O9 0.125030 0.808632 0.209635
O O10 0.291961 0.977816 0.995893
O O11 0.000000 0.000000 0.000000
O O12 0.739311 0.598713 0.331504
O O13 0.992259 0.509753 0.355495
O O14 0.237384 0.885487 0.875045
O O15 0.147051 0.108475 0.759119
O O16 0.169102 0.330253 0.522152
O O17 0.555150 0.366484 0.659623
#
# Coordination Sequence:
#
# PCOD8001666 Si02
#       8
#     2   2   2   2   2   2   2   2
#     4   9  20  33  54  84 116 142 178 222 281 345
#     4   9  20  35  55  77 111 150 178 225 275 338
#     4  11  20  31  53  85 111 136 176 231 282 328
#     4  10  21  36  56  84 110 143 183 232 281 329
#     4  10  20  34  51  86 108 141 181 228 276 328
#     4  10  20  34  56  78 112 145 173 225 288 335
#     4  11  21  36  61  77 111 147 188 239 269 325
#     4  10  22  39  55  82 107 148 194 229 274 319
#
# _framework density 19.271633000000001
#
# number of rings (size 3 to 8) (size 9 to 14) (size 15 to 20)
#    0.000    2.000    1.250    3.000    3.500    2.000 
#    0.000    0.625    0.000    8.250    0.000    0.000 
#    0.000    0.000    0.000    0.000    0.000    0.000 
#
# Total GULP energy -198290.983228 kJ/mol
# GULP energy per Si atom -12393.186452 kJ/mol
# Density = 1.922777 g / cm^3
# Si number density = 19.271633 Si / 1000 Ang^3
#
#
#
# Elastic Constant Matrix: (Units=GPa)
#
#
# Indices 1 2 3 4 5 6 
#
# 1 69.4512 14.4607 19.0481 8.8472 2.9347 -4.8815
# 2 14.4607 110.3329 30.6507 16.0572 -1.2666 8.8919
# 3 19.0481 30.6507 93.0405 13.6687 -6.3966 1.3837
# 4 8.8472 16.0572 13.6687 28.0446 -2.2286 -0.9599
# 5 2.9347 -1.2666 -6.3966 -2.2286 20.5300 3.5680
# 6 -4.8815 8.8919 1.3837 -0.9599 3.5680 30.0435
#
#
#
# Elastic Compliance Matrix: (Units=1/GPa)
#
#
# Indices 1 2 3 4 5 6 
#
# 1 0.016263 -0.001210 -0.002791 -0.003294 -0.004239 0.003527
# 2 -0.001210 0.010909 -0.002594 -0.004709 0.000130 -0.003472
# 3 -0.002791 -0.002594 0.013006 -0.003682 0.004045 -0.000883
# 4 -0.003294 -0.004709 -0.003682 0.041509 0.003196 0.001975
# 5 -0.004239 0.000130 0.004045 0.003196 0.052148 -0.007005
# 6 0.003527 -0.003472 -0.000883 0.001975 -0.007005 0.035821
#
#
# Mechanical properties :
#
#
# Convention : Reuss Voigt Hill
#
# Bulk Modulus (GPa) = 37.05245 44.57152 40.81198
# Shear Modulus (GPa) = 26.06323 29.63462 27.84893
#
# Velocity S-wave (km/s) = 3.68151 3.92565 3.80554
# Velocity P-wave (km/s) = 6.11061 6.61255 6.36653
#
# Compressibility (1/GPa) = 0.02698877
#
# Stress axis : x y z
#
# Youngs Moduli (GPa) = 61.49095 91.66591 76.88708
#
# Poissons Ratio (x) = 0.11089 0.21459
# Poissons Ratio (y) = 0.07439 0.19943
# Poissons Ratio (z) = 0.17162 0.23777
#
# Static dielectric constant tensor:
#      x y z
#    x 3.705310 -0.052660 -0.087170 
#    y -0.052660 4.453750 0.969620 
#    z -0.087170 0.969620 4.544820 
# 
# 
# High freq. dielectric constant tensor:
#      x y z
#    x 1.763670 -0.007610 -0.002920 
#    y -0.007610 1.742080 0.005090 
#    z -0.002920 0.005090 1.723390 
# 
# From -- ./inp_files/256710.got.cif
#   From: 2010.06.25/outbox.cif.g09.slc.cpg/sg2_129_cif.got.tgz:256710.got - 2010.06.27 13:26:56.
