data_PCOD8001017
_publ_section_title
;
Structure prediction by ZEFSAII (Michael W. Deem and Ramdas Pophale) SiO2 
 PCOD8001017
Probable space group: P -1
;
_chemical_formula_sum "Si O2"
_cell_formula_units_Z 16
_cell_length_a 18.714780
_cell_length_b 9.530009
_cell_length_c 9.846565
_cell_angle_alpha 45.401771
_cell_angle_beta 136.890122
_cell_angle_gamma 128.352080
_cell_volume 833.292848
_symmetry_space_group_name_H-M "P -1"
_symmetry_group_IT_number 2
_symmetry_cell_setting 'triclinic'
loop_
_space_group_symop_operation_xyz
x,y,z
-x,-y,-z
loop_
_atom_site_type_symbol
_atom_site_label
_atom_site_fract_x
_atom_site_fract_y
_atom_site_fract_z
Si Si1 0.229940 0.495326 0.564967
Si Si2 0.293185 0.220935 0.614802
Si Si3 0.827813 0.640848 0.897181
Si Si4 0.047284 0.635911 0.099628
Si Si5 0.293626 0.314674 0.044766
Si Si6 0.296104 0.798345 0.991860
Si Si7 0.731302 0.123449 0.797098
Si Si8 0.527995 0.396385 0.744158
O O1 0.249391 0.315079 0.620650
O O2 0.301091 0.712748 0.463403
O O3 0.258423 0.454051 0.785715
O O4 0.104219 0.504090 0.371235
O O5 0.244444 0.287229 0.365576
O O6 0.421748 0.285529 0.749723
O O7 0.257215 0.979767 0.740430
O O8 0.799937 0.728534 0.942470
O O9 0.799794 0.397790 0.024299
O O10 0.954016 0.717694 0.991272
O O11 0.138081 0.827474 0.042109
O O12 0.000000 0.500000 0.000000
O O13 0.405701 0.432868 0.181048
O O14 0.312645 0.103214 0.160320
O O15 0.321894 0.849689 0.150542
O O16 0.403201 0.766232 0.089193
O O17 0.500000 0.500000 0.500000
#
# Coordination Sequence:
#
# PCOD8001017 Si02
#       8
#     2   2   2   2   2   2   2   2
#     4  10  22  40  64  92 132 163 204 266 311 366
#     4  12  21  41  68  93 123 169 218 254 312 380
#     4  11  22  43  64  93 134 163 208 272 302 370
#     4  10  19  40  70  90 126 172 208 257 309 375
#     4  11  24  41  64  93 132 162 206 270 320 368
#     4  11  21  39  66  93 124 165 216 251 312 380
#     4  10  21  41  63  93 131 161 210 257 320 366
#     4  11  23  44  66  91 128 168 208 265 315 372
#
# _framework density 19.200931000000001
#
# number of rings (size 3 to 8) (size 9 to 14) (size 15 to 20)
#    0.750    0.500    7.500    0.375    0.000    3.500 
#    4.500    3.125    0.000    0.000    0.000    0.000 
#    0.000    0.000    0.000    0.000    0.000    0.000 
#
# Total GULP energy -198376.524191 kJ/mol
# GULP energy per Si atom -12398.532762 kJ/mol
# Density = 1.915723 g / cm^3
# Si number density = 19.200931 Si / 1000 Ang^3
#
#
#
# Elastic Constant Matrix: (Units=GPa)
#
#
# Indices 1 2 3 4 5 6 
#
# 1 77.9332 19.3191 6.7737 5.7200 11.3218 -5.0799
# 2 19.3191 96.5247 41.0819 -5.3394 2.5355 -9.7866
# 3 6.7737 41.0819 76.1317 7.8153 3.1773 12.0964
# 4 5.7200 -5.3394 7.8153 32.2450 -6.3644 -4.1979
# 5 11.3218 2.5355 3.1773 -6.3644 29.8426 0.1070
# 6 -5.0799 -9.7866 12.0964 -4.1979 0.1070 28.1774
#
#
#
# Elastic Compliance Matrix: (Units=1/GPa)
#
#
# Indices 1 2 3 4 5 6 
#
# 1 0.014936 -0.003678 0.001413 -0.004879 -0.006545 0.000107
# 2 -0.003678 0.017997 -0.012351 0.008809 0.003016 0.012191
# 3 0.001413 -0.012351 0.023463 -0.010866 -0.004246 -0.015711
# 4 -0.004879 0.008809 -0.010866 0.039737 0.010688 0.012724
# 5 -0.006545 0.003016 -0.004246 0.010688 0.038456 0.003137
# 6 0.000107 0.012191 -0.015711 0.012724 0.003137 0.048371
#
#
# Mechanical properties :
#
#
# Convention : Reuss Voigt Hill
#
# Bulk Modulus (GPa) = 36.81377 42.77100 39.79239
# Shear Modulus (GPa) = 22.59904 30.28067 26.43985
#
# Velocity S-wave (km/s) = 3.43443 3.97551 3.71483
# Velocity P-wave (km/s) = 5.91114 6.58762 6.25853
#
# Compressibility (1/GPa) = 0.02716375
#
# Stress axis : x y z
#
# Youngs Moduli (GPa) = 66.95054 55.56445 42.61972
#
# Poissons Ratio (x) = 0.20436 -0.06021
# Poissons Ratio (y) = 0.24624 0.52641
# Poissons Ratio (z) = -0.09458 0.68630
#
# Static dielectric constant tensor:
#      x y z
#    x 3.789640 0.040010 0.045640 
#    y 0.040010 3.445400 -0.052310 
#    z 0.045640 -0.052310 3.499250 
# 
# 
# High freq. dielectric constant tensor:
#      x y z
#    x 1.753160 -0.008850 -0.002190 
#    y -0.008850 1.736600 -0.007920 
#    z -0.002190 -0.007920 1.742460 
# 
# From -- ./inp_files/328520.got.cif
#   From: 2010.06.25/outbox.cif.g09.slc.cpg/sg2_165_cif.got.tgz:328520.got - 2010.06.27 13:26:56.
