data_PCOD8001276
_publ_section_title
;
Structure prediction by ZEFSAII (Michael W. Deem and Ramdas Pophale) SiO2 
 PCOD8001276
Probable space group: P -1
;
_chemical_formula_sum "Si O2"
_cell_formula_units_Z 16
_cell_length_a 22.131037
_cell_length_b 8.156859
_cell_length_c 10.050982
_cell_angle_alpha 48.604777
_cell_angle_beta 31.927959
_cell_angle_gamma 55.077825
_cell_volume 719.532758
_symmetry_space_group_name_H-M "P -1"
_symmetry_group_IT_number 2
_symmetry_cell_setting 'triclinic'
loop_
_space_group_symop_operation_xyz
x,y,z
-x,-y,-z
loop_
_atom_site_type_symbol
_atom_site_label
_atom_site_fract_x
_atom_site_fract_y
_atom_site_fract_z
Si Si1 0.967285 0.695140 0.055360
Si Si2 0.254529 0.685410 0.971895
Si Si3 0.499479 0.873869 0.431079
Si Si4 0.761891 0.720818 0.616325
Si Si5 0.702159 0.652702 0.293177
Si Si6 0.573043 0.710601 0.770251
Si Si7 0.106808 0.038506 0.186783
Si Si8 0.806355 0.215462 0.265145
O O1 0.858056 0.636832 0.378181
O O2 0.000000 0.500000 0.000000
O O3 0.065722 0.749560 0.945153
O O4 0.938391 0.905686 0.906357
O O5 0.389191 0.727864 0.697477
O O6 0.198505 0.748893 0.902500
O O7 0.234350 0.430379 0.178192
O O8 0.191120 0.826552 0.130676
O O9 0.613019 0.716225 0.306531
O O10 0.500000 0.000000 0.500000
O O11 0.502978 0.061780 0.209061
O O12 0.638581 0.687792 0.798139
O O13 0.772446 0.973221 0.501394
O O14 0.661651 0.732747 0.471116
O O15 0.719504 0.390541 0.402580
O O16 0.823138 0.765500 0.982151
O O17 0.500000 0.500000 0.000000
O O18 0.000000 0.000000 0.500000
#
# Coordination Sequence:
#
# PCOD8001276 Si02
#       8
#     2   2   2   2   2   2   2   2
#     4  12  23  47  70  97 139 188 239 297 339 416
#     4  12  25  45  72 104 142 188 236 286 364 414
#     4  10  19  43  70  96 137 178 233 294 339 406
#     4  12  24  44  69 100 144 184 233 287 358 421
#     4  11  23  44  69 102 141 184 238 290 353 416
#     4  11  21  43  73 104 134 183 243 293 345 416
#     4  12  24  44  73 108 139 185 245 293 343 424
#     4  12  26  46  67 101 153 185 225 300 356 423
#
# _framework density 22.236651999999999
#
# number of rings (size 3 to 8) (size 9 to 14) (size 15 to 20)
#    0.000    0.500    7.500    2.625    0.000    2.000 
#    2.250    1.250    0.000    0.000    0.000    0.000 
#    0.000    0.000    0.000    0.000    0.000    0.000 
#
# Total GULP energy -198414.739030 kJ/mol
# GULP energy per Si atom -12400.921189 kJ/mol
# Density = 2.218604 g / cm^3
# Si number density = 22.236652 Si / 1000 Ang^3
#
#
#
# Elastic Constant Matrix: (Units=GPa)
#
#
# Indices 1 2 3 4 5 6 
#
# 1 116.3016 29.4299 52.5381 -8.3435 -25.8404 -18.9842
# 2 29.4299 120.5898 35.9662 -27.6983 -9.2006 -18.8151
# 3 52.5381 35.9662 129.6151 -25.5989 -14.2181 -17.4761
# 4 -8.3435 -27.6983 -25.5989 39.9964 -7.0102 0.4728
# 5 -25.8404 -9.2006 -14.2181 -7.0102 38.7587 -2.1124
# 6 -18.9842 -18.8151 -17.4761 0.4728 -2.1124 37.1871
#
#
#
# Elastic Compliance Matrix: (Units=1/GPa)
#
#
# Indices 1 2 3 4 5 6 
#
# 1 0.012889 -0.000361 -0.003196 0.001722 0.007937 0.005325
# 2 -0.000361 0.011622 -0.000130 0.008582 0.004338 0.005773
# 3 -0.003196 -0.000130 0.011324 0.007056 0.003472 0.003732
# 4 0.001722 0.008582 0.007056 0.038018 0.013129 0.008800
# 5 0.007937 0.004338 0.003472 0.013129 0.036303 0.009774
# 6 0.005325 0.005773 0.003732 0.008800 0.009774 0.034727
#
#
# Mechanical properties :
#
#
# Convention : Reuss Voigt Hill
#
# Bulk Modulus (GPa) = 35.13264 66.93052 51.03158
# Shear Modulus (GPa) = 30.91295 39.75995 35.33645
#
# Velocity S-wave (km/s) = 3.73256 4.23311 3.99069
# Velocity P-wave (km/s) = 5.86598 7.35233 6.65081
#
# Compressibility (1/GPa) = 0.02846356
#
# Stress axis : x y z
#
# Youngs Moduli (GPa) = 77.58259 86.04226 88.30678
#
# Poissons Ratio (x) = 0.03103 0.28222
# Poissons Ratio (y) = 0.02798 0.01144
# Poissons Ratio (z) = 0.24795 0.01115
#
# Static dielectric constant tensor:
#      x y z
#    x 4.506280 -0.359680 -0.181670 
#    y -0.359680 4.712320 -0.170960 
#    z -0.181670 -0.170960 3.891850 
# 
# 
# High freq. dielectric constant tensor:
#      x y z
#    x 1.878370 -0.022030 -0.015910 
#    y -0.022030 1.886930 -0.011130 
#    z -0.015910 -0.011130 1.863080 
# 
# From -- ./inp_files/474084.got.cif
#   From: 2010.06.25/outbox.cif.g09.slc.cpg/sg2_238_cif.got.tgz:474084.got - 2010.06.27 13:26:56.
