data_PCOD8001524
_publ_section_title
;
Structure prediction by ZEFSAII (Michael W. Deem and Ramdas Pophale) SiO2 
 PCOD8001524
Probable space group: P -1
;
_chemical_formula_sum "Si O2"
_cell_formula_units_Z 16
_cell_length_a 18.306493
_cell_length_b 13.483467
_cell_length_c 9.558624
_cell_angle_alpha 123.134537
_cell_angle_beta 86.664446
_cell_angle_gamma 43.601658
_cell_volume 842.073935
_symmetry_space_group_name_H-M "P -1"
_symmetry_group_IT_number 2
_symmetry_cell_setting 'triclinic'
loop_
_space_group_symop_operation_xyz
x,y,z
-x,-y,-z
loop_
_atom_site_type_symbol
_atom_site_label
_atom_site_fract_x
_atom_site_fract_y
_atom_site_fract_z
Si Si1 0.704054 0.130820 0.429460
Si Si2 0.581711 0.556159 0.767543
Si Si3 0.486293 0.716398 0.197795
Si Si4 0.143487 0.308346 0.072424
Si Si5 0.182686 0.674192 0.237409
Si Si6 0.624060 0.929381 0.908962
Si Si7 0.071731 0.598033 0.080714
Si Si8 0.205592 0.294677 0.571709
O O1 0.644015 0.342026 0.523725
O O2 0.553119 0.310775 0.689281
O O3 0.867713 0.918556 0.346173
O O4 0.744593 0.974440 0.185164
O O5 0.741922 0.405569 0.679160
O O6 0.478581 0.666733 0.005632
O O7 0.468730 0.805793 0.873612
O O8 0.346495 0.025085 0.445029
O O9 0.681334 0.479706 0.014444
O O10 0.234641 0.265657 0.135596
O O11 0.116263 0.408452 0.002020
O O12 0.954349 0.553902 0.340503
O O13 0.164417 0.561221 0.133583
O O14 0.000000 0.000000 0.500000
O O15 0.711071 0.775590 0.631785
O O16 0.500000 0.000000 0.000000
O O17 0.135944 0.502319 0.838595
#
# Coordination Sequence:
#
# PCOD8001524 Si02
#       8
#     2   2   2   2   2   2   2   2
#     4  11  18  36  59  88 118 146 193 248 286 343
#     4   9  21  35  57  80 119 153 191 236 287 337
#     4   9  18  33  54  86 120 142 189 237 294 334
#     4  11  22  35  63  88 118 154 194 235 298 342
#     4  10  20  33  53  86 116 155 184 236 293 341
#     4  11  24  42  57  82 118 163 197 234 286 353
#     4  11  19  35  62  91 118 146 193 247 292 339
#     4  10  20  38  58  88 119 149 193 244 289 338
#
# _framework density 19.000705
#
# number of rings (size 3 to 8) (size 9 to 14) (size 15 to 20)
#    0.750    1.000    3.750    2.250    0.000    2.000 
#    0.000    0.000    0.000    3.000    0.000    0.000 
#    0.000    0.000    0.000    0.000    0.000    0.000 
#
# Total GULP energy -198234.921629 kJ/mol
# GULP energy per Si atom -12389.682602 kJ/mol
# Density = 1.895746 g / cm^3
# Si number density = 19.000705 Si / 1000 Ang^3
#
#
#
# Elastic Constant Matrix: (Units=GPa)
#
#
# Indices 1 2 3 4 5 6 
#
# 1 107.6298 25.2716 47.6118 -2.4006 -11.7722 0.5398
# 2 25.2716 60.1811 29.3638 1.0068 -7.8237 2.7825
# 3 47.6118 29.3638 86.9860 10.5825 -14.5112 9.0435
# 4 -2.4006 1.0068 10.5825 25.7591 -1.1429 -1.6330
# 5 -11.7722 -7.8237 -14.5112 -1.1429 32.4279 5.7513
# 6 0.5398 2.7825 9.0435 -1.6330 5.7513 27.5698
#
#
#
# Elastic Compliance Matrix: (Units=1/GPa)
#
#
# Indices 1 2 3 4 5 6 
#
# 1 0.013108 -0.002114 -0.007112 0.004413 0.000798 0.002385
# 2 -0.002114 0.020451 -0.005553 0.001334 0.001817 -0.000501
# 3 -0.007112 -0.005553 0.020187 -0.008956 0.006169 -0.007739
# 4 0.004413 0.001334 -0.008956 0.043146 -0.001556 0.005597
# 5 0.000798 0.001817 0.006169 -0.001556 0.036014 -0.009828
# 6 0.002385 -0.000501 -0.007739 0.005597 -0.009828 0.041196
#
#
# Mechanical properties :
#
#
# Convention : Reuss Voigt Hill
#
# Bulk Modulus (GPa) = 41.34688 51.03236 46.18962
# Shear Modulus (GPa) = 23.61571 27.32133 25.46852
#
# Velocity S-wave (km/s) = 3.52928 3.79609 3.66512
# Velocity P-wave (km/s) = 6.19804 6.79192 6.50177
#
# Compressibility (1/GPa) = 0.02418562
#
# Stress axis : x y z
#
# Youngs Moduli (GPa) = 76.29186 48.89709 49.53679
#
# Poissons Ratio (x) = 0.10338 0.35232
# Poissons Ratio (y) = 0.16130 0.27510
# Poissons Ratio (z) = 0.54261 0.27155
#
# Static dielectric constant tensor:
#      x y z
#    x 3.472910 -0.091540 -0.086300 
#    y -0.091540 3.214350 0.180640 
#    z -0.086300 0.180640 3.467860 
# 
# 
# High freq. dielectric constant tensor:
#      x y z
#    x 1.734690 -0.004110 -0.003630 
#    y -0.004110 1.709580 0.017360 
#    z -0.003630 0.017360 1.739620 
# 
# From -- ./inp_files/333612.got.cif
#   From: 2010.06.25/outbox.cif.g09.slc.cpg/sg2_167_cif.got.tgz:333612.got - 2010.06.27 13:26:56.
