data_PCOD8001157
_publ_section_title
;
Structure prediction by ZEFSAII (Michael W. Deem and Ramdas Pophale) SiO2 
 PCOD8001157
Probable space group: P -1
;
_chemical_formula_sum "Si O2"
_cell_formula_units_Z 16
_cell_length_a 10.151298
_cell_length_b 8.805252
_cell_length_c 16.208625
_cell_angle_alpha 72.490374
_cell_angle_beta 145.311277
_cell_angle_gamma 115.186906
_cell_volume 742.752456
_symmetry_space_group_name_H-M "P -1"
_symmetry_group_IT_number 2
_symmetry_cell_setting 'triclinic'
loop_
_space_group_symop_operation_xyz
x,y,z
-x,-y,-z
loop_
_atom_site_type_symbol
_atom_site_label
_atom_site_fract_x
_atom_site_fract_y
_atom_site_fract_z
Si Si1 0.924495 0.865344 0.052238
Si Si2 0.213370 0.117136 0.703182
Si Si3 0.928289 0.604738 0.515789
Si Si4 0.050848 0.553525 0.111179
Si Si5 0.379557 0.820242 0.806595
Si Si6 0.327470 0.756714 0.976757
Si Si7 0.047635 0.066709 0.242409
Si Si8 0.452719 0.427540 0.396899
O O1 0.048406 0.734875 0.103845
O O2 0.629262 0.800613 0.904754
O O3 0.048719 0.930146 0.195070
O O4 0.000000 0.000000 0.000000
O O5 0.119042 0.230082 0.573284
O O6 0.312870 0.988945 0.721895
O O7 0.443445 0.240447 0.850393
O O8 0.004532 0.016373 0.679123
O O9 0.706073 0.470275 0.471308
O O10 0.000000 0.500000 0.500000
O O11 0.154121 0.662402 0.686169
O O12 0.315590 0.541013 0.264188
O O13 0.849325 0.433884 0.088211
O O14 0.000000 0.500000 0.000000
O O15 0.417464 0.826428 0.922589
O O16 0.172353 0.870158 0.913963
O O17 0.301426 0.225901 0.350314
O O18 0.500000 0.500000 0.500000
#
# Coordination Sequence:
#
# PCOD8001157 Si02
#       8
#     2   2   2   2   2   2   2   2
#     4  12  25  40  69 104 136 169 233 289 334 397
#     4  11  21  43  71 101 135 176 222 277 351 406
#     4  12  29  44  67 101 140 184 230 279 334 413
#     4  11  25  41  69  99 132 182 224 278 343 402
#     4  11  24  44  68 100 134 176 221 278 343 403
#     4  10  19  41  71  96 131 172 224 272 339 407
#     4  10  21  43  71 103 131 175 228 284 335 401
#     4  11  25  49  71  95 144 187 227 272 350 421
#
# _framework density 21.541495999999999
#
# number of rings (size 3 to 8) (size 9 to 14) (size 15 to 20)
#    0.000    1.000    2.500    5.625    7.000    2.500 
#    0.000    1.250    0.000    0.000    0.000    0.000 
#    0.000    0.000    0.000    0.000    0.000    0.000 
#
# Total GULP energy -198323.914504 kJ/mol
# GULP energy per Si atom -12395.244657 kJ/mol
# Density = 2.149247 g / cm^3
# Si number density = 21.541496 Si / 1000 Ang^3
#
#
#
# Elastic Constant Matrix: (Units=GPa)
#
#
# Indices 1 2 3 4 5 6 
#
# 1 103.2606 23.2940 29.5326 19.7413 7.9894 -0.9729
# 2 23.2940 78.0391 10.8554 16.1381 2.9913 -3.8012
# 3 29.5326 10.8554 103.9193 26.5696 1.7516 -2.1684
# 4 19.7413 16.1381 26.5696 32.7963 6.8018 -1.3291
# 5 7.9894 2.9913 1.7516 6.8018 33.0373 10.3262
# 6 -0.9729 -3.8012 -2.1684 -1.3291 10.3262 44.4401
#
#
#
# Elastic Compliance Matrix: (Units=1/GPa)
#
#
# Indices 1 2 3 4 5 6 
#
# 1 0.011671 -0.002324 -0.002059 -0.003831 -0.001795 0.000259
# 2 -0.002324 0.014788 0.000803 -0.006531 0.000210 0.001009
# 3 -0.002059 0.000803 0.012577 -0.009717 0.001780 -0.000067
# 4 -0.003831 -0.006531 -0.009717 0.045632 -0.008022 0.002112
# 5 -0.001795 0.000210 0.001780 -0.008022 0.034825 -0.008266
# 6 0.000259 0.001009 -0.000067 0.002112 -0.008266 0.024575
#
#
# Mechanical properties :
#
#
# Convention : Reuss Voigt Hill
#
# Bulk Modulus (GPa) = 31.37094 45.84256 38.60675
# Shear Modulus (GPa) = 30.89234 36.82388 33.85811
#
# Velocity S-wave (km/s) = 3.79104 4.13902 3.96885
# Velocity P-wave (km/s) = 5.81010 6.64599 6.24206
#
# Compressibility (1/GPa) = 0.03187663
#
# Stress axis : x y z
#
# Youngs Moduli (GPa) = 85.68250 67.62384 79.51008
#
# Poissons Ratio (x) = 0.15713 0.16370
# Poissons Ratio (y) = 0.19910 -0.06384
# Poissons Ratio (z) = 0.17641 -0.05430
#
# Static dielectric constant tensor:
#      x y z
#    x 2.311080 1.143520 -0.480330 
#    y 1.143520 2.924680 -0.297160 
#    z -0.480330 -0.297160 3.123600 
# 
# 
# High freq. dielectric constant tensor:
#      x y z
#    x 1.850980 0.008050 -0.000800 
#    y 0.008050 1.848650 0.012110 
#    z -0.000800 0.012110 1.848060 
# 
# From -- ./inp_files/403218.got.cif
#   From: 2010.06.25/outbox.cif.g09.slc.cpg/sg2_202_cif.got.tgz:403218.got - 2010.06.27 13:26:56.
