data_PCOD8001581
_publ_section_title
;
Structure prediction by ZEFSAII (Michael W. Deem and Ramdas Pophale) SiO2 
 PCOD8001581
Probable space group: P -1
;
_chemical_formula_sum "Si O2"
_cell_formula_units_Z 16
_cell_length_a 6.029081
_cell_length_b 11.412086
_cell_length_c 20.171275
_cell_angle_alpha 136.645303
_cell_angle_beta 56.034016
_cell_angle_gamma 113.690857
_cell_volume 790.192602
_symmetry_space_group_name_H-M "P -1"
_symmetry_group_IT_number 2
_symmetry_cell_setting 'triclinic'
loop_
_space_group_symop_operation_xyz
x,y,z
-x,-y,-z
loop_
_atom_site_type_symbol
_atom_site_label
_atom_site_fract_x
_atom_site_fract_y
_atom_site_fract_z
Si Si1 0.244853 0.874973 0.423822
Si Si2 0.450298 0.336876 0.484560
Si Si3 0.257306 0.246524 0.225362
Si Si4 0.317237 0.104485 0.295492
Si Si5 0.003450 0.532579 0.301169
Si Si6 0.849999 0.256896 0.114716
Si Si7 0.248739 0.921029 0.595701
Si Si8 0.119672 0.006567 0.880058
O O1 0.211807 0.686201 0.320089
O O2 0.271669 0.857493 0.490675
O O3 0.517415 0.943860 0.373734
O O4 0.000000 0.000000 0.500000
O O5 0.500000 0.500000 0.500000
O O6 0.299259 0.205246 0.408545
O O7 0.717002 0.245852 0.431121
O O8 0.274571 0.379484 0.595733
O O9 0.318346 0.242861 0.292170
O O10 0.078997 0.406291 0.297387
O O11 0.540011 0.266457 0.147615
O O12 0.104876 0.068813 0.162687
O O13 0.039863 0.997153 0.301253
O O14 0.583771 0.985363 0.198813
O O15 0.964254 0.434773 0.197589
O O16 0.870799 0.116588 0.109955
O O17 0.028362 0.196067 0.996875
#
# Coordination Sequence:
#
# PCOD8001581 Si02
#       8
#     2   2   2   2   2   2   2   2
#     4  11  23  41  59  79 116 155 205 246 276 337
#     4  12  23  35  55  87 126 150 185 235 292 356
#     4  10  20  33  56  86 116 157 187 233 292 347
#     4  11  21  35  55  83 119 153 191 232 289 349
#     4  11  22  35  55  85 118 148 195 241 288 338
#     4   9  19  33  55  80 115 152 192 237 287 342
#     4  11  23  38  59  82 111 163 197 234 290 338
#     4   9  18  35  52  81 116 152 192 236 284 345
#
# _framework density 20.248225999999999
#
# number of rings (size 3 to 8) (size 9 to 14) (size 15 to 20)
#    0.000    1.500    2.500    4.125    3.500    2.000 
#    0.000    0.000    0.000    0.750    0.000    7.000 
#    0.000    0.000    0.000    0.000    0.000    0.000 
#
# Total GULP energy -198308.459102 kJ/mol
# GULP energy per Si atom -12394.278694 kJ/mol
# Density = 2.020214 g / cm^3
# Si number density = 20.248226 Si / 1000 Ang^3
#
#
#
# Elastic Constant Matrix: (Units=GPa)
#
#
# Indices 1 2 3 4 5 6 
#
# 1 113.9970 38.6531 50.2996 3.8625 -6.6911 23.0402
# 2 38.6531 75.7395 36.1299 1.3642 0.2831 21.6639
# 3 50.2996 36.1299 128.8207 9.2415 -0.3799 28.3507
# 4 3.8625 1.3642 9.2415 15.2662 12.9299 -1.5285
# 5 -6.6911 0.2831 -0.3799 12.9299 25.7875 -8.9883
# 6 23.0402 21.6639 28.3507 -1.5285 -8.9883 44.4405
#
#
#
# Elastic Compliance Matrix: (Units=1/GPa)
#
#
# Indices 1 2 3 4 5 6 
#
# 1 0.012360 -0.004457 -0.002796 -0.006024 0.005711 -0.001504
# 2 -0.004457 0.018344 -0.002491 0.005871 -0.006482 -0.006152
# 3 -0.002796 -0.002491 0.011059 -0.007780 0.001874 -0.004279
# 4 -0.006024 0.005871 -0.007780 0.127688 -0.067147 -0.003964
# 5 0.005711 -0.006482 0.001874 -0.067147 0.078401 0.012551
# 6 -0.001504 -0.006152 -0.004279 -0.003964 0.012551 0.031413
#
#
# Mechanical properties :
#
#
# Convention : Reuss Voigt Hill
#
# Bulk Modulus (GPa) = 44.89398 63.19137 54.04267
# Shear Modulus (GPa) = 16.33037 29.99714 23.16376
#
# Velocity S-wave (km/s) = 2.84299 3.85316 3.38596
# Velocity P-wave (km/s) = 5.74428 7.14646 6.48339
#
# Compressibility (1/GPa) = 0.02227470
#
# Stress axis : x y z
#
# Youngs Moduli (GPa) = 80.90318 54.51365 90.42644
#
# Poissons Ratio (x) = 0.24296 0.25286
# Poissons Ratio (y) = 0.36057 0.22526
# Poissons Ratio (z) = 0.22623 0.13580
#
# Static dielectric constant tensor:
#      x y z
#    x 4.090480 0.159830 -0.008350 
#    y 0.159830 3.507690 -0.058110 
#    z -0.008350 -0.058110 3.915320 
# 
# 
# High freq. dielectric constant tensor:
#      x y z
#    x 1.813570 0.008270 -0.003390 
#    y 0.008270 1.750570 -0.009450 
#    z -0.003390 -0.009450 1.770600 
# 
# From -- ./inp_files/67325.got.cif
#   From: 2010.06.25/outbox.cif.g09.slc.cpg/sg2_34_cif.got.tgz:67325.got - 2010.06.27 13:26:56.
