data_PCOD8001951
_publ_section_title
;
Structure prediction by ZEFSAII (Michael W. Deem and Ramdas Pophale) SiO2 
 PCOD8001951
Probable space group: P -1
;
_chemical_formula_sum "Si O2"
_cell_formula_units_Z 16
_cell_length_a 9.817846
_cell_length_b 5.025642
_cell_length_c 16.739197
_cell_angle_alpha 80.849416
_cell_angle_beta 70.519401
_cell_angle_gamma 66.861530
_cell_volume 715.638438
_symmetry_space_group_name_H-M "P -1"
_symmetry_group_IT_number 2
_symmetry_cell_setting 'triclinic'
loop_
_space_group_symop_operation_xyz
x,y,z
-x,-y,-z
loop_
_atom_site_type_symbol
_atom_site_label
_atom_site_fract_x
_atom_site_fract_y
_atom_site_fract_z
Si Si1 0.798281 0.901783 0.056042
Si Si2 0.753073 0.119167 0.673561
Si Si3 0.575648 0.645012 0.335439
Si Si4 0.055234 0.902488 0.111565
Si Si5 0.970734 0.743479 0.428176
Si Si6 0.843492 0.501923 0.740723
Si Si7 0.748513 0.380706 0.154114
Si Si8 0.361146 0.960667 0.576404
O O1 0.739783 0.637043 0.082035
O O2 0.975451 0.783825 0.061581
O O3 0.690700 0.163601 0.123096
O O4 0.805226 0.014679 0.958833
O O5 0.607688 0.164266 0.642793
O O6 0.716913 0.396856 0.725735
O O7 0.908687 0.083951 0.591387
O O8 0.780576 0.848120 0.740520
O O9 0.642178 0.528100 0.241827
O O10 0.660570 0.849506 0.346760
O O11 0.596726 0.375770 0.400637
O O12 0.121547 0.641809 0.172916
O O13 0.923563 0.192700 0.161535
O O14 0.791200 0.947509 0.453696
O O15 0.000000 0.500000 0.500000
O O16 0.002621 0.600996 0.340030
O O17 0.500000 0.000000 0.500000
#
# Coordination Sequence:
#
# PCOD8001951 Si02
#       8
#     2   2   2   2   2   2   2   2
#     4   9  20  32  58  96 130 158 199 274 321 363
#     4  10  25  42  63  91 127 176 205 262 318 378
#     4  12  25  45  66  91 134 166 220 262 321 383
#     4   9  20  34  61  94 128 159 212 264 314 380
#     4  10  25  44  67  94 129 164 213 263 320 378
#     4  10  23  38  65  88 125 168 220 247 321 376
#     4  10  20  34  60  91 122 162 205 258 322 364
#     4  12  27  43  68  97 125 170 213 272 320 376
#
# _framework density 22.357658000000001
#
# number of rings (size 3 to 8) (size 9 to 14) (size 15 to 20)
#    1.500    0.250    0.000    3.750    7.000    0.500 
#    0.000    0.000    0.000    4.500    0.000    0.000 
#    0.000    0.000    0.000    0.000    0.000    0.000 
#
# Total GULP energy -198239.289173 kJ/mol
# GULP energy per Si atom -12389.955573 kJ/mol
# Density = 2.230677 g / cm^3
# Si number density = 22.357658 Si / 1000 Ang^3
#
#
#
# Elastic Constant Matrix: (Units=GPa)
#
#
# Indices 1 2 3 4 5 6 
#
# 1 77.3670 30.3505 12.9612 -17.3890 -1.7738 -12.9178
# 2 30.3505 94.9108 26.7522 -30.5761 -8.9971 -0.5301
# 3 12.9612 26.7522 111.9587 -38.4853 -7.5584 -18.8964
# 4 -17.3890 -30.5761 -38.4853 49.9701 -1.1082 -4.0081
# 5 -1.7738 -8.9971 -7.5584 -1.1082 18.1618 -3.5645
# 6 -12.9178 -0.5301 -18.8964 -4.0081 -3.5645 37.4582
#
#
#
# Elastic Compliance Matrix: (Units=1/GPa)
#
#
# Indices 1 2 3 4 5 6 
#
# 1 0.016778 -0.003778 0.002666 0.006286 0.002834 0.008020
# 2 -0.003778 0.015126 0.000417 0.008502 0.007972 0.000790
# 3 0.002666 0.000417 0.016365 0.014965 0.010503 0.011782
# 4 0.006286 0.008502 0.014965 0.040560 0.016622 0.015759
# 5 0.002834 0.007972 0.010503 0.016622 0.067536 0.014594
# 6 0.008020 0.000790 0.011782 0.015759 0.014594 0.038492
#
#
# Mechanical properties :
#
#
# Convention : Reuss Voigt Hill
#
# Bulk Modulus (GPa) = 21.33127 47.15159 34.24143
# Shear Modulus (GPa) = 23.59903 35.39619 29.49761
#
# Velocity S-wave (km/s) = 3.25241 3.98324 3.63623
# Velocity P-wave (km/s) = 4.86475 6.50310 5.74266
#
# Compressibility (1/GPa) = 0.04687954
#
# Stress axis : x y z
#
# Youngs Moduli (GPa) = 59.60259 66.11220 61.10470
#
# Poissons Ratio (x) = 0.24978 -0.16292
# Poissons Ratio (y) = 0.22518 -0.02549
# Poissons Ratio (z) = -0.15892 -0.02757
#
# Static dielectric constant tensor:
#      x y z
#    x 3.828220 0.188270 -0.157780 
#    y 0.188270 3.969230 -0.049530 
#    z -0.157780 -0.049530 3.952580 
# 
# 
# High freq. dielectric constant tensor:
#      x y z
#    x 1.844500 0.018540 -0.011610 
#    y 0.018540 1.879350 -0.009770 
#    z -0.011610 -0.009770 1.883480 
# 
# From -- ./inp_files/564022.got.cif
#   From: 2010.06.25/outbox.cif.g09.slc.cpg/sg2_283_cif.got.tgz:564022.got - 2010.06.27 13:26:56.
