data_PCOD8001439
_publ_section_title
;
Structure prediction by ZEFSAII (Michael W. Deem and Ramdas Pophale) SiO2 
 PCOD8001439
Probable space group: P -1
;
_chemical_formula_sum "Si O2"
_cell_formula_units_Z 16
_cell_length_a 15.332583
_cell_length_b 12.215682
_cell_length_c 11.049354
_cell_angle_alpha 155.673274
_cell_angle_beta 97.065254
_cell_angle_gamma 86.940903
_cell_volume 837.273318
_symmetry_space_group_name_H-M "P -1"
_symmetry_group_IT_number 2
_symmetry_cell_setting 'triclinic'
loop_
_space_group_symop_operation_xyz
x,y,z
-x,-y,-z
loop_
_atom_site_type_symbol
_atom_site_label
_atom_site_fract_x
_atom_site_fract_y
_atom_site_fract_z
Si Si1 0.704156 0.141401 0.216151
Si Si2 0.178643 0.321933 0.249775
Si Si3 0.697814 0.584943 0.276141
Si Si4 0.576910 0.068873 0.345333
Si Si5 0.007438 0.922890 0.063147
Si Si6 0.375484 0.940253 0.134703
Si Si7 0.590431 0.570315 0.013276
Si Si8 0.117352 0.448166 0.633339
O O1 0.765816 0.418295 0.541187
O O2 0.636653 0.053930 0.223398
O O3 0.649326 0.175354 0.119085
O O4 0.764080 0.915169 0.974387
O O5 0.089390 0.219781 0.053572
O O6 0.153001 0.399364 0.457426
O O7 0.671241 0.648685 0.199284
O O8 0.800068 0.534287 0.243336
O O9 0.685474 0.836815 0.613172
O O10 0.636143 0.313607 0.033755
O O11 0.476827 0.080109 0.296470
O O12 0.583809 0.815321 0.172369
O O13 0.611984 0.327356 0.690386
O O14 0.079298 0.727437 0.905230
O O15 0.000000 0.000000 0.000000
O O16 0.041846 0.205501 0.419964
O O17 0.500000 0.500000 0.000000
#
# Coordination Sequence:
#
# PCOD8001439 Si02
#       8
#     2   2   2   2   2   2   2   2
#     4  12  23  37  57  87 121 156 194 228 286 358
#     4  11  20  36  55  84 120 157 181 230 293 349
#     4  12  23  35  64  83 117 156 190 240 292 337
#     4  12  25  40  60  83 116 160 201 241 277 341
#     4  10  20  32  55  83 120 153 181 228 288 359
#     4  12  21  39  56  86 119 155 192 232 292 344
#     4  12  23  43  60  84 111 155 206 246 289 322
#     4  11  19  35  53  88 117 149 190 229 290 349
#
# _framework density 19.109649999999998
#
# number of rings (size 3 to 8) (size 9 to 14) (size 15 to 20)
#    0.000    0.500    5.000    6.750    0.000    0.000 
#    0.000    3.750    0.000    0.000    0.000   17.500 
#    0.000    0.000    0.000    0.000    0.000    0.000 
#
# Total GULP energy -198439.652830 kJ/mol
# GULP energy per Si atom -12402.478302 kJ/mol
# Density = 1.906616 g / cm^3
# Si number density = 19.109650 Si / 1000 Ang^3
#
#
#
# Elastic Constant Matrix: (Units=GPa)
#
#
# Indices 1 2 3 4 5 6 
#
# 1 90.9647 48.5022 8.6156 8.3545 16.2239 -22.5740
# 2 48.5022 73.7513 26.9617 8.9081 2.1992 -10.9592
# 3 8.6156 26.9617 96.7887 21.9993 3.4321 5.4730
# 4 8.3545 8.9081 21.9993 32.1098 -3.6855 -2.3482
# 5 16.2239 2.1992 3.4321 -3.6855 38.6613 2.6244
# 6 -22.5740 -10.9592 5.4730 -2.3482 2.6244 29.0264
#
#
#
# Elastic Compliance Matrix: (Units=1/GPa)
#
#
# Indices 1 2 3 4 5 6 
#
# 1 0.023617 -0.013524 0.002226 -0.004155 -0.010649 0.013468
# 2 -0.013524 0.024248 -0.006027 0.001455 0.005008 -0.000561
# 3 0.002226 -0.006027 0.014202 -0.009195 -0.002474 -0.003743
# 4 -0.004155 0.001455 -0.009195 0.038938 0.006077 0.001652
# 5 -0.010649 0.005008 -0.002474 0.006077 0.031410 -0.008273
# 6 0.013468 -0.000561 -0.003743 0.001652 -0.008273 0.046301
#
#
# Mechanical properties :
#
#
# Convention : Reuss Voigt Hill
#
# Bulk Modulus (GPa) = 36.47677 47.74043 42.10860
# Shear Modulus (GPa) = 22.47124 31.78784 27.12954
#
# Velocity S-wave (km/s) = 3.43288 4.08296 3.77195
# Velocity P-wave (km/s) = 5.90275 6.87488 6.40728
#
# Compressibility (1/GPa) = 0.02741471
#
# Stress axis : x y z
#
# Youngs Moduli (GPa) = 42.34289 41.24006 70.41293
#
# Poissons Ratio (x) = 0.55775 -0.15671
# Poissons Ratio (y) = 0.57266 0.42440
# Poissons Ratio (z) = -0.09424 0.24857
#
# Static dielectric constant tensor:
#      x y z
#    x 3.960050 -0.166780 0.409430 
#    y -0.166780 3.305890 0.108140 
#    z 0.409430 0.108140 3.937380 
# 
# 
# High freq. dielectric constant tensor:
#      x y z
#    x 1.749120 -0.021950 0.007900 
#    y -0.021950 1.708630 0.020570 
#    z 0.007900 0.020570 1.762650 
# 
# From -- ./inp_files/437258.got.cif
#   From: 2010.06.25/outbox.cif.g09.slc.cpg/sg2_219_cif.got.tgz:437258.got - 2010.06.27 13:26:56.
