data_PCOD8001424
_publ_section_title
;
Structure prediction by ZEFSAII (Michael W. Deem and Ramdas Pophale) SiO2 
 PCOD8001424
Probable space group: P -1
;
_chemical_formula_sum "Si O2"
_cell_formula_units_Z 16
_cell_length_a 8.889988
_cell_length_b 24.737558
_cell_length_c 14.477933
_cell_angle_alpha 39.953281
_cell_angle_beta 151.460170
_cell_angle_gamma 141.725673
_cell_volume 909.890203
_symmetry_space_group_name_H-M "P -1"
_symmetry_group_IT_number 2
_symmetry_cell_setting 'triclinic'
loop_
_space_group_symop_operation_xyz
x,y,z
-x,-y,-z
loop_
_atom_site_type_symbol
_atom_site_label
_atom_site_fract_x
_atom_site_fract_y
_atom_site_fract_z
Si Si1 0.256231 0.993349 0.223236
Si Si2 0.663270 0.166596 0.596480
Si Si3 0.099916 0.180193 0.650344
Si Si4 0.881640 0.749259 0.108222
Si Si5 0.845415 0.287472 0.873744
Si Si6 0.283495 0.806214 0.748479
Si Si7 0.838772 0.394011 0.562376
Si Si8 0.227518 0.280773 0.259160
O O1 0.482846 0.088820 0.261099
O O2 0.486468 0.940282 0.371705
O O3 0.033538 0.929449 0.269427
O O4 0.000000 0.000000 0.000000
O O5 0.372637 0.207183 0.395175
O O6 0.935916 0.219091 0.594810
O O7 0.861789 0.173424 0.790916
O O8 0.502853 0.220906 0.822242
O O9 0.003522 0.209984 0.461177
O O10 0.007735 0.768913 0.044158
O O11 0.904863 0.652525 0.278372
O O12 0.503386 0.746072 0.919002
O O13 0.780081 0.367484 0.674959
O O14 0.115756 0.326983 0.050730
O O15 0.108174 0.774187 0.793305
O O16 0.490776 0.357214 0.364650
O O17 0.000000 0.500000 0.500000
#
# Coordination Sequence:
#
# PCOD8001424 Si02
#       8
#     2   2   2   2   2   2   2   2
#     4  10  20  32  54  79 116 150 197 229 271 319
#     4   9  19  35  54  81 113 151 189 229 276 319
#     4  10  20  35  55  82 115 153 192 231 275 325
#     4   9  19  35  59  80 113 149 183 229 289 326
#     4  10  20  38  60  84 111 152 185 228 286 337
#     4  12  19  36  56  82 117 154 189 233 275 329
#     4   9  21  40  61  86 113 138 186 237 281 347
#     4  11  21  37  62  83 113 155 183 228 287 331
#
# _framework density 17.584540000000001
#
# number of rings (size 3 to 8) (size 9 to 14) (size 15 to 20)
#    1.500    0.500    2.500    2.625    0.000    1.000 
#    0.000    1.250    0.000    3.750    0.000    0.000 
#    0.000    0.000    0.000    0.000    0.000    0.000 
#
# Total GULP energy -198218.817261 kJ/mol
# GULP energy per Si atom -12388.676079 kJ/mol
# Density = 1.754452 g / cm^3
# Si number density = 17.584540 Si / 1000 Ang^3
#
#
#
# Elastic Constant Matrix: (Units=GPa)
#
#
# Indices 1 2 3 4 5 6 
#
# 1 108.4548 26.6312 42.5353 2.4048 1.9693 7.4145
# 2 26.6312 86.0843 39.8906 -5.8881 1.9056 7.9666
# 3 42.5353 39.8906 104.5607 14.3775 -11.7349 -1.2296
# 4 2.4048 -5.8881 14.3775 22.9328 -6.9364 -2.2667
# 5 1.9693 1.9056 -11.7349 -6.9364 43.1678 4.6668
# 6 7.4145 7.9666 -1.2296 -2.2667 4.6668 18.7134
#
#
#
# Elastic Compliance Matrix: (Units=1/GPa)
#
#
# Indices 1 2 3 4 5 6 
#
# 1 0.011551 -0.001000 -0.004587 0.000646 -0.001185 -0.004079
# 2 -0.001000 0.016289 -0.007041 0.007915 -0.000681 -0.005872
# 3 -0.004587 -0.007041 0.015856 -0.010033 0.002792 0.003946
# 4 0.000646 0.007915 -0.010033 0.053581 0.005411 0.000856
# 5 -0.001185 -0.000681 0.002792 0.005411 0.025390 -0.004734
# 6 -0.004079 -0.005872 0.003946 0.000856 -0.004734 0.059097
#
#
# Mechanical properties :
#
#
# Convention : Reuss Voigt Hill
#
# Bulk Modulus (GPa) = 54.23522 57.46823 55.85172
# Shear Modulus (GPa) = 23.45585 29.63231 26.54408
#
# Velocity S-wave (km/s) = 3.65621 4.10949 3.88946
# Velocity P-wave (km/s) = 6.98093 7.43433 7.21119
#
# Compressibility (1/GPa) = 0.01843820
#
# Stress axis : x y z
#
# Youngs Moduli (GPa) = 86.57180 61.39258 63.06930
#
# Poissons Ratio (x) = 0.06138 0.28933
# Poissons Ratio (y) = 0.08655 0.44409
# Poissons Ratio (z) = 0.39714 0.43229
#
# Static dielectric constant tensor:
#      x y z
#    x 3.254770 -0.122130 -0.053840 
#    y -0.122130 2.959140 0.063990 
#    z -0.053840 0.063990 3.320400 
# 
# 
# High freq. dielectric constant tensor:
#      x y z
#    x 1.679230 -0.008420 -0.009520 
#    y -0.008420 1.641980 0.011580 
#    z -0.009520 0.011580 1.689040 
# 
# From -- ./inp_files/508443.got.cif
#   From: 2010.06.25/outbox.cif.g09.slc.cpg/sg2_255_cif.got.tgz:508443.got - 2010.06.27 13:26:56.
