data_PCOD8001781
_publ_section_title
;
Structure prediction by ZEFSAII (Michael W. Deem and Ramdas Pophale) SiO2 
 PCOD8001781
Probable space group: P -1
;
_chemical_formula_sum "Si O2"
_cell_formula_units_Z 16
_cell_length_a 12.397881
_cell_length_b 6.431160
_cell_length_c 18.265971
_cell_angle_alpha 88.899956
_cell_angle_beta 119.942100
_cell_angle_gamma 48.552342
_cell_volume 797.251093
_symmetry_space_group_name_H-M "P -1"
_symmetry_group_IT_number 2
_symmetry_cell_setting 'triclinic'
loop_
_space_group_symop_operation_xyz
x,y,z
-x,-y,-z
loop_
_atom_site_type_symbol
_atom_site_label
_atom_site_fract_x
_atom_site_fract_y
_atom_site_fract_z
Si Si1 0.800469 0.217567 0.632826
Si Si2 0.479954 0.758935 0.409599
Si Si3 0.694502 0.627486 0.723057
Si Si4 0.234334 0.736895 0.768280
Si Si5 0.549506 0.006383 0.917760
Si Si6 0.525332 0.464599 0.737978
Si Si7 0.630277 0.145528 0.073769
Si Si8 0.187554 0.243798 0.116521
O O1 0.660216 0.523686 0.528305
O O2 0.712333 0.101839 0.619499
O O3 0.818446 0.314503 0.715533
O O4 0.018333 0.929221 0.673327
O O5 0.547171 0.552856 0.360487
O O6 0.440108 0.050591 0.375396
O O7 0.559657 0.663403 0.731565
O O8 0.841159 0.583610 0.820706
O O9 0.347420 0.399382 0.846916
O O10 0.353135 0.663669 0.738106
O O11 0.208542 0.964364 0.815581
O O12 0.512677 0.819585 0.929411
O O13 0.635538 0.879875 0.867212
O O14 0.703555 0.919179 0.028542
O O15 0.735816 0.089156 0.837221
O O16 0.500000 0.500000 0.000000
O O17 0.000000 0.500000 0.000000
#
# Coordination Sequence:
#
# PCOD8001781 Si02
#       8
#     2   2   2   2   2   2   2   2
#     4  10  21  36  59  85 107 145 185 229 272 334
#     4   9  20  40  58  79 113 144 182 226 284 323
#     4  10  20  38  57  78 111 146 179 228 279 324
#     4  10  20  34  56  81 109 141 186 223 272 325
#     4   9  19  36  52  74 112 146 176 226 270 314
#     4   9  20  39  56  79 110 146 180 228 277 325
#     4   9  18  34  51  75 106 145 176 221 271 317
#     4  10  21  35  55  79 107 146 186 220 265 327
#
# _framework density 20.068959
#
# number of rings (size 3 to 8) (size 9 to 14) (size 15 to 20)
#    0.000    2.500    0.000    1.125    1.750    2.000 
#   18.000    0.625    0.000    0.000    0.000    0.000 
#    0.000    0.000    0.000    0.000    0.000    0.000 
#
# Total GULP energy -198258.213716 kJ/mol
# GULP energy per Si atom -12391.138357 kJ/mol
# Density = 2.002328 g / cm^3
# Si number density = 20.068959 Si / 1000 Ang^3
#
#
#
# Elastic Constant Matrix: (Units=GPa)
#
#
# Indices 1 2 3 4 5 6 
#
# 1 116.1632 38.0458 52.2496 -22.7582 -10.3006 18.3822
# 2 38.0458 53.9905 30.9132 -3.7555 4.7425 9.1298
# 3 52.2496 30.9132 103.9055 -4.5528 2.3110 -4.8589
# 4 -22.7582 -3.7555 -4.5528 22.3670 0.8079 -5.1705
# 5 -10.3006 4.7425 2.3110 0.8079 34.2469 -7.1757
# 6 18.3822 9.1298 -4.8589 -5.1705 -7.1757 29.7708
#
#
#
# Elastic Compliance Matrix: (Units=1/GPa)
#
#
# Indices 1 2 3 4 5 6 
#
# 1 0.018456 -0.007465 -0.006846 0.014454 0.005360 -0.006421
# 2 -0.007465 0.028230 -0.005072 -0.005374 -0.007270 -0.007561
# 3 -0.006846 -0.005072 0.014809 -0.003044 -0.000713 0.007499
# 4 0.014454 -0.005374 -0.003044 0.058538 0.004652 0.003515
# 5 0.005360 -0.007270 -0.000713 0.004652 0.033360 0.007652
# 6 -0.006421 -0.007561 0.007499 0.003515 0.007652 0.043552
#
#
# Mechanical properties :
#
#
# Convention : Reuss Voigt Hill
#
# Bulk Modulus (GPa) = 43.99846 57.38626 50.69236
# Shear Modulus (GPa) = 20.55172 27.46698 24.00935
#
# Velocity S-wave (km/s) = 3.20356 3.70351 3.46257
# Velocity P-wave (km/s) = 5.97118 6.85162 6.42649
#
# Compressibility (1/GPa) = 0.02272807
#
# Stress axis : x y z
#
# Youngs Moduli (GPa) = 54.18244 35.42335 67.52732
#
# Poissons Ratio (x) = 0.26445 0.46229
# Poissons Ratio (y) = 0.40450 0.34250
# Poissons Ratio (z) = 0.37093 0.17967
#
# Static dielectric constant tensor:
#      x y z
#    x 3.685760 0.118010 -0.259670 
#    y 0.118010 3.707320 0.322330 
#    z -0.259670 0.322330 3.722590 
# 
# 
# High freq. dielectric constant tensor:
#      x y z
#    x 1.782940 0.013580 -0.023870 
#    y 0.013580 1.770840 0.020060 
#    z -0.023870 0.020060 1.778490 
# 
# From -- ./inp_files/82768.got.cif
#   From: 2010.06.25/outbox.cif.g09.slc.cpg/sg2_42_cif.got.tgz:82768.got - 2010.06.27 13:26:56.
