data_PCOD8001832
_publ_section_title
;
Structure prediction by ZEFSAII (Michael W. Deem and Ramdas Pophale) SiO2 
 PCOD8001832
Probable space group: P -1
;
_chemical_formula_sum "Si O2"
_cell_formula_units_Z 16
_cell_length_a 12.873603
_cell_length_b 10.302613
_cell_length_c 13.468687
_cell_angle_alpha 40.099206
_cell_angle_beta 131.639489
_cell_angle_gamma 125.796286
_cell_volume 848.937955
_symmetry_space_group_name_H-M "P -1"
_symmetry_group_IT_number 2
_symmetry_cell_setting 'triclinic'
loop_
_space_group_symop_operation_xyz
x,y,z
-x,-y,-z
loop_
_atom_site_type_symbol
_atom_site_label
_atom_site_fract_x
_atom_site_fract_y
_atom_site_fract_z
Si Si1 0.167341 0.971538 0.011713
Si Si2 0.561883 0.196609 0.709840
Si Si3 0.150123 0.742852 0.503902
Si Si4 0.832658 0.672378 0.344372
Si Si5 0.849877 0.899467 0.853779
Si Si6 0.405402 0.779872 0.772632
Si Si7 0.594598 0.580269 0.867230
Si Si8 0.438117 0.445596 0.647956
O O1 0.272590 0.807450 0.165455
O O2 0.186028 0.084668 0.062870
O O3 0.008387 0.853187 0.967111
O O4 0.207252 0.141962 0.853626
O O5 0.500002 0.276070 0.723933
O O6 0.540516 0.339185 0.520259
O O7 0.482544 0.971133 0.770273
O O8 0.186031 0.524379 0.623160
O O9 0.257459 0.831445 0.606889
O O10 0.991613 0.720975 0.458725
O O11 0.167201 0.889081 0.333600
O O12 0.727410 0.634231 0.392866
O O13 0.742541 0.712235 0.849430
O O14 0.500002 0.732635 0.767370
O O15 0.373205 0.588525 0.936603
O O16 0.517452 0.470871 0.787724
#
# Coordination Sequence:
#
# PCOD8001832 Si02
#       8
#     2   2   2   2   2   2   2   2
#     4  10  20  35  56  85 116 149 189 231 284 339
#     4  11  24  40  59  84 115 153 193 233 284 342
#     4  10  20  34  57  86 116 148 186 236 284 332
#     4  10  20  35  56  85 116 149 189 231 284 339
#     4  10  20  34  57  86 116 148 186 236 284 332
#     4  11  22  36  58  88 116 147 192 238 281 334
#     4  11  22  36  58  88 116 147 192 238 281 334
#     4  11  24  40  59  84 115 153 193 233 284 342
#
# _framework density 18.847078
#
# number of rings (size 3 to 8) (size 9 to 14) (size 15 to 20)
#    0.000    1.500    2.500    3.000    0.000    6.000 
#    0.000    1.250    0.000    0.000    0.000    0.000 
#    0.000    0.000    0.000    0.000    0.000    0.000 
#
# Total GULP energy -198483.198934 kJ/mol
# GULP energy per Si atom -12405.199933 kJ/mol
# Density = 1.880418 g / cm^3
# Si number density = 18.847078 Si / 1000 Ang^3
#
#
#
# Elastic Constant Matrix: (Units=GPa)
#
#
# Indices 1 2 3 4 5 6 
#
# 1 114.5128 50.8869 34.9122 4.3717 12.1327 5.7750
# 2 50.8869 86.1435 29.3889 5.8923 9.5609 8.4524
# 3 34.9122 29.3889 74.5449 12.4922 17.8109 -1.0910
# 4 4.3717 5.8923 12.4922 25.9635 3.4924 2.6817
# 5 12.1327 9.5609 17.8109 3.4924 27.5557 0.6656
# 6 5.7750 8.4524 -1.0910 2.6817 0.6656 31.0324
#
#
#
# Elastic Compliance Matrix: (Units=1/GPa)
#
#
# Indices 1 2 3 4 5 6 
#
# 1 0.012643 -0.006160 -0.003372 0.001166 -0.001377 -0.000865
# 2 -0.006160 0.016931 -0.003571 -0.000631 -0.000689 -0.003521
# 3 -0.003372 -0.003571 0.019882 -0.007262 -0.009283 0.003126
# 4 0.001166 -0.000631 -0.007262 0.042485 -0.000889 -0.003953
# 5 -0.001377 -0.000689 -0.009283 -0.000889 0.043266 -0.000734
# 6 -0.000865 -0.003521 0.003126 -0.003953 -0.000734 0.033812
#
#
# Mechanical properties :
#
#
# Convention : Reuss Voigt Hill
#
# Bulk Modulus (GPa) = 43.01021 56.17526 49.59274
# Shear Modulus (GPa) = 24.63358 27.57785 26.10571
#
# Velocity S-wave (km/s) = 3.61920 3.82939 3.72578
# Velocity P-wave (km/s) = 6.35098 7.03013 6.69917
#
# Compressibility (1/GPa) = 0.02325029
#
# Stress axis : x y z
#
# Youngs Moduli (GPa) = 79.09456 59.06303 50.29585
#
# Poissons Ratio (x) = 0.36385 0.16958
# Poissons Ratio (y) = 0.48725 0.17961
# Poissons Ratio (z) = 0.26668 0.21092
#
# Static dielectric constant tensor:
#      x y z
#    x 3.597570 0.256680 0.134970 
#    y 0.256680 3.263820 0.032600 
#    z 0.134970 0.032600 3.546240 
# 
# 
# High freq. dielectric constant tensor:
#      x y z
#    x 1.728460 0.027520 0.001620 
#    y 0.027520 1.714020 0.000140 
#    z 0.001620 0.000140 1.747840 
# 
# From -- ./inp_files/177848.got.cif
#   From: 2010.06.25/outbox.cif.g09.slc.cpg/sg2_89_cif.got.tgz:177848.got - 2010.06.27 13:26:56.
