data_PCOD8001833
_publ_section_title
;
Structure prediction by ZEFSAII (Michael W. Deem and Ramdas Pophale) SiO2 
 PCOD8001833
Probable space group: P -1
;
_chemical_formula_sum "Si O2"
_cell_formula_units_Z 16
_cell_length_a 11.776149
_cell_length_b 22.344342
_cell_length_c 21.507450
_cell_angle_alpha 19.516485
_cell_angle_beta 28.728767
_cell_angle_gamma 24.653758
_cell_volume 780.254280
_symmetry_space_group_name_H-M "P -1"
_symmetry_group_IT_number 2
_symmetry_cell_setting 'triclinic'
loop_
_space_group_symop_operation_xyz
x,y,z
-x,-y,-z
loop_
_atom_site_type_symbol
_atom_site_label
_atom_site_fract_x
_atom_site_fract_y
_atom_site_fract_z
Si Si1 0.200182 0.049369 0.576825
Si Si2 0.413020 0.863468 0.538301
Si Si3 0.151773 0.600238 0.909159
Si Si4 0.721493 0.486566 0.583498
Si Si5 0.728927 0.848571 0.288936
Si Si6 0.964459 0.587232 0.618720
Si Si7 0.585757 0.701537 0.029280
Si Si8 0.813291 0.355702 0.007411
O O1 0.196559 0.058184 0.494402
O O2 0.500000 0.000000 0.500000
O O3 0.990278 0.265393 0.499346
O O4 0.115193 0.881336 0.801705
O O5 0.263407 0.752519 0.688519
O O6 0.527899 0.945015 0.350115
O O7 0.663358 0.695552 0.625926
O O8 0.844170 0.706412 0.927645
O O9 0.351266 0.384195 0.988196
O O10 0.147959 0.576690 0.008484
O O11 0.636319 0.717930 0.419127
O O12 0.959032 0.306956 0.688433
O O13 0.802732 0.476440 0.482550
O O14 0.470184 0.447396 0.752988
O O15 0.677622 0.060186 0.073563
O O16 0.002103 0.390284 0.833331
O O17 0.500000 0.500000 0.000000
#
# Coordination Sequence:
#
# PCOD8001833 Si02
#       8
#     2   2   2   2   2   2   2   2
#     4   9  17  29  50  85 116 138 181 237 292 343
#     4   9  17  35  54  88 119 139 192 253 284 347
#     4  10  22  38  58  90 123 149 200 244 291 358
#     4  10  22  40  57  87 119 150 205 244 277 364
#     4  10  21  36  63  83 114 159 197 243 297 332
#     4  10  20  34  57  86 116 148 186 246 297 335
#     4  11  23  40  58  85 123 162 191 240 297 354
#     4  11  19  33  59  85 116 149 189 247 294 333
#
# _framework density 20.506136000000001
#
# number of rings (size 3 to 8) (size 9 to 14) (size 15 to 20)
#    0.000    2.000    5.000    0.375    1.750    2.500 
#    0.000    0.625    0.000    3.750    0.000    0.000 
#    0.000    0.000    0.000    0.000    0.000    0.000 
#
# Total GULP energy -198269.102315 kJ/mol
# GULP energy per Si atom -12391.818895 kJ/mol
# Density = 2.045946 g / cm^3
# Si number density = 20.506136 Si / 1000 Ang^3
#
#
#
# Elastic Constant Matrix: (Units=GPa)
#
#
# Indices 1 2 3 4 5 6 
#
# 1 72.9839 25.1601 28.2499 -3.6010 -13.6255 23.4409
# 2 25.1601 68.7543 40.5556 -8.1178 -1.7236 23.8871
# 3 28.2499 40.5556 115.6790 -1.3178 -7.2709 24.0886
# 4 -3.6010 -8.1178 -1.3178 31.2103 9.4557 -3.1130
# 5 -13.6255 -1.7236 -7.2709 9.4557 31.0395 3.3527
# 6 23.4409 23.8871 24.0886 -3.1130 3.3527 27.1340
#
#
#
# Elastic Compliance Matrix: (Units=1/GPa)
#
#
# Indices 1 2 3 4 5 6 
#
# 1 0.023270 -0.001297 -0.000034 -0.003871 0.013588 -0.021054
# 2 -0.001297 0.023497 -0.004797 0.004315 -0.000104 -0.014798
# 3 -0.000034 -0.004797 0.012087 -0.002734 0.004173 -0.007308
# 4 -0.003871 0.004315 -0.002734 0.037799 -0.014490 0.008099
# 5 0.013588 -0.000104 0.004173 -0.014490 0.046019 -0.022700
# 6 -0.021054 -0.014798 -0.007308 0.008099 -0.022700 0.078292
#
#
# Mechanical properties :
#
#
# Convention : Reuss Voigt Hill
#
# Bulk Modulus (GPa) = 21.45994 49.48316 35.47155
# Shear Modulus (GPa) = 20.10033 28.77354 24.43693
#
# Velocity S-wave (km/s) = 3.13423 3.74995 3.45583
# Velocity P-wave (km/s) = 4.85651 6.55231 5.76708
#
# Compressibility (1/GPa) = 0.04659844
#
# Stress axis : x y z
#
# Youngs Moduli (GPa) = 42.97426 42.55895 82.73010
#
# Poissons Ratio (x) = 0.05521 0.00279
# Poissons Ratio (y) = 0.05575 0.39684
# Poissons Ratio (z) = 0.00145 0.20415
#
# Static dielectric constant tensor:
#      x y z
#    x 3.886020 0.637840 -0.077580 
#    y 0.637840 3.726390 0.058640 
#    z -0.077580 0.058640 3.624040 
# 
# 
# High freq. dielectric constant tensor:
#      x y z
#    x 1.782190 0.034490 -0.013390 
#    y 0.034490 1.778570 0.004340 
#    z -0.013390 0.004340 1.812290 
# 
# From -- ./inp_files/531720.got.cif
#   From: 2010.06.25/outbox.cif.g09.slc.cpg/sg2_266_cif.got.tgz:531720.got - 2010.06.27 13:26:56.
