data_PCOD8001874
_publ_section_title
;
Structure prediction by ZEFSAII (Michael W. Deem and Ramdas Pophale) SiO2 
 PCOD8001874
Probable space group: P -1
;
_chemical_formula_sum "Si O2"
_cell_formula_units_Z 16
_cell_length_a 8.907934
_cell_length_b 8.976176
_cell_length_c 10.717884
_cell_angle_alpha 92.900979
_cell_angle_beta 95.661676
_cell_angle_gamma 60.002777
_cell_volume 738.577263
_symmetry_space_group_name_H-M "P -1"
_symmetry_group_IT_number 2
_symmetry_cell_setting 'triclinic'
loop_
_space_group_symop_operation_xyz
x,y,z
-x,-y,-z
loop_
_atom_site_type_symbol
_atom_site_label
_atom_site_fract_x
_atom_site_fract_y
_atom_site_fract_z
Si Si1 0.682443 0.501292 0.888251
Si Si2 0.243655 0.011149 0.503351
Si Si3 0.093919 0.859357 0.148147
Si Si4 0.553504 0.859454 0.847080
Si Si5 0.098853 0.845725 0.660988
Si Si6 0.549907 0.846277 0.341043
Si Si7 0.331159 0.500116 0.821458
Si Si8 0.256887 0.989303 0.996722
O O1 0.831371 0.338637 0.818918
O O2 0.676859 0.659340 0.819118
O O3 0.503311 0.508154 0.848965
O O4 0.729293 0.501503 0.040184
O O5 0.237059 0.880577 0.599680
O O6 0.385036 0.874542 0.410908
O O7 0.302310 0.144549 0.564784
O O8 0.051073 0.144534 0.441479
O O9 0.262299 0.864781 0.103483
O O10 0.011802 0.985996 0.258883
O O11 0.947053 0.893975 0.036371
O O12 0.527933 0.979517 0.736516
O O13 0.658431 0.894040 0.964256
O O14 0.370910 0.876348 0.883589
O O15 0.188185 0.669095 0.740289
O O16 0.633824 0.672304 0.258280
#
# Coordination Sequence:
#
# PCOD8001874 Si02
#       8
#     2   2   2   2   2   2   2   2
#     4  11  22  35  60  97 128 160 198 234 302 389
#     4  10  24  44  64  86 116 162 216 260 302 348
#     4  11  21  38  60  88 127 163 197 245 301 363
#     4  11  21  38  60  88 127 163 197 245 301 363
#     4  11  23  42  65  89 122 162 207 258 304 349
#     4  11  23  42  65  89 122 162 207 258 304 349
#     4  11  22  38  64  94 124 159 198 248 308 370
#     4  10  20  34  58  86 122 164 196 236 302 372
#
# _framework density 21.663273
#
# number of rings (size 3 to 8) (size 9 to 14) (size 15 to 20)
#    0.000    1.250    0.000    9.000    0.000    1.500 
#    0.000   10.000    0.000    0.000    0.000    0.000 
#    0.000    0.000    0.000    0.000    0.000    0.000 
#
# Total GULP energy -198215.668877 kJ/mol
# GULP energy per Si atom -12388.479305 kJ/mol
# Density = 2.161397 g / cm^3
# Si number density = 21.663273 Si / 1000 Ang^3
#
#
#
# Elastic Constant Matrix: (Units=GPa)
#
#
# Indices 1 2 3 4 5 6 
#
# 1 88.1842 26.5971 21.9209 -6.1909 -9.6073 7.2270
# 2 26.5971 172.4075 51.6369 -12.2650 7.3948 14.4534
# 3 21.9209 51.6369 89.6428 -7.1882 -4.0360 8.8455
# 4 -6.1909 -12.2650 -7.1882 33.1953 5.1304 6.4244
# 5 -9.6073 7.3948 -4.0360 5.1304 24.6069 -8.1820
# 6 7.2270 14.4534 8.8455 6.4244 -8.1820 11.6470
#
#
#
# Elastic Compliance Matrix: (Units=1/GPa)
#
#
# Indices 1 2 3 4 5 6 
#
# 1 0.012957 -0.001162 -0.001832 0.001770 0.003500 -0.003723
# 2 -0.001162 0.010456 -0.002991 0.010391 -0.014977 -0.026236
# 3 -0.001832 -0.002991 0.014441 0.003583 -0.001156 -0.008907
# 4 0.001770 0.010391 0.003583 0.055205 -0.037886 -0.073780
# 5 0.003500 -0.014977 -0.001156 -0.037886 0.087309 0.099524
# 6 -0.003723 -0.026236 -0.008907 -0.073780 0.099524 0.238104
#
#
# Mechanical properties :
#
#
# Convention : Reuss Voigt Hill
#
# Bulk Modulus (GPa) = 38.63582 61.17161 49.90371
# Shear Modulus (GPa) = 11.38774 30.56179 20.97477
#
# Velocity S-wave (km/s) = 2.29524 3.76009 3.11500
# Velocity P-wave (km/s) = 4.98975 6.86657 6.00197
#
# Compressibility (1/GPa) = 0.02588272
#
# Stress axis : x y z
#
# Youngs Moduli (GPa) = 77.18096 95.63448 69.24962
#
# Poissons Ratio (x) = 0.11115 0.12686
# Poissons Ratio (y) = 0.08970 0.20714
# Poissons Ratio (z) = 0.14139 0.28606
#
# Static dielectric constant tensor:
#      x y z
#    x 4.433310 0.020140 0.235830 
#    y 0.020140 4.317590 0.002780 
#    z 0.235830 0.002780 4.033160 
# 
# 
# High freq. dielectric constant tensor:
#      x y z
#    x 1.860890 0.000930 0.012080 
#    y 0.000930 1.848560 -0.000440 
#    z 0.012080 -0.000440 1.842140 
# 
# From -- ./inp_files/382318.got.cif
#   From: 2010.06.25/outbox.cif.g09.slc.cpg/sg2_192_cif.got.tgz:382318.got - 2010.06.27 13:26:56.
