data_PCOD8001637
_publ_section_title
;
Structure prediction by ZEFSAII (Michael W. Deem and Ramdas Pophale) SiO2 
 PCOD8001637
Probable space group: P -1
;
_chemical_formula_sum "Si O2"
_cell_formula_units_Z 16
_cell_length_a 11.743805
_cell_length_b 11.508343
_cell_length_c 12.670997
_cell_angle_alpha 53.209341
_cell_angle_beta 71.750187
_cell_angle_gamma 113.518780
_cell_volume 828.990681
_symmetry_space_group_name_H-M "P -1"
_symmetry_group_IT_number 2
_symmetry_cell_setting 'triclinic'
loop_
_space_group_symop_operation_xyz
x,y,z
-x,-y,-z
loop_
_atom_site_type_symbol
_atom_site_label
_atom_site_fract_x
_atom_site_fract_y
_atom_site_fract_z
Si Si1 0.403731 0.456471 0.942810
Si Si2 0.488639 0.943792 0.369333
Si Si3 0.266992 0.654062 0.069561
Si Si4 0.039143 0.170483 0.318605
Si Si5 0.358704 0.070255 0.473717
Si Si6 0.744807 0.386678 0.577020
Si Si7 0.513405 0.733498 0.116484
Si Si8 0.153760 0.763714 0.211803
O O1 0.483778 0.685983 0.761850
O O2 0.451230 0.393972 0.867009
O O3 0.500000 0.500000 0.000000
O O4 0.178352 0.252206 0.138785
O O5 0.577448 0.904760 0.439970
O O6 0.381358 0.759204 0.409021
O O7 0.343500 0.908644 0.496982
O O8 0.660207 0.203381 0.135782
O O9 0.137306 0.393047 0.231847
O O10 0.451752 0.779884 0.013128
O O11 0.147018 0.658810 0.166734
O O12 0.000000 0.000000 0.500000
O O13 0.841793 0.038231 0.400657
O O14 0.646992 0.413939 0.666601
O O15 0.780093 0.266770 0.689766
O O16 0.947762 0.641817 0.350093
O O17 0.702359 0.969719 0.987146
#
# Coordination Sequence:
#
# PCOD8001637 Si02
#       8
#     2   2   2   2   2   2   2   2
#     4  12  23  42  62  87 126 160 201 258 305 358
#     4  11  21  42  65  85 133 159 199 258 305 370
#     4  11  19  37  62  91 125 158 196 257 312 349
#     4  12  24  39  65  93 123 162 206 255 305 364
#     4  11  25  41  61  95 118 168 207 244 313 368
#     4  10  20  36  59  91 119 158 198 256 302 354
#     4  11  20  36  61  89 122 154 203 248 309 353
#     4  10  20  33  61  93 118 153 207 251 305 358
#
# _framework density 19.300578999999999
#
# number of rings (size 3 to 8) (size 9 to 14) (size 15 to 20)
#    0.000    1.000    6.250    1.500    0.000    4.500 
#    2.250    0.625    0.000    1.500    0.000    0.000 
#    0.000    0.000    0.000    0.000    0.000    0.000 
#
# Total GULP energy -198420.634335 kJ/mol
# GULP energy per Si atom -12401.289646 kJ/mol
# Density = 1.925665 g / cm^3
# Si number density = 19.300579 Si / 1000 Ang^3
#
#
#
# Elastic Constant Matrix: (Units=GPa)
#
#
# Indices 1 2 3 4 5 6 
#
# 1 117.2424 53.1342 61.1908 10.2206 -17.8351 0.9614
# 2 53.1342 115.8625 38.4419 7.6635 -6.1213 -10.4936
# 3 61.1908 38.4419 114.1854 -1.0217 -16.2855 6.1155
# 4 10.2206 7.6635 -1.0217 31.6351 -1.8673 0.6680
# 5 -17.8351 -6.1213 -16.2855 -1.8673 40.1540 10.0707
# 6 0.9614 -10.4936 6.1155 0.6680 10.0707 31.1809
#
#
#
# Elastic Compliance Matrix: (Units=1/GPa)
#
#
# Indices 1 2 3 4 5 6 
#
# 1 0.014367 -0.004493 -0.005571 -0.003468 0.003780 -0.002009
# 2 -0.004493 0.011925 -0.002280 -0.001777 -0.002555 0.005462
# 3 -0.005571 -0.002280 0.013332 0.003106 0.003864 -0.004525
# 4 -0.003468 -0.001777 0.003106 0.033404 0.001586 -0.002328
# 5 0.003780 -0.002555 0.003864 0.001586 0.030771 -0.011707
# 6 -0.002009 0.005462 -0.004525 -0.002328 -0.011707 0.038689
#
#
# Mechanical properties :
#
#
# Convention : Reuss Voigt Hill
#
# Bulk Modulus (GPa) = 66.95030 72.53600 69.74315
# Shear Modulus (GPa) = 29.04375 33.56221 31.30298
#
# Velocity S-wave (km/s) = 3.88340 4.17456 4.03161
# Velocity P-wave (km/s) = 7.40751 7.80384 7.60826
#
# Compressibility (1/GPa) = 0.01493645
#
# Stress axis : x y z
#
# Youngs Moduli (GPa) = 69.60485 83.85657 75.00875
#
# Poissons Ratio (x) = 0.37678 0.41785
# Poissons Ratio (y) = 0.31275 0.17100
# Poissons Ratio (z) = 0.38775 0.19117
#
# Static dielectric constant tensor:
#      x y z
#    x 3.450740 -0.120470 -0.275190 
#    y -0.120470 3.501210 0.071040 
#    z -0.275190 0.071040 3.670590 
# 
# 
# High freq. dielectric constant tensor:
#      x y z
#    x 1.729610 -0.011440 -0.021670 
#    y -0.011440 1.751120 0.001810 
#    z -0.021670 0.001810 1.753830 
# 
# From -- ./inp_files/427567.got.cif
#   From: 2010.06.25/outbox.cif.g09.slc.cpg/sg2_214_cif.got.tgz:427567.got - 2010.06.27 13:26:56.
