data_PCOD8001391
_publ_section_title
;
Structure prediction by ZEFSAII (Michael W. Deem and Ramdas Pophale) SiO2 
 PCOD8001391
Probable space group: P -1
;
_chemical_formula_sum "Si O2"
_cell_formula_units_Z 14
_cell_length_a 11.350977
_cell_length_b 8.745194
_cell_length_c 17.765534
_cell_angle_alpha 130.222168
_cell_angle_beta 41.451945
_cell_angle_gamma 101.743474
_cell_volume 741.577817
_symmetry_space_group_name_H-M "P -1"
_symmetry_group_IT_number 2
_symmetry_cell_setting 'triclinic'
loop_
_space_group_symop_operation_xyz
x,y,z
-x,-y,-z
loop_
_atom_site_type_symbol
_atom_site_label
_atom_site_fract_x
_atom_site_fract_y
_atom_site_fract_z
Si Si1 0.539955 0.204748 0.683537
Si Si2 0.799746 0.312443 0.358518
Si Si3 0.658962 0.478813 0.979562
Si Si4 0.897474 0.737540 0.929722
Si Si5 0.163966 0.392775 0.819002
Si Si6 0.916780 0.978479 0.330463
Si Si7 0.562027 0.159827 0.317955
O O1 0.392574 0.323253 0.717438
O O2 0.780903 0.104940 0.511525
O O3 0.525051 0.989682 0.652728
O O4 0.469518 0.403434 0.844535
O O5 0.673699 0.211394 0.347441
O O6 0.638272 0.595623 0.542566
O O7 0.999348 0.260693 0.196963
O O8 0.897028 0.178640 0.347975
O O9 0.773702 0.607037 0.935887
O O10 0.836010 0.198934 0.821695
O O11 0.500000 0.500000 0.000000
O O12 0.085564 0.594080 0.856004
O O13 0.733095 0.011017 0.122772
O O14 0.178474 0.160672 0.706522
O O15 0.000000 0.500000 0.000000
#
# Coordination Sequence:
#
# PCOD8001391 Si02
#       7
#     2   2   2   2   2   2   2
#     4  11  21  36  60  85 115 149 188 236 281 333
#     4  11  22  32  50  87 124 152 175 209 286 354
#     4  10  23  43  64  81 101 146 207 249 280 316
#     4  10  21  36  56  81 118 150 180 235 278 333
#     4  11  17  34  57  86 117 151 185 227 283 335
#     4  11  22  35  58  86 119 148 185 233 280 342
#     4  10  20  32  50  82 120 155 174 211 272 350
#
# _framework density 18.878665999999999
#
# number of rings (size 3 to 8) (size 9 to 14) (size 15 to 20)
#    0.000    1.429    5.714    2.571    4.000    1.714 
#    0.000    0.714    0.000    4.286    0.000    0.000 
#    0.000    0.000    0.000    0.000    0.000    0.000 
#
# Total GULP energy -173652.841062 kJ/mol
# GULP energy per Si atom -12403.774362 kJ/mol
# Density = 1.883570 g / cm^3
# Si number density = 18.878666 Si / 1000 Ang^3
#
#
#
# Elastic Constant Matrix: (Units=GPa)
#
#
# Indices 1 2 3 4 5 6 
#
# 1 109.4536 31.2296 49.7753 10.4848 -12.5270 -14.1996
# 2 31.2296 91.4819 75.9090 -1.1935 -6.3775 -21.1572
# 3 49.7753 75.9090 167.5932 4.2734 -8.6313 -20.8760
# 4 10.4848 -1.1935 4.2734 29.9252 -9.9301 1.6105
# 5 -12.5270 -6.3775 -8.6313 -9.9301 13.2565 3.8727
# 6 -14.1996 -21.1572 -20.8760 1.6105 3.8727 13.6063
#
#
#
# Elastic Compliance Matrix: (Units=1/GPa)
#
#
# Indices 1 2 3 4 5 6 
#
# 1 0.012069 -0.000161 -0.002205 -0.002365 0.005912 0.007559
# 2 -0.000161 0.022409 -0.007186 0.000488 -0.000629 0.023774
# 3 -0.002205 -0.007186 0.010188 -0.001305 -0.000611 0.002484
# 4 -0.002365 0.000488 -0.001305 0.048761 0.039751 -0.020798
# 5 0.005912 -0.000629 -0.000611 0.039751 0.120225 -0.034671
# 6 0.007559 0.023774 0.002484 -0.020798 -0.034671 0.134494
#
#
# Mechanical properties :
#
#
# Convention : Reuss Voigt Hill
#
# Bulk Modulus (GPa) = 39.11977 75.81740 57.46858
# Shear Modulus (GPa) = 13.30602 25.46525 19.38563
#
# Velocity S-wave (km/s) = 2.65772 3.67671 3.20793
# Velocity P-wave (km/s) = 5.49405 7.63360 6.65043
#
# Compressibility (1/GPa) = 0.02556253
#
# Stress axis : x y z
#
# Youngs Moduli (GPa) = 82.85813 44.62446 98.15690
#
# Poissons Ratio (x) = 0.00716 0.21647
# Poissons Ratio (y) = 0.01330 0.70533
# Poissons Ratio (z) = 0.18273 0.32066
#
# Static dielectric constant tensor:
#      x y z
#    x 3.199240 -0.219200 -0.083140 
#    y -0.219200 3.428540 0.174620 
#    z -0.083140 0.174620 3.918670 
# 
# 
# High freq. dielectric constant tensor:
#      x y z
#    x 1.686920 -0.014760 -0.001400 
#    y -0.014760 1.727320 0.004230 
#    z -0.001400 0.004230 1.760090 
# 
# From -- ./inp_files/251287.got.cif
#   From: 2010.06.25/outbox.cif.g09.slc.cpg/sg2_126_cif.got.tgz:251287.got - 2010.06.27 13:26:56.
