data_PCOD8001254
_publ_section_title
;
Structure prediction by ZEFSAII (Michael W. Deem and Ramdas Pophale) SiO2 
 PCOD8001254
Probable space group: P -1
;
_chemical_formula_sum "Si O2"
_cell_formula_units_Z 16
_cell_length_a 18.732874
_cell_length_b 22.637945
_cell_length_c 9.671279
_cell_angle_alpha 36.900649
_cell_angle_beta 36.150317
_cell_angle_gamma 16.774167
_cell_volume 689.687582
_symmetry_space_group_name_H-M "P -1"
_symmetry_group_IT_number 2
_symmetry_cell_setting 'triclinic'
loop_
_space_group_symop_operation_xyz
x,y,z
-x,-y,-z
loop_
_atom_site_type_symbol
_atom_site_label
_atom_site_fract_x
_atom_site_fract_y
_atom_site_fract_z
Si Si1 0.262208 0.345986 0.078680
Si Si2 0.028518 0.703354 0.701845
Si Si3 0.130883 0.765261 0.037564
Si Si4 0.888742 0.747052 0.405170
Si Si5 0.425655 0.941491 0.458544
Si Si6 0.270279 0.100431 0.935158
Si Si7 0.415783 0.569763 0.229714
Si Si8 0.562299 0.237412 0.049347
O O1 0.083176 0.387700 0.344984
O O2 0.372672 0.337749 0.039665
O O3 0.486086 0.143844 0.010339
O O4 0.084628 0.546281 0.891728
O O5 0.288002 0.578526 0.508724
O O6 0.828488 0.877608 0.572072
O O7 0.916500 0.813254 0.821511
O O8 0.230370 0.735143 0.084429
O O9 0.117026 0.654659 0.275641
O O10 0.322227 0.660758 0.811865
O O11 0.854998 0.006460 0.981692
O O12 0.627823 0.972867 0.463869
O O13 0.881509 0.769070 0.211503
O O14 0.641813 0.857017 0.214608
O O15 0.510763 0.768698 0.681572
O O16 0.476893 0.619588 0.135568
#
# Coordination Sequence:
#
# PCOD8001254 Si02
#       8
#     2   2   2   2   2   2   2   2
#     4  11  24  42  69 101 129 173 210 270 338 387
#     4  12  27  41  61 104 141 160 217 276 329 376
#     4  10  22  43  70  93 124 172 230 267 308 381
#     4  10  19  42  74  92 126 170 224 260 316 400
#     4  10  20  44  69  97 129 170 219 273 316 394
#     4  11  22  43  69  97 135 170 209 274 335 384
#     4  11  25  43  64  98 130 174 225 268 308 389
#     4  11  21  43  75  89 125 178 225 259 317 388
#
# _framework density 23.198907999999999
#
# number of rings (size 3 to 8) (size 9 to 14) (size 15 to 20)
#    0.000    1.250    6.250    1.500    1.750    5.000 
#    2.250    1.250    0.000    0.000    0.000    0.000 
#    0.000    0.000    0.000    0.000    0.000    0.000 
#
# Total GULP energy -198371.654086 kJ/mol
# GULP energy per Si atom -12398.228380 kJ/mol
# Density = 2.314611 g / cm^3
# Si number density = 23.198908 Si / 1000 Ang^3
#
#
#
# Elastic Constant Matrix: (Units=GPa)
#
#
# Indices 1 2 3 4 5 6 
#
# 1 66.8959 0.0520 21.1584 12.2240 -12.8971 8.5792
# 2 0.0520 24.5125 18.1830 11.3746 8.7503 14.0635
# 3 21.1584 18.1830 105.5711 20.9982 -0.2499 20.4392
# 4 12.2240 11.3746 20.9982 43.4816 1.2437 -0.0305
# 5 -12.8971 8.7503 -0.2499 1.2437 30.0147 2.3798
# 6 8.5792 14.0635 20.4392 -0.0305 2.3798 28.1231
#
#
#
# Elastic Compliance Matrix: (Units=1/GPa)
#
#
# Indices 1 2 3 4 5 6 
#
# 1 0.019221 0.006621 -0.002120 -0.006325 0.007228 -0.008253
# 2 0.006621 0.081516 -0.003771 -0.020905 -0.017022 -0.038625
# 3 -0.002120 -0.003771 0.012799 -0.004633 0.001031 -0.006862
# 4 -0.006325 -0.020905 -0.004633 0.032472 0.000746 0.015722
# 5 0.007228 -0.017022 0.001031 0.000746 0.041199 0.002072
# 6 -0.008253 -0.038625 -0.006862 0.015722 0.002072 0.062219
#
#
# Mechanical properties :
#
#
# Convention : Reuss Voigt Hill
#
# Bulk Modulus (GPa) = 8.69592 30.64071 19.66832
# Shear Modulus (GPa) = 17.46432 30.82962 24.14697
#
# Velocity S-wave (km/s) = 2.74671 3.64940 3.22975
# Velocity P-wave (km/s) = 3.71696 5.56722 4.73338
#
# Compressibility (1/GPa) = 0.11499639
#
# Stress axis : x y z
#
# Youngs Moduli (GPa) = 52.02509 12.26755 78.13064
#
# Poissons Ratio (x) = -0.08123 0.16563
# Poissons Ratio (y) = -0.34447 0.29465
# Poissons Ratio (z) = 0.11029 0.04626
#
# Static dielectric constant tensor:
#      x y z
#    x 4.150040 -0.002940 -0.223060 
#    y -0.002940 3.925280 0.223690 
#    z -0.223060 0.223690 4.306470 
# 
# 
# High freq. dielectric constant tensor:
#      x y z
#    x 1.915700 -0.003890 -0.010760 
#    y -0.003890 1.902160 0.016900 
#    z -0.010760 0.016900 1.912280 
# 
# From -- ./inp_files/338073.got.cif
#   From: 2010.06.25/outbox.cif.g09.slc.cpg/sg2_170_cif.got.tgz:338073.got - 2010.06.27 13:26:56.
