data_PCOD8001764
_publ_section_title
;
Structure prediction by ZEFSAII (Michael W. Deem and Ramdas Pophale) SiO2 
 PCOD8001764
Probable space group: P -1
;
_chemical_formula_sum "Si O2"
_cell_formula_units_Z 16
_cell_length_a 8.894037
_cell_length_b 9.450856
_cell_length_c 17.384524
_cell_angle_alpha 131.128595
_cell_angle_beta 55.311670
_cell_angle_gamma 97.004413
_cell_volume 826.495773
_symmetry_space_group_name_H-M "P -1"
_symmetry_group_IT_number 2
_symmetry_cell_setting 'triclinic'
loop_
_space_group_symop_operation_xyz
x,y,z
-x,-y,-z
loop_
_atom_site_type_symbol
_atom_site_label
_atom_site_fract_x
_atom_site_fract_y
_atom_site_fract_z
Si Si1 0.912311 0.048061 0.627726
Si Si2 0.669303 0.387706 0.016524
Si Si3 0.664360 0.722925 0.253722
Si Si4 0.336426 0.711689 0.652809
Si Si5 0.631366 0.886425 0.598835
Si Si6 0.257667 0.491715 0.123407
Si Si7 0.174429 0.466871 0.703890
Si Si8 0.937062 0.957268 0.256402
O O1 0.778321 0.286745 0.754944
O O2 0.071320 0.991134 0.631148
O O3 0.768648 0.928008 0.637897
O O4 0.000000 0.000000 0.500000
O O5 0.685035 0.514426 0.131115
O O6 0.462035 0.352920 0.059617
O O7 0.696319 0.520774 0.985044
O O8 0.838730 0.155167 0.882272
O O9 0.680270 0.664534 0.317928
O O10 0.842829 0.792692 0.207878
O O11 0.457641 0.916944 0.362946
O O12 0.500000 0.500000 0.500000
O O13 0.455124 0.855689 0.687097
O O14 0.224397 0.665093 0.741552
O O15 0.174071 0.824629 0.674547
O O16 0.772124 0.685198 0.438709
O O17 0.063779 0.441964 0.176735
#
# Coordination Sequence:
#
# PCOD8001764 Si02
#       8
#     2   2   2   2   2   2   2   2
#     4  11  18  33  58  90 113 138 185 241 282 322
#     4  10  20  35  55  84 114 147 186 229 286 324
#     4  11  19  33  60  86 110 145 190 236 275 329
#     4   9  22  41  56  77 118 154 180 225 285 339
#     4  10  20  35  58  85 116 144 181 231 291 334
#     4  10  20  34  55  86 116 144 180 238 278 326
#     4  11  20  37  56  85 113 146 190 235 274 327
#     4  10  21  37  57  83 112 151 187 227 279 336
#
# _framework density 19.358841000000002
#
# number of rings (size 3 to 8) (size 9 to 14) (size 15 to 20)
#    0.000    1.750    5.000    0.750    0.000    2.000 
#    0.000    5.000    0.000    0.000    0.000    0.000 
#    0.000    0.000    0.000    0.000    0.000    0.000 
#
# Total GULP energy -198243.756523 kJ/mol
# GULP energy per Si atom -12390.234783 kJ/mol
# Density = 1.931478 g / cm^3
# Si number density = 19.358841 Si / 1000 Ang^3
#
#
#
# Elastic Constant Matrix: (Units=GPa)
#
#
# Indices 1 2 3 4 5 6 
#
# 1 106.9627 38.7042 21.9932 -0.1898 -11.4816 8.0905
# 2 38.7042 96.2382 17.5006 -1.8116 -12.8271 1.9216
# 3 21.9932 17.5006 49.9362 -0.3888 -5.0136 1.4409
# 4 -0.1898 -1.8116 -0.3888 21.5832 2.1211 -13.7532
# 5 -11.4816 -12.8271 -5.0136 2.1211 32.3437 4.4427
# 6 8.0905 1.9216 1.4409 -13.7532 4.4427 28.8622
#
#
#
# Elastic Compliance Matrix: (Units=1/GPa)
#
#
# Indices 1 2 3 4 5 6 
#
# 1 0.012216 -0.003788 -0.003597 -0.004061 0.003289 -0.005434
# 2 -0.003788 0.012815 -0.002494 0.000816 0.003267 0.000219
# 3 -0.003597 -0.002494 0.022616 -0.000078 0.001270 -0.000187
# 4 -0.004061 0.000816 -0.000078 0.070610 -0.010759 0.036390
# 5 0.003289 0.003267 0.001270 -0.010759 0.035912 -0.011858
# 6 -0.005434 0.000219 -0.000187 0.036390 -0.011858 0.055331
#
#
# Mechanical properties :
#
#
# Convention : Reuss Voigt Hill
#
# Bulk Modulus (GPa) = 35.85889 45.50368 40.68128
# Shear Modulus (GPa) = 20.95939 28.22044 24.58992
#
# Velocity S-wave (km/s) = 3.29398 3.82220 3.56788
# Velocity P-wave (km/s) = 5.74722 6.56013 6.16708
#
# Compressibility (1/GPa) = 0.02788708
#
# Stress axis : x y z
#
# Youngs Moduli (GPa) = 81.85651 78.03651 44.21561
#
# Poissons Ratio (x) = 0.29564 0.15906
# Poissons Ratio (y) = 0.31011 0.11029
# Poissons Ratio (z) = 0.29446 0.19465
#
# Static dielectric constant tensor:
#      x y z
#    x 3.983700 0.163370 -0.168870 
#    y 0.163370 3.596140 0.112970 
#    z -0.168870 0.112970 1.973790 
# 
# 
# High freq. dielectric constant tensor:
#      x y z
#    x 1.770600 0.003280 -0.011530 
#    y 0.003280 1.716720 0.004390 
#    z -0.011530 0.004390 1.743620 
# 
# From -- ./inp_files/282640.got.cif
#   From: 2010.06.25/outbox.cif.g09.slc.cpg/sg2_142_cif.got.tgz:282640.got - 2010.06.27 13:26:56.
