data_PCOD8001229
_publ_section_title
;
Structure prediction by ZEFSAII (Michael W. Deem and Ramdas Pophale) SiO2 
 PCOD8001229
Probable space group: P -1
;
_chemical_formula_sum "Si O2"
_cell_formula_units_Z 14
_cell_length_a 7.062727
_cell_length_b 8.578885
_cell_length_c 11.531446
_cell_angle_alpha 106.987772
_cell_angle_beta 78.794790
_cell_angle_gamma 101.930720
_cell_volume 647.042633
_symmetry_space_group_name_H-M "P -1"
_symmetry_group_IT_number 2
_symmetry_cell_setting 'triclinic'
loop_
_space_group_symop_operation_xyz
x,y,z
-x,-y,-z
loop_
_atom_site_type_symbol
_atom_site_label
_atom_site_fract_x
_atom_site_fract_y
_atom_site_fract_z
Si Si1 0.223257 0.978479 0.473109
Si Si2 0.589221 0.158222 0.367173
Si Si3 0.910189 0.443139 0.376282
Si Si4 0.130022 0.691994 0.255490
Si Si5 0.948923 0.307014 0.983041
Si Si6 0.443594 0.847010 0.889390
Si Si7 0.206952 0.345442 0.161772
O O1 0.278212 0.941361 0.590121
O O2 0.254379 0.827549 0.351944
O O3 0.370330 0.138408 0.443118
O O4 0.000000 0.000000 0.500000
O O5 0.686407 0.352319 0.395315
O O6 0.583838 0.085604 0.221955
O O7 0.929780 0.605823 0.326298
O O8 0.000000 0.500000 0.500000
O O9 0.040303 0.314281 0.275473
O O10 0.071926 0.776916 0.160548
O O11 0.260096 0.546314 0.182067
O O12 0.749744 0.267408 0.069247
O O13 0.000000 0.500000 0.000000
O O14 0.120977 0.255720 0.032242
O O15 0.608008 0.730931 0.838191
O O16 0.500000 0.000000 0.000000
#
# Coordination Sequence:
#
# PCOD8001229 Si02
#       7
#     2   2   2   2   2   2   2
#     4  11  25  41  64  92 134 166 206 270 320 377
#     4  11  23  43  62  95 129 166 217 259 318 385
#     4  10  19  42  69  86 128 165 214 262 307 373
#     4   9  20  40  64  91 125 167 210 259 315 372
#     4  10  20  41  62  92 127 161 211 260 308 374
#     4  12  25  40  66  94 127 170 211 256 318 384
#     4   9  22  40  66  88 128 165 209 265 304 369
#
# _framework density 21.636904999999999
#
# number of rings (size 3 to 8) (size 9 to 14) (size 15 to 20)
#    0.857    0.857    2.857    0.857    2.000    4.000 
#    0.000   16.429    0.000    0.000    0.000    0.000 
#    0.000    0.000    0.000    0.000    0.000    0.000 
#
# Total GULP energy -173455.422874 kJ/mol
# GULP energy per Si atom -12389.673062 kJ/mol
# Density = 2.158766 g / cm^3
# Si number density = 21.636905 Si / 1000 Ang^3
#
#
#
# Elastic Constant Matrix: (Units=GPa)
#
#
# Indices 1 2 3 4 5 6 
#
# 1 123.1475 45.2100 53.4789 -13.7050 7.9885 16.3701
# 2 45.2100 61.8954 38.5449 -10.4710 0.6305 17.8649
# 3 53.4789 38.5449 176.7635 -21.3364 32.5849 -4.5459
# 4 -13.7050 -10.4710 -21.3364 42.7674 6.1497 -6.9547
# 5 7.9885 0.6305 32.5849 6.1497 31.2530 -4.8494
# 6 16.3701 17.8649 -4.5459 -6.9547 -4.8494 31.2056
#
#
#
# Elastic Compliance Matrix: (Units=1/GPa)
#
#
# Indices 1 2 3 4 5 6 
#
# 1 0.011917 -0.006586 -0.001796 0.001104 -0.001686 -0.002759
# 2 -0.006586 0.027799 -0.005397 -0.000764 0.004937 -0.012649
# 3 -0.001796 -0.005397 0.010035 0.005403 -0.010164 0.005119
# 4 0.001104 -0.000764 0.005403 0.028657 -0.010706 0.005368
# 5 -0.001686 0.004937 -0.010164 -0.010706 0.045221 0.001219
# 6 -0.002759 -0.012649 0.005119 0.005368 0.001219 0.042866
#
#
# Mechanical properties :
#
#
# Convention : Reuss Voigt Hill
#
# Bulk Modulus (GPa) = 45.05871 70.69709 57.87790
# Shear Modulus (GPa) = 24.81999 36.01670 30.41834
#
# Velocity S-wave (km/s) = 3.39058 4.08437 3.75354
# Velocity P-wave (km/s) = 6.01649 7.41539 6.75227
#
# Compressibility (1/GPa) = 0.02219327
#
# Stress axis : x y z
#
# Youngs Moduli (GPa) = 83.91277 35.97255 99.65098
#
# Poissons Ratio (x) = 0.23690 0.17901
# Poissons Ratio (y) = 0.55262 0.53781
# Poissons Ratio (z) = 0.15074 0.19414
#
# Static dielectric constant tensor:
#      x y z
#    x 3.622540 0.324060 0.396780 
#    y 0.324060 3.817860 -0.155750 
#    z 0.396780 -0.155750 4.266080 
# 
# 
# High freq. dielectric constant tensor:
#      x y z
#    x 1.823220 0.031800 0.021040 
#    y 0.031800 1.831920 -0.017100 
#    z 0.021040 -0.017100 1.873780 
# 
# From -- ./inp_files/360861.got.cif
#   From: 2010.06.25/outbox.cif.g09.slc.cpg/sg2_181_cif.got.tgz:360861.got - 2010.06.27 13:26:56.
