data_PCOD8001268
_publ_section_title
;
Structure prediction by ZEFSAII (Michael W. Deem and Ramdas Pophale) SiO2 
 PCOD8001268
Probable space group: P -1
;
_chemical_formula_sum "Si O2"
_cell_formula_units_Z 16
_cell_length_a 11.311700
_cell_length_b 18.868658
_cell_length_c 13.894517
_cell_angle_alpha 37.680487
_cell_angle_beta 29.668766
_cell_angle_gamma 32.052298
_cell_volume 761.763294
_symmetry_space_group_name_H-M "P -1"
_symmetry_group_IT_number 2
_symmetry_cell_setting 'triclinic'
loop_
_space_group_symop_operation_xyz
x,y,z
-x,-y,-z
loop_
_atom_site_type_symbol
_atom_site_label
_atom_site_fract_x
_atom_site_fract_y
_atom_site_fract_z
Si Si1 0.182290 0.102547 0.217903
Si Si2 0.138510 0.751704 0.418993
Si Si3 0.653589 0.388351 0.769110
Si Si4 0.405324 0.041041 0.341811
Si Si5 0.274701 0.265050 0.502150
Si Si6 0.661117 0.716766 0.784292
Si Si7 0.502993 0.807392 0.228899
Si Si8 0.466458 0.684070 0.560927
O O1 0.336448 0.064516 0.252138
O O2 0.848456 0.189415 0.370555
O O3 0.267156 0.965441 0.247286
O O4 0.260610 0.197275 0.000441
O O5 0.269364 0.721248 0.252688
O O6 0.374140 0.726240 0.355863
O O7 0.879338 0.909971 0.445985
O O8 0.991825 0.661264 0.636954
O O9 0.493384 0.540854 0.675152
O O10 0.938257 0.357043 0.654206
O O11 0.439172 0.382019 0.001288
O O12 0.528012 0.134202 0.190784
O O13 0.634358 0.886205 0.368074
O O14 0.374807 0.269813 0.319343
O O15 0.422202 0.321395 0.405122
O O16 0.642310 0.717702 0.323741
#
# Coordination Sequence:
#
# PCOD8001268 Si02
#       8
#     2   2   2   2   2   2   2   2
#     4  11  23  40  67  99 121 157 207 260 317 369
#     4   9  21  40  64  89 127 158 204 259 305 364
#     4  11  25  42  61  91 127 173 210 242 305 380
#     4  10  19  43  67  91 123 156 204 272 306 351
#     4  11  23  41  64  91 123 166 210 259 310 355
#     4   9  22  40  61  92 121 166 208 256 302 358
#     4  11  22  41  67  97 121 159 208 259 317 365
#     4  12  24  42  64  90 134 164 201 257 308 373
#
# _framework density 21.003900000000002
#
# number of rings (size 3 to 8) (size 9 to 14) (size 15 to 20)
#    0.750    0.750    2.500    2.625    0.000    4.500 
#    2.250    3.125    0.000    0.000    0.000    0.000 
#    0.000    0.000    0.000    0.000    0.000    0.000 
#
# Total GULP energy -198267.860946 kJ/mol
# GULP energy per Si atom -12391.741309 kJ/mol
# Density = 2.095609 g / cm^3
# Si number density = 21.003900 Si / 1000 Ang^3
#
#
#
# Elastic Constant Matrix: (Units=GPa)
#
#
# Indices 1 2 3 4 5 6 
#
# 1 107.3647 19.8776 49.6884 -10.1037 12.9597 3.1551
# 2 19.8776 38.8566 27.9651 -14.2075 1.2851 -0.4477
# 3 49.6884 27.9651 132.1720 -22.7046 16.4407 -3.0696
# 4 -10.1037 -14.2075 -22.7046 25.4214 -3.0189 0.2016
# 5 12.9597 1.2851 16.4407 -3.0189 25.4023 2.0735
# 6 3.1551 -0.4477 -3.0696 0.2016 2.0735 18.0817
#
#
#
# Elastic Compliance Matrix: (Units=1/GPa)
#
#
# Indices 1 2 3 4 5 6 
#
# 1 0.012065 -0.003914 -0.003466 -0.000900 -0.003628 -0.002365
# 2 -0.003914 0.036231 -0.004090 0.015590 0.004650 0.000179
# 3 -0.003466 -0.004090 0.011441 0.005942 -0.004964 0.002949
# 4 -0.000900 0.015590 0.005942 0.053242 0.002094 0.000718
# 5 -0.003628 0.004650 -0.004964 0.002094 0.044874 -0.005264
# 6 -0.002365 0.000179 0.002949 0.000718 -0.005264 0.056818
#
#
# Mechanical properties :
#
#
# Convention : Reuss Voigt Hill
#
# Bulk Modulus (GPa) = 27.17655 52.60617 39.89136
# Shear Modulus (GPa) = 20.00987 25.83857 22.92422
#
# Velocity S-wave (km/s) = 3.08989 3.51120 3.30726
# Velocity P-wave (km/s) = 5.06920 6.44502 5.79806
#
# Compressibility (1/GPa) = 0.03679643
#
# Stress axis : x y z
#
# Youngs Moduli (GPa) = 82.88108 27.60105 87.40546
#
# Poissons Ratio (x) = 0.10803 0.30294
# Poissons Ratio (y) = 0.32440 0.35751
# Poissons Ratio (z) = 0.28725 0.11290
#
# Static dielectric constant tensor:
#      x y z
#    x 3.835210 0.166950 0.086440 
#    y 0.166950 3.588900 0.004300 
#    z 0.086440 0.004300 3.731400 
# 
# 
# High freq. dielectric constant tensor:
#      x y z
#    x 1.829770 0.016660 0.007990 
#    y 0.016660 1.803030 -0.001480 
#    z 0.007990 -0.001480 1.814520 
# 
# From -- ./inp_files/523919.got.cif
#   From: 2010.06.25/outbox.cif.g09.slc.cpg/sg2_262_cif.got.tgz:523919.got - 2010.06.27 13:26:56.
