data_PCOD8001761
_publ_section_title
;
Structure prediction by ZEFSAII (Michael W. Deem and Ramdas Pophale) SiO2 
 PCOD8001761
Probable space group: P -1
;
_chemical_formula_sum "Si O2"
_cell_formula_units_Z 16
_cell_length_a 31.391606
_cell_length_b 5.033696
_cell_length_c 15.715031
_cell_angle_alpha 75.285550
_cell_angle_beta 18.379469
_cell_angle_gamma 76.636153
_cell_volume 756.903706
_symmetry_space_group_name_H-M "P -1"
_symmetry_group_IT_number 2
_symmetry_cell_setting 'triclinic'
loop_
_space_group_symop_operation_xyz
x,y,z
-x,-y,-z
loop_
_atom_site_type_symbol
_atom_site_label
_atom_site_fract_x
_atom_site_fract_y
_atom_site_fract_z
Si Si1 0.115459 0.280506 0.806629
Si Si2 0.535179 0.084204 0.331534
Si Si3 0.176639 0.396914 0.855800
Si Si4 0.380024 0.605428 0.585152
Si Si5 0.996977 0.049595 0.703479
Si Si6 0.948284 0.787920 0.238792
Si Si7 0.153937 0.912168 0.257346
Si Si8 0.144832 0.496712 0.160471
O O1 0.222940 0.368512 0.670446
O O2 0.170620 0.256049 0.605028
O O3 0.000000 0.500000 0.000000
O O4 0.059346 0.986344 0.967464
O O5 0.502758 0.402212 0.354934
O O6 0.500000 0.000000 0.500000
O O7 0.442450 0.910506 0.454403
O O8 0.689763 0.029791 0.022319
O O9 0.284805 0.591519 0.683504
O O10 0.025367 0.510013 0.134417
O O11 0.146674 0.108343 0.986746
O O12 0.297236 0.513872 0.834530
O O13 0.954219 0.350603 0.728313
O O14 0.095310 0.089969 0.597058
O O15 0.078545 0.883253 0.492477
O O16 0.099164 0.172894 0.284284
O O17 0.136224 0.632929 0.259182
#
# Coordination Sequence:
#
# PCOD8001761 Si02
#       8
#     2   2   2   2   2   2   2   2
#     4   8  16  31  51  83 116 141 171 214 284 355
#     4  12  23  40  57  77 105 152 204 243 279 315
#     4  10  20  34  55  85 115 141 180 234 285 344
#     4  12  22  38  60  81 107 149 196 242 283 319
#     4  11  23  35  53  85 116 150 186 230 290 344
#     4   9  17  31  55  79 116 145 173 218 284 354
#     4  12  26  38  56  77 114 157 198 239 276 334
#     4  12  22  38  56  80 111 150 193 242 289 329
#
# _framework density 21.138753000000001
#
# number of rings (size 3 to 8) (size 9 to 14) (size 15 to 20)
#    0.000    1.250    3.750    3.375    3.500    0.000 
#    0.000    0.000    0.000    0.000    0.000    1.750 
#    0.000    0.000    0.000    0.000    0.000    0.000 
#
# Total GULP energy -198244.539268 kJ/mol
# GULP energy per Si atom -12390.283704 kJ/mol
# Density = 2.109064 g / cm^3
# Si number density = 21.138753 Si / 1000 Ang^3
#
#
#
# Elastic Constant Matrix: (Units=GPa)
#
#
# Indices 1 2 3 4 5 6 
#
# 1 196.5896 19.2160 49.5640 3.4342 15.9330 24.4156
# 2 19.2160 77.9940 7.7356 -0.1787 3.6700 11.3660
# 3 49.5640 7.7356 48.9426 6.3258 1.8264 3.0801
# 4 3.4342 -0.1787 6.3258 21.3652 4.5185 -0.7474
# 5 15.9330 3.6700 1.8264 4.5185 17.9273 0.4441
# 6 24.4156 11.3660 3.0801 -0.7474 0.4441 32.0109
#
#
#
# Elastic Compliance Matrix: (Units=1/GPa)
#
#
# Indices 1 2 3 4 5 6 
#
# 1 0.008348 -0.000129 -0.008138 0.002364 -0.007027 -0.005386
# 2 -0.000129 0.013828 -0.001807 0.001080 -0.002691 -0.004575
# 3 -0.008138 -0.001807 0.029609 -0.008762 0.006703 0.003702
# 4 0.002364 0.001080 -0.008762 0.052111 -0.014566 0.000075
# 5 -0.007027 -0.002691 0.006703 -0.014566 0.065455 0.004422
# 6 -0.005386 -0.004575 0.003702 0.000075 0.004422 0.036556
#
#
# Mechanical properties :
#
#
# Convention : Reuss Voigt Hill
#
# Bulk Modulus (GPa) = 31.60756 52.95080 42.27918
# Shear Modulus (GPa) = 21.13262 30.72808 25.93035
#
# Velocity S-wave (km/s) = 3.16525 3.81680 3.50619
# Velocity P-wave (km/s) = 5.32384 6.67289 6.03617
#
# Compressibility (1/GPa) = 0.03163801
#
# Stress axis : x y z
#
# Youngs Moduli (GPa) = 119.78593 72.31561 33.77406
#
# Poissons Ratio (x) = 0.00931 0.27486
# Poissons Ratio (y) = 0.01542 0.06101
# Poissons Ratio (z) = 0.97485 0.13064
#
# Static dielectric constant tensor:
#      x y z
#    x 4.663100 0.130590 0.136780 
#    y 0.130590 4.157420 0.107380 
#    z 0.136780 0.107380 3.521090 
# 
# 
# High freq. dielectric constant tensor:
#      x y z
#    x 1.850670 0.017550 0.005990 
#    y 0.017550 1.849920 0.007140 
#    z 0.005990 0.007140 1.752160 
# 
# From -- ./inp_files/77562.got.cif
#   From: 2010.06.25/outbox.cif.g09.slc.cpg/sg2_39_cif.got.tgz:77562.got - 2010.06.27 13:26:56.
