data_PCOD8001459
_publ_section_title
;
Structure prediction by ZEFSAII (Michael W. Deem and Ramdas Pophale) SiO2 
 PCOD8001459
Probable space group: P -1
;
_chemical_formula_sum "Si O2"
_cell_formula_units_Z 12
_cell_length_a 11.427330
_cell_length_b 6.593791
_cell_length_c 18.160937
_cell_angle_alpha 78.826383
_cell_angle_beta 145.429619
_cell_angle_gamma 122.186593
_cell_volume 565.307646
_symmetry_space_group_name_H-M "P -1"
_symmetry_group_IT_number 2
_symmetry_cell_setting 'triclinic'
loop_
_space_group_symop_operation_xyz
x,y,z
-x,-y,-z
loop_
_atom_site_type_symbol
_atom_site_label
_atom_site_fract_x
_atom_site_fract_y
_atom_site_fract_z
Si Si1 0.401818 0.752903 0.146155
Si Si2 0.828035 0.963304 0.697623
Si Si3 0.890143 0.661734 0.855832
Si Si4 0.230063 0.663506 0.423397
Si Si5 0.061810 0.939974 0.678075
Si Si6 0.396450 0.073774 0.609530
O O1 0.218595 0.440339 0.108712
O O2 0.617106 0.805705 0.194720
O O3 0.568939 0.978945 0.283963
O O4 0.200581 0.781388 0.000138
O O5 0.886997 0.901679 0.812666
O O6 0.499100 0.731437 0.522069
O O7 0.012946 0.957221 0.736977
O O8 0.904512 0.258496 0.708334
O O9 0.678269 0.391289 0.711551
O O10 0.345693 0.849138 0.544797
O O11 0.998096 0.342465 0.346731
O O12 0.866467 0.949514 0.525666
#
# Coordination Sequence:
#
# PCOD8001459 Si02
#       6
#     2   2   2   2   2   2
#     4   9  20  37  60  79 111 152 179 225 278 324
#     4  10  21  34  59  83 110 148 181 227 273 326
#     4   9  19  39  58  79 109 152 188 211 278 338
#     4  10  20  32  58  89 109 138 187 231 270 322
#     4  11  20  35  60  86 112 138 183 236 275 316
#     4   9  19  35  60  83 104 146 184 226 269 321
#
# _framework density 21.22738
#
# number of rings (size 3 to 8) (size 9 to 14) (size 15 to 20)
#    1.000    1.333    1.667    1.000    4.667    1.333 
#    0.000    3.333    7.333    3.000    0.000    0.000 
#    0.000    0.000    0.000    0.000    0.000    0.000 
#
# Total GULP energy -148660.175951 kJ/mol
# GULP energy per Si atom -12388.347996 kJ/mol
# Density = 2.117907 g / cm^3
# Si number density = 21.227380 Si / 1000 Ang^3
#
#
#
# Elastic Constant Matrix: (Units=GPa)
#
#
# Indices 1 2 3 4 5 6 
#
# 1 87.3700 42.3941 35.3186 -6.7652 29.0108 12.2120
# 2 42.3941 73.2317 50.9750 -21.9011 10.8414 0.2804
# 3 35.3186 50.9750 124.3319 -27.5918 30.1788 12.2365
# 4 -6.7652 -21.9011 -27.5918 31.1606 7.7817 0.3017
# 5 29.0108 10.8414 30.1788 7.7817 30.7048 2.6684
# 6 12.2120 0.2804 12.2365 0.3017 2.6684 19.3822
#
#
#
# Elastic Compliance Matrix: (Units=1/GPa)
#
#
# Indices 1 2 3 4 5 6 
#
# 1 0.032089 -0.016837 0.013831 0.017700 -0.040418 -0.023417
# 2 -0.016837 0.030577 -0.012280 0.003055 0.015033 0.015801
# 3 0.013831 -0.012280 0.028069 0.029940 -0.042089 -0.020929
# 4 0.017700 0.003055 0.029940 0.081263 -0.065887 -0.022293
# 5 -0.040418 0.015033 -0.042089 -0.065887 0.120362 0.036276
# 6 -0.023417 0.015801 -0.020929 -0.022293 0.036276 0.074685
#
#
# Mechanical properties :
#
#
# Convention : Reuss Voigt Hill
#
# Bulk Modulus (GPa) = 16.62130 60.25654 38.43892
# Shear Modulus (GPa) = 11.97114 26.66591 19.31853
#
# Velocity S-wave (km/s) = 2.37734 3.54814 3.02002
# Velocity P-wave (km/s) = 3.92209 6.72559 5.50529
#
# Compressibility (1/GPa) = 0.06016376
#
# Stress axis : x y z
#
# Youngs Moduli (GPa) = 31.16381 32.70380 35.62649
#
# Poissons Ratio (x) = 0.55063 -0.49275
# Poissons Ratio (y) = 0.52470 0.43749
# Poissons Ratio (z) = -0.43103 0.40160
#
# Static dielectric constant tensor:
#      x y z
#    x 3.563180 0.194800 0.090130 
#    y 0.194800 3.635340 -0.212520 
#    z 0.090130 -0.212520 3.645090 
# 
# 
# High freq. dielectric constant tensor:
#      x y z
#    x 1.815110 0.016950 0.010570 
#    y 0.016950 1.805920 -0.025100 
#    z 0.010570 -0.025100 1.821270 
# 
# From -- ./inp_files/65031.got.cif
#   From: 2010.06.25/outbox.cif.g09.slc.cpg/sg2_33_cif.got.tgz:65031.got - 2010.06.27 13:26:56.
