data_PCOD8001648
_publ_section_title
;
Structure prediction by ZEFSAII (Michael W. Deem and Ramdas Pophale) SiO2 
 PCOD8001648
Probable space group: P -1
;
_chemical_formula_sum "Si O2"
_cell_formula_units_Z 16
_cell_length_a 20.572411
_cell_length_b 12.069043
_cell_length_c 8.557932
_cell_angle_alpha 51.202063
_cell_angle_beta 90.473284
_cell_angle_gamma 133.277257
_cell_volume 807.664515
_symmetry_space_group_name_H-M "P -1"
_symmetry_group_IT_number 2
_symmetry_cell_setting 'triclinic'
loop_
_space_group_symop_operation_xyz
x,y,z
-x,-y,-z
loop_
_atom_site_type_symbol
_atom_site_label
_atom_site_fract_x
_atom_site_fract_y
_atom_site_fract_z
Si Si1 0.223109 0.184855 0.391268
Si Si2 0.181938 0.868891 0.428389
Si Si3 0.295481 0.888054 0.178302
Si Si4 0.434097 0.710999 0.144357
Si Si5 0.868272 0.790789 0.888677
Si Si6 0.020850 0.322223 0.582201
Si Si7 0.336299 0.668788 0.467475
Si Si8 0.980827 0.702210 0.027132
O O1 0.364195 0.487188 0.206500
O O2 0.166437 0.217263 0.276247
O O3 0.248671 0.106982 0.337565
O O4 0.121642 0.942329 0.736195
O O5 0.294180 0.017278 0.184705
O O6 0.072101 0.732313 0.437775
O O7 0.114259 0.609897 0.749745
O O8 0.252391 0.655887 0.467376
O O9 0.174805 0.667643 0.244349
O O10 0.448343 0.160167 0.882129
O O11 0.326681 0.555942 0.408209
O O12 0.506337 0.986207 0.819420
O O13 0.987493 0.110007 0.685159
O O14 0.730380 0.545221 0.203589
O O15 0.917546 0.724646 0.935972
O O16 0.996344 0.255283 0.824730
#
# Coordination Sequence:
#
# PCOD8001648 Si02
#       8
#     2   2   2   2   2   2   2   2
#     4  11  24  34  53  83 122 143 183 222 272 336
#     4  10  21  38  57  84 112 147 177 229 284 330
#     4   9  17  35  59  79 107 146 185 218 274 327
#     4   9  20  36  56  84 106 151 181 231 268 322
#     4  11  21  34  56  89 109 146 181 233 279 320
#     4  10  20  33  63  85 107 140 187 236 274 322
#     4   9  18  36  58  82 106 142 188 229 270 314
#     4  11  19  36  56  79 115 146 185 225 278 323
#
# _framework density 19.810203999999999
#
# number of rings (size 3 to 8) (size 9 to 14) (size 15 to 20)
#    0.750    1.250    2.500    3.375    1.750    1.000 
#    0.000    0.000    0.000   15.000    0.000    0.000 
#    0.000    0.000    0.000    0.000    0.000    0.000 
#
# Total GULP energy -198211.539099 kJ/mol
# GULP energy per Si atom -12388.221194 kJ/mol
# Density = 1.976511 g / cm^3
# Si number density = 19.810204 Si / 1000 Ang^3
#
#
#
# Elastic Constant Matrix: (Units=GPa)
#
#
# Indices 1 2 3 4 5 6 
#
# 1 106.1878 40.0062 13.5803 -6.2151 8.4183 -13.7991
# 2 40.0062 91.4402 27.8589 -17.0181 -3.9894 -4.7410
# 3 13.5803 27.8589 48.6774 -5.0933 -0.0593 -2.8703
# 4 -6.2151 -17.0181 -5.0933 21.8609 -0.1611 2.9263
# 5 8.4183 -3.9894 -0.0593 -0.1611 24.4498 -3.1394
# 6 -13.7991 -4.7410 -2.8703 2.9263 -3.1394 19.6533
#
#
#
# Elastic Compliance Matrix: (Units=1/GPa)
#
#
# Indices 1 2 3 4 5 6 
#
# 1 0.012752 -0.005726 -0.000057 -0.001832 -0.004421 0.007130
# 2 -0.005726 0.017884 -0.007602 0.010781 0.004728 -0.001666
# 3 -0.000057 -0.007602 0.024971 -0.000347 -0.000948 0.001673
# 4 -0.001832 0.010781 -0.000347 0.054423 0.001909 -0.006535
# 5 -0.004421 0.004728 -0.000948 0.001909 0.043796 0.004609
# 6 0.007130 -0.001666 0.001673 -0.006535 0.004609 0.057440
#
#
# Mechanical properties :
#
#
# Convention : Reuss Voigt Hill
#
# Bulk Modulus (GPa) = 34.67855 45.46624 40.07240
# Shear Modulus (GPa) = 20.18991 24.18348 22.18670
#
# Velocity S-wave (km/s) = 3.19590 3.49773 3.35022
# Velocity P-wave (km/s) = 5.58228 6.27000 5.93610
#
# Compressibility (1/GPa) = 0.02883627
#
# Stress axis : x y z
#
# Youngs Moduli (GPa) = 78.42132 55.91690 40.04583
#
# Poissons Ratio (x) = 0.32017 0.00229
# Poissons Ratio (y) = 0.44903 0.30444
# Poissons Ratio (z) = 0.00449 0.42509
#
# Static dielectric constant tensor:
#      x y z
#    x 3.581710 -0.168700 0.049080 
#    y -0.168700 3.437400 -0.141600 
#    z 0.049080 -0.141600 3.524690 
# 
# 
# High freq. dielectric constant tensor:
#      x y z
#    x 1.773500 -0.018070 -0.004500 
#    y -0.018070 1.755420 -0.013100 
#    z -0.004500 -0.013100 1.757460 
# 
# From -- ./inp_files/345072.got.cif
#   From: 2010.06.25/outbox.cif.g09.slc.cpg/sg2_173_cif.got.tgz:345072.got - 2010.06.27 13:26:56.
