data_PCOD8001291
_publ_section_title
;
Structure prediction by ZEFSAII (Michael W. Deem and Ramdas Pophale) SiO2 
 PCOD8001291
Probable space group: P -1
;
_chemical_formula_sum "Si O2"
_cell_formula_units_Z 16
_cell_length_a 11.059909
_cell_length_b 20.818420
_cell_length_c 8.856803
_cell_angle_alpha 49.868190
_cell_angle_beta 42.297466
_cell_angle_gamma 32.002554
_cell_volume 726.453175
_symmetry_space_group_name_H-M "P -1"
_symmetry_group_IT_number 2
_symmetry_cell_setting 'triclinic'
loop_
_space_group_symop_operation_xyz
x,y,z
-x,-y,-z
loop_
_atom_site_type_symbol
_atom_site_label
_atom_site_fract_x
_atom_site_fract_y
_atom_site_fract_z
Si Si1 0.560169 0.685479 0.196708
Si Si2 0.452586 0.956961 0.829488
Si Si3 0.225114 0.555293 0.539671
Si Si4 0.611911 0.499345 0.047286
Si Si5 0.702838 0.656128 0.771037
Si Si6 0.578788 0.090885 0.412426
Si Si7 0.938983 0.697676 0.875299
Si Si8 0.906319 0.045782 0.687274
O O1 0.575837 0.581862 0.373870
O O2 0.311292 0.808486 0.323837
O O3 0.553403 0.703431 0.996973
O O4 0.819399 0.644419 0.079176
O O5 0.448917 0.916101 0.729795
O O6 0.713677 0.843590 0.852918
O O7 0.436556 0.062900 0.674802
O O8 0.205634 0.005887 0.074697
O O9 0.383196 0.569050 0.275482
O O10 0.001342 0.583332 0.611622
O O11 0.106894 0.649157 0.641975
O O12 0.867101 0.360003 0.073814
O O13 0.500000 0.500000 0.000000
O O14 0.682140 0.572460 0.839825
O O15 0.559790 0.774740 0.621322
O O16 0.872684 0.997511 0.337510
O O17 0.000000 0.000000 0.500000
#
# Coordination Sequence:
#
# PCOD8001291 Si02
#       8
#     2   2   2   2   2   2   2   2
#     4  10  20  41  73  94 129 178 229 281 334 397
#     4  10  23  43  72 103 129 180 238 282 333 394
#     4  11  21  41  71  97 125 179 225 276 341 400
#     4  12  27  40  63 104 140 174 217 276 345 414
#     4  11  22  44  67 101 133 173 226 285 334 395
#     4  11  23  43  71  96 139 177 234 285 327 396
#     4  10  19  44  67  99 133 169 228 281 331 404
#     4  11  25  43  65 102 140 182 223 279 346 405
#
# _framework density 22.024818
#
# number of rings (size 3 to 8) (size 9 to 14) (size 15 to 20)
#    0.000    1.250    6.250    1.500    1.750    3.000 
#    4.500    0.000    0.000    0.000    0.000    0.000 
#    0.000    0.000    0.000    0.000    0.000    0.000 
#
# Total GULP energy -198380.682059 kJ/mol
# GULP energy per Si atom -12398.792629 kJ/mol
# Density = 2.197469 g / cm^3
# Si number density = 22.024818 Si / 1000 Ang^3
#
#
#
# Elastic Constant Matrix: (Units=GPa)
#
#
# Indices 1 2 3 4 5 6 
#
# 1 123.3034 26.2681 24.3048 -3.4160 -8.5584 -24.4874
# 2 26.2681 55.5431 29.5338 -10.6920 -6.4914 -5.5275
# 3 24.3048 29.5338 98.3631 -13.7230 -18.7438 -6.9842
# 4 -3.4160 -10.6920 -13.7230 35.4515 3.7496 -6.5826
# 5 -8.5584 -6.4914 -18.7438 3.7496 25.8601 -1.9676
# 6 -24.4874 -5.5275 -6.9842 -6.5826 -1.9676 24.7594
#
#
#
# Elastic Compliance Matrix: (Units=1/GPa)
#
#
# Indices 1 2 3 4 5 6 
#
# 1 0.011376 -0.003495 -0.000072 0.001727 0.003436 0.011183
# 2 -0.003495 0.023677 -0.005373 0.005003 0.000294 0.001667
# 3 -0.000072 -0.005373 0.014325 0.003820 0.008798 0.004485
# 4 0.001727 0.005003 0.003820 0.033686 0.000694 0.012914
# 5 0.003436 0.000294 0.008798 0.000694 0.046907 0.009858
# 6 0.011183 0.001667 0.004485 0.012914 0.009858 0.057303
#
#
# Mechanical properties :
#
#
# Convention : Reuss Voigt Hill
#
# Bulk Modulus (GPa) = 31.74747 48.60253 40.17500
# Shear Modulus (GPa) = 23.18533 30.35440 26.76987
#
# Velocity S-wave (km/s) = 3.24804 3.71643 3.49010
# Velocity P-wave (km/s) = 5.33967 6.36638 5.87550
#
# Compressibility (1/GPa) = 0.03149857
#
# Stress axis : x y z
#
# Youngs Moduli (GPa) = 87.90471 42.23456 69.80572
#
# Poissons Ratio (x) = 0.14761 0.00501
# Poissons Ratio (y) = 0.30722 0.37509
# Poissons Ratio (z) = 0.00631 0.22694
#
# Static dielectric constant tensor:
#      x y z
#    x 3.920960 -0.197050 -0.271700 
#    y -0.197050 3.952470 -0.182170 
#    z -0.271700 -0.182170 4.126610 
# 
# 
# High freq. dielectric constant tensor:
#      x y z
#    x 1.860430 -0.016720 -0.023560 
#    y -0.016720 1.859080 -0.012380 
#    z -0.023560 -0.012380 1.865860 
# 
# From -- ./inp_files/282857.got.cif
#   From: 2010.06.25/outbox.cif.g09.slc.cpg/sg2_142_cif.got.tgz:282857.got - 2010.06.27 13:26:56.
