data_PCOD8001835
_publ_section_title
;
Structure prediction by ZEFSAII (Michael W. Deem and Ramdas Pophale) SiO2 
 PCOD8001835
Probable space group: P -1
;
_chemical_formula_sum "Si O2"
_cell_formula_units_Z 16
_cell_length_a 6.060875
_cell_length_b 20.962489
_cell_length_c 6.308210
_cell_angle_alpha 61.957858
_cell_angle_beta 84.811943
_cell_angle_gamma 91.831236
_cell_volume 701.943692
_symmetry_space_group_name_H-M "P -1"
_symmetry_group_IT_number 2
_symmetry_cell_setting 'triclinic'
loop_
_space_group_symop_operation_xyz
x,y,z
-x,-y,-z
loop_
_atom_site_type_symbol
_atom_site_label
_atom_site_fract_x
_atom_site_fract_y
_atom_site_fract_z
Si Si1 0.984140 0.142567 0.998622
Si Si2 0.716913 0.602954 0.823197
Si Si3 0.650060 0.021869 0.149180
Si Si4 0.328307 0.101305 0.358156
Si Si5 0.611885 0.235794 0.054741
Si Si6 0.942944 0.357917 0.910356
Si Si7 0.641368 0.474649 0.724080
Si Si8 0.733023 0.719758 0.306830
O O1 0.162635 0.198055 0.773651
O O2 0.870965 0.074023 0.980941
O O3 0.787332 0.188218 0.010832
O O4 0.098832 0.108499 0.244663
O O5 0.751763 0.543877 0.731922
O O6 0.673424 0.678787 0.595537
O O7 0.509642 0.577565 0.026713
O O8 0.936604 0.615872 0.925345
O O9 0.506519 0.063526 0.261381
O O10 0.728165 0.947119 0.354697
O O11 0.500000 0.000000 0.000000
O O12 0.434604 0.182552 0.285975
O O13 0.743997 0.297399 0.089880
O O14 0.490039 0.276164 0.814468
O O15 0.839895 0.427539 0.703542
O O16 0.100985 0.325139 0.775788
O O17 0.500000 0.500000 0.500000
#
# Coordination Sequence:
#
# PCOD8001835 Si02
#       8
#     2   2   2   2   2   2   2   2
#     4   9  19  37  59  83 117 157 193 239 293 345
#     4  11  24  39  61  90 117 153 196 242 293 351
#     4  10  20  34  57  86 116 152 196 242 286 339
#     4   9  19  37  56  81 118 155 193 237 289 344
#     4   9  19  38  60  83 117 157 192 241 294 342
#     4  11  22  39  63  88 116 153 196 241 295 349
#     4  11  25  43  61  86 122 155 192 241 294 352
#     4  10  22  41  62  86 119 155 197 243 294 351
#
# _framework density 22.793851
#
# number of rings (size 3 to 8) (size 9 to 14) (size 15 to 20)
#    0.000    2.000    0.000    3.000    0.000    7.500 
#    0.000   13.750    0.000    0.000    0.000    0.000 
#    0.000    0.000    0.000    0.000    0.000    0.000 
#
# Total GULP energy -198320.287390 kJ/mol
# GULP energy per Si atom -12395.017962 kJ/mol
# Density = 2.274197 g / cm^3
# Si number density = 22.793851 Si / 1000 Ang^3
#
#
#
# Elastic Constant Matrix: (Units=GPa)
#
#
# Indices 1 2 3 4 5 6 
#
# 1 93.0621 38.2428 44.7764 -15.1171 30.3582 21.3555
# 2 38.2428 104.9452 59.6471 -18.4727 10.2146 46.5303
# 3 44.7764 59.6471 143.2828 -32.1761 21.7127 17.6107
# 4 -15.1171 -18.4727 -32.1761 32.3747 -2.1636 5.6848
# 5 30.3582 10.2146 21.7127 -2.1636 35.0409 -5.0936
# 6 21.3555 46.5303 17.6107 5.6848 -5.0936 57.7510
#
#
#
# Elastic Compliance Matrix: (Units=1/GPa)
#
#
# Indices 1 2 3 4 5 6 
#
# 1 0.021227 0.001647 -0.000330 0.011301 -0.019701 -0.011926
# 2 0.001647 0.022888 -0.003301 0.013532 -0.008138 -0.020093
# 3 -0.000330 -0.003301 0.011791 0.009694 -0.005791 -0.002279
# 4 0.011301 0.013532 0.009694 0.056644 -0.019933 -0.025372
# 5 -0.019701 -0.008138 -0.005791 -0.019933 0.053578 0.022296
# 6 -0.011926 -0.020093 -0.002279 -0.025372 0.022296 0.043073
#
#
# Mechanical properties :
#
#
# Convention : Reuss Voigt Hill
#
# Bulk Modulus (GPa) = 19.25404 69.62474 44.43939
# Shear Modulus (GPa) = 21.69371 38.27491 29.98431
#
# Velocity S-wave (km/s) = 3.08837 4.10222 3.63086
# Velocity P-wave (km/s) = 4.60247 7.28350 6.09229
#
# Compressibility (1/GPa) = 0.05193716
#
# Stress axis : x y z
#
# Youngs Moduli (GPa) = 47.11014 43.69191 84.80989
#
# Poissons Ratio (x) = -0.07194 0.02798
# Poissons Ratio (y) = -0.07757 0.27994
# Poissons Ratio (z) = 0.01554 0.14422
#
# Static dielectric constant tensor:
#      x y z
#    x 4.240880 0.406710 0.056810 
#    y 0.406710 4.818410 -0.548100 
#    z 0.056810 -0.548100 4.021370 
# 
# 
# High freq. dielectric constant tensor:
#      x y z
#    x 1.909040 0.014720 0.017040 
#    y 0.014720 1.915450 -0.032810 
#    z 0.017040 -0.032810 1.877260 
# 
# From -- ./inp_files/12834.got.cif
#   From: 2010.06.25/outbox.cif.g09.slc.cpg/sg2_7_cif.got.tgz:12834.got - 2010.06.27 13:26:56.
