data_PCOD8001674
_publ_section_title
;
Structure prediction by ZEFSAII (Michael W. Deem and Ramdas Pophale) SiO2 
 PCOD8001674
Probable space group: P -1
;
_chemical_formula_sum "Si O2"
_cell_formula_units_Z 14
_cell_length_a 19.964338
_cell_length_b 5.288117
_cell_length_c 10.454048
_cell_angle_alpha 80.509463
_cell_angle_beta 52.195840
_cell_angle_gamma 106.087560
_cell_volume 752.027117
_symmetry_space_group_name_H-M "P -1"
_symmetry_group_IT_number 2
_symmetry_cell_setting 'triclinic'
loop_
_space_group_symop_operation_xyz
x,y,z
-x,-y,-z
loop_
_atom_site_type_symbol
_atom_site_label
_atom_site_fract_x
_atom_site_fract_y
_atom_site_fract_z
Si Si1 0.420060 0.856024 0.716360
Si Si2 0.978529 0.614652 0.885924
Si Si3 0.716198 0.760344 0.431189
Si Si4 0.503985 0.546417 0.339274
Si Si5 0.140809 0.142592 0.535000
Si Si6 0.235532 0.623701 0.785742
Si Si7 0.935738 0.432339 0.456442
O O1 0.442543 0.103504 0.777632
O O2 0.500000 0.000000 0.500000
O O3 0.432121 0.590158 0.785289
O O4 0.312637 0.743286 0.799635
O O5 0.054069 0.962535 0.754496
O O6 0.994551 0.447370 0.760145
O O7 0.870003 0.564798 0.013713
O O8 0.000000 0.500000 0.000000
O O9 0.600895 0.610221 0.589307
O O10 0.744502 0.591053 0.307829
O O11 0.760439 0.103847 0.319114
O O12 0.756527 0.732274 0.523838
O O13 0.500000 0.500000 0.500000
O O14 0.133489 0.920881 0.447775
O O15 0.130390 0.411603 0.467720
O O16 0.000000 0.500000 0.500000
#
# Coordination Sequence:
#
# PCOD8001674 Si02
#       7
#     2   2   2   2   2   2   2
#     4  10  16  28  38  62  90 144 169 196 233 310
#     4  10  22  34  51  80 109 136 164 213 261 311
#     4  12  19  29  47  71 105 140 165 208 257 308
#     4  10  16  28  41  61  94 143 170 194 243 307
#     4  10  22  35  53  77 103 135 175 212 259 302
#     4  12  20  27  46  67 107 140 167 199 258 304
#     4  10  22  41  57  70 102 144 179 213 251 305
#
# _framework density 18.616353
#
# number of rings (size 3 to 8) (size 9 to 14) (size 15 to 20)
#    0.857    0.571    7.143    2.143    2.000    1.143 
#    0.000    0.000    0.000    0.000    0.000    0.000 
#    0.000    6.857    0.000    0.000    0.000    0.000 
#
# Total GULP energy -173506.520437 kJ/mol
# GULP energy per Si atom -12393.322888 kJ/mol
# Density = 1.857398 g / cm^3
# Si number density = 18.616353 Si / 1000 Ang^3
#
#
#
# Elastic Constant Matrix: (Units=GPa)
#
#
# Indices 1 2 3 4 5 6 
#
# 1 149.3985 54.4802 19.6670 3.4157 -14.7418 6.6629
# 2 54.4802 108.6146 7.1541 8.9327 -1.5396 -15.7922
# 3 19.6670 7.1541 18.8674 2.3987 -2.1859 6.9073
# 4 3.4157 8.9327 2.3987 14.4692 7.9243 -7.2502
# 5 -14.7418 -1.5396 -2.1859 7.9243 23.6830 0.2046
# 6 6.6629 -15.7922 6.9073 -7.2502 0.2046 52.4240
#
#
#
# Elastic Compliance Matrix: (Units=1/GPa)
#
#
# Indices 1 2 3 4 5 6 
#
# 1 0.010054 -0.004576 -0.006824 -0.002997 0.006353 -0.002197
# 2 -0.004576 0.012455 -0.000959 -0.004054 -0.000805 0.003902
# 3 -0.006824 -0.000959 0.067969 -0.019275 0.008509 -0.011076
# 4 -0.002997 -0.004054 -0.019275 0.105243 -0.039264 0.016408
# 5 0.006353 -0.000805 0.008509 -0.039264 0.060117 -0.007836
# 6 -0.002197 0.003902 -0.011076 0.016408 -0.007836 0.024289
#
#
# Mechanical properties :
#
#
# Convention : Reuss Voigt Hill
#
# Bulk Modulus (GPa) = 15.20677 48.83148 32.01912
# Shear Modulus (GPa) = 15.30154 31.15386 23.22770
#
# Velocity S-wave (km/s) = 2.87006 4.09524 3.53612
# Velocity P-wave (km/s) = 4.37827 6.97486 5.82314
#
# Compressibility (1/GPa) = 0.06576021
#
# Stress axis : x y z
#
# Youngs Moduli (GPa) = 99.46351 80.28986 14.71257
#
# Poissons Ratio (x) = 0.36744 0.10039
# Poissons Ratio (y) = 0.45518 0.01411
# Poissons Ratio (z) = 0.67870 0.07698
#
# Static dielectric constant tensor:
#      x y z
#    x 4.427710 -2.067490 -0.577990 
#    y -2.067490 9.351200 0.312720 
#    z -0.577990 0.312720 2.934420 
# 
# 
# High freq. dielectric constant tensor:
#      x y z
#    x 1.735750 -0.006510 -0.030360 
#    y -0.006510 1.746630 -0.002700 
#    z -0.030360 -0.002700 1.639860 
# 
# From -- ./inp_files/101709.got.cif
#   From: 2010.06.25/outbox.cif.g09.slc.cpg/sg2_51_cif.got.tgz:101709.got - 2010.06.27 13:26:56.
