data_PCOD8001528
_publ_section_title
;
Structure prediction by ZEFSAII (Michael W. Deem and Ramdas Pophale) SiO2 
 PCOD8001528
Probable space group: P -1
;
_chemical_formula_sum "Si O2"
_cell_formula_units_Z 16
_cell_length_a 22.207175
_cell_length_b 22.081796
_cell_length_c 8.530653
_cell_angle_alpha 39.626408
_cell_angle_beta 39.854357
_cell_angle_gamma 18.167048
_cell_volume 818.210307
_symmetry_space_group_name_H-M "P -1"
_symmetry_group_IT_number 2
_symmetry_cell_setting 'triclinic'
loop_
_space_group_symop_operation_xyz
x,y,z
-x,-y,-z
loop_
_atom_site_type_symbol
_atom_site_label
_atom_site_fract_x
_atom_site_fract_y
_atom_site_fract_z
Si Si1 0.714921 0.497417 0.955119
Si Si2 0.492294 0.856258 0.517614
Si Si3 0.139355 0.171601 0.816028
Si Si4 0.710582 0.451799 0.410861
Si Si5 0.481636 0.816569 0.260948
Si Si6 0.851259 0.991413 0.632014
Si Si7 0.623116 0.920597 0.263928
Si Si8 0.615256 0.382909 0.342599
O O1 0.559508 0.700205 0.774614
O O2 0.922913 0.366366 0.788289
O O3 0.657527 0.535216 0.175611
O O4 0.708715 0.401094 0.069319
O O5 0.460806 0.873099 0.364062
O O6 0.647633 0.804897 0.338182
O O7 0.284126 0.065858 0.594622
O O8 0.170627 0.220297 0.799733
O O9 0.172987 0.038461 0.092313
O O10 0.674536 0.577279 0.340048
O O11 0.550697 0.511651 0.655211
O O12 0.927660 0.217012 0.459949
O O13 0.290021 0.925398 0.384225
O O14 0.497458 0.892286 0.962817
O O15 0.799689 0.147138 0.456135
O O16 0.500000 0.000000 0.500000
O O17 0.500000 0.500000 0.500000
#
# Coordination Sequence:
#
# PCOD8001528 Si02
#       8
#     2   2   2   2   2   2   2   2
#     4  10  20  33  54  80 105 138 177 218 262 310
#     4  11  21  34  53  77 110 141 172 217 265 317
#     4   9  19  34  54  78 104 137 178 219 262 311
#     4   9  18  34  56  78 106 140 178 220 262 309
#     4  10  20  35  54  79 108 139 174 213 263 318
#     4   9  18  34  55  78 106 142 178 219 262 306
#     4   9  18  36  59  78 102 136 175 220 266 310
#     4   9  17  30  53  84 108 132 177 224 264 304
#
# _framework density 19.554876
#
# number of rings (size 3 to 8) (size 9 to 14) (size 15 to 20)
#    0.000    2.500    0.000    4.125    0.000    7.000 
#    0.000    6.250    0.000   15.750    0.000    0.000 
#    0.000    0.000    0.000    0.000    0.000    0.000 
#
# Total GULP energy -198265.592443 kJ/mol
# GULP energy per Si atom -12391.599528 kJ/mol
# Density = 1.951037 g / cm^3
# Si number density = 19.554876 Si / 1000 Ang^3
#
#
#
# Elastic Constant Matrix: (Units=GPa)
#
#
# Indices 1 2 3 4 5 6 
#
# 1 103.2613 33.1586 40.8922 1.1159 -8.1349 10.4092
# 2 33.1586 79.9108 19.1687 2.0784 -1.9087 -2.6580
# 3 40.8922 19.1687 46.2707 1.1629 -20.0170 -1.4157
# 4 1.1159 2.0784 1.1629 22.7740 2.4878 -4.9571
# 5 -8.1349 -1.9087 -20.0170 2.4878 30.1866 -1.2828
# 6 10.4092 -2.6580 -1.4157 -4.9571 -1.2828 25.3099
#
#
#
# Elastic Compliance Matrix: (Units=1/GPa)
#
#
# Indices 1 2 3 4 5 6 
#
# 1 0.018604 -0.003752 -0.018567 -0.000862 -0.007875 -0.009652
# 2 -0.003752 0.015047 -0.003929 -0.000112 -0.002539 0.002753
# 3 -0.018567 -0.003929 0.053389 -0.002364 0.030826 0.011309
# 4 -0.000862 -0.000112 -0.002364 0.046634 -0.005264 0.009077
# 5 -0.007875 -0.002539 0.030826 -0.005264 0.051987 0.006300
# 6 -0.009652 0.002753 0.011309 0.009077 0.006300 0.046498
#
#
# Mechanical properties :
#
#
# Convention : Reuss Voigt Hill
#
# Bulk Modulus (GPa) = 28.94849 46.20909 37.57879
# Shear Modulus (GPa) = 16.88216 24.73566 20.80891
#
# Velocity S-wave (km/s) = 2.94142 3.56045 3.26564
# Velocity P-wave (km/s) = 5.13535 6.37057 5.78602
#
# Compressibility (1/GPa) = 0.03454411
#
# Stress axis : x y z
#
# Youngs Moduli (GPa) = 53.75288 66.45735 18.73032
#
# Poissons Ratio (x) = 0.24938 0.34777
# Poissons Ratio (y) = 0.20170 0.07358
# Poissons Ratio (z) = 0.99803 0.26109
#
# Static dielectric constant tensor:
#      x y z
#    x 3.958790 -0.051000 -0.637550 
#    y -0.051000 3.464470 0.033620 
#    z -0.637550 0.033620 3.731510 
# 
# 
# High freq. dielectric constant tensor:
#      x y z
#    x 1.759430 -0.003030 -0.028790 
#    y -0.003030 1.746070 -0.006450 
#    z -0.028790 -0.006450 1.748320 
# 
# From -- ./inp_files/273054.got.cif
#   From: 2010.06.25/outbox.cif.g09.slc.cpg/sg2_137_cif.got.tgz:273054.got - 2010.06.27 13:26:56.
