data_PCOD8001279
_publ_section_title
;
Structure prediction by ZEFSAII (Michael W. Deem and Ramdas Pophale) SiO2 
 PCOD8001279
Probable space group: P -1
;
_chemical_formula_sum "Si O2"
_cell_formula_units_Z 16
_cell_length_a 12.736233
_cell_length_b 9.499155
_cell_length_c 15.849900
_cell_angle_alpha 106.154268
_cell_angle_beta 26.408982
_cell_angle_gamma 114.396098
_cell_volume 756.565940
_symmetry_space_group_name_H-M "P -1"
_symmetry_group_IT_number 2
_symmetry_cell_setting 'triclinic'
loop_
_space_group_symop_operation_xyz
x,y,z
-x,-y,-z
loop_
_atom_site_type_symbol
_atom_site_label
_atom_site_fract_x
_atom_site_fract_y
_atom_site_fract_z
Si Si1 0.694364 0.815527 0.759681
Si Si2 0.773324 0.885651 0.257813
Si Si3 0.756477 0.139628 0.181408
Si Si4 0.343763 0.605188 0.599536
Si Si5 0.075760 0.970885 0.217488
Si Si6 0.564835 0.024420 0.765625
Si Si7 0.893257 0.335634 0.793989
Si Si8 0.039311 0.650758 0.443437
O O1 0.871991 0.893304 0.726664
O O2 0.779985 0.682623 0.636929
O O3 0.738263 0.952391 0.681419
O O4 0.396193 0.725313 0.976731
O O5 0.513697 0.730187 0.427907
O O6 0.726143 0.021917 0.262031
O O7 0.856847 0.956709 0.304152
O O8 0.981260 0.830689 0.053087
O O9 0.738217 0.303463 0.251351
O O10 0.518433 0.063967 0.277572
O O11 0.500000 0.500000 0.500000
O O12 0.072260 0.493615 0.738694
O O13 0.999390 0.801832 0.290390
O O14 0.334384 0.018077 0.988234
O O15 0.729781 0.205851 0.656322
O O16 0.892724 0.378298 0.704474
O O17 0.000000 0.500000 0.500000
#
# Coordination Sequence:
#
# PCOD8001279 Si02
#       8
#     2   2   2   2   2   2   2   2
#     4  11  23  43  73  91 126 181 214 273 317 387
#     4  10  23  45  67  96 130 178 220 271 322 395
#     4  10  25  44  66  99 131 176 223 265 332 390
#     4  12  26  41  67  96 136 173 217 275 326 391
#     4  10  19  43  72  93 127 169 230 262 314 389
#     4  10  21  43  69  95 127 168 224 267 310 399
#     4  11  24  45  61 102 133 164 223 270 325 385
#     4  12  27  40  63 103 132 168 211 273 340 383
#
# _framework density 21.148188999999999
#
# number of rings (size 3 to 8) (size 9 to 14) (size 15 to 20)
#    0.000    1.250    3.750    1.500    5.250    3.000 
#    4.500    0.000    0.000    0.000    0.000    0.000 
#    0.000    0.000    0.000    0.000    0.000    0.000 
#
# Total GULP energy -198407.896874 kJ/mol
# GULP energy per Si atom -12400.493555 kJ/mol
# Density = 2.110006 g / cm^3
# Si number density = 21.148189 Si / 1000 Ang^3
#
#
#
# Elastic Constant Matrix: (Units=GPa)
#
#
# Indices 1 2 3 4 5 6 
#
# 1 96.3218 43.8576 27.8624 -19.8623 -9.6781 12.3022
# 2 43.8576 127.3088 47.2729 -14.2442 -6.3656 9.6521
# 3 27.8624 47.2729 36.2366 -20.3224 6.8641 9.9062
# 4 -19.8623 -14.2442 -20.3224 38.2823 0.0935 -0.4218
# 5 -9.6781 -6.3656 6.8641 0.0935 19.7202 -9.6329
# 6 12.3022 9.6521 9.9062 -0.4218 -9.6329 41.8681
#
#
#
# Elastic Compliance Matrix: (Units=1/GPa)
#
#
# Indices 1 2 3 4 5 6 
#
# 1 0.016482 0.003378 -0.023454 -0.002642 0.019499 0.004387
# 2 0.003378 0.030577 -0.069133 -0.023477 0.044669 0.018356
# 3 -0.023454 -0.069133 0.226080 0.081782 -0.143624 -0.062883
# 4 -0.002642 -0.023477 0.081782 0.059287 -0.049300 -0.023907
# 5 0.019499 0.044669 -0.143624 -0.049300 0.150348 0.052050
# 6 0.004387 0.018356 -0.062883 -0.023907 0.052050 0.044977
#
#
# Mechanical properties :
#
#
# Convention : Reuss Voigt Hill
#
# Bulk Modulus (GPa) = 10.55730 55.31699 32.93715
# Shear Modulus (GPa) = 6.77741 29.36575 18.07158
#
# Velocity S-wave (km/s) = 1.79212 3.73040 2.92639
# Velocity P-wave (km/s) = 3.04715 6.69090 5.19871
#
# Compressibility (1/GPa) = 0.09472115
#
# Stress axis : x y z
#
# Youngs Moduli (GPa) = 60.67048 32.70425 4.42321
#
# Poissons Ratio (x) = -0.11047 0.10374
# Poissons Ratio (y) = -0.20493 0.30579
# Poissons Ratio (z) = 1.42298 2.26093
#
# Static dielectric constant tensor:
#      x y z
#    x 4.169520 0.009400 -0.153310 
#    y 0.009400 3.823940 0.044030 
#    z -0.153310 0.044030 4.209660 
# 
# 
# High freq. dielectric constant tensor:
#      x y z
#    x 1.833990 0.005490 0.002710 
#    y 0.005490 1.818210 -0.004050 
#    z 0.002710 -0.004050 1.848510 
# 
# From -- ./inp_files/272144.got.cif
#   From: 2010.06.25/outbox.cif.g09.slc.cpg/sg2_137_cif.got.tgz:272144.got - 2010.06.27 13:26:56.
