data_PCOD8001976
_publ_section_title
;
Structure prediction by ZEFSAII (Michael W. Deem and Ramdas Pophale) SiO2 
 PCOD8001976
Probable space group: P -1
;
_chemical_formula_sum "Si O2"
_cell_formula_units_Z 16
_cell_length_a 23.304977
_cell_length_b 16.448460
_cell_length_c 5.097068
_cell_angle_alpha 71.755897
_cell_angle_beta 100.494741
_cell_angle_gamma 153.647519
_cell_volume 800.960966
_symmetry_space_group_name_H-M "P -1"
_symmetry_group_IT_number 2
_symmetry_cell_setting 'triclinic'
loop_
_space_group_symop_operation_xyz
x,y,z
-x,-y,-z
loop_
_atom_site_type_symbol
_atom_site_label
_atom_site_fract_x
_atom_site_fract_y
_atom_site_fract_z
Si Si1 0.636776 0.033914 0.036802
Si Si2 0.013631 0.698187 0.412371
Si Si3 0.535206 0.190396 0.395172
Si Si4 0.910492 0.303545 0.031397
Si Si5 0.285596 0.681367 0.284363
Si Si6 0.755781 0.532945 0.892361
Si Si7 0.015611 0.880425 0.043817
Si Si8 0.120255 0.174404 0.616193
O O1 0.759781 0.131917 0.030378
O O2 0.537570 0.868950 0.345479
O O3 0.685623 0.194690 0.981362
O O4 0.572136 0.954673 0.777320
O O5 0.084640 0.761790 0.673207
O O6 0.076440 0.874162 0.222524
O O7 0.856370 0.500391 0.513143
O O8 0.035006 0.659896 0.234179
O O9 0.603034 0.187992 0.528505
O O10 0.658241 0.414540 0.182224
O O11 0.000000 0.500000 0.000000
O O12 0.300546 0.620734 0.164235
O O13 0.752658 0.619767 0.642627
O O14 0.911305 0.716502 0.893335
O O15 0.919642 0.806369 0.229527
O O16 0.139860 0.105789 0.833674
O O17 0.000000 0.000000 0.500000
#
# Coordination Sequence:
#
# PCOD8001976 Si02
#       8
#     2   2   2   2   2   2   2   2
#     4  12  28  41  59  85 127 172 223 257 294 365
#     4  12  24  40  67  89 125 165 209 257 313 367
#     4  12  25  40  61  90 126 168 208 259 316 374
#     4  12  27  44  62  86 120 176 224 261 301 346
#     4  12  24  38  64  91 129 161 208 257 326 375
#     4  11  20  37  58  95 129 161 197 243 326 389
#     4  10  20  34  61  93 133 157 199 251 320 394
#     4   9  19  34  56  92 135 161 188 245 324 404
#
# _framework density 19.976002000000001
#
# number of rings (size 3 to 8) (size 9 to 14) (size 15 to 20)
#    0.000    0.750    5.000    2.625    5.250    0.000 
#    0.000    0.000    0.000    0.000    0.000    5.250 
#    0.000    0.000    0.000    0.000    0.000    0.000 
#
# Total GULP energy -198294.041209 kJ/mol
# GULP energy per Si atom -12393.377576 kJ/mol
# Density = 1.993054 g / cm^3
# Si number density = 19.976002 Si / 1000 Ang^3
#
#
#
# Elastic Constant Matrix: (Units=GPa)
#
#
# Indices 1 2 3 4 5 6 
#
# 1 78.4520 33.2911 35.3014 -1.9830 7.0571 19.9487
# 2 33.2911 54.4396 18.4765 11.2526 5.9912 11.5171
# 3 35.3014 18.4765 112.5182 -6.2720 4.7861 9.3168
# 4 -1.9830 11.2526 -6.2720 39.9148 -2.9888 8.2014
# 5 7.0571 5.9912 4.7861 -2.9888 38.3971 -2.3946
# 6 19.9487 11.5171 9.3168 8.2014 -2.3946 30.6268
#
#
#
# Elastic Compliance Matrix: (Units=1/GPa)
#
#
# Indices 1 2 3 4 5 6 
#
# 1 0.022215 -0.010901 -0.003874 0.005641 -0.002138 -0.010869
# 2 -0.010901 0.027803 -0.001437 -0.008651 -0.002881 -0.000826
# 3 -0.003874 -0.001437 0.010518 0.001987 -0.000263 -0.000689
# 4 0.005641 -0.008651 0.001987 0.030058 0.001848 -0.008930
# 5 -0.002138 -0.002881 -0.000263 0.001848 0.027324 0.004197
# 6 -0.010869 -0.000826 -0.000689 -0.008930 0.004197 0.042970
#
#
# Mechanical properties :
#
#
# Convention : Reuss Voigt Hill
#
# Bulk Modulus (GPa) = 35.57281 46.61641 41.09461
# Shear Modulus (GPa) = 24.66911 32.34379 28.50645
#
# Velocity S-wave (km/s) = 3.51798 4.02821 3.78171
# Velocity P-wave (km/s) = 5.86072 6.70986 6.29961
#
# Compressibility (1/GPa) = 0.02811136
#
# Stress axis : x y z
#
# Youngs Moduli (GPa) = 45.01559 35.96742 95.07696
#
# Poissons Ratio (x) = 0.39209 0.36834
# Poissons Ratio (y) = 0.49072 0.13659
# Poissons Ratio (z) = 0.17440 0.05167
#
# Static dielectric constant tensor:
#      x y z
#    x 3.617610 -0.124160 0.363940 
#    y -0.124160 3.588910 -0.220160 
#    z 0.363940 -0.220160 4.338380 
# 
# 
# High freq. dielectric constant tensor:
#      x y z
#    x 1.741270 -0.012640 0.005010 
#    y -0.012640 1.765620 0.006180 
#    z 0.005010 0.006180 1.810990 
# 
# From -- ./inp_files/119256.got.cif
#   From: 2010.06.25/outbox.cif.g09.slc.cpg/sg2_60_cif.got.tgz:119256.got - 2010.06.27 13:26:56.
