data_PCOD8001384
_publ_section_title
;
Structure prediction by ZEFSAII (Michael W. Deem and Ramdas Pophale) SiO2 
 PCOD8001384
Probable space group: P -1
;
_chemical_formula_sum "Si O2"
_cell_formula_units_Z 14
_cell_length_a 9.381847
_cell_length_b 18.710258
_cell_length_c 16.320972
_cell_angle_alpha 157.325235
_cell_angle_beta 38.880549
_cell_angle_gamma 128.988192
_cell_volume 644.510609
_symmetry_space_group_name_H-M "P -1"
_symmetry_group_IT_number 2
_symmetry_cell_setting 'triclinic'
loop_
_space_group_symop_operation_xyz
x,y,z
-x,-y,-z
loop_
_atom_site_type_symbol
_atom_site_label
_atom_site_fract_x
_atom_site_fract_y
_atom_site_fract_z
Si Si1 0.872974 0.801220 0.337803
Si Si2 0.520937 0.367549 0.678711
Si Si3 0.003793 0.856817 0.687119
Si Si4 0.350727 0.728920 0.668519
Si Si5 0.635744 0.693720 0.752493
Si Si6 0.747029 0.904943 0.690258
Si Si7 0.376891 0.767436 0.106597
O O1 0.744806 0.649121 0.208827
O O2 0.856391 0.853596 0.496978
O O3 0.161944 0.715639 0.097967
O O4 0.734761 0.009466 0.571120
O O5 0.626591 0.298848 0.468568
O O6 0.706602 0.234641 0.522655
O O7 0.478120 0.601553 0.956964
O O8 0.886821 0.718511 0.642087
O O9 0.964826 0.845413 0.595312
O O10 0.899634 0.085046 0.005945
O O11 0.347855 0.532225 0.508594
O O12 0.575594 0.781359 0.658076
O O13 0.592856 0.747437 0.925100
O O14 0.412421 0.858231 0.977462
#
# Coordination Sequence:
#
# PCOD8001384 Si02
#       7
#     2   2   2   2   2   2   2
#     4   9  18  36  56  71  93 128 173 206 234 282
#     4  10  20  32  50  77 101 127 161 203 249 289
#     4  11  21  31  47  77 110 128 151 199 255 298
#     4   9  18  32  50  69  97 136 167 194 235 288
#     4   9  18  32  52  75  97 127 169 203 236 288
#     4   9  19  33  49  73 101 132 164 197 239 293
#     4   9  18  33  56  75  91 126 172 211 235 274
#
# _framework density 21.721907999999999
#
# number of rings (size 3 to 8) (size 9 to 14) (size 15 to 20)
#    0.000    2.571    0.000    3.429    0.000    5.714 
#    0.000    0.714    0.000    7.714    0.000    0.000 
#    0.000    0.000    0.000    0.000    0.000    0.000 
#
# Total GULP energy -173534.088040 kJ/mol
# GULP energy per Si atom -12395.292003 kJ/mol
# Density = 2.167247 g / cm^3
# Si number density = 21.721908 Si / 1000 Ang^3
#
#
#
# Elastic Constant Matrix: (Units=GPa)
#
#
# Indices 1 2 3 4 5 6 
#
# 1 71.6604 5.7379 7.7355 7.8880 -12.8704 -2.0145
# 2 5.7379 79.2268 13.7069 24.4638 2.6180 4.8791
# 3 7.7355 13.7069 62.8792 31.0801 -3.7078 -7.6663
# 4 7.8880 24.4638 31.0801 43.8512 1.8288 -3.6264
# 5 -12.8704 2.6180 -3.7078 1.8288 16.9245 0.7524
# 6 -2.0145 4.8791 -7.6663 -3.6264 0.7524 8.0802
#
#
#
# Elastic Compliance Matrix: (Units=1/GPa)
#
#
# Indices 1 2 3 4 5 6 
#
# 1 0.016796 -0.000914 0.001037 -0.003567 0.013399 0.002875
# 2 -0.000914 0.016889 -0.000565 -0.010055 -0.001664 -0.015320
# 3 0.001037 -0.000565 0.027590 -0.018291 0.008105 0.017813
# 4 -0.003567 -0.010055 -0.018291 0.043116 -0.010185 0.008127
# 5 0.013399 -0.001664 0.008105 -0.010185 0.072376 0.000725
# 6 0.002875 -0.015320 0.017813 0.008127 0.000725 0.154208
#
#
# Mechanical properties :
#
#
# Convention : Reuss Voigt Hill
#
# Bulk Modulus (GPa) = 16.55920 29.79188 23.17554
# Shear Modulus (GPa) = 14.20496 26.21026 20.20761
#
# Velocity S-wave (km/s) = 2.56001 3.47742 3.05337
# Velocity P-wave (km/s) = 4.04698 5.46518 4.80865
#
# Compressibility (1/GPa) = 0.06038940
#
# Stress axis : x y z
#
# Youngs Moduli (GPa) = 59.53839 59.20969 36.24557
#
# Poissons Ratio (x) = 0.05412 -0.03758
# Poissons Ratio (y) = 0.05442 0.02049
# Poissons Ratio (z) = -0.06173 0.03347
#
# Static dielectric constant tensor:
#      x y z
#    x 3.384880 0.006550 -0.162170 
#    y 0.006550 4.051010 0.266830 
#    z -0.162170 0.266830 3.944990 
# 
# 
# High freq. dielectric constant tensor:
#      x y z
#    x 1.802000 0.000060 -0.018250 
#    y 0.000060 1.856810 0.020770 
#    z -0.018250 0.020770 1.851060 
# 
# From -- ./inp_files/176958.got.cif
#   From: 2010.06.25/outbox.cif.g09.slc.cpg/sg2_89_cif.got.tgz:176958.got - 2010.06.27 13:26:56.
