data_PCOD8001960
_publ_section_title
;
Structure prediction by ZEFSAII (Michael W. Deem and Ramdas Pophale) SiO2 
 PCOD8001960
Probable space group: P -1
;
_chemical_formula_sum "Si O2"
_cell_formula_units_Z 16
_cell_length_a 9.133048
_cell_length_b 17.869575
_cell_length_c 4.957273
_cell_angle_alpha 106.345959
_cell_angle_beta 83.966860
_cell_angle_gamma 105.274262
_cell_volume 748.500781
_symmetry_space_group_name_H-M "P -1"
_symmetry_group_IT_number 2
_symmetry_cell_setting 'triclinic'
loop_
_space_group_symop_operation_xyz
x,y,z
-x,-y,-z
loop_
_atom_site_type_symbol
_atom_site_label
_atom_site_fract_x
_atom_site_fract_y
_atom_site_fract_z
Si Si1 0.354325 0.524040 0.172534
Si Si2 0.171441 0.011801 0.571408
Si Si3 0.716090 0.887362 0.832803
Si Si4 0.247945 0.348387 0.068487
Si Si5 0.123898 0.250851 0.482492
Si Si6 0.626349 0.201330 0.160816
Si Si7 0.410819 0.628702 0.795162
Si Si8 0.790011 0.162000 0.589912
O O1 0.228313 0.440058 0.152983
O O2 0.393362 0.566823 0.491892
O O3 0.500000 0.500000 0.000000
O O4 0.309176 0.583983 0.021904
O O5 0.204377 0.928366 0.571936
O O6 0.803028 0.928948 0.120257
O O7 0.283021 0.048481 0.340433
O O8 0.000000 0.000000 0.500000
O O9 0.805125 0.824690 0.641131
O O10 0.546057 0.845099 0.907236
O O11 0.124881 0.298027 0.248801
O O12 0.413312 0.342350 0.129010
O O13 0.223854 0.310506 0.739216
O O14 0.952490 0.222953 0.586552
O O15 0.652359 0.295786 0.197788
O O16 0.669026 0.188280 0.446534
O O17 0.736152 0.166167 0.910843
#
# Coordination Sequence:
#
# PCOD8001960 Si02
#       8
#     2   2   2   2   2   2   2   2
#     4  10  20  34  61 101 135 165 212 272 332 371
#     4  12  26  45  72  97 133 168 221 277 331 381
#     4  12  26  43  73  98 127 176 219 272 327 387
#     4  11  21  37  67 100 130 165 222 277 315 382
#     4  12  24  41  69  96 133 170 224 268 326 385
#     4  12  27  44  67  98 137 173 220 264 329 394
#     4  11  21  38  64  95 138 171 208 271 332 381
#     4  12  28  45  66  95 133 179 216 266 333 399
#
# _framework density 21.376059999999999
#
# number of rings (size 3 to 8) (size 9 to 14) (size 15 to 20)
#    0.000    0.500    2.500    7.875    3.500    3.000 
#    0.000    0.000    0.000   15.000    0.000    0.000 
#    0.000    0.000    0.000    0.000    0.000    0.000 
#
# Total GULP energy -198499.309313 kJ/mol
# GULP energy per Si atom -12406.206832 kJ/mol
# Density = 2.132741 g / cm^3
# Si number density = 21.376060 Si / 1000 Ang^3
#
#
#
# Elastic Constant Matrix: (Units=GPa)
#
#
# Indices 1 2 3 4 5 6 
#
# 1 65.7597 28.3796 22.2250 11.3809 -0.3227 -1.5630
# 2 28.3796 132.0421 19.7946 -4.9478 9.1284 -8.5116
# 3 22.2250 19.7946 107.8914 9.3527 15.2461 3.9660
# 4 11.3809 -4.9478 9.3527 46.4954 3.5617 0.1016
# 5 -0.3227 9.1284 15.2461 3.5617 29.5675 -9.2122
# 6 -1.5630 -8.5116 3.9660 0.1016 -9.2122 28.2688
#
#
#
# Elastic Compliance Matrix: (Units=1/GPa)
#
#
# Indices 1 2 3 4 5 6 
#
# 1 0.018937 -0.003912 -0.003451 -0.004692 0.004312 0.001775
# 2 -0.003912 0.008880 -0.000795 0.002216 -0.002052 0.001892
# 3 -0.003451 -0.000795 0.011334 -0.000986 -0.006840 -0.004246
# 4 -0.004692 0.002216 -0.000986 0.023338 -0.003221 -0.000587
# 5 0.004312 -0.002052 -0.006840 -0.003221 0.042963 0.014593
# 6 0.001775 0.001892 -0.004246 -0.000587 0.014593 0.041396
#
#
# Mechanical properties :
#
#
# Convention : Reuss Voigt Hill
#
# Bulk Modulus (GPa) = 43.79432 49.61018 46.70225
# Shear Modulus (GPa) = 29.27821 36.55262 32.91542
#
# Velocity S-wave (km/s) = 3.70492 4.13968 3.92832
# Velocity P-wave (km/s) = 6.23169 6.79028 6.51697
#
# Compressibility (1/GPa) = 0.02283401
#
# Stress axis : x y z
#
# Youngs Moduli (GPa) = 52.80685 112.60983 88.23395
#
# Poissons Ratio (x) = 0.44055 0.30450
# Poissons Ratio (y) = 0.20659 0.07015
# Poissons Ratio (z) = 0.18224 0.08953
#
# Static dielectric constant tensor:
#      x y z
#    x 3.535860 0.045440 0.048970 
#    y 0.045440 4.768510 -0.166110 
#    z 0.048970 -0.166110 4.004540 
# 
# 
# High freq. dielectric constant tensor:
#      x y z
#    x 1.805150 0.002950 0.003410 
#    y 0.002950 1.867480 -0.004540 
#    z 0.003410 -0.004540 1.858490 
# 
# From -- ./inp_files/48622.got.cif
#   From: 2010.06.25/outbox.cif.g09.slc.cpg/sg2_25_cif.got.tgz:48622.got - 2010.06.27 13:26:56.
