data_PCOD8001309
_publ_section_title
;
Structure prediction by ZEFSAII (Michael W. Deem and Ramdas Pophale) SiO2 
 PCOD8001309
Probable space group: P -1
;
_chemical_formula_sum "Si O2"
_cell_formula_units_Z 14
_cell_length_a 5.069273
_cell_length_b 12.011700
_cell_length_c 18.147494
_cell_angle_alpha 131.538817
_cell_angle_beta 110.046773
_cell_angle_gamma 79.721453
_cell_volume 775.117087
_symmetry_space_group_name_H-M "P -1"
_symmetry_group_IT_number 2
_symmetry_cell_setting 'triclinic'
loop_
_space_group_symop_operation_xyz
x,y,z
-x,-y,-z
loop_
_atom_site_type_symbol
_atom_site_label
_atom_site_fract_x
_atom_site_fract_y
_atom_site_fract_z
Si Si1 0.054308 0.784749 0.961271
Si Si2 0.646574 0.478840 0.081792
Si Si3 0.249645 0.514052 0.187531
Si Si4 0.525106 0.434045 0.615070
Si Si5 0.933639 0.367864 0.492826
Si Si6 0.962039 0.092008 0.146386
Si Si7 0.431479 0.766203 0.719170
O O1 0.320038 0.697960 0.978545
O O2 0.784763 0.664469 0.877204
O O3 0.122850 0.850462 0.916414
O O4 0.989975 0.914833 0.069052
O O5 0.474962 0.550243 0.161753
O O6 0.500000 0.500000 0.000000
O O7 0.046706 0.431597 0.847091
O O8 0.339868 0.602362 0.309337
O O9 0.753530 0.420237 0.567269
O O10 0.425681 0.601527 0.680720
O O11 0.242525 0.322229 0.528754
O O12 0.748961 0.236215 0.375353
O O13 0.000000 0.500000 0.500000
O O14 0.249679 0.173662 0.240624
O O15 0.705580 0.122554 0.188709
#
# Coordination Sequence:
#
# PCOD8001309 Si02
#       7
#     2   2   2   2   2   2   2
#     4   9  23  31  50  71 102 136 166 194 237 283
#     4  10  20  35  52  72 100 128 162 209 251 286
#     4  10  20  32  52  72  98 130 162 197 254 285
#     4  11  18  32  46  68  97 132 166 205 237 296
#     4  10  20  28  46  65  96 131 172 203 242 277
#     4  11  21  31  48  69 105 138 170 188 226 299
#     4  11  19  31  44  67  96 137 169 198 236 275
#
# _framework density 18.061786000000001
#
# number of rings (size 3 to 8) (size 9 to 14) (size 15 to 20)
#    0.857    0.857    1.429    6.429    2.000    1.143 
#    0.000    0.000    0.000    0.000    0.000    0.000 
#    0.000   22.857    0.000    0.000    0.000    0.000 
#
# Total GULP energy -173514.092654 kJ/mol
# GULP energy per Si atom -12393.863761 kJ/mol
# Density = 1.802068 g / cm^3
# Si number density = 18.061786 Si / 1000 Ang^3
#
#
#
# Elastic Constant Matrix: (Units=GPa)
#
#
# Indices 1 2 3 4 5 6 
#
# 1 110.0374 23.8810 31.6318 -19.7273 -12.2601 -10.7433
# 2 23.8810 40.5269 30.1726 -18.2723 1.8249 -9.7819
# 3 31.6318 30.1726 95.3532 -28.6865 -6.8875 -10.7106
# 4 -19.7273 -18.2723 -28.6865 25.7162 1.7342 6.1700
# 5 -12.2601 1.8249 -6.8875 1.7342 43.1379 -11.4258
# 6 -10.7433 -9.7819 -10.7106 6.1700 -11.4258 15.8442
#
#
#
# Elastic Compliance Matrix: (Units=1/GPa)
#
#
# Indices 1 2 3 4 5 6 
#
# 1 0.012071 -0.003162 -0.000411 0.004187 0.005533 0.008315
# 2 -0.003162 0.041823 -0.005334 0.018510 -0.001059 0.012100
# 3 -0.000411 -0.005334 0.017305 0.013606 0.003800 0.005568
# 4 0.004187 0.018510 0.013606 0.071975 -0.001882 -0.005921
# 5 0.005533 -0.001059 0.003800 -0.001882 0.033592 0.030624
# 6 0.008315 0.012100 0.005568 -0.005921 0.030624 0.104376
#
#
# Mechanical properties :
#
#
# Convention : Reuss Voigt Hill
#
# Bulk Modulus (GPa) = 18.73151 46.36534 32.54842
# Shear Modulus (GPa) = 15.78537 27.62183 21.70360
#
# Velocity S-wave (km/s) = 2.95950 3.91487 3.47022
# Velocity P-wave (km/s) = 4.69803 6.79419 5.84091
#
# Compressibility (1/GPa) = 0.05338598
#
# Stress axis : x y z
#
# Youngs Moduli (GPa) = 82.84384 23.91043 57.78810
#
# Poissons Ratio (x) = 0.07559 0.02373
# Poissons Ratio (y) = 0.26191 0.30824
# Poissons Ratio (z) = 0.03401 0.12754
#
# Static dielectric constant tensor:
#      x y z
#    x 3.565130 -0.046190 0.274000 
#    y -0.046190 2.818860 -0.163900 
#    z 0.274000 -0.163900 3.619690 
# 
# 
# High freq. dielectric constant tensor:
#      x y z
#    x 1.720520 -0.001710 0.004740 
#    y -0.001710 1.625290 -0.023840 
#    z 0.004740 -0.023840 1.705790 
# 
# From -- ./inp_files/481779.got.cif
#   From: 2010.06.25/outbox.cif.g09.slc.cpg/sg2_241_cif.got.tgz:481779.got - 2010.06.27 13:26:56.
