data_PCOD8001956
_publ_section_title
;
Structure prediction by ZEFSAII (Michael W. Deem and Ramdas Pophale) SiO2 
 PCOD8001956
Probable space group: P -1
;
_chemical_formula_sum "Si O2"
_cell_formula_units_Z 16
_cell_length_a 12.433721
_cell_length_b 13.903325
_cell_length_c 15.368126
_cell_angle_alpha 142.099620
_cell_angle_beta 152.445714
_cell_angle_gamma 46.821518
_cell_volume 753.839459
_symmetry_space_group_name_H-M "P -1"
_symmetry_group_IT_number 2
_symmetry_cell_setting 'triclinic'
loop_
_space_group_symop_operation_xyz
x,y,z
-x,-y,-z
loop_
_atom_site_type_symbol
_atom_site_label
_atom_site_fract_x
_atom_site_fract_y
_atom_site_fract_z
Si Si1 0.702399 0.720163 0.092127
Si Si2 0.884958 0.780324 0.986894
Si Si3 0.664562 0.039840 0.566584
Si Si4 0.884962 0.768594 0.430514
Si Si5 0.719375 0.432590 0.428664
Si Si6 0.451362 0.247114 0.420486
Si Si7 0.761482 0.981723 0.200229
Si Si8 0.181454 0.581703 0.314926
O O1 0.677389 0.714548 0.175792
O O2 0.762869 0.901652 0.238847
O O3 0.912790 0.616324 0.142122
O O4 0.470281 0.657208 0.832154
O O5 0.708831 0.838495 0.829040
O O6 0.819799 0.601808 0.834306
O O7 0.875365 0.868653 0.133230
O O8 0.146304 0.823608 0.170211
O O9 0.514726 0.106917 0.428788
O O10 0.500000 0.000000 0.500000
O O11 0.786772 0.878219 0.512914
O O12 0.023921 0.618463 0.458014
O O13 0.085293 0.856132 0.575496
O O14 0.691315 0.620313 0.536111
O O15 0.692512 0.384406 0.477263
O O16 0.682257 0.326903 0.599034
O O17 0.500000 0.000000 0.000000
#
# Coordination Sequence:
#
# PCOD8001956 Si02
#       8
#     2   2   2   2   2   2   2   2
#     4  11  20  32  54  82 127 159 182 231 296 359
#     4  10  22  38  60  91 122 154 192 246 291 355
#     4  11  26  45  61  83 114 159 216 254 284 340
#     4  10  23  36  55  84 115 155 199 245 293 353
#     4  10  20  36  56  91 122 151 186 238 298 366
#     4  11  22  37  65  89 122 160 196 239 300 354
#     4  11  20  30  51  82 124 155 185 223 289 362
#     4  10  20  34  60  96 125 151 192 231 300 372
#
# _framework density 21.224678000000001
#
# number of rings (size 3 to 8) (size 9 to 14) (size 15 to 20)
#    0.000    1.500    1.250    5.625    3.500    2.000 
#    0.000    0.625    0.000   10.500    0.000    0.000 
#    0.000    0.000    0.000    0.000    0.000    0.000 
#
# Total GULP energy -198310.554629 kJ/mol
# GULP energy per Si atom -12394.409664 kJ/mol
# Density = 2.117637 g / cm^3
# Si number density = 21.224678 Si / 1000 Ang^3
#
#
#
# Elastic Constant Matrix: (Units=GPa)
#
#
# Indices 1 2 3 4 5 6 
#
# 1 75.6710 27.3266 21.9790 -5.9121 5.0422 -3.1384
# 2 27.3266 87.2145 6.3964 -16.3111 -2.6234 -13.0398
# 3 21.9790 6.3964 82.7158 -11.8150 -12.4485 6.7842
# 4 -5.9121 -16.3111 -11.8150 29.4297 -4.6329 -6.7838
# 5 5.0422 -2.6234 -12.4485 -4.6329 19.9276 2.0506
# 6 -3.1384 -13.0398 6.7842 -6.7838 2.0506 28.2747
#
#
#
# Elastic Compliance Matrix: (Units=1/GPa)
#
#
# Indices 1 2 3 4 5 6 
#
# 1 0.017618 -0.005990 -0.006330 -0.003794 -0.010138 0.000537
# 2 -0.005990 0.017074 0.002390 0.012453 0.007215 0.009101
# 3 -0.006330 0.002390 0.017328 0.008745 0.015057 -0.002752
# 4 -0.003794 0.012453 0.008745 0.049680 0.018190 0.013824
# 5 -0.010138 0.007215 0.015057 0.018190 0.067531 -0.001944
# 6 0.000537 0.009101 -0.002752 0.013824 -0.001944 0.043742
#
#
# Mechanical properties :
#
#
# Convention : Reuss Voigt Hill
#
# Bulk Modulus (GPa) = 31.09593 39.66724 35.38159
# Shear Modulus (GPa) = 20.52931 28.18637 24.35784
#
# Velocity S-wave (km/s) = 3.11342 3.64813 3.39133
# Velocity P-wave (km/s) = 5.25425 6.03944 5.66048
#
# Compressibility (1/GPa) = 0.03215855
#
# Stress axis : x y z
#
# Youngs Moduli (GPa) = 56.75915 58.56763 57.71108
#
# Poissons Ratio (x) = 0.35084 0.36531
# Poissons Ratio (y) = 0.34001 -0.13790
# Poissons Ratio (z) = 0.35929 -0.13995
#
# Static dielectric constant tensor:
#      x y z
#    x 3.211710 -0.078600 -0.395060 
#    y -0.078600 4.274650 -0.230640 
#    z -0.395060 -0.230640 4.160840 
# 
# 
# High freq. dielectric constant tensor:
#      x y z
#    x 1.779650 -0.023090 -0.025120 
#    y -0.023090 1.849990 -0.017170 
#    z -0.025120 -0.017170 1.837420 
# 
# From -- ./inp_files/521821.got.cif
#   From: 2010.06.25/outbox.cif.g09.slc.cpg/sg2_261_cif.got.tgz:521821.got - 2010.06.27 13:26:56.
