data_PCOD8001722
_publ_section_title
;
Structure prediction by ZEFSAII (Michael W. Deem and Ramdas Pophale) SiO2 
 PCOD8001722
Probable space group: P -1
;
_chemical_formula_sum "Si O2"
_cell_formula_units_Z 16
_cell_length_a 12.138336
_cell_length_b 19.933511
_cell_length_c 5.151535
_cell_angle_alpha 80.654207
_cell_angle_beta 69.417040
_cell_angle_gamma 38.807766
_cell_volume 717.960578
_symmetry_space_group_name_H-M "P -1"
_symmetry_group_IT_number 2
_symmetry_cell_setting 'triclinic'
loop_
_space_group_symop_operation_xyz
x,y,z
-x,-y,-z
loop_
_atom_site_type_symbol
_atom_site_label
_atom_site_fract_x
_atom_site_fract_y
_atom_site_fract_z
Si Si1 0.100855 0.306587 0.587102
Si Si2 0.705611 0.396282 0.303056
Si Si3 0.888039 0.267038 0.753564
Si Si4 0.481132 0.198793 0.293409
Si Si5 0.098522 0.557143 0.854120
Si Si6 0.554270 0.695431 0.242541
Si Si7 0.840587 0.165099 0.576280
Si Si8 0.122577 0.987815 0.096909
O O1 0.323541 0.210680 0.406785
O O2 0.052756 0.247089 0.698714
O O3 0.984029 0.391853 0.393816
O O4 0.062627 0.371382 0.832932
O O5 0.500000 0.500000 0.500000
O O6 0.824752 0.306942 0.484271
O O7 0.778410 0.437045 0.145191
O O8 0.721632 0.346412 0.054161
O O9 0.929732 0.167003 0.749959
O O10 0.484851 0.231774 0.549647
O O11 0.435028 0.276283 0.068265
O O12 0.684265 0.070826 0.153688
O O13 0.236382 0.430287 0.807403
O O14 0.381464 0.716664 0.381960
O O15 0.817427 0.094669 0.683654
O O16 0.993896 0.105985 0.253778
O O17 0.000000 0.000000 0.000000
#
# Coordination Sequence:
#
# PCOD8001722 Si02
#       8
#     2   2   2   2   2   2   2   2
#     4  10  22  40  55  82 120 160 191 227 275 342
#     4  10  20  34  54  82 117 157 193 232 277 330
#     4  10  22  36  58  82 116 155 187 233 284 341
#     4  11  23  38  60  83 115 152 194 237 290 341
#     4  10  21  36  55  83 121 155 194 229 277 333
#     4  11  22  35  59  89 112 152 193 239 284 337
#     4  10  22  38  60  90 116 143 191 244 299 345
#     4  10  21  40  62  86 114 144 185 250 306 339
#
# _framework density 22.285347999999999
#
# number of rings (size 3 to 8) (size 9 to 14) (size 15 to 20)
#    0.000    1.750    1.250    2.625    1.750    7.000 
#    0.000    0.625    0.000    0.750    0.000    0.000 
#    0.000    0.000    0.000    0.000    0.000    0.000 
#
# Total GULP energy -198210.490903 kJ/mol
# GULP energy per Si atom -12388.155681 kJ/mol
# Density = 2.223463 g / cm^3
# Si number density = 22.285348 Si / 1000 Ang^3
#
#
#
# Elastic Constant Matrix: (Units=GPa)
#
#
# Indices 1 2 3 4 5 6 
#
# 1 96.3352 12.5644 58.8096 29.3580 -0.4938 -2.0036
# 2 12.5644 25.5025 28.1472 18.4072 -5.2675 -7.3691
# 3 58.8096 28.1472 132.4649 33.1467 1.8948 -1.9577
# 4 29.3580 18.4072 33.1467 43.9606 -12.5938 0.8830
# 5 -0.4938 -5.2675 1.8948 -12.5938 39.3363 11.4484
# 6 -2.0036 -7.3691 -1.9577 0.8830 11.4484 24.4939
#
#
#
# Elastic Compliance Matrix: (Units=1/GPa)
#
#
# Indices 1 2 3 4 5 6 
#
# 1 0.016379 0.006635 -0.006007 -0.010220 -0.003272 0.004753
# 2 0.006635 0.076726 -0.011069 -0.030704 -0.006806 0.027029
# 3 -0.006007 -0.011069 0.013025 -0.001795 -0.002279 -0.001650
# 4 -0.010220 -0.030704 -0.001795 0.049189 0.017459 -0.020150
# 5 -0.003272 -0.006806 -0.002279 0.017459 0.035972 -0.019940
# 6 0.004753 0.027029 -0.001650 -0.020150 -0.019940 0.059262
#
#
# Mechanical properties :
#
#
# Convention : Reuss Voigt Hill
#
# Bulk Modulus (GPa) = 11.73054 50.37169 31.05111
# Shear Modulus (GPa) = 16.67492 31.87691 24.27592
#
# Velocity S-wave (km/s) = 2.73838 3.78616 3.30407
# Velocity P-wave (km/s) = 3.90813 6.46262 5.34036
#
# Compressibility (1/GPa) = 0.08524754
#
# Stress axis : x y z
#
# Youngs Moduli (GPa) = 61.05493 13.03334 76.77310
#
# Poissons Ratio (x) = -0.08647 0.46118
# Poissons Ratio (y) = -0.40508 0.84980
# Poissons Ratio (z) = 0.36676 0.14427
#
# Static dielectric constant tensor:
#      x y z
#    x 4.320960 0.108760 -0.107070 
#    y 0.108760 4.988340 -0.225620 
#    z -0.107070 -0.225620 4.265730 
# 
# 
# High freq. dielectric constant tensor:
#      x y z
#    x 1.872990 -0.008610 0.006140 
#    y -0.008610 1.851610 0.003650 
#    z 0.006140 0.003650 1.902360 
# 
# From -- ./inp_files/77137.got.cif
#   From: 2010.06.25/outbox.cif.g09.slc.cpg/sg2_39_cif.got.tgz:77137.got - 2010.06.27 13:26:56.
