data_PCOD8001193
_publ_section_title
;
Structure prediction by ZEFSAII (Michael W. Deem and Ramdas Pophale) SiO2 
 PCOD8001193
Probable space group: P -1
;
_chemical_formula_sum "Si O2"
_cell_formula_units_Z 16
_cell_length_a 11.565092
_cell_length_b 19.890049
_cell_length_c 16.968585
_cell_angle_alpha 157.976567
_cell_angle_beta 44.128391
_cell_angle_gamma 148.826393
_cell_volume 698.168323
_symmetry_space_group_name_H-M "P -1"
_symmetry_group_IT_number 2
_symmetry_cell_setting 'triclinic'
loop_
_space_group_symop_operation_xyz
x,y,z
-x,-y,-z
loop_
_atom_site_type_symbol
_atom_site_label
_atom_site_fract_x
_atom_site_fract_y
_atom_site_fract_z
Si Si1 0.856360 0.437730 0.317339
Si Si2 0.972979 0.069125 0.807543
Si Si3 0.255701 0.602070 0.205635
Si Si4 0.848493 0.088530 0.218293
Si Si5 0.412700 0.983002 0.125796
Si Si6 0.513361 0.891948 0.601041
Si Si7 0.217906 0.918476 0.476614
Si Si8 0.867013 0.724302 0.870305
O O1 0.700949 0.215503 0.220053
O O2 0.115568 0.540049 0.289542
O O3 0.926692 0.689731 0.589579
O O4 0.703397 0.293407 0.153670
O O5 0.707557 0.937620 0.772726
O O6 0.000142 0.879550 0.567225
O O7 0.166382 0.328049 0.937063
O O8 0.019179 0.138068 0.951992
O O9 0.159992 0.668716 0.259484
O O10 0.543120 0.830148 0.319485
O O11 0.630799 0.052430 0.302605
O O12 0.927299 0.178939 0.186980
O O13 0.754560 0.816311 0.986618
O O14 0.362082 0.953002 0.209938
O O15 0.349237 0.587455 0.359386
O O16 0.735887 0.030190 0.583136
#
# Coordination Sequence:
#
# PCOD8001193 Si02
#       8
#     2   2   2   2   2   2   2   2
#     4  10  19  42  65  92 129 166 213 263 318 384
#     4  11  23  42  62  94 130 174 211 258 321 390
#     4  10  21  38  63  98 120 162 222 266 312 370
#     4  11  23  40  65 100 131 159 221 275 320 380
#     4  10  24  38  67  97 127 178 212 254 332 394
#     4  12  23  41  67  94 133 172 209 271 323 374
#     4  11  23  38  66  94 126 173 214 266 312 375
#     4  11  24  39  65 100 129 165 216 275 325 371
#
# _framework density 22.917110999999998
#
# number of rings (size 3 to 8) (size 9 to 14) (size 15 to 20)
#    0.000    1.250    3.750    2.250    7.000    0.500 
#    0.000    8.750    0.000    0.000    0.000    0.000 
#    0.000    0.000    0.000    0.000    0.000    0.000 
#
# Total GULP energy -198215.148606 kJ/mol
# GULP energy per Si atom -12388.446788 kJ/mol
# Density = 2.286495 g / cm^3
# Si number density = 22.917111 Si / 1000 Ang^3
#
#
#
# Elastic Constant Matrix: (Units=GPa)
#
#
# Indices 1 2 3 4 5 6 
#
# 1 90.0513 23.3937 37.5182 -9.7442 1.6543 -22.2385
# 2 23.3937 78.3664 7.7244 -13.6863 -4.6572 -12.3892
# 3 37.5182 7.7244 79.0615 -15.0989 -2.9136 -12.3632
# 4 -9.7442 -13.6863 -15.0989 30.5839 -7.2163 5.8668
# 5 1.6543 -4.6572 -2.9136 -7.2163 30.9049 -7.8921
# 6 -22.2385 -12.3892 -12.3632 5.8668 -7.8921 31.9137
#
#
#
# Elastic Compliance Matrix: (Units=1/GPa)
#
#
# Indices 1 2 3 4 5 6 
#
# 1 0.016473 -0.003212 -0.006459 -0.000929 -0.000186 0.007854
# 2 -0.003212 0.015964 0.002435 0.007764 0.005879 0.004929
# 3 -0.006459 0.002435 0.017748 0.008421 0.005128 0.003040
# 4 -0.000929 0.007764 0.008421 0.042760 0.012199 0.000785
# 5 -0.000186 0.005879 0.005128 0.012199 0.039568 0.011682
# 6 0.007854 0.004929 0.003040 0.000785 0.011682 0.042643
#
#
# Mechanical properties :
#
#
# Convention : Reuss Voigt Hill
#
# Bulk Modulus (GPa) = 28.00208 42.75020 35.37614
# Shear Modulus (GPa) = 24.80965 30.60337 27.70651
#
# Velocity S-wave (km/s) = 3.29383 3.65827 3.48082
# Velocity P-wave (km/s) = 5.16828 6.04472 5.62360
#
# Compressibility (1/GPa) = 0.03571163
#
# Stress axis : x y z
#
# Youngs Moduli (GPa) = 60.70529 62.64096 56.34368
#
# Poissons Ratio (x) = 0.20122 0.36394
# Poissons Ratio (y) = 0.19500 -0.13719
# Poissons Ratio (z) = 0.39211 -0.15252
#
# Static dielectric constant tensor:
#      x y z
#    x 3.935560 -0.190920 -0.079880 
#    y -0.190920 4.189120 -0.075370 
#    z -0.079880 -0.075370 4.306550 
# 
# 
# High freq. dielectric constant tensor:
#      x y z
#    x 1.884970 -0.016690 -0.005900 
#    y -0.016690 1.903270 -0.008750 
#    z -0.005900 -0.008750 1.898880 
# 
# From -- ./inp_files/281487.got.cif
#   From: 2010.06.25/outbox.cif.g09.slc.cpg/sg2_141_cif.got.tgz:281487.got - 2010.06.27 13:26:56.
