data_PCOD8001186
_publ_section_title
;
Structure prediction by ZEFSAII (Michael W. Deem and Ramdas Pophale) SiO2 
 PCOD8001186
Probable space group: P -1
;
_chemical_formula_sum "Si O2"
_cell_formula_units_Z 16
_cell_length_a 15.865377
_cell_length_b 11.574349
_cell_length_c 14.503379
_cell_angle_alpha 43.423108
_cell_angle_beta 141.481551
_cell_angle_gamma 154.344894
_cell_volume 715.909445
_symmetry_space_group_name_H-M "P -1"
_symmetry_group_IT_number 2
_symmetry_cell_setting 'triclinic'
loop_
_space_group_symop_operation_xyz
x,y,z
-x,-y,-z
loop_
_atom_site_type_symbol
_atom_site_label
_atom_site_fract_x
_atom_site_fract_y
_atom_site_fract_z
Si Si1 0.786282 0.814000 0.753576
Si Si2 0.049379 0.378675 0.020288
Si Si3 0.867597 0.964995 0.525344
Si Si4 0.170103 0.811397 0.331023
Si Si5 0.457003 0.911684 0.386160
Si Si6 0.686620 0.595313 0.424203
Si Si7 0.638205 0.134579 0.873226
Si Si8 0.179163 0.703540 0.771821
O O1 0.925009 0.780892 0.908451
O O2 0.802120 0.902727 0.611960
O O3 0.536048 0.533428 0.723601
O O4 0.873990 0.036339 0.771979
O O5 0.240416 0.590264 0.135383
O O6 0.055196 0.531202 0.859685
O O7 0.816591 0.160798 0.997933
O O8 0.734543 0.693925 0.513929
O O9 0.821093 0.096958 0.358134
O O10 0.120451 0.161441 0.619142
O O11 0.319168 0.935223 0.294712
O O12 0.939401 0.500251 0.297999
O O13 0.299756 0.848939 0.504438
O O14 0.333487 0.624110 0.478296
O O15 0.472907 0.922482 0.284460
O O16 0.425420 0.874224 0.898999
#
# Coordination Sequence:
#
# PCOD8001186 Si02
#       8
#     2   2   2   2   2   2   2   2
#     4  11  24  40  60  92 126 169 207 254 312 369
#     4  11  25  44  63  92 130 168 209 258 316 376
#     4  11  22  36  65  96 123 156 212 266 314 366
#     4  10  22  39  65  90 130 166 210 255 310 375
#     4  10  19  42  64  93 126 170 202 262 317 365
#     4  10  20  37  61  92 126 156 201 269 316 357
#     4  11  23  40  69  90 123 168 214 259 314 374
#     4  12  23  42  64  98 125 168 209 257 315 376
#
# _framework density 22.349194000000001
#
# number of rings (size 3 to 8) (size 9 to 14) (size 15 to 20)
#    0.000    1.250    2.500    3.750    0.000    6.500 
#    0.000    0.625    0.000    0.000    0.000    0.000 
#    0.000    0.000    0.000    0.000    0.000    0.000 
#
# Total GULP energy -198367.957006 kJ/mol
# GULP energy per Si atom -12397.997313 kJ/mol
# Density = 2.229833 g / cm^3
# Si number density = 22.349194 Si / 1000 Ang^3
#
#
#
# Elastic Constant Matrix: (Units=GPa)
#
#
# Indices 1 2 3 4 5 6 
#
# 1 101.4516 40.6703 29.1598 3.5441 19.3362 -17.1858
# 2 40.6703 95.5439 30.6038 33.2795 14.5899 -8.4757
# 3 29.1598 30.6038 70.7171 0.5800 8.7543 -4.0209
# 4 3.5441 33.2795 0.5800 40.5142 -2.1920 0.9504
# 5 19.3362 14.5899 8.7543 -2.1920 45.9055 5.3728
# 6 -17.1858 -8.4757 -4.0209 0.9504 5.3728 35.7709
#
#
#
# Elastic Compliance Matrix: (Units=1/GPa)
#
#
# Indices 1 2 3 4 5 6 
#
# 1 0.014458 -0.004733 -0.003012 0.002273 -0.004619 0.006119
# 2 -0.004733 0.021814 -0.006540 -0.017757 -0.004935 0.003373
# 3 -0.003012 -0.006540 0.018067 0.005420 0.000296 -0.001155
# 4 0.002273 -0.017757 0.005420 0.039425 0.006058 -0.004464
# 5 -0.004619 -0.004935 0.000296 0.006058 0.026406 -0.007482
# 6 0.006119 0.003373 -0.001155 -0.004464 -0.007482 0.032808
#
#
# Mechanical properties :
#
#
# Convention : Reuss Voigt Hill
#
# Bulk Modulus (GPa) = 38.80909 52.06450 45.43679
# Shear Modulus (GPa) = 26.29693 35.59002 30.94348
#
# Velocity S-wave (km/s) = 3.43394 3.99488 3.72498
# Velocity P-wave (km/s) = 5.75544 6.68022 6.23500
#
# Compressibility (1/GPa) = 0.02576716
#
# Stress axis : x y z
#
# Youngs Moduli (GPa) = 69.16804 45.84278 55.35061
#
# Poissons Ratio (x) = 0.21696 0.16673
# Poissons Ratio (y) = 0.32735 0.36202
# Poissons Ratio (z) = 0.20835 0.29983
#
# Static dielectric constant tensor:
#      x y z
#    x 4.208610 -0.073290 0.077910 
#    y -0.073290 4.063280 0.370640 
#    z 0.077910 0.370640 3.676710 
# 
# 
# High freq. dielectric constant tensor:
#      x y z
#    x 1.897260 -0.003440 0.009600 
#    y -0.003440 1.874390 0.030540 
#    z 0.009600 0.030540 1.852160 
# 
# From -- ./inp_files/532422.got.cif
#   From: 2010.06.25/outbox.cif.g09.slc.cpg/sg2_267_cif.got.tgz:532422.got - 2010.06.27 13:26:56.
