data_PCOD8001631
_publ_section_title
;
Structure prediction by ZEFSAII (Michael W. Deem and Ramdas Pophale) SiO2 
 PCOD8001631
Probable space group: P -1
;
_chemical_formula_sum "Si O2"
_cell_formula_units_Z 16
_cell_length_a 22.314138
_cell_length_b 11.922382
_cell_length_c 8.098347
_cell_angle_alpha 85.810281
_cell_angle_beta 68.643560
_cell_angle_gamma 26.756791
_cell_volume 721.798902
_symmetry_space_group_name_H-M "P -1"
_symmetry_group_IT_number 2
_symmetry_cell_setting 'triclinic'
loop_
_space_group_symop_operation_xyz
x,y,z
-x,-y,-z
loop_
_atom_site_type_symbol
_atom_site_label
_atom_site_fract_x
_atom_site_fract_y
_atom_site_fract_z
Si Si1 0.725102 0.259437 0.394007
Si Si2 0.314691 0.867930 0.146979
Si Si3 0.010004 0.308216 0.630303
Si Si4 0.352708 0.782182 0.765385
Si Si5 0.411242 0.288708 0.405912
Si Si6 0.380851 0.011426 0.113602
Si Si7 0.120362 0.313286 0.741263
Si Si8 0.347044 0.145577 0.475755
O O1 0.563646 0.455858 0.628274
O O2 0.692180 0.275209 0.233295
O O3 0.719174 0.400249 0.432920
O O4 0.922110 0.893765 0.282311
O O5 0.151633 0.064444 0.366972
O O6 0.344130 0.940623 0.193791
O O7 0.500000 0.500000 0.000000
O O8 0.247478 0.990541 0.011914
O O9 0.019071 0.420924 0.678363
O O10 0.805230 0.616405 0.760354
O O11 0.299758 0.950454 0.647370
O O12 0.299492 0.355485 0.498471
O O13 0.559041 0.036607 0.426140
O O14 0.496255 0.174570 0.151925
O O15 0.460589 0.931177 0.215944
O O16 0.167288 0.363808 0.633267
O O17 0.000000 0.500000 0.000000
#
# Coordination Sequence:
#
# PCOD8001631 Si02
#       8
#     2   2   2   2   2   2   2   2
#     4  10  20  39  60  87 123 167 207 258 311 368
#     4  12  21  34  56  93 128 157 206 256 317 380
#     4  11  23  37  59  94 129 158 198 267 325 369
#     4  10  20  33  60  87 122 164 202 258 317 362
#     4  11  23  45  65  91 123 170 219 259 299 378
#     4  12  24  41  63  95 132 162 208 262 318 371
#     4  11  21  37  62  96 126 158 201 263 325 369
#     4  11  24  39  68  92 124 169 215 253 312 377
#
# _framework density 22.166841999999999
#
# number of rings (size 3 to 8) (size 9 to 14) (size 15 to 20)
#    0.000    1.000    5.000    2.250    3.500    0.000 
#    0.000    0.625    0.000   12.000    0.000    0.000 
#    0.000    0.000    0.000    0.000    0.000    0.000 
#
# Total GULP energy -198230.416081 kJ/mol
# GULP energy per Si atom -12389.401005 kJ/mol
# Density = 2.211639 g / cm^3
# Si number density = 22.166842 Si / 1000 Ang^3
#
#
#
# Elastic Constant Matrix: (Units=GPa)
#
#
# Indices 1 2 3 4 5 6 
#
# 1 126.8705 10.5305 24.7008 -5.8686 23.5292 24.5589
# 2 10.5305 41.0018 5.0129 0.7219 -0.2392 6.3523
# 3 24.7008 5.0129 69.1039 -8.1530 15.0437 1.2851
# 4 -5.8686 0.7219 -8.1530 37.1280 -4.8129 10.7244
# 5 23.5292 -0.2392 15.0437 -4.8129 34.0685 -1.2524
# 6 24.5589 6.3523 1.2851 10.7244 -1.2524 27.8343
#
#
#
# Elastic Compliance Matrix: (Units=1/GPa)
#
#
# Indices 1 2 3 4 5 6 
#
# 1 0.012379 -0.001115 -0.001972 0.004185 -0.007556 -0.012529
# 2 -0.001115 0.025642 -0.001642 0.000600 0.001578 -0.004953
# 3 -0.001972 -0.001642 0.016852 0.002665 -0.005712 0.000053
# 4 0.004185 0.000600 0.002665 0.032979 -0.000016 -0.016659
# 5 -0.007556 0.001578 -0.005712 -0.000016 0.037406 0.008259
# 6 -0.012529 -0.004953 0.000053 -0.016659 0.008259 0.054900
#
#
# Mechanical properties :
#
#
# Convention : Reuss Voigt Hill
#
# Bulk Modulus (GPa) = 22.01951 35.27382 28.64666
# Shear Modulus (GPa) = 24.41957 32.92163 28.67060
#
# Velocity S-wave (km/s) = 3.32268 3.85798 3.60029
# Velocity P-wave (km/s) = 4.96743 5.98270 5.49855
#
# Compressibility (1/GPa) = 0.04541427
#
# Stress axis : x y z
#
# Youngs Moduli (GPa) = 80.78424 38.99819 59.33991
#
# Poissons Ratio (x) = 0.04347 0.11703
# Poissons Ratio (y) = 0.09006 0.09745
# Poissons Ratio (z) = 0.15933 0.06405
#
# Static dielectric constant tensor:
#      x y z
#    x 4.100730 -0.054240 0.416120 
#    y -0.054240 4.335560 -0.196770 
#    z 0.416120 -0.196770 4.082990 
# 
# 
# High freq. dielectric constant tensor:
#      x y z
#    x 1.851190 -0.000800 0.037360 
#    y -0.000800 1.872800 -0.012610 
#    z 0.037360 -0.012610 1.869000 
# 
# From -- ./inp_files/268921.got.cif
#   From: 2010.06.25/outbox.cif.g09.slc.cpg/sg2_135_cif.got.tgz:268921.got - 2010.06.27 13:26:56.
