data_PCOD8001679
_publ_section_title
;
Structure prediction by ZEFSAII (Michael W. Deem and Ramdas Pophale) SiO2 
 PCOD8001679
Probable space group: P -1
;
_chemical_formula_sum "Si O2"
_cell_formula_units_Z 10
_cell_length_a 7.854857
_cell_length_b 9.387229
_cell_length_c 9.515015
_cell_angle_alpha 64.254907
_cell_angle_beta 82.152688
_cell_angle_gamma 128.435705
_cell_volume 404.569280
_symmetry_space_group_name_H-M "P -1"
_symmetry_group_IT_number 2
_symmetry_cell_setting 'triclinic'
loop_
_space_group_symop_operation_xyz
x,y,z
-x,-y,-z
loop_
_atom_site_type_symbol
_atom_site_label
_atom_site_fract_x
_atom_site_fract_y
_atom_site_fract_z
Si Si1 0.777829 0.515356 0.404303
Si Si2 0.324993 0.357767 0.380175
Si Si3 0.060743 0.150748 0.226603
Si Si4 0.405670 0.020149 0.782283
Si Si5 0.694347 0.967236 0.911547
O O1 0.631280 0.532463 0.305735
O O2 0.780200 0.578633 0.536591
O O3 0.627080 0.240475 0.550607
O O4 0.084528 0.734681 0.228590
O O5 0.288741 0.378554 0.209575
O O6 0.160286 0.084298 0.550019
O O7 0.189801 0.117660 0.117002
O O8 0.898913 0.177163 0.154719
O O9 0.471048 0.881829 0.866664
O O10 0.424492 0.138620 0.873794
#
# Coordination Sequence:
#
# PCOD8001679 Si02
#       5
#     2   2   2   2   2
#     4   9  17  34  54  73 101 134 165 207 250 293
#     4   8  16  31  54  78  99 131 173 202 246 307
#     4   9  17  33  53  75 104 133 163 210 252 289
#     4  10  20  34  53  76 101 133 170 204 247 300
#     4  10  20  34  53  76 101 133 170 204 247 300
#
# _framework density 24.717645000000001
#
# number of rings (size 3 to 8) (size 9 to 14) (size 15 to 20)
#    0.000    2.800    0.000    2.400    0.000    0.000 
#    0.000   22.000    0.000    4.800    0.000    0.000 
#    0.000    0.000    0.000    0.000    0.000    0.000 
#
# Total GULP energy -123881.824515 kJ/mol
# GULP energy per Si atom -12388.182451 kJ/mol
# Density = 2.466139 g / cm^3
# Si number density = 24.717645 Si / 1000 Ang^3
#
#
#
# Elastic Constant Matrix: (Units=GPa)
#
#
# Indices 1 2 3 4 5 6 
#
# 1 99.5978 23.8772 17.0249 4.7719 2.8397 42.8463
# 2 23.8772 77.0583 12.5460 23.1312 4.1583 26.9250
# 3 17.0249 12.5460 64.5533 -4.1090 5.4581 17.5230
# 4 4.7719 23.1312 -4.1090 21.3827 7.2130 9.5808
# 5 2.8397 4.1583 5.4581 7.2130 25.9957 6.0297
# 6 42.8463 26.9250 17.5230 9.5808 6.0297 28.3108
#
#
#
# Elastic Compliance Matrix: (Units=1/GPa)
#
#
# Indices 1 2 3 4 5 6 
#
# 1 0.043931 0.009932 0.012193 0.020744 0.006614 -0.091908
# 2 0.009932 0.028016 0.000171 -0.018565 0.008187 -0.037243
# 3 0.012193 0.000171 0.024810 0.020996 -0.003015 -0.040436
# 4 0.020744 -0.018565 0.020996 0.097274 -0.017735 -0.055876
# 5 0.006614 0.008187 -0.003015 -0.017735 0.046594 -0.019852
# 6 -0.091908 -0.037243 -0.040436 -0.055876 -0.019852 0.258003
#
#
# Mechanical properties :
#
#
# Convention : Reuss Voigt Hill
#
# Bulk Modulus (GPa) = 7.07465 38.67839 22.87652
# Shear Modulus (GPa) = 9.97704 27.65527 18.81616
#
# Velocity S-wave (km/s) = 2.01126 3.34855 2.76206
# Velocity P-wave (km/s) = 2.87436 5.53466 4.40990
#
# Compressibility (1/GPa) = 0.14134968
#
# Stress axis : x y z
#
# Youngs Moduli (GPa) = 22.76312 35.69416 40.30677
#
# Poissons Ratio (x) = -0.35452 -0.49147
# Poissons Ratio (y) = -0.22608 -0.00691
# Poissons Ratio (z) = -0.27756 -0.00612
#
# Static dielectric constant tensor:
#      x y z
#    x 4.171950 0.646070 0.125220 
#    y 0.646070 4.641810 -0.005470 
#    z 0.125220 -0.005470 4.482070 
# 
# 
# High freq. dielectric constant tensor:
#      x y z
#    x 1.965850 0.039970 0.007660 
#    y 0.039970 1.957870 -0.002340 
#    z 0.007660 -0.002340 1.978160 
# 
# From -- ./inp_files/144784.got.cif
#   From: 2010.06.25/outbox.cif.g09.slc.cpg/sg2_73_cif.got.tgz:144784.got - 2010.06.27 13:26:56.
