data_PCOD8001647
_publ_section_title
;
Structure prediction by ZEFSAII (Michael W. Deem and Ramdas Pophale) SiO2 
 PCOD8001647
Probable space group: P -1
;
_chemical_formula_sum "Si O2"
_cell_formula_units_Z 16
_cell_length_a 14.545992
_cell_length_b 14.342632
_cell_length_c 11.619131
_cell_angle_alpha 151.473531
_cell_angle_beta 136.970588
_cell_angle_gamma 35.972113
_cell_volume 678.272609
_symmetry_space_group_name_H-M "P -1"
_symmetry_group_IT_number 2
_symmetry_cell_setting 'triclinic'
loop_
_space_group_symop_operation_xyz
x,y,z
-x,-y,-z
loop_
_atom_site_type_symbol
_atom_site_label
_atom_site_fract_x
_atom_site_fract_y
_atom_site_fract_z
Si Si1 0.629302 0.552426 0.367567
Si Si2 0.171878 0.963379 0.638295
Si Si3 0.827021 0.051593 0.920053
Si Si4 0.306662 0.495905 0.372433
Si Si5 0.292738 0.196909 0.857996
Si Si6 0.600530 0.028880 0.522454
Si Si7 0.968031 0.554238 0.875389
Si Si8 0.904535 0.639993 0.672324
O O1 0.588716 0.562393 0.478173
O O2 0.479926 0.721013 0.336531
O O3 0.749607 0.636541 0.552106
O O4 0.698947 0.305558 0.110308
O O5 0.292258 0.717217 0.536664
O O6 0.263321 0.990314 0.640656
O O7 0.000000 0.000000 0.500000
O O8 0.144678 0.174837 0.919979
O O9 0.764967 0.978105 0.672296
O O10 0.843356 0.904236 0.886703
O O11 0.000000 0.000000 0.000000
O O12 0.131746 0.568468 0.331551
O O13 0.383224 0.271083 0.113357
O O14 0.121984 0.432155 0.962609
O O15 0.368884 0.145979 0.745331
O O16 0.500000 0.000000 0.500000
O O17 0.024754 0.527754 0.766475
O O18 0.000000 0.500000 0.500000
#
# Coordination Sequence:
#
# PCOD8001647 Si02
#       8
#     2   2   2   2   2   2   2   2
#     4  11  25  46  70 100 146 188 234 296 356 424
#     4  11  18  37  61 102 139 171 226 295 355 397
#     4  12  25  45  74 105 135 186 247 296 347 417
#     4  10  21  41  67 100 138 181 230 297 354 416
#     4  11  23  40  67 102 139 188 235 280 355 429
#     4  12  28  51  71 100 153 195 233 290 361 430
#     4  10  20  33  62  99 141 171 225 293 348 416
#     4  11  21  39  65 102 138 185 233 288 349 413
#
# _framework density 23.589335999999999
#
# number of rings (size 3 to 8) (size 9 to 14) (size 15 to 20)
#    0.000    1.000    5.000    2.625    1.750    1.500 
#    4.500    0.625    0.000    0.000    0.000    0.000 
#    0.000    0.000    0.000    0.000    0.000    0.000 
#
# Total GULP energy -198263.560973 kJ/mol
# GULP energy per Si atom -12391.472561 kJ/mol
# Density = 2.353565 g / cm^3
# Si number density = 23.589336 Si / 1000 Ang^3
#
#
#
# Elastic Constant Matrix: (Units=GPa)
#
#
# Indices 1 2 3 4 5 6 
#
# 1 109.2570 36.2301 44.3306 -0.0111 -10.1227 29.4602
# 2 36.2301 99.1958 27.4936 1.2727 6.7343 28.1852
# 3 44.3306 27.4936 99.1904 10.6751 -8.2699 17.4299
# 4 -0.0111 1.2727 10.6751 43.0962 8.7668 1.3901
# 5 -10.1227 6.7343 -8.2699 8.7668 43.5695 4.9880
# 6 29.4602 28.1852 17.4299 1.3901 4.9880 39.5237
#
#
#
# Elastic Compliance Matrix: (Units=1/GPa)
#
#
# Indices 1 2 3 4 5 6 
#
# 1 0.013831 -0.002029 -0.004069 0.000603 0.003495 -0.007530
# 2 -0.002029 0.013476 -0.001864 0.000748 -0.002255 -0.007017
# 3 -0.004069 -0.001864 0.013370 -0.003779 0.002842 -0.001760
# 4 0.000603 0.000748 -0.003779 0.025289 -0.005842 0.000531
# 5 0.003495 -0.002255 0.002842 -0.005842 0.026444 -0.005382
# 6 -0.007530 -0.007017 -0.001760 0.000531 -0.005382 0.037355
#
#
# Mechanical properties :
#
#
# Convention : Reuss Voigt Hill
#
# Bulk Modulus (GPa) = 40.40037 58.19464 49.29750
# Shear Modulus (GPa) = 32.48009 38.54382 35.51195
#
# Velocity S-wave (km/s) = 3.71468 4.04660 3.88419
# Velocity P-wave (km/s) = 5.96341 6.82325 6.40777
#
# Compressibility (1/GPa) = 0.02475225
#
# Stress axis : x y z
#
# Youngs Moduli (GPa) = 72.30108 74.20479 74.79545
#
# Poissons Ratio (x) = 0.15058 0.30436
# Poissons Ratio (y) = 0.14672 0.13941
# Poissons Ratio (z) = 0.29421 0.13831
#
# Static dielectric constant tensor:
#      x y z
#    x 4.622140 0.686450 -0.024030 
#    y 0.686450 4.742770 0.025930 
#    z -0.024030 0.025930 4.301540 
# 
# 
# High freq. dielectric constant tensor:
#      x y z
#    x 1.934220 0.022890 -0.006040 
#    y 0.022890 1.939450 0.003340 
#    z -0.006040 0.003340 1.930550 
# 
# From -- ./inp_files/456057.got.cif
#   From: 2010.06.25/outbox.cif.g09.slc.cpg/sg2_229_cif.got.tgz:456057.got - 2010.06.27 13:26:56.
