data_PCOD8001571
_publ_section_title
;
Structure prediction by ZEFSAII (Michael W. Deem and Ramdas Pophale) SiO2 
 PCOD8001571
Probable space group: P -1
;
_chemical_formula_sum "Si O2"
_cell_formula_units_Z 14
_cell_length_a 15.441026
_cell_length_b 10.957452
_cell_length_c 15.939564
_cell_angle_alpha 118.174229
_cell_angle_beta 18.527208
_cell_angle_gamma 110.519017
_cell_volume 708.506891
_symmetry_space_group_name_H-M "P -1"
_symmetry_group_IT_number 2
_symmetry_cell_setting 'triclinic'
loop_
_space_group_symop_operation_xyz
x,y,z
-x,-y,-z
loop_
_atom_site_type_symbol
_atom_site_label
_atom_site_fract_x
_atom_site_fract_y
_atom_site_fract_z
Si Si1 0.610305 0.277348 0.781687
Si Si2 0.325183 0.596662 0.070926
Si Si3 0.243307 0.478890 0.672305
Si Si4 0.827806 0.748589 0.220212
Si Si5 0.074613 0.206399 0.201132
Si Si6 0.179279 0.939364 0.898260
Si Si7 0.785685 0.524930 0.492686
O O1 0.729349 0.276651 0.766906
O O2 0.861953 0.176807 0.456218
O O3 0.504300 0.442144 0.898121
O O4 0.346968 0.216600 0.005820
O O5 0.026292 0.600293 0.306152
O O6 0.519766 0.622091 0.825613
O O7 0.500000 0.500000 0.500000
O O8 0.164206 0.335847 0.726303
O O9 0.337069 0.460375 0.483904
O O10 0.948557 0.622084 0.997197
O O11 0.495215 0.846910 0.541349
O O12 0.037654 0.845237 0.056166
O O13 0.911362 0.353133 0.345914
O O14 0.196036 0.072602 0.982061
O O15 0.000000 0.000000 0.000000
#
# Coordination Sequence:
#
# PCOD8001571 Si02
#       7
#     2   2   2   2   2   2   2
#     4   9  17  33  51  81 117 149 182 224 295 348
#     4   9  18  31  53  82 116 144 183 239 284 349
#     4  11  24  42  62  83 119 155 201 248 286 337
#     4  11  25  40  60  82 115 160 194 240 293 328
#     4  10  20  33  56  83 118 153 181 227 288 357
#     4  12  24  40  58  88 121 155 196 237 284 355
#     4  10  21  33  56  87 113 149 189 234 294 336
#
# _framework density 19.759865000000001
#
# number of rings (size 3 to 8) (size 9 to 14) (size 15 to 20)
#    0.000    1.714    1.429    3.000    4.000    5.714 
#    0.000    0.000    0.000    0.000    0.000   20.000 
#    0.000    0.000    0.000    0.000    0.000    0.000 
#
# Total GULP energy -173569.589041 kJ/mol
# GULP energy per Si atom -12397.827789 kJ/mol
# Density = 1.971489 g / cm^3
# Si number density = 19.759865 Si / 1000 Ang^3
#
#
#
# Elastic Constant Matrix: (Units=GPa)
#
#
# Indices 1 2 3 4 5 6 
#
# 1 134.4725 29.5896 50.4270 -3.5506 17.0514 14.5349
# 2 29.5896 65.8266 17.7554 -7.4017 3.4729 0.9870
# 3 50.4270 17.7554 127.5041 -12.0696 10.6302 -0.7936
# 4 -3.5506 -7.4017 -12.0696 35.0628 2.8137 3.5135
# 5 17.0514 3.4729 10.6302 2.8137 24.2768 -0.5201
# 6 14.5349 0.9870 -0.7936 3.5135 -0.5201 11.5867
#
#
#
# Elastic Compliance Matrix: (Units=1/GPa)
#
#
# Indices 1 2 3 4 5 6 
#
# 1 0.012336 -0.003774 -0.003744 0.001340 -0.006986 -0.016129
# 2 -0.003774 0.017334 -0.000657 0.002798 0.000185 0.002372
# 3 -0.003744 -0.000657 0.009834 0.002552 -0.001780 0.004573
# 4 0.001340 0.002798 0.002552 0.031809 -0.006396 -0.011678
# 5 -0.006986 0.000185 -0.001780 -0.006396 0.047865 0.012714
# 6 -0.016129 0.002372 0.004573 -0.011678 0.012714 0.110762
#
#
# Mechanical properties :
#
#
# Convention : Reuss Voigt Hill
#
# Bulk Modulus (GPa) = 43.19069 58.14969 50.67019
# Shear Modulus (GPa) = 19.68450 29.52067 24.60258
#
# Velocity S-wave (km/s) = 3.15967 3.86939 3.53240
# Velocity P-wave (km/s) = 5.93435 7.03242 6.50659
#
# Compressibility (1/GPa) = 0.02315314
#
# Stress axis : x y z
#
# Youngs Moduli (GPa) = 81.06652 57.68885 101.69226
#
# Poissons Ratio (x) = 0.21771 0.38076
# Poissons Ratio (y) = 0.30594 0.06682
# Poissons Ratio (z) = 0.30353 0.03791
#
# Static dielectric constant tensor:
#      x y z
#    x 3.320970 -0.039170 0.036080 
#    y -0.039170 3.522040 -0.234750 
#    z 0.036080 -0.234750 3.703050 
# 
# 
# High freq. dielectric constant tensor:
#      x y z
#    x 1.755990 0.012520 0.012270 
#    y 0.012520 1.748400 -0.022540 
#    z 0.012270 -0.022540 1.784480 
# 
# From -- ./inp_files/92926.got.cif
#   From: 2010.06.25/outbox.cif.g09.slc.cpg/sg2_47_cif.got.tgz:92926.got - 2010.06.27 13:26:56.
