data_PCOD8001483
_publ_section_title
;
Structure prediction by ZEFSAII (Michael W. Deem and Ramdas Pophale) SiO2 
 PCOD8001483
Probable space group: P -1
;
_chemical_formula_sum "Si O2"
_cell_formula_units_Z 16
_cell_length_a 12.230955
_cell_length_b 17.300104
_cell_length_c 11.623299
_cell_angle_alpha 62.437808
_cell_angle_beta 66.425035
_cell_angle_gamma 20.759567
_cell_volume 768.609178
_symmetry_space_group_name_H-M "P -1"
_symmetry_group_IT_number 2
_symmetry_cell_setting 'triclinic'
loop_
_space_group_symop_operation_xyz
x,y,z
-x,-y,-z
loop_
_atom_site_type_symbol
_atom_site_label
_atom_site_fract_x
_atom_site_fract_y
_atom_site_fract_z
Si Si1 0.020953 0.433551 0.653488
Si Si2 0.673996 0.391068 0.120400
Si Si3 0.414070 0.913602 0.623363
Si Si4 0.098386 0.253393 0.089171
Si Si5 0.422670 0.035562 0.335777
Si Si6 0.345022 0.242245 0.872241
Si Si7 0.801713 0.056619 0.904263
Si Si8 0.904953 0.185135 0.811907
O O1 0.208111 0.360252 0.724041
O O2 0.000000 0.500000 0.500000
O O3 0.658438 0.666845 0.683058
O O4 0.224264 0.209103 0.698517
O O5 0.412844 0.544649 0.221285
O O6 0.773921 0.424279 0.080390
O O7 0.500000 0.500000 0.000000
O O8 0.967991 0.128150 0.170634
O O9 0.596714 0.863809 0.652704
O O10 0.342458 0.003612 0.466793
O O11 0.097233 0.098840 0.688062
O O12 0.162094 0.216548 0.223603
O O13 0.354854 0.021628 0.078364
O O14 0.088873 0.358033 0.969674
O O15 0.453833 0.256366 0.883941
O O16 0.802628 0.158946 0.833395
O O17 0.897601 0.951655 0.059352
#
# Coordination Sequence:
#
# PCOD8001483 Si02
#       8
#     2   2   2   2   2   2   2   2
#     4   9  19  34  53  77 105 135 168 212 261 307
#     4   9  19  34  51  71 104 139 167 208 258 304
#     4  10  20  34  54  78 103 139 176 209 257 312
#     4   9  17  32  55  80 103 133 172 216 261 303
#     4   9  19  36  55  76 106 134 170 222 260 298
#     4   9  17  31  56  81 102 132 173 216 260 305
#     4   9  19  34  50  75 107 135 168 215 257 301
#     4  10  20  33  50  74 105 139 174 206 251 313
#
# _framework density 20.81682
#
# number of rings (size 3 to 8) (size 9 to 14) (size 15 to 20)
#    0.000    2.750    0.000    0.750    0.000    8.000 
#    0.000    2.500    0.000   13.500    0.000    0.000 
#    0.000    0.000    0.000    0.000    0.000    0.000 
#
# Total GULP energy -198224.684393 kJ/mol
# GULP energy per Si atom -12389.042775 kJ/mol
# Density = 2.076944 g / cm^3
# Si number density = 20.816820 Si / 1000 Ang^3
#
#
#
# Elastic Constant Matrix: (Units=GPa)
#
#
# Indices 1 2 3 4 5 6 
#
# 1 82.7978 16.8776 48.1246 -5.0140 19.9670 -21.1715
# 2 16.8776 94.9152 37.8191 24.2315 -2.2678 -5.3979
# 3 48.1246 37.8191 100.7326 7.1324 13.0409 -12.8998
# 4 -5.0140 24.2315 7.1324 31.0728 -5.0161 2.9037
# 5 19.9670 -2.2678 13.0409 -5.0161 22.2274 -2.7809
# 6 -21.1715 -5.3979 -12.8998 2.9037 -2.7809 29.7821
#
#
#
# Elastic Compliance Matrix: (Units=1/GPa)
#
#
# Indices 1 2 3 4 5 6 
#
# 1 0.023399 -0.001797 -0.007389 0.003440 -0.014665 0.011403
# 2 -0.001797 0.015602 -0.004558 -0.010930 0.003535 0.000972
# 3 -0.007389 -0.004558 0.015833 -0.001891 -0.003463 0.000640
# 4 0.003440 -0.010930 -0.001891 0.043056 0.006122 -0.003981
# 5 -0.014665 0.003535 -0.003463 0.006122 0.061165 -0.006170
# 6 0.011403 0.000972 0.000640 -0.003981 -0.006170 0.041949
#
#
# Mechanical properties :
#
#
# Convention : Reuss Voigt Hill
#
# Bulk Modulus (GPa) = 36.56905 53.78756 45.17831
# Shear Modulus (GPa) = 21.04313 28.32477 24.68395
#
# Velocity S-wave (km/s) = 3.18287 3.69272 3.44724
# Velocity P-wave (km/s) = 5.57788 6.63899 6.13143
#
# Compressibility (1/GPa) = 0.02734553
#
# Stress axis : x y z
#
# Youngs Moduli (GPa) = 42.73651 64.09540 63.15927
#
# Poissons Ratio (x) = 0.11516 0.46669
# Poissons Ratio (y) = 0.07678 0.28791
# Poissons Ratio (z) = 0.31578 0.29217
#
# Static dielectric constant tensor:
#      x y z
#    x 3.835100 0.157650 0.196100 
#    y 0.157650 4.333790 0.235280 
#    z 0.196100 0.235280 3.534270 
# 
# 
# High freq. dielectric constant tensor:
#      x y z
#    x 1.808240 0.009210 0.021410 
#    y 0.009210 1.823600 0.012300 
#    z 0.021410 0.012300 1.782380 
# 
# From -- ./inp_files/181542.got.cif
#   From: 2010.06.25/outbox.cif.g09.slc.cpg/sg2_91_cif.got.tgz:181542.got - 2010.06.27 13:26:56.
