data_PCOD8001978
_publ_section_title
;
Structure prediction by ZEFSAII (Michael W. Deem and Ramdas Pophale) SiO2 
 PCOD8001978
Probable space group: P -1
;
_chemical_formula_sum "Si O2"
_cell_formula_units_Z 10
_cell_length_a 11.572460
_cell_length_b 13.043174
_cell_length_c 12.788446
_cell_angle_alpha 22.455939
_cell_angle_beta 53.361402
_cell_angle_gamma 43.966043
_cell_volume 494.548540
_symmetry_space_group_name_H-M "P -1"
_symmetry_group_IT_number 2
_symmetry_cell_setting 'triclinic'
loop_
_space_group_symop_operation_xyz
x,y,z
-x,-y,-z
loop_
_atom_site_type_symbol
_atom_site_label
_atom_site_fract_x
_atom_site_fract_y
_atom_site_fract_z
Si Si1 0.648505 0.016445 0.095091
Si Si2 0.534501 0.342327 0.517339
Si Si3 0.994318 0.211985 0.990472
Si Si4 0.869063 0.771859 0.393615
Si Si5 0.066993 0.158647 0.239452
O O1 0.590265 0.781782 0.313603
O O2 0.688223 0.978499 0.234180
O O3 0.502984 0.389350 0.801405
O O4 0.813346 0.920424 0.026210
O O5 0.500000 0.500000 0.500000
O O6 0.727894 0.045065 0.682279
O O7 0.987579 0.193586 0.135395
O O8 0.933546 0.998535 0.174093
O O9 0.000000 0.500000 0.000000
O O10 0.000000 0.500000 0.500000
O O11 0.862466 0.585128 0.674738
O O12 0.000000 0.000000 0.500000
#
# Coordination Sequence:
#
# PCOD8001978 Si02
#       5
#     2   2   2   2   2
#     4  11  21  37  64  97 127 153 208 265 320 359
#     4  12  24  39  66  92 129 162 206 268 313 357
#     4  11  21  38  63  91 130 162 207 257 308 373
#     4  10  20  34  61  96 127 158 200 263 320 360
#     4  12  27  43  63  90 130 174 209 248 315 382
#
# _framework density 20.220462999999999
#
# number of rings (size 3 to 8) (size 9 to 14) (size 15 to 20)
#    0.000    0.800    2.000    9.000    2.800    0.000 
#    0.000    0.000    0.000   24.000    0.000    0.000 
#    0.000    0.000    0.000    0.000    0.000    0.000 
#
# Total GULP energy -124015.178256 kJ/mol
# GULP energy per Si atom -12401.517826 kJ/mol
# Density = 2.017444 g / cm^3
# Si number density = 20.220463 Si / 1000 Ang^3
#
#
#
# Elastic Constant Matrix: (Units=GPa)
#
#
# Indices 1 2 3 4 5 6 
#
# 1 156.3900 54.2215 74.4114 -2.5419 -7.3262 28.5302
# 2 54.2215 83.2741 37.4268 -2.5288 4.7009 4.4820
# 3 74.4114 37.4268 167.9046 0.4551 7.3386 12.9421
# 4 -2.5419 -2.5288 0.4551 40.4905 7.2750 4.0196
# 5 -7.3262 4.7009 7.3386 7.2750 56.4889 -6.3902
# 6 28.5302 4.4820 12.9421 4.0196 -6.3902 23.9298
#
#
#
# Elastic Compliance Matrix: (Units=1/GPa)
#
#
# Indices 1 2 3 4 5 6 
#
# 1 0.012145 -0.005843 -0.003232 0.001409 0.000986 -0.011611
# 2 -0.005843 0.016275 -0.001289 0.000534 -0.001548 0.004112
# 3 -0.003232 -0.001289 0.007770 -0.000080 -0.001363 -0.000458
# 4 0.001409 0.000534 -0.000080 0.026266 -0.004052 -0.007231
# 5 0.000986 -0.001548 -0.001363 -0.004052 0.019301 0.005686
# 6 -0.011611 0.004112 -0.000458 -0.007231 0.005686 0.057843
#
#
# Mechanical properties :
#
#
# Convention : Reuss Voigt Hill
#
# Bulk Modulus (GPa) = 64.67370 82.18759 73.43064
# Shear Modulus (GPa) = 30.21456 40.28245 35.24851
#
# Velocity S-wave (km/s) = 3.86976 4.46821 4.17971
# Velocity P-wave (km/s) = 7.21252 8.20694 7.72574
#
# Compressibility (1/GPa) = 0.01546224
#
# Stress axis : x y z
#
# Youngs Moduli (GPa) = 82.33607 61.44438 128.69212
#
# Poissons Ratio (x) = 0.35905 0.41593
# Poissons Ratio (y) = 0.48113 0.16586
# Poissons Ratio (z) = 0.26611 0.07919
#
# Static dielectric constant tensor:
#      x y z
#    x 3.996140 0.184600 0.819370 
#    y 0.184600 2.803260 -0.426580 
#    z 0.819370 -0.426580 4.646110 
# 
# 
# High freq. dielectric constant tensor:
#      x y z
#    x 1.805520 0.023260 0.007460 
#    y 0.023260 1.751280 -0.008020 
#    z 0.007460 -0.008020 1.825030 
# 
# From -- ./inp_files/156359.got.cif
#   From: 2010.06.25/outbox.cif.g09.slc.cpg/sg2_79_cif.got.tgz:156359.got - 2010.06.27 13:26:56.
