data_PCOD8001264
_publ_section_title
;
Structure prediction by ZEFSAII (Michael W. Deem and Ramdas Pophale) SiO2 
 PCOD8001264
Probable space group: P -1
;
_chemical_formula_sum "Si O2"
_cell_formula_units_Z 16
_cell_length_a 8.720402
_cell_length_b 13.436045
_cell_length_c 10.619279
_cell_angle_alpha 129.349240
_cell_angle_beta 49.206340
_cell_angle_gamma 126.568148
_cell_volume 692.518069
_symmetry_space_group_name_H-M "P -1"
_symmetry_group_IT_number 2
_symmetry_cell_setting 'triclinic'
loop_
_space_group_symop_operation_xyz
x,y,z
-x,-y,-z
loop_
_atom_site_type_symbol
_atom_site_label
_atom_site_fract_x
_atom_site_fract_y
_atom_site_fract_z
Si Si1 0.253203 0.708790 0.806154
Si Si2 0.442813 0.051482 0.285462
Si Si3 0.764460 0.386746 0.668501
Si Si4 0.063948 0.320467 0.271865
Si Si5 0.943577 0.178783 0.780163
Si Si6 0.970439 0.564099 0.199014
Si Si7 0.641815 0.841603 0.332396
Si Si8 0.760604 0.908715 0.049479
O O1 0.485920 0.802026 0.707294
O O2 0.226199 0.547007 0.709814
O O3 0.080966 0.726066 0.811486
O O4 0.210927 0.763575 0.007619
O O5 0.449121 0.075975 0.451469
O O6 0.200935 0.966000 0.312013
O O7 0.611376 0.971322 0.093326
O O8 0.795112 0.524104 0.686207
O O9 0.517203 0.309596 0.719184
O O10 0.912781 0.302563 0.461502
O O11 0.819899 0.411434 0.806316
O O12 0.231441 0.235197 0.124330
O O13 0.052327 0.287317 0.697453
O O14 0.127428 0.160019 0.752181
O O15 0.000000 0.500000 0.000000
O O16 0.658629 0.907553 0.240152
O O17 0.000000 0.000000 0.000000
#
# Coordination Sequence:
#
# PCOD8001264 Si02
#       8
#     2   2   2   2   2   2   2   2
#     4  10  19  43  66  90 133 175 221 273 332 394
#     4  12  24  41  67  97 134 180 224 276 339 388
#     4  10  21  41  73  95 132 171 219 272 337 388
#     4  10  20  41  68  99 128 169 218 277 333 394
#     4  11  23  42  63  95 136 181 222 271 336 395
#     4   9  21  41  67  96 132 172 211 272 335 398
#     4  12  24  42  66  97 135 175 229 275 326 397
#     4  12  23  40  64  98 134 171 224 277 331 398
#
# _framework density 23.104088999999998
#
# number of rings (size 3 to 8) (size 9 to 14) (size 15 to 20)
#    0.000    1.250    3.750    1.875    0.000    1.500 
#    6.750    3.125    0.000    0.000    0.000    0.000 
#    0.000    0.000    0.000    0.000    0.000    0.000 
#
# Total GULP energy -198290.917622 kJ/mol
# GULP energy per Si atom -12393.182351 kJ/mol
# Density = 2.305150 g / cm^3
# Si number density = 23.104089 Si / 1000 Ang^3
#
#
#
# Elastic Constant Matrix: (Units=GPa)
#
#
# Indices 1 2 3 4 5 6 
#
# 1 67.4224 42.1536 10.5491 2.4465 5.3835 23.5839
# 2 42.1536 170.0338 30.7731 -2.4232 2.2126 18.7936
# 3 10.5491 30.7731 83.3445 -4.0566 8.1573 5.4526
# 4 2.4465 -2.4232 -4.0566 25.1650 1.5796 5.6948
# 5 5.3835 2.2126 8.1573 1.5796 31.1142 2.9845
# 6 23.5839 18.7936 5.4526 5.6948 2.9845 35.0445
#
#
#
# Elastic Compliance Matrix: (Units=1/GPa)
#
#
# Indices 1 2 3 4 5 6 
#
# 1 0.021861 -0.003967 -0.000249 0.000405 -0.002265 -0.012419
# 2 -0.003967 0.007393 -0.002182 0.000963 0.000797 -0.001180
# 3 -0.000249 -0.002182 0.013332 0.002362 -0.003337 -0.000837
# 4 0.000405 0.000963 0.002362 0.042074 -0.002145 -0.007811
# 5 -0.002265 0.000797 -0.003337 -0.002145 0.033544 -0.000892
# 6 -0.012419 -0.001180 -0.000837 -0.007811 -0.000892 0.039001
#
#
# Mechanical properties :
#
#
# Convention : Reuss Voigt Hill
#
# Bulk Modulus (GPa) = 33.56601 54.19471 43.88036
# Shear Modulus (GPa) = 27.78867 34.08642 30.93754
#
# Velocity S-wave (km/s) = 3.47184 3.84518 3.66327
# Velocity P-wave (km/s) = 5.53456 6.57431 6.07671
#
# Compressibility (1/GPa) = 0.02979204
#
# Stress axis : x y z
#
# Youngs Moduli (GPa) = 45.74363 135.25879 75.00953
#
# Poissons Ratio (x) = 0.53654 0.01864
# Poissons Ratio (y) = 0.18145 0.16364
# Poissons Ratio (z) = 0.01137 0.29508
#
# Static dielectric constant tensor:
#      x y z
#    x 3.866740 -0.219120 0.328630 
#    y -0.219120 5.150730 -0.527270 
#    z 0.328630 -0.527270 5.150110 
# 
# 
# High freq. dielectric constant tensor:
#      x y z
#    x 1.887900 0.002080 0.022730 
#    y 0.002080 1.935930 0.001940 
#    z 0.022730 0.001940 1.896270 
# 
# From -- ./inp_files/399556.got.cif
#   From: 2010.06.25/outbox.cif.g09.slc.cpg/sg2_200_cif.got.tgz:399556.got - 2010.06.27 13:26:56.
