data_PCOD8001968
_publ_section_title
;
Structure prediction by ZEFSAII (Michael W. Deem and Ramdas Pophale) SiO2 
 PCOD8001968
Probable space group: P -1
;
_chemical_formula_sum "Si O2"
_cell_formula_units_Z 16
_cell_length_a 17.523290
_cell_length_b 11.278088
_cell_length_c 9.204613
_cell_angle_alpha 112.920961
_cell_angle_beta 71.762433
_cell_angle_gamma 49.354866
_cell_volume 744.070501
_symmetry_space_group_name_H-M "P -1"
_symmetry_group_IT_number 2
_symmetry_cell_setting 'triclinic'
loop_
_space_group_symop_operation_xyz
x,y,z
-x,-y,-z
loop_
_atom_site_type_symbol
_atom_site_label
_atom_site_fract_x
_atom_site_fract_y
_atom_site_fract_z
Si Si1 0.772010 0.998179 0.153744
Si Si2 0.823241 0.855887 0.439847
Si Si3 0.972666 0.951325 0.133807
Si Si4 0.893455 0.229697 0.557967
Si Si5 0.492698 0.627791 0.296687
Si Si6 0.816796 0.666753 0.128939
Si Si7 0.295840 0.435368 0.898310
Si Si8 0.813231 0.996622 0.800532
O O1 0.578641 0.309757 0.471007
O O2 0.907506 0.905341 0.097982
O O3 0.804030 0.808604 0.100542
O O4 0.783204 0.978307 0.965680
O O5 0.814170 0.720635 0.323802
O O6 0.667500 0.164341 0.618512
O O7 0.815823 0.874439 0.627253
O O8 0.002848 0.660263 0.177071
O O9 0.837706 0.216292 0.449563
O O10 0.148321 0.693320 0.998205
O O11 0.000000 0.000000 0.000000
O O12 0.735206 0.505725 0.880151
O O13 0.000000 0.000000 0.500000
O O14 0.006713 0.184823 0.401758
O O15 0.535852 0.719970 0.314065
O O16 0.658323 0.312611 0.002167
O O17 0.671434 0.763577 0.242220
#
# Coordination Sequence:
#
# PCOD8001968 Si02
#       8
#     2   2   2   2   2   2   2   2
#     4  11  25  39  63  90 127 162 198 248 308 359
#     4  10  22  37  62  88 120 156 205 248 295 354
#     4  11  20  37  59  89 120 155 197 251 304 356
#     4  10  20  34  61  88 120 153 200 251 295 360
#     4  11  23  38  63  92 121 160 194 257 312 357
#     4  10  22  42  61  88 119 168 210 243 286 365
#     4  11  21  39  63  86 122 159 210 246 294 360
#     4  12  21  40  61  95 124 152 201 255 312 355
#
# _framework density 21.503339
#
# number of rings (size 3 to 8) (size 9 to 14) (size 15 to 20)
#    0.000    1.250    5.000    3.000    3.500    3.500 
#    0.000    0.000    0.000    1.500    0.000    0.000 
#    0.000    0.000    0.000    0.000    0.000    0.000 
#
# Total GULP energy -198229.933331 kJ/mol
# GULP energy per Si atom -12389.370833 kJ/mol
# Density = 2.145440 g / cm^3
# Si number density = 21.503339 Si / 1000 Ang^3
#
#
#
# Elastic Constant Matrix: (Units=GPa)
#
#
# Indices 1 2 3 4 5 6 
#
# 1 105.4472 47.4055 45.1812 -25.7321 19.7684 4.1228
# 2 47.4055 68.4838 32.6260 -25.6499 9.6803 -0.2512
# 3 45.1812 32.6260 87.9154 -37.1832 8.6033 -15.2028
# 4 -25.7321 -25.6499 -37.1832 42.4281 -10.3808 3.3662
# 5 19.7684 9.6803 8.6033 -10.3808 44.1586 -10.3933
# 6 4.1228 -0.2512 -15.2028 3.3662 -10.3933 29.2501
#
#
#
# Elastic Compliance Matrix: (Units=1/GPa)
#
#
# Indices 1 2 3 4 5 6 
#
# 1 0.017767 -0.008432 -0.007760 -0.002178 -0.007205 -0.008919
# 2 -0.008432 0.024063 -0.000916 0.008810 0.000793 0.000187
# 3 -0.007760 -0.000916 0.024600 0.016677 0.006128 0.014130
# 4 -0.002178 0.008810 0.016677 0.043517 0.007612 0.006747
# 5 -0.007205 0.000793 0.006128 0.007612 0.029548 0.013830
# 6 -0.008919 0.000187 0.014130 0.006747 0.013830 0.046929
#
#
# Mechanical properties :
#
#
# Convention : Reuss Voigt Hill
#
# Bulk Modulus (GPa) = 31.04205 56.91908 43.98057
# Shear Modulus (GPa) = 21.60976 32.27626 26.94301
#
# Velocity S-wave (km/s) = 3.17353 3.87846 3.54357
# Velocity P-wave (km/s) = 5.28164 6.82524 6.10244
#
# Compressibility (1/GPa) = 0.03221437
#
# Stress axis : x y z
#
# Youngs Moduli (GPa) = 56.28428 41.55722 40.65106
#
# Poissons Ratio (x) = 0.35039 0.31546
# Poissons Ratio (y) = 0.47456 0.03723
# Poissons Ratio (z) = 0.43678 0.03806
#
# Static dielectric constant tensor:
#      x y z
#    x 4.092660 -0.066840 0.293100 
#    y -0.066840 3.584200 -0.264530 
#    z 0.293100 -0.264530 4.979410 
# 
# 
# High freq. dielectric constant tensor:
#      x y z
#    x 1.850650 0.001990 0.007870 
#    y 0.001990 1.811230 -0.013260 
#    z 0.007870 -0.013260 1.851450 
# 
# From -- ./inp_files/333500.got.cif
#   From: 2010.06.25/outbox.cif.g09.slc.cpg/sg2_167_cif.got.tgz:333500.got - 2010.06.27 13:26:56.
