data_PCOD8001538
_publ_section_title
;
Structure prediction by ZEFSAII (Michael W. Deem and Ramdas Pophale) SiO2 
 PCOD8001538
Probable space group: P -1
;
_chemical_formula_sum "Si O2"
_cell_formula_units_Z 14
_cell_length_a 11.494916
_cell_length_b 18.779849
_cell_length_c 10.319399
_cell_angle_alpha 155.741181
_cell_angle_beta 125.881336
_cell_angle_gamma 52.821103
_cell_volume 725.017701
_symmetry_space_group_name_H-M "P -1"
_symmetry_group_IT_number 2
_symmetry_cell_setting 'triclinic'
loop_
_space_group_symop_operation_xyz
x,y,z
-x,-y,-z
loop_
_atom_site_type_symbol
_atom_site_label
_atom_site_fract_x
_atom_site_fract_y
_atom_site_fract_z
Si Si1 0.523160 0.505840 0.314672
Si Si2 0.314965 0.098723 0.331059
Si Si3 0.382284 0.874297 0.377916
Si Si4 0.269893 0.487579 0.308165
Si Si5 0.888788 0.144691 0.246711
Si Si6 0.503816 0.820651 0.627155
Si Si7 0.848731 0.821506 0.388303
O O1 0.366727 0.498194 0.261418
O O2 0.629804 0.563952 0.586565
O O3 0.497031 0.653430 0.432091
O O4 0.596167 0.315781 0.990866
O O5 0.474955 0.034538 0.400170
O O6 0.345604 0.221064 0.432568
O O7 0.203016 0.202655 0.536960
O O8 0.258773 0.931293 0.953830
O O9 0.367092 0.851238 0.486021
O O10 0.237363 0.993723 0.420564
O O11 0.157162 0.674107 0.563456
O O12 0.174258 0.339174 0.982213
O O13 0.976458 0.178179 0.490760
O O14 0.000000 0.000000 0.000000
O O15 0.500000 0.000000 0.000000
#
# Coordination Sequence:
#
# PCOD8001538 Si02
#       7
#     2   2   2   2   2   2   2
#     4  11  21  34  57  86 112 139 183 232 273 317
#     4   9  20  34  56  79 112 142 182 220 274 314
#     4  10  21  34  57  83 112 143 179 227 273 318
#     4  11  22  33  57  85 109 142 186 228 270 321
#     4  10  21  36  55  78 113 148 178 224 274 325
#     4  10  20  33  54  82 114 140 180 230 272 318
#     4  11  20  36  57  82 115 142 184 223 270 325
#
# _framework density 19.309873
#
# number of rings (size 3 to 8) (size 9 to 14) (size 15 to 20)
#    0.857    0.857    1.429    4.714    4.000    0.000 
#    0.000    0.000    0.000   17.143    0.000    0.000 
#    0.000    0.000    0.000    0.000    0.000    0.000 
#
# Total GULP energy -173452.164109 kJ/mol
# GULP energy per Si atom -12389.440293 kJ/mol
# Density = 1.926592 g / cm^3
# Si number density = 19.309873 Si / 1000 Ang^3
#
#
#
# Elastic Constant Matrix: (Units=GPa)
#
#
# Indices 1 2 3 4 5 6 
#
# 1 30.1357 31.0691 14.4083 0.6426 -0.1796 17.6279
# 2 31.0691 88.0584 37.3628 -1.3866 9.9619 3.4713
# 3 14.4083 37.3628 116.6607 -6.6711 8.9514 2.7439
# 4 0.6426 -1.3866 -6.6711 41.5532 -8.9117 1.0557
# 5 -0.1796 9.9619 8.9514 -8.9117 29.6536 -5.1483
# 6 17.6279 3.4713 2.7439 1.0557 -5.1483 27.7743
#
#
#
# Elastic Compliance Matrix: (Units=1/GPa)
#
#
# Indices 1 2 3 4 5 6 
#
# 1 0.106091 -0.034868 -0.000626 -0.001021 0.001366 -0.062622
# 2 -0.034868 0.025052 -0.003851 -0.000667 -0.004439 0.018582
# 3 -0.000626 -0.003851 0.010074 0.001195 -0.001467 -0.000434
# 4 -0.001021 -0.000667 0.001195 0.025903 0.007829 0.001080
# 5 0.001366 -0.004439 -0.001467 0.007829 0.039199 0.006801
# 6 -0.062622 0.018582 -0.000434 0.001080 0.006801 0.074690
#
#
# Mechanical properties :
#
#
# Convention : Reuss Voigt Hill
#
# Bulk Modulus (GPa) = 15.99339 44.50390 30.24864
# Shear Modulus (GPa) = 13.13919 29.93053 21.53486
#
# Velocity S-wave (km/s) = 2.61135 3.94129 3.34312
# Velocity P-wave (km/s) = 4.17045 6.61883 5.53180
#
# Compressibility (1/GPa) = 0.06252583
#
# Stress axis : x y z
#
# Youngs Moduli (GPa) = 9.42583 39.91752 99.26733
#
# Poissons Ratio (x) = 1.39184 0.06215
# Poissons Ratio (y) = 0.32866 0.38233
# Poissons Ratio (z) = 0.00590 0.15374
#
# Static dielectric constant tensor:
#      x y z
#    x 3.374140 -0.097250 0.145380 
#    y -0.097250 3.645280 -0.350370 
#    z 0.145380 -0.350370 3.850970 
# 
# 
# High freq. dielectric constant tensor:
#      x y z
#    x 1.710240 -0.001670 -0.000790 
#    y -0.001670 1.745970 -0.016110 
#    z -0.000790 -0.016110 1.773020 
# 
# From -- ./inp_files/393800.got.cif
#   From: 2010.06.25/outbox.cif.g09.slc.cpg/sg2_197_cif.got.tgz:393800.got - 2010.06.27 13:26:56.
