data_PCOD8001728
_publ_section_title
;
Structure prediction by ZEFSAII (Michael W. Deem and Ramdas Pophale) SiO2 
 PCOD8001728
Probable space group: P -1
;
_chemical_formula_sum "Si O2"
_cell_formula_units_Z 16
_cell_length_a 14.990120
_cell_length_b 23.253615
_cell_length_c 20.707974
_cell_angle_alpha 160.495862
_cell_angle_beta 30.660360
_cell_angle_gamma 159.197980
_cell_volume 842.401267
_symmetry_space_group_name_H-M "P -1"
_symmetry_group_IT_number 2
_symmetry_cell_setting 'triclinic'
loop_
_space_group_symop_operation_xyz
x,y,z
-x,-y,-z
loop_
_atom_site_type_symbol
_atom_site_label
_atom_site_fract_x
_atom_site_fract_y
_atom_site_fract_z
Si Si1 0.299326 0.597377 0.357049
Si Si2 0.104532 0.157402 0.303611
Si Si3 0.616820 0.294321 0.305068
Si Si4 0.137916 0.866345 0.070080
Si Si5 0.195719 0.592912 0.554119
Si Si6 0.093874 0.961237 0.838561
Si Si7 0.567433 0.886600 0.379616
Si Si8 0.562222 0.431628 0.987682
O O1 0.370062 0.696344 0.491486
O O2 0.440505 0.830541 0.468324
O O3 0.405676 0.491221 0.158694
O O4 0.990845 0.375108 0.302919
O O5 0.318300 0.461356 0.495324
O O6 0.179693 0.035871 0.165882
O O7 0.037688 0.061461 0.169611
O O8 0.867514 0.074796 0.400567
O O9 0.618316 0.269820 0.355502
O O10 0.333179 0.051969 0.201785
O O11 0.815182 0.295474 0.154624
O O12 0.860839 0.671679 0.071037
O O13 0.988051 0.292244 0.369018
O O14 0.404037 0.187660 0.875168
O O15 0.000000 0.000000 0.000000
O O16 0.500000 0.000000 0.500000
O O17 0.450660 0.635814 0.150459
#
# Coordination Sequence:
#
# PCOD8001728 Si02
#       8
#     2   2   2   2   2   2   2   2
#     4  11  20  33  56  84 115 146 182 236 293 351
#     4  10  21  35  59  83 112 150 193 239 291 342
#     4  10  23  40  58  83 114 153 203 239 284 346
#     4  11  22  39  61  81 113 157 197 246 285 341
#     4  10  22  36  55  83 116 152 188 233 294 350
#     4  10  20  34  54  84 119 147 179 237 293 348
#     4  11  21  34  55  89 118 142 183 246 294 341
#     4  11  21  33  57  86 111 144 192 229 292 344
#
# _framework density 18.993323
#
# number of rings (size 3 to 8) (size 9 to 14) (size 15 to 20)
#    0.000    1.500    2.500    4.500    5.250    0.000 
#    0.000    0.625    0.000    0.000    0.000   11.375 
#    0.000    0.000    0.000    0.000    0.000    0.000 
#
# Total GULP energy -198263.596890 kJ/mol
# GULP energy per Si atom -12391.474806 kJ/mol
# Density = 1.895009 g / cm^3
# Si number density = 18.993323 Si / 1000 Ang^3
#
#
#
# Elastic Constant Matrix: (Units=GPa)
#
#
# Indices 1 2 3 4 5 6 
#
# 1 115.5886 59.9874 46.6932 -4.3384 13.5822 -13.0724
# 2 59.9874 106.1987 50.3549 -0.7122 12.5355 -14.8859
# 3 46.6932 50.3549 93.5037 -3.9243 3.6267 0.4601
# 4 -4.3384 -0.7122 -3.9243 25.3286 1.4782 2.0171
# 5 13.5822 12.5355 3.6267 1.4782 30.7646 -6.9752
# 6 -13.0724 -14.8859 0.4601 2.0171 -6.9752 34.5550
#
#
#
# Elastic Compliance Matrix: (Units=1/GPa)
#
#
# Indices 1 2 3 4 5 6 
#
# 1 0.013532 -0.005159 -0.003808 0.001578 -0.002988 0.002252
# 2 -0.005159 0.016173 -0.006129 -0.001610 -0.002447 0.004697
# 3 -0.003808 -0.006129 0.015948 0.001903 0.001267 -0.004149
# 4 0.001578 -0.001610 0.001903 0.040414 -0.002902 -0.003067
# 5 -0.002988 -0.002447 0.001267 -0.002902 0.035998 0.005234
# 6 0.002252 0.004697 -0.004149 -0.003067 0.005234 0.033106
#
#
# Mechanical properties :
#
#
# Convention : Reuss Voigt Hill
#
# Bulk Modulus (GPa) = 64.67997 69.92911 67.30454
# Shear Modulus (GPa) = 26.24408 28.68002 27.46205
#
# Velocity S-wave (km/s) = 3.72123 3.89009 3.80660
# Velocity P-wave (km/s) = 7.25199 7.55478 7.40493
#
# Compressibility (1/GPa) = 0.01546074
#
# Stress axis : x y z
#
# Youngs Moduli (GPa) = 73.89731 61.83073 62.70199
#
# Poissons Ratio (x) = 0.31899 0.23879
# Poissons Ratio (y) = 0.38124 0.38431
# Poissons Ratio (z) = 0.28142 0.37897
#
# Static dielectric constant tensor:
#      x y z
#    x 3.828120 -0.659420 -0.110490 
#    y -0.659420 4.161640 -0.100650 
#    z -0.110490 -0.100650 3.710610 
# 
# 
# High freq. dielectric constant tensor:
#      x y z
#    x 1.730400 -0.015020 -0.016050 
#    y -0.015020 1.725730 -0.010390 
#    z -0.016050 -0.010390 1.747870 
# 
# From -- ./inp_files/347330.got.cif
#   From: 2010.06.25/outbox.cif.g09.slc.cpg/sg2_174_cif.got.tgz:347330.got - 2010.06.27 13:26:56.
