data_PCOD8001176
_publ_section_title
;
Structure prediction by ZEFSAII (Michael W. Deem and Ramdas Pophale) SiO2 
 PCOD8001176
Probable space group: P -1
;
_chemical_formula_sum "Si O2"
_cell_formula_units_Z 10
_cell_length_a 6.885035
_cell_length_b 12.711217
_cell_length_c 18.265156
_cell_angle_alpha 160.022169
_cell_angle_beta 99.326332
_cell_angle_gamma 88.328925
_cell_volume 501.687088
_symmetry_space_group_name_H-M "P -1"
_symmetry_group_IT_number 2
_symmetry_cell_setting 'triclinic'
loop_
_space_group_symop_operation_xyz
x,y,z
-x,-y,-z
loop_
_atom_site_type_symbol
_atom_site_label
_atom_site_fract_x
_atom_site_fract_y
_atom_site_fract_z
Si Si1 0.360716 0.734348 0.373845
Si Si2 0.518027 0.847535 0.978113
Si Si3 0.638082 0.865484 0.721812
Si Si4 0.887799 0.902377 0.127600
Si Si5 0.623326 0.876833 0.232230
O O1 0.506339 0.534630 0.282612
O O2 0.158730 0.477290 0.149903
O O3 0.500000 0.000000 0.500000
O O4 0.283276 0.906418 0.547861
O O5 0.746491 0.047474 0.161942
O O6 0.500000 0.000000 0.000000
O O7 0.339750 0.882949 0.044481
O O8 0.500000 0.500000 0.500000
O O9 0.538651 0.979157 0.720679
O O10 0.868461 0.874795 0.719886
O O11 0.817973 0.905290 0.209611
O O12 0.500000 0.500000 0.000000
#
# Coordination Sequence:
#
# PCOD8001176 Si02
#       5
#     2   2   2   2   2
#     4  10  19  42  63  87 126 158 198 257 301 366
#     4   9  20  39  60  90 122 156 207 251 298 361
#     4  11  23  42  62  89 128 164 206 254 300 364
#     4   9  23  40  64  90 125 161 208 243 315 358
#     4  11  21  42  65  90 126 159 204 258 301 363
#
# _framework density 19.932744
#
# number of rings (size 3 to 8) (size 9 to 14) (size 15 to 20)
#    1.200    0.800    2.000    1.200    0.000    4.800 
#    7.200    2.000    0.000    0.000    0.000    0.000 
#    0.000    0.000    0.000    0.000    0.000    0.000 
#
# Total GULP energy -123922.148149 kJ/mol
# GULP energy per Si atom -12392.214815 kJ/mol
# Density = 1.988738 g / cm^3
# Si number density = 19.932744 Si / 1000 Ang^3
#
#
#
# Elastic Constant Matrix: (Units=GPa)
#
#
# Indices 1 2 3 4 5 6 
#
# 1 131.9414 56.5255 38.8503 1.4371 1.4925 30.2267
# 2 56.5255 135.0875 59.3729 0.6335 -2.0275 20.8428
# 3 38.8503 59.3729 127.8487 -6.4757 -6.3176 20.2068
# 4 1.4371 0.6335 -6.4757 57.3224 8.2767 -12.2179
# 5 1.4925 -2.0275 -6.3176 8.2767 25.7805 -0.5175
# 6 30.2267 20.8428 20.2068 -12.2179 -0.5175 27.6832
#
#
#
# Elastic Compliance Matrix: (Units=1/GPa)
#
#
# Indices 1 2 3 4 5 6 
#
# 1 0.011584 -0.002851 -0.000570 -0.002667 -0.000405 -0.011270
# 2 -0.002851 0.010641 -0.003687 -0.001091 0.000395 -0.002681
# 3 -0.000570 -0.003687 0.010482 0.000023 0.002220 -0.004201
# 4 -0.002667 -0.001091 0.000023 0.021225 -0.006480 0.012963
# 5 -0.000405 0.000395 0.002220 -0.006480 0.041396 -0.003562
# 6 -0.011270 -0.002681 -0.004201 0.012963 -0.003562 0.059169
#
#
# Mechanical properties :
#
#
# Convention : Reuss Voigt Hill
#
# Bulk Modulus (GPa) = 54.08199 78.26387 66.17293
# Shear Modulus (GPa) = 28.59142 38.16582 33.37862
#
# Velocity S-wave (km/s) = 3.79145 4.38051 4.09658
# Velocity P-wave (km/s) = 6.80866 8.05819 7.45963
#
# Compressibility (1/GPa) = 0.01849045
#
# Stress axis : x y z
#
# Youngs Moduli (GPa) = 86.32586 93.97572 95.40074
#
# Poissons Ratio (x) = 0.26797 0.05435
# Poissons Ratio (y) = 0.24615 0.35176
# Poissons Ratio (z) = 0.04918 0.34651
#
# Static dielectric constant tensor:
#      x y z
#    x 3.087980 0.042320 0.081630 
#    y 0.042320 3.658280 -0.053470 
#    z 0.081630 -0.053470 3.158590 
# 
# 
# High freq. dielectric constant tensor:
#      x y z
#    x 1.745740 0.013660 -0.017770 
#    y 0.013660 1.786860 -0.003720 
#    z -0.017770 -0.003720 1.786680 
# 
# From -- ./inp_files/21537.got.cif
#   From: 2010.06.25/outbox.cif.g09.slc.cpg/sg2_11_cif.got.tgz:21537.got - 2010.06.27 13:26:56.
