data_PCOD8001416
_publ_section_title
;
Structure prediction by ZEFSAII (Michael W. Deem and Ramdas Pophale) SiO2 
 PCOD8001416
Probable space group: P -1
;
_chemical_formula_sum "Si O2"
_cell_formula_units_Z 16
_cell_length_a 12.714525
_cell_length_b 18.664041
_cell_length_c 12.702537
_cell_angle_alpha 27.843627
_cell_angle_beta 65.678320
_cell_angle_gamma 45.023432
_cell_volume 761.022933
_symmetry_space_group_name_H-M "P -1"
_symmetry_group_IT_number 2
_symmetry_cell_setting 'triclinic'
loop_
_space_group_symop_operation_xyz
x,y,z
-x,-y,-z
loop_
_atom_site_type_symbol
_atom_site_label
_atom_site_fract_x
_atom_site_fract_y
_atom_site_fract_z
Si Si1 0.233864 0.131751 0.791092
Si Si2 0.160464 0.403301 0.765885
Si Si3 0.698815 0.616031 0.463453
Si Si4 0.642476 0.133365 0.119932
Si Si5 0.719748 0.040951 0.778073
Si Si6 0.990005 0.653569 0.728768
Si Si7 0.214944 0.690973 0.603532
Si Si8 0.059078 0.925615 0.954614
O O1 0.261108 0.277914 0.621611
O O2 0.025284 0.333983 0.560553
O O3 0.384769 0.922678 0.908611
O O4 0.239034 0.012272 0.044136
O O5 0.333657 0.295325 0.762483
O O6 0.147300 0.465727 0.812065
O O7 0.171110 0.207407 0.010132
O O8 0.510753 0.732646 0.434067
O O9 0.883151 0.306691 0.805308
O O10 0.746722 0.183855 0.999148
O O11 0.427228 0.391162 0.917061
O O12 0.769965 0.898364 0.456715
O O13 0.784022 0.135640 0.576653
O O14 0.060815 0.731261 0.663382
O O15 0.000000 0.500000 0.000000
O O16 0.131735 0.801888 0.376223
O O17 0.000000 0.000000 0.000000
#
# Coordination Sequence:
#
# PCOD8001416 Si02
#       8
#     2   2   2   2   2   2   2   2
#     4  10  20  32  53  82 125 156 188 217 271 339
#     4  10  20  37  55  84 115 155 195 227 279 337
#     4  11  20  33  53  87 125 154 189 218 268 350
#     4  10  22  37  57  90 109 152 196 228 290 348
#     4  11  21  32  55  89 121 157 183 217 281 352
#     4  10  24  44  64  82 107 144 199 258 292 328
#     4  11  22  37  60  81 121 150 189 237 288 339
#     4  11  21  34  51  84 124 158 187 225 271 341
#
# _framework density 21.024334
#
# number of rings (size 3 to 8) (size 9 to 14) (size 15 to 20)
#    0.000    1.500    1.250    7.500    5.250    1.500 
#    0.000    0.625    0.000    0.750    0.000    0.000 
#    0.000    0.000    0.000    0.000    0.000    0.000 
#
# Total GULP energy -198237.683613 kJ/mol
# GULP energy per Si atom -12389.855226 kJ/mol
# Density = 2.097648 g / cm^3
# Si number density = 21.024334 Si / 1000 Ang^3
#
#
#
# Elastic Constant Matrix: (Units=GPa)
#
#
# Indices 1 2 3 4 5 6 
#
# 1 74.5479 8.5674 20.5071 16.0475 -20.7361 -8.8293
# 2 8.5674 25.8824 17.3364 1.0088 -6.2522 0.7519
# 3 20.5071 17.3364 99.6789 3.2556 -19.8278 -4.0566
# 4 16.0475 1.0088 3.2556 26.7895 -5.4334 -7.8078
# 5 -20.7361 -6.2522 -19.8278 -5.4334 41.7398 -4.4998
# 6 -8.8293 0.7519 -4.0566 -7.8078 -4.4998 23.1824
#
#
#
# Elastic Compliance Matrix: (Units=1/GPa)
#
#
# Indices 1 2 3 4 5 6 
#
# 1 0.018651 -0.003350 -0.001202 -0.007565 0.007852 0.005978
# 2 -0.003350 0.044853 -0.006990 0.000421 0.001407 -0.003539
# 3 -0.001202 -0.006990 0.012556 0.001435 0.004873 0.003395
# 4 -0.007565 0.000421 0.001435 0.046664 0.004566 0.013959
# 5 0.007852 0.001407 0.004873 0.004566 0.032229 0.011591
# 6 0.005978 -0.003539 0.003395 0.013959 0.011591 0.053073
#
#
# Mechanical properties :
#
#
# Convention : Reuss Voigt Hill
#
# Bulk Modulus (GPa) = 18.87658 32.54787 25.71223
# Shear Modulus (GPa) = 20.09908 28.58890 24.34399
#
# Velocity S-wave (km/s) = 3.09526 3.69155 3.40648
# Velocity P-wave (km/s) = 4.66606 5.80385 5.26578
#
# Compressibility (1/GPa) = 0.05297569
#
# Stress axis : x y z
#
# Youngs Moduli (GPa) = 53.61770 22.29488 79.64445
#
# Poissons Ratio (x) = 0.07470 0.09573
# Poissons Ratio (y) = 0.17965 0.55668
# Poissons Ratio (z) = 0.06445 0.15583
#
# Static dielectric constant tensor:
#      x y z
#    x 4.195480 0.016740 -0.289860 
#    y 0.016740 3.582970 -0.460130 
#    z -0.289860 -0.460130 4.115850 
# 
# 
# High freq. dielectric constant tensor:
#      x y z
#    x 1.844870 -0.009110 -0.010450 
#    y -0.009110 1.764810 -0.032490 
#    z -0.010450 -0.032490 1.827880 
# 
# From -- ./inp_files/283032.got.cif
#   From: 2010.06.25/outbox.cif.g09.slc.cpg/sg2_142_cif.got.tgz:283032.got - 2010.06.27 13:26:56.
