data_PCOD8001620
_publ_section_title
;
Structure prediction by ZEFSAII (Michael W. Deem and Ramdas Pophale) SiO2 
 PCOD8001620
Probable space group: P -1
;
_chemical_formula_sum "Si O2"
_cell_formula_units_Z 12
_cell_length_a 11.721697
_cell_length_b 8.084619
_cell_length_c 11.067350
_cell_angle_alpha 42.924779
_cell_angle_beta 85.290761
_cell_angle_gamma 64.585644
_cell_volume 597.442109
_symmetry_space_group_name_H-M "P -1"
_symmetry_group_IT_number 2
_symmetry_cell_setting 'triclinic'
loop_
_space_group_symop_operation_xyz
x,y,z
-x,-y,-z
loop_
_atom_site_type_symbol
_atom_site_label
_atom_site_fract_x
_atom_site_fract_y
_atom_site_fract_z
Si Si1 0.080319 0.747900 0.530773
Si Si2 0.367464 0.640496 0.591822
Si Si3 0.913333 0.216128 0.129088
Si Si4 0.097914 0.333432 0.923288
Si Si5 0.384493 0.952489 0.206554
Si Si6 0.618166 0.484825 0.073297
O O1 0.234822 0.654001 0.550940
O O2 0.086190 0.456017 0.723297
O O3 0.000000 0.000000 0.500000
O O4 0.000466 0.878466 0.341654
O O5 0.373800 0.885560 0.384859
O O6 0.499251 0.328646 0.720526
O O7 0.359172 0.692078 0.709585
O O8 0.926887 0.408393 0.126178
O O9 0.756327 0.320981 0.068244
O O10 0.982092 0.257584 0.982552
O O11 0.245491 0.052375 0.092809
O O12 0.420997 0.193438 0.065971
O O13 0.500000 0.500000 0.000000
#
# Coordination Sequence:
#
# PCOD8001620 Si02
#       6
#     2   2   2   2   2   2
#     4  10  16  27  51  81 102 126 171 232 264 293
#     4  11  20  34  56  84 108 135 178 228 267 304
#     4   9  17  29  48  77 104 127 176 223 261 298
#     4   9  16  27  50  78 102 126 170 229 263 294
#     4  10  21  34  55  84 107 137 178 225 268 305
#     4  11  23  36  54  77 113 149 172 210 264 333
#
# _framework density 20.085626000000001
#
# number of rings (size 3 to 8) (size 9 to 14) (size 15 to 20)
#    0.000    2.000    6.667    0.500    2.333    0.667 
#    0.000    0.000    0.000    2.000    0.000    0.000 
#    0.000    0.000    0.000    0.000    0.000    0.000 
#
# Total GULP energy -148703.751258 kJ/mol
# GULP energy per Si atom -12391.979271 kJ/mol
# Density = 2.003991 g / cm^3
# Si number density = 20.085626 Si / 1000 Ang^3
#
#
#
# Elastic Constant Matrix: (Units=GPa)
#
#
# Indices 1 2 3 4 5 6 
#
# 1 134.7516 25.8374 53.2150 8.0124 9.9058 -27.6487
# 2 25.8374 22.7050 16.5051 -2.6161 1.4131 -17.6352
# 3 53.2150 16.5051 135.0293 -0.1351 1.0747 -17.2757
# 4 8.0124 -2.6161 -0.1351 20.3516 -13.6521 5.2379
# 5 9.9058 1.4131 1.0747 -13.6521 27.4343 0.4893
# 6 -27.6487 -17.6352 -17.2757 5.2379 0.4893 25.4878
#
#
#
# Elastic Compliance Matrix: (Units=1/GPa)
#
#
# Indices 1 2 3 4 5 6 
#
# 1 0.015372 -0.003521 -0.003375 -0.021845 -0.016407 0.016756
# 2 -0.003521 0.100976 -0.002378 -0.009213 -0.009608 0.066513
# 3 -0.003375 -0.002378 0.009045 0.002513 0.002233 0.000265
# 4 -0.021845 -0.009213 0.002513 0.114755 0.066319 -0.053224
# 5 -0.016407 -0.009608 0.002233 0.066319 0.076463 -0.038029
# 6 0.016756 0.066513 0.000265 -0.053224 -0.038029 0.115279
#
#
# Mechanical properties :
#
#
# Convention : Reuss Voigt Hill
#
# Bulk Modulus (GPa) = 9.35936 53.73344 31.54640
# Shear Modulus (GPa) = 10.28695 27.78329 19.03512
#
# Velocity S-wave (km/s) = 2.26554 3.72323 3.08181
# Velocity P-wave (km/s) = 3.39314 6.73005 5.32949
#
# Compressibility (1/GPa) = 0.10684494
#
# Stress axis : x y z
#
# Youngs Moduli (GPa) = 65.05302 9.90336 110.55437
#
# Poissons Ratio (x) = 0.03487 0.37316
# Poissons Ratio (y) = 0.22903 0.26292
# Poissons Ratio (z) = 0.21958 0.02355
#
# Static dielectric constant tensor:
#      x y z
#    x 3.587850 -0.591580 -0.190160 
#    y -0.591580 3.164530 0.177260 
#    z -0.190160 0.177260 4.804490 
# 
# 
# High freq. dielectric constant tensor:
#      x y z
#    x 1.768820 -0.055990 -0.003940 
#    y -0.055990 1.725870 -0.000090 
#    z -0.003940 -0.000090 1.816170 
# 
# From -- ./inp_files/210792.got.cif
#   From: 2010.06.25/outbox.cif.g09.slc.cpg/sg2_106_cif.got.tgz:210792.got - 2010.06.27 13:26:56.
