data_PCOD8001610
_publ_section_title
;
Structure prediction by ZEFSAII (Michael W. Deem and Ramdas Pophale) SiO2 
 PCOD8001610
Probable space group: P -1
;
_chemical_formula_sum "Si O2"
_cell_formula_units_Z 16
_cell_length_a 24.235256
_cell_length_b 16.429492
_cell_length_c 12.994327
_cell_angle_alpha 154.408115
_cell_angle_beta 22.797722
_cell_angle_gamma 155.681451
_cell_volume 761.137199
_symmetry_space_group_name_H-M "P -1"
_symmetry_group_IT_number 2
_symmetry_cell_setting 'triclinic'
loop_
_space_group_symop_operation_xyz
x,y,z
-x,-y,-z
loop_
_atom_site_type_symbol
_atom_site_label
_atom_site_fract_x
_atom_site_fract_y
_atom_site_fract_z
Si Si1 0.854708 0.826008 0.829250
Si Si2 0.373080 0.438820 0.238949
Si Si3 0.334386 0.496568 0.856738
Si Si4 0.570697 0.797210 0.945396
Si Si5 0.576637 0.898216 0.475748
Si Si6 0.058311 0.249983 0.199769
Si Si7 0.280012 0.857908 0.294951
Si Si8 0.229563 0.080882 0.449068
O O1 0.802412 0.673921 0.644084
O O2 0.841710 0.680708 0.785448
O O3 0.730734 0.922657 0.171341
O O4 0.039725 0.012652 0.708007
O O5 0.374847 0.259440 0.106107
O O6 0.418704 0.661854 0.472469
O O7 0.500000 0.500000 0.000000
O O8 0.461815 0.573612 0.818702
O O9 0.345216 0.327388 0.567667
O O10 0.158670 0.381771 0.080624
O O11 0.361881 0.704492 0.980584
O O12 0.727164 0.940735 0.767809
O O13 0.471249 0.926332 0.285376
O O14 0.626300 0.942070 0.560517
O O15 0.903008 0.285591 0.514550
O O16 0.000000 0.000000 0.000000
O O17 0.280143 0.936635 0.268807
#
# Coordination Sequence:
#
# PCOD8001610 Si02
#       8
#     2   2   2   2   2   2   2   2
#     4  10  20  37  63  82 113 159 189 238 293 332
#     4  10  22  40  61  84 113 151 201 244 286 332
#     4  11  20  34  59  87 117 156 191 232 294 349
#     4  11  25  37  60  88 116 156 194 236 292 346
#     4  10  20  39  61  86 115 148 198 245 281 335
#     4  11  17  34  61  86 121 147 187 244 289 334
#     4  10  20  33  58  88 118 154 190 235 293 344
#     4  11  22  40  55  86 126 151 189 239 290 350
#
# _framework density 21.021177999999999
#
# number of rings (size 3 to 8) (size 9 to 14) (size 15 to 20)
#    0.000    1.500    3.750    3.000    0.000    6.500 
#    0.000    3.125    0.000    0.000    0.000    0.000 
#    0.000    0.000    0.000    0.000    0.000    0.000 
#
# Total GULP energy -198333.359693 kJ/mol
# GULP energy per Si atom -12395.834981 kJ/mol
# Density = 2.097333 g / cm^3
# Si number density = 21.021178 Si / 1000 Ang^3
#
#
#
# Elastic Constant Matrix: (Units=GPa)
#
#
# Indices 1 2 3 4 5 6 
#
# 1 137.9181 39.2580 28.5860 11.1872 -1.5605 2.5061
# 2 39.2580 70.2879 17.9950 10.4593 4.4247 3.8637
# 3 28.5860 17.9950 63.4821 7.7098 3.8526 -0.4322
# 4 11.1872 10.4593 7.7098 21.3667 -6.6093 5.5976
# 5 -1.5605 4.4247 3.8526 -6.6093 17.3242 -6.2193
# 6 2.5061 3.8637 -0.4322 5.5976 -6.2193 38.8041
#
#
#
# Elastic Compliance Matrix: (Units=1/GPa)
#
#
# Indices 1 2 3 4 5 6 
#
# 1 0.009213 -0.004422 -0.002919 -0.000962 0.002360 0.000330
# 2 -0.004422 0.019108 -0.001857 -0.008618 -0.008802 -0.001805
# 3 -0.002919 -0.001857 0.018749 -0.006382 -0.006211 0.000507
# 4 -0.000962 -0.008618 -0.006382 0.062962 0.026100 -0.004050
# 5 0.002360 -0.008802 -0.006211 0.026100 0.074703 0.008863
# 6 0.000330 -0.001805 0.000507 -0.004050 0.008863 0.027939
#
#
# Mechanical properties :
#
#
# Convention : Reuss Voigt Hill
#
# Bulk Modulus (GPa) = 34.87471 49.26290 42.06880
# Shear Modulus (GPa) = 20.77893 27.88896 24.33394
#
# Velocity S-wave (km/s) = 3.14741 3.64635 3.40603
# Velocity P-wave (km/s) = 5.46210 6.41978 5.96021
#
# Compressibility (1/GPa) = 0.02867407
#
# Stress axis : x y z
#
# Youngs Moduli (GPa) = 108.53965 52.33381 53.33674
#
# Poissons Ratio (x) = 0.23142 0.15571
# Poissons Ratio (y) = 0.47996 0.09903
# Poissons Ratio (z) = 0.31686 0.09717
#
# Static dielectric constant tensor:
#      x y z
#    x 4.175640 0.349050 0.118170 
#    y 0.349050 4.195050 -0.021430 
#    z 0.118170 -0.021430 3.692270 
# 
# 
# High freq. dielectric constant tensor:
#      x y z
#    x 1.820430 0.002470 -0.001240 
#    y 0.002470 1.822390 -0.007550 
#    z -0.001240 -0.007550 1.807970 
# 
# From -- ./inp_files/471975.got.cif
#   From: 2010.06.25/outbox.cif.g09.slc.cpg/sg2_236_cif.got.tgz:471975.got - 2010.06.27 13:26:56.
