data_PCOD8001302
_publ_section_title
;
Structure prediction by ZEFSAII (Michael W. Deem and Ramdas Pophale) SiO2 
 PCOD8001302
Probable space group: P -1
;
_chemical_formula_sum "Si O2"
_cell_formula_units_Z 16
_cell_length_a 6.877989
_cell_length_b 8.835854
_cell_length_c 15.649282
_cell_angle_alpha 97.864008
_cell_angle_beta 59.600550
_cell_angle_gamma 95.750552
_cell_volume 812.052131
_symmetry_space_group_name_H-M "P -1"
_symmetry_group_IT_number 2
_symmetry_cell_setting 'triclinic'
loop_
_space_group_symop_operation_xyz
x,y,z
-x,-y,-z
loop_
_atom_site_type_symbol
_atom_site_label
_atom_site_fract_x
_atom_site_fract_y
_atom_site_fract_z
Si Si1 0.636476 0.803254 0.387645
Si Si2 0.739397 0.985778 0.040642
Si Si3 0.047104 0.422909 0.623173
Si Si4 0.135710 0.713750 0.516623
Si Si5 0.658361 0.442353 0.840384
Si Si6 0.494650 0.847078 0.237398
Si Si7 0.971006 0.004176 0.606880
Si Si8 0.465646 0.735627 0.984409
O O1 0.379947 0.798869 0.475884
O O2 0.639910 0.841757 0.289844
O O3 0.742509 0.643810 0.378819
O O4 0.792434 0.935096 0.403604
O O5 0.684781 0.146550 0.022588
O O6 0.613369 0.969235 0.157506
O O7 0.674657 0.836599 0.985840
O O8 0.000000 0.000000 0.000000
O O9 0.922464 0.305271 0.574191
O O10 0.885327 0.475203 0.738949
O O11 0.143255 0.556928 0.552563
O O12 0.957614 0.820312 0.614120
O O13 0.499822 0.326857 0.811274
O O14 0.553191 0.607006 0.890741
O O15 0.690343 0.353056 0.916500
O O16 0.238961 0.904694 0.305358
O O17 0.000000 0.000000 0.500000
#
# Coordination Sequence:
#
# PCOD8001302 Si02
#       8
#     2   2   2   2   2   2   2   2
#     4  12  21  40  62  89 122 169 206 253 304 365
#     4  10  23  44  63  97 122 153 200 263 310 368
#     4  11  23  40  63  85 133 158 209 253 308 359
#     4  11  24  40  59  93 124 168 205 257 302 360
#     4  10  19  45  61  91 116 170 199 249 306 372
#     4  11  24  39  63  91 124 161 209 250 312 370
#     4  12  22  41  61  89 125 168 210 254 303 365
#     4   9  22  41  70  84 128 155 200 251 318 363
#
# _framework density 19.703168000000002
#
# number of rings (size 3 to 8) (size 9 to 14) (size 15 to 20)
#    0.000    1.250    5.000    0.750    3.500    1.000 
#    2.250    1.875    0.000    0.000    0.000    0.000 
#    0.000    0.000    0.000    0.000    0.000    0.000 
#
# Total GULP energy -198237.756449 kJ/mol
# GULP energy per Si atom -12389.859778 kJ/mol
# Density = 1.965832 g / cm^3
# Si number density = 19.703168 Si / 1000 Ang^3
#
#
#
# Elastic Constant Matrix: (Units=GPa)
#
#
# Indices 1 2 3 4 5 6 
#
# 1 132.2452 49.9815 53.4147 3.9754 6.4864 -2.7810
# 2 49.9815 104.4696 56.9635 20.5659 -0.0824 -4.5346
# 3 53.4147 56.9635 119.1192 6.9948 1.3819 0.9468
# 4 3.9754 20.5659 6.9948 36.4427 0.4105 -0.5765
# 5 6.4864 -0.0824 1.3819 0.4105 25.9672 -3.0482
# 6 -2.7810 -4.5346 0.9468 -0.5765 -3.0482 21.5083
#
#
#
# Elastic Compliance Matrix: (Units=1/GPa)
#
#
# Indices 1 2 3 4 5 6 
#
# 1 0.010163 -0.003544 -0.002925 0.001486 -0.002371 0.000399
# 2 -0.003544 0.015968 -0.005651 -0.007509 0.001731 0.003201
# 3 -0.002925 -0.005651 0.012363 0.001104 -0.000211 -0.002114
# 4 0.001486 -0.007509 0.001104 0.031304 -0.001036 -0.000747
# 5 -0.002371 0.001731 -0.000211 -0.001036 0.039802 0.005681
# 6 0.000399 0.003201 -0.002114 -0.000747 0.005681 0.048098
#
#
# Mechanical properties :
#
#
# Convention : Reuss Voigt Hill
#
# Bulk Modulus (GPa) = 70.16190 75.17259 72.66725
# Shear Modulus (GPa) = 26.78236 29.81527 28.29882
#
# Velocity S-wave (km/s) = 3.69086 3.89424 3.79391
# Velocity P-wave (km/s) = 7.33826 7.64562 7.49351
#
# Compressibility (1/GPa) = 0.01425275
#
# Stress axis : x y z
#
# Youngs Moduli (GPa) = 98.39860 62.62651 80.88352
#
# Poissons Ratio (x) = 0.22196 0.23660
# Poissons Ratio (y) = 0.34875 0.45708
# Poissons Ratio (z) = 0.28783 0.35391
#
# Static dielectric constant tensor:
#      x y z
#    x 3.932310 -0.230400 -0.453300 
#    y -0.230400 4.310230 0.343570 
#    z -0.453300 0.343570 4.197330 
# 
# 
# High freq. dielectric constant tensor:
#      x y z
#    x 1.757290 -0.005800 0.007960 
#    y -0.005800 1.788270 -0.003270 
#    z 0.007960 -0.003270 1.768460 
# 
# From -- ./inp_files/37388.got.cif
#   From: 2010.06.25/outbox.cif.g09.slc.cpg/sg2_19_cif.got.tgz:37388.got - 2010.06.27 13:26:56.
