data_PCOD8001880
_publ_section_title
;
Structure prediction by ZEFSAII (Michael W. Deem and Ramdas Pophale) SiO2 
 PCOD8001880
Probable space group: P -1
;
_chemical_formula_sum "Si O2"
_cell_formula_units_Z 16
_cell_length_a 18.747001
_cell_length_b 28.414712
_cell_length_c 15.869115
_cell_angle_alpha 19.894078
_cell_angle_beta 29.438469
_cell_angle_gamma 17.117187
_cell_volume 813.399161
_symmetry_space_group_name_H-M "P -1"
_symmetry_group_IT_number 2
_symmetry_cell_setting 'triclinic'
loop_
_space_group_symop_operation_xyz
x,y,z
-x,-y,-z
loop_
_atom_site_type_symbol
_atom_site_label
_atom_site_fract_x
_atom_site_fract_y
_atom_site_fract_z
Si Si1 0.244539 0.711374 0.960324
Si Si2 0.137134 0.579290 0.021685
Si Si3 0.763369 0.724942 0.683915
Si Si4 0.336241 0.712324 0.055935
Si Si5 0.240042 0.007619 0.413445
Si Si6 0.825986 0.503313 0.683707
Si Si7 0.069514 0.585718 0.829860
Si Si8 0.937939 0.257497 0.584589
O O1 0.280553 0.692759 0.054620
O O2 0.117361 0.952152 0.652142
O O3 0.500000 0.500000 0.000000
O O4 0.085269 0.695207 0.132387
O O5 0.172512 0.389216 0.281096
O O6 0.369433 0.486798 0.902361
O O7 0.143963 0.580794 0.112184
O O8 0.877910 0.843095 0.804399
O O9 0.977802 0.667659 0.582094
O O10 0.500000 0.000000 0.500000
O O11 0.741102 0.606527 0.967243
O O12 0.271778 0.650235 0.298000
O O13 0.178039 0.973931 0.796510
O O14 0.176278 0.156676 0.306614
O O15 0.542903 0.766632 0.504963
O O16 0.000000 0.500000 0.500000
O O17 0.184921 0.603596 0.613171
O O18 0.000000 0.500000 0.000000
#
# Coordination Sequence:
#
# PCOD8001880 Si02
#       8
#     2   2   2   2   2   2   2   2
#     4  10  20  41  64  86 119 166 207 254 306 370
#     4  11  22  40  64  88 122 167 204 254 318 363
#     4  10  20  34  58  88 121 163 207 243 308 377
#     4  11  20  37  61  89 125 164 204 256 309 365
#     4  10  21  41  65  91 124 157 213 252 305 388
#     4  11  25  43  65  90 122 162 208 264 318 364
#     4   9  18  35  59  86 123 164 194 248 308 364
#     4  10  20  35  59  89 126 162 204 255 302 368
#
# _framework density 19.670539999999999
#
# number of rings (size 3 to 8) (size 9 to 14) (size 15 to 20)
#    0.000    1.750    5.000    0.000    3.500    1.000 
#    0.000    7.500    0.000    0.000    0.000    0.000 
#    0.000    0.000    0.000    0.000    0.000    0.000 
#
# Total GULP energy -198239.582787 kJ/mol
# GULP energy per Si atom -12389.973924 kJ/mol
# Density = 1.962577 g / cm^3
# Si number density = 19.670540 Si / 1000 Ang^3
#
#
#
# Elastic Constant Matrix: (Units=GPa)
#
#
# Indices 1 2 3 4 5 6 
#
# 1 113.3609 36.6149 44.4652 -2.5934 -11.4379 2.3271
# 2 36.6149 74.9486 48.6793 7.9287 6.2587 -6.3087
# 3 44.4652 48.6793 119.9639 2.7264 -4.5471 -6.3935
# 4 -2.5934 7.9287 2.7264 36.1096 2.7823 -2.4638
# 5 -11.4379 6.2587 -4.5471 2.7823 43.0964 0.3036
# 6 2.3271 -6.3087 -6.3935 -2.4638 0.3036 28.9195
#
#
#
# Elastic Compliance Matrix: (Units=1/GPa)
#
#
# Indices 1 2 3 4 5 6 
#
# 1 0.011781 -0.004845 -0.002437 0.001659 0.003483 -0.002439
# 2 -0.004845 0.021157 -0.006712 -0.003893 -0.004838 0.003241
# 3 -0.002437 -0.006712 0.012089 0.000362 0.001570 0.001419
# 4 0.001659 -0.003893 0.000362 0.028810 -0.000827 0.001560
# 5 0.003483 -0.004838 0.001570 -0.000827 0.025059 -0.001322
# 6 -0.002439 0.003241 0.001419 0.001560 -0.001322 0.035942
#
#
# Mechanical properties :
#
#
# Convention : Reuss Voigt Hill
#
# Bulk Modulus (GPa) = 58.67875 63.08803 60.88339
# Shear Modulus (GPa) = 29.67242 33.52603 31.59923
#
# Velocity S-wave (km/s) = 3.88812 4.13289 4.01237
# Velocity P-wave (km/s) = 7.07475 7.41056 7.24460
#
# Compressibility (1/GPa) = 0.01704195
#
# Stress axis : x y z
#
# Youngs Moduli (GPa) = 84.87935 47.26535 82.71725
#
# Poissons Ratio (x) = 0.22899 0.20155
# Poissons Ratio (y) = 0.41122 0.55517
# Poissons Ratio (z) = 0.20681 0.31723
#
# Static dielectric constant tensor:
#      x y z
#    x 3.994670 0.112780 -0.138110 
#    y 0.112780 3.262720 0.043420 
#    z -0.138110 0.043420 4.563660 
# 
# 
# High freq. dielectric constant tensor:
#      x y z
#    x 1.783360 0.015390 -0.008300 
#    y 0.015390 1.726570 -0.003820 
#    z -0.008300 -0.003820 1.783170 
# 
# From -- ./inp_files/398704.got.cif
#   From: 2010.06.25/outbox.cif.g09.slc.cpg/sg2_200_cif.got.tgz:398704.got - 2010.06.27 13:26:56.
