data_PCOD8001444
_publ_section_title
;
Structure prediction by ZEFSAII (Michael W. Deem and Ramdas Pophale) SiO2 
 PCOD8001444
Probable space group: P -1
;
_chemical_formula_sum "Si O2"
_cell_formula_units_Z 10
_cell_length_a 18.049732
_cell_length_b 4.988498
_cell_length_c 9.776254
_cell_angle_alpha 81.494987
_cell_angle_beta 37.826170
_cell_angle_gamma 71.891119
_cell_volume 505.852015
_symmetry_space_group_name_H-M "P -1"
_symmetry_group_IT_number 2
_symmetry_cell_setting 'triclinic'
loop_
_space_group_symop_operation_xyz
x,y,z
-x,-y,-z
loop_
_atom_site_type_symbol
_atom_site_label
_atom_site_fract_x
_atom_site_fract_y
_atom_site_fract_z
Si Si1 0.051413 0.739539 0.845493
Si Si2 0.319322 0.521550 0.573623
Si Si3 0.247862 0.437515 0.981876
Si Si4 0.519475 0.070669 0.622574
Si Si5 0.914930 0.948440 0.748425
O O1 0.205348 0.647159 0.623241
O O2 0.005070 0.833174 0.754394
O O3 0.000000 0.500000 0.000000
O O4 0.000000 0.000000 0.000000
O O5 0.382023 0.755019 0.514615
O O6 0.420976 0.244544 0.372761
O O7 0.259536 0.418197 0.802012
O O8 0.144792 0.293160 0.192768
O O9 0.383899 0.264494 0.866938
O O10 0.202072 0.765880 0.070601
O O11 0.500000 0.000000 0.500000
O O12 0.000000 0.000000 0.500000
#
# Coordination Sequence:
#
# PCOD8001444 Si02
#       5
#     2   2   2   2   2
#     4  12  22  38  60  86 120 153 191 247 290 337
#     4  11  19  34  58  87 117 145 192 241 296 336
#     4  11  20  37  58  83 121 149 196 239 287 344
#     4  10  20  32  56  88 117 147 186 245 295 335
#     4  12  24  39  59  86 119 160 193 234 293 350
#
# _framework density 19.768628
#
# number of rings (size 3 to 8) (size 9 to 14) (size 15 to 20)
#    0.000    0.800    4.000    7.800    0.000    0.000 
#    0.000    0.000    0.000    7.200    0.000    0.000 
#    0.000    0.000    0.000    0.000    0.000    0.000 
#
# Total GULP energy -123979.899720 kJ/mol
# GULP energy per Si atom -12397.989972 kJ/mol
# Density = 1.972363 g / cm^3
# Si number density = 19.768628 Si / 1000 Ang^3
#
#
#
# Elastic Constant Matrix: (Units=GPa)
#
#
# Indices 1 2 3 4 5 6 
#
# 1 128.5063 62.8038 44.1149 3.4281 -32.5087 -0.7015
# 2 62.8038 122.8567 31.6451 17.0594 -4.3974 10.2750
# 3 44.1149 31.6451 63.6816 6.7650 -11.1414 -17.0619
# 4 3.4281 17.0594 6.7650 46.2335 -10.1633 -14.3289
# 5 -32.5087 -4.3974 -11.1414 -10.1633 29.2891 0.8021
# 6 -0.7015 10.2750 -17.0619 -14.3289 0.8021 38.5608
#
#
#
# Elastic Compliance Matrix: (Units=1/GPa)
#
#
# Indices 1 2 3 4 5 6 
#
# 1 0.018886 -0.009000 -0.005075 0.008105 0.020408 0.003083
# 2 -0.009000 0.016154 -0.005847 -0.010669 -0.013196 -0.010745
# 3 -0.005075 -0.005847 0.026396 0.004210 0.004591 0.014614
# 4 0.008105 -0.010669 0.004210 0.034130 0.020370 0.017112
# 5 0.020408 -0.013196 0.004591 0.020370 0.063294 0.012171
# 6 0.003083 -0.010745 0.014614 0.017112 0.012171 0.041424
#
#
# Mechanical properties :
#
#
# Convention : Reuss Voigt Hill
#
# Bulk Modulus (GPa) = 46.31443 65.79690 56.05567
# Shear Modulus (GPa) = 20.21639 34.58206 27.39922
#
# Velocity S-wave (km/s) = 3.20136 4.18705 3.72693
# Velocity P-wave (km/s) = 6.09459 7.53199 6.85109
#
# Compressibility (1/GPa) = 0.02159154
#
# Stress axis : x y z
#
# Youngs Moduli (GPa) = 52.95036 61.90383 37.88501
#
# Poissons Ratio (x) = 0.55713 0.19227
# Poissons Ratio (y) = 0.47655 0.22152
# Poissons Ratio (z) = 0.26872 0.36196
#
# Static dielectric constant tensor:
#      x y z
#    x 3.763560 -0.224720 -0.432810 
#    y -0.224720 4.055620 0.468200 
#    z -0.432810 0.468200 3.558260 
# 
# 
# High freq. dielectric constant tensor:
#      x y z
#    x 1.768490 0.012100 -0.039330 
#    y 0.012100 1.789930 0.032080 
#    z -0.039330 0.032080 1.739670 
# 
# From -- ./inp_files/57302.got.cif
#   From: 2010.06.25/outbox.cif.g09.slc.cpg/sg2_29_cif.got.tgz:57302.got - 2010.06.27 13:26:56.
