data_PCOD8001115
_publ_section_title
;
Structure prediction by ZEFSAII (Michael W. Deem and Ramdas Pophale) SiO2 
 PCOD8001115
Probable space group: P -1
;
_chemical_formula_sum "Si O2"
_cell_formula_units_Z 14
_cell_length_a 18.279709
_cell_length_b 17.680392
_cell_length_c 7.930968
_cell_angle_alpha 41.025132
_cell_angle_beta 53.898109
_cell_angle_gamma 23.902532
_cell_volume 631.167648
_symmetry_space_group_name_H-M "P -1"
_symmetry_group_IT_number 2
_symmetry_cell_setting 'triclinic'
loop_
_space_group_symop_operation_xyz
x,y,z
-x,-y,-z
loop_
_atom_site_type_symbol
_atom_site_label
_atom_site_fract_x
_atom_site_fract_y
_atom_site_fract_z
Si Si1 0.824275 0.348555 0.921221
Si Si2 0.097329 0.278345 0.168468
Si Si3 0.216737 0.722393 0.562386
Si Si4 0.496639 0.253099 0.541094
Si Si5 0.365174 0.800250 0.237077
Si Si6 0.975970 0.658377 0.213082
Si Si7 0.903742 0.287873 0.561266
O O1 0.593292 0.598204 0.763938
O O2 0.946127 0.178271 0.870295
O O3 0.863032 0.439546 0.758901
O O4 0.875267 0.206504 0.247856
O O5 0.062641 0.208452 0.454824
O O6 0.331317 0.032961 0.246304
O O7 0.993252 0.366763 0.985879
O O8 0.000000 0.500000 0.000000
O O9 0.220890 0.855199 0.307079
O O10 0.439665 0.425336 0.759893
O O11 0.090192 0.808594 0.439750
O O12 0.584910 0.255448 0.536065
O O13 0.313428 0.407791 0.638223
O O14 0.242539 0.052055 0.928707
O O15 0.000000 0.500000 0.500000
#
# Coordination Sequence:
#
# PCOD8001115 Si02
#       7
#     2   2   2   2   2   2   2
#     4  10  21  39  64  93 129 160 213 260 309 390
#     4  11  21  39  65  86 129 173 209 268 321 367
#     4  10  19  41  67  92 128 168 208 260 325 376
#     4   8  21  40  58  92 124 166 205 262 318 370
#     4   9  21  41  66  88 129 170 207 265 320 376
#     4  11  23  42  62  94 126 168 220 262 312 385
#     4   9  20  40  60  93 131 157 210 262 314 379
#
# _framework density 22.181111000000001
#
# number of rings (size 3 to 8) (size 9 to 14) (size 15 to 20)
#    0.857    1.429    1.429    0.857    0.000    4.000 
#    5.143    2.143    0.000    0.000    0.000    0.000 
#    0.000    0.000    0.000    0.000    0.000    0.000 
#
# Total GULP energy -173450.293106 kJ/mol
# GULP energy per Si atom -12389.306650 kJ/mol
# Density = 2.213063 g / cm^3
# Si number density = 22.181111 Si / 1000 Ang^3
#
#
#
# Elastic Constant Matrix: (Units=GPa)
#
#
# Indices 1 2 3 4 5 6 
#
# 1 99.4107 9.5264 36.2344 12.0943 12.0696 8.4494
# 2 9.5264 77.0598 16.8438 9.2996 3.1715 13.6935
# 3 36.2344 16.8438 105.8620 16.5606 2.4796 8.9990
# 4 12.0943 9.2996 16.5606 37.0098 5.8776 4.0386
# 5 12.0696 3.1715 2.4796 5.8776 37.6145 4.8770
# 6 8.4494 13.6935 8.9990 4.0386 4.8770 35.1869
#
#
#
# Elastic Compliance Matrix: (Units=1/GPa)
#
#
# Indices 1 2 3 4 5 6 
#
# 1 0.012112 -0.000136 -0.003686 -0.001625 -0.003212 -0.001281
# 2 -0.000136 0.014483 -0.001462 -0.002390 -0.000066 -0.004946
# 3 -0.003686 -0.001462 0.011594 -0.003681 0.001281 -0.001266
# 4 -0.001625 -0.002390 -0.003681 0.030465 -0.003701 -0.000722
# 5 -0.003212 -0.000066 0.001281 -0.003701 0.028512 -0.003058
# 6 -0.001281 -0.004946 -0.001266 -0.000722 -0.003058 0.031483
#
#
# Mechanical properties :
#
#
# Convention : Reuss Voigt Hill
#
# Bulk Modulus (GPa) = 36.20235 45.28242 40.74239
# Shear Modulus (GPa) = 33.68710 36.61076 35.14893
#
# Velocity S-wave (km/s) = 3.90132 4.06709 3.98506
# Velocity P-wave (km/s) = 6.05395 6.52029 6.29144
#
# Compressibility (1/GPa) = 0.02762251
#
# Stress axis : x y z
#
# Youngs Moduli (GPa) = 82.56054 69.04426 86.25155
#
# Poissons Ratio (x) = 0.00937 0.31791
# Poissons Ratio (y) = 0.01121 0.12610
# Poissons Ratio (z) = 0.30431 0.10094
#
# Static dielectric constant tensor:
#      x y z
#    x 4.199320 0.146350 0.247050 
#    y 0.146350 4.091560 -0.104560 
#    z 0.247050 -0.104560 3.667830 
# 
# 
# High freq. dielectric constant tensor:
#      x y z
#    x 1.882000 0.010780 0.022430 
#    y 0.010780 1.877690 -0.012550 
#    z 0.022430 -0.012550 1.844410 
# 
# From -- ./inp_files/258637.got.cif
#   From: 2010.06.25/outbox.cif.g09.slc.cpg/sg2_130_cif.got.tgz:258637.got - 2010.06.27 13:26:56.
