data_PCOD8001414
_publ_section_title
;
Structure prediction by ZEFSAII (Michael W. Deem and Ramdas Pophale) SiO2 
 PCOD8001414
Probable space group: P -1
;
_chemical_formula_sum "Si O2"
_cell_formula_units_Z 16
_cell_length_a 9.203913
_cell_length_b 11.918215
_cell_length_c 18.744716
_cell_angle_alpha 150.481045
_cell_angle_beta 120.103138
_cell_angle_gamma 67.959131
_cell_volume 867.386960
_symmetry_space_group_name_H-M "P -1"
_symmetry_group_IT_number 2
_symmetry_cell_setting 'triclinic'
loop_
_space_group_symop_operation_xyz
x,y,z
-x,-y,-z
loop_
_atom_site_type_symbol
_atom_site_label
_atom_site_fract_x
_atom_site_fract_y
_atom_site_fract_z
Si Si1 0.602280 0.963039 0.224021
Si Si2 0.512607 0.536767 0.877175
Si Si3 0.841217 0.304171 0.844816
Si Si4 0.683118 0.908348 0.671612
Si Si5 0.376826 0.563875 0.565009
Si Si6 0.222826 0.226674 0.709754
Si Si7 0.849196 0.223701 0.643796
Si Si8 0.471591 0.571158 0.339267
O O1 0.433689 0.994906 0.243974
O O2 0.733892 0.848842 0.241556
O O3 0.698491 0.208530 0.352672
O O4 0.553910 0.805114 0.055610
O O5 0.668346 0.409249 0.867417
O O6 0.353533 0.439266 0.832744
O O7 0.468001 0.504908 0.765139
O O8 0.834778 0.108130 0.796567
O O9 0.853658 0.177338 0.703184
O O10 0.000000 0.500000 0.000000
O O11 0.756370 0.675280 0.589093
O O12 0.567166 0.825203 0.526969
O O13 0.500000 0.500000 0.500000
O O14 0.484543 0.613614 0.693092
O O15 0.038200 0.308694 0.708782
O O16 0.230492 0.014891 0.542238
O O17 0.730919 0.418741 0.705351
#
# Coordination Sequence:
#
# PCOD8001414 Si02
#       8
#     2   2   2   2   2   2   2   2
#     4  11  19  33  56  84 107 143 185 223 264 325
#     4  11  22  32  54  83 117 137 172 234 283 316
#     4  11  21  33  51  81 115 142 174 227 279 324
#     4   9  18  34  56  75 106 143 189 212 261 330
#     4   8  17  34  58  81  99 146 192 220 250 319
#     4  11  20  33  53  84 112 144 177 223 281 321
#     4  10  20  32  53  79 110 143 179 222 269 328
#     4   9  18  37  55  82 103 145 185 218 269 321
#
# _framework density 18.446207999999999
#
# number of rings (size 3 to 8) (size 9 to 14) (size 15 to 20)
#    0.750    1.250    2.500    1.875    1.750    2.500 
#    0.000    0.000    0.000    3.750   22.750    0.000 
#    0.000    0.000    0.000    0.000    0.000    0.000 
#
# Total GULP energy -198219.345111 kJ/mol
# GULP energy per Si atom -12388.709069 kJ/mol
# Density = 1.840422 g / cm^3
# Si number density = 18.446208 Si / 1000 Ang^3
#
#
#
# Elastic Constant Matrix: (Units=GPa)
#
#
# Indices 1 2 3 4 5 6 
#
# 1 47.5614 15.2753 29.3830 3.1226 3.9866 11.9742
# 2 15.2753 89.7425 31.2640 3.7248 1.7187 20.7629
# 3 29.3830 31.2640 95.1799 4.1598 -7.9002 16.4062
# 4 3.1226 3.7248 4.1598 24.8958 9.8568 4.4186
# 5 3.9866 1.7187 -7.9002 9.8568 31.8027 -0.2429
# 6 11.9742 20.7629 16.4062 4.4186 -0.2429 19.5203
#
#
#
# Elastic Compliance Matrix: (Units=1/GPa)
#
#
# Indices 1 2 3 4 5 6 
#
# 1 0.029132 0.000690 -0.007651 0.002327 -0.006408 -0.012780
# 2 0.000690 0.015460 -0.003013 0.001623 -0.002286 -0.014731
# 3 -0.007651 -0.003013 0.015164 -0.002626 0.005671 -0.004183
# 4 0.002327 0.001623 -0.002626 0.048644 -0.016201 -0.012159
# 5 -0.006408 -0.002286 0.005671 -0.016201 0.038845 0.005747
# 6 -0.012780 -0.014731 -0.004183 -0.012159 0.005747 0.081076
#
#
# Mechanical properties :
#
#
# Convention : Reuss Voigt Hill
#
# Bulk Modulus (GPa) = 25.11983 42.70317 33.91150
# Shear Modulus (GPa) = 19.11768 25.68119 22.39943
#
# Velocity S-wave (km/s) = 3.22281 3.73530 3.48848
# Velocity P-wave (km/s) = 5.24368 6.46557 5.88641
#
# Compressibility (1/GPa) = 0.03980919
#
# Stress axis : x y z
#
# Youngs Moduli (GPa) = 34.32593 64.68476 65.94459
#
# Poissons Ratio (x) = -0.04461 0.50452
# Poissons Ratio (y) = -0.02367 0.19866
# Poissons Ratio (z) = 0.26262 0.19486
#
# Static dielectric constant tensor:
#      x y z
#    x 3.219680 0.145860 -0.103400 
#    y 0.145860 3.853950 0.118440 
#    z -0.103400 0.118440 3.516050 
# 
# 
# High freq. dielectric constant tensor:
#      x y z
#    x 1.696620 0.018410 -0.016900 
#    y 0.018410 1.698010 -0.005700 
#    z -0.016900 -0.005700 1.716210 
# 
# From -- ./inp_files/328712.got.cif
#   From: 2010.06.25/outbox.cif.g09.slc.cpg/sg2_165_cif.got.tgz:328712.got - 2010.06.27 13:26:56.
