data_PCOD8001395
_publ_section_title
;
Structure prediction by ZEFSAII (Michael W. Deem and Ramdas Pophale) SiO2 
 PCOD8001395
Probable space group: P -1
;
_chemical_formula_sum "Si O2"
_cell_formula_units_Z 16
_cell_length_a 11.370421
_cell_length_b 11.813210
_cell_length_c 13.626372
_cell_angle_alpha 115.503039
_cell_angle_beta 125.262156
_cell_angle_gamma 108.210651
_cell_volume 874.530608
_symmetry_space_group_name_H-M "P -1"
_symmetry_group_IT_number 2
_symmetry_cell_setting 'triclinic'
loop_
_space_group_symop_operation_xyz
x,y,z
-x,-y,-z
loop_
_atom_site_type_symbol
_atom_site_label
_atom_site_fract_x
_atom_site_fract_y
_atom_site_fract_z
Si Si1 0.658080 0.666898 0.719023
Si Si2 0.027473 0.073537 0.761873
Si Si3 0.137427 0.961598 0.125554
Si Si4 0.901250 0.823072 0.451261
Si Si5 0.426489 0.468700 0.165215
Si Si6 0.064995 0.757369 0.351184
Si Si7 0.182619 0.549931 0.042151
Si Si8 0.461412 0.963913 0.352066
O O1 0.500000 0.500000 0.500000
O O2 0.521678 0.557275 0.713707
O O3 0.695254 0.839771 0.781916
O O4 0.909941 0.775307 0.887573
O O5 0.930753 0.004085 0.798465
O O6 0.901036 0.097980 0.647911
O O7 0.289959 0.277750 0.963419
O O8 0.995901 0.914051 0.639817
O O9 0.267057 0.923918 0.204977
O O10 0.635496 0.647992 0.268091
O O11 0.969463 0.735241 0.403506
O O12 0.000000 0.000000 0.500000
O O13 0.264225 0.479681 0.111789
O O14 0.304716 0.852391 0.519352
O O15 0.907943 0.550387 0.146186
O O16 0.393090 0.779287 0.217469
O O17 0.000000 0.500000 0.000000
O O18 0.500000 0.000000 0.500000
#
# Coordination Sequence:
#
# PCOD8001395 Si02
#       8
#     2   2   2   2   2   2   2   2
#     4  10  21  35  57  80 111 145 183 233 272 319
#     4   9  17  33  52  76 113 140 178 225 271 326
#     4  10  21  36  54  87 111 140 190 221 273 337
#     4  10  20  32  51  76 110 147 185 222 269 328
#     4  10  21  34  54  80 108 146 183 227 279 322
#     4  10  21  32  48  81 107 146 179 215 273 333
#     4  11  20  32  51  79 114 142 177 218 277 338
#     4  12  21  33  56  78 114 148 170 220 281 335
#
# _framework density 18.295528999999998
#
# number of rings (size 3 to 8) (size 9 to 14) (size 15 to 20)
#    0.000    1.750    2.500    3.750    1.750    6.500 
#    0.000    0.000    0.000    0.750    0.000   13.125 
#    0.000    0.000    0.000    0.000    0.000    0.000 
#
# Total GULP energy -198263.135474 kJ/mol
# GULP energy per Si atom -12391.445967 kJ/mol
# Density = 1.825389 g / cm^3
# Si number density = 18.295529 Si / 1000 Ang^3
#
#
#
# Elastic Constant Matrix: (Units=GPa)
#
#
# Indices 1 2 3 4 5 6 
#
# 1 110.5848 16.4232 60.9654 4.4559 -10.3520 3.8810
# 2 16.4232 52.6413 30.6370 1.4742 1.9673 4.9729
# 3 60.9654 30.6370 146.0749 9.3133 -10.8269 -5.5404
# 4 4.4559 1.4742 9.3133 29.2391 -1.9598 4.2743
# 5 -10.3520 1.9673 -10.8269 -1.9598 33.1114 9.7491
# 6 3.8810 4.9729 -5.5404 4.2743 9.7491 20.7452
#
#
#
# Elastic Compliance Matrix: (Units=1/GPa)
#
#
# Indices 1 2 3 4 5 6 
#
# 1 0.012441 -0.000596 -0.005037 0.000817 0.003964 -0.005561
# 2 -0.000596 0.022651 -0.004918 0.001365 -0.001189 -0.006354
# 3 -0.005037 -0.004918 0.010404 -0.003058 0.000360 0.005361
# 4 0.000817 0.001365 -0.003058 0.036910 0.004619 -0.011072
# 5 0.003964 -0.001189 0.000360 0.004619 0.037474 -0.018923
# 6 -0.005561 -0.006354 0.005361 -0.011072 -0.018923 0.063373
#
#
# Mechanical properties :
#
#
# Convention : Reuss Voigt Hill
#
# Bulk Modulus (GPa) = 40.99112 58.37246 49.68179
# Shear Modulus (GPa) = 23.53088 30.03749 26.78418
#
# Velocity S-wave (km/s) = 3.59019 4.05630 3.83034
# Velocity P-wave (km/s) = 6.29600 7.34253 6.83931
#
# Compressibility (1/GPa) = 0.02439553
#
# Stress axis : x y z
#
# Youngs Moduli (GPa) = 80.37684 44.14770 96.11286
#
# Poissons Ratio (x) = 0.02630 0.48410
# Poissons Ratio (y) = 0.04789 0.47270
# Poissons Ratio (z) = 0.40484 0.21713
#
# Static dielectric constant tensor:
#      x y z
#    x 3.495230 0.056530 -0.177370 
#    y 0.056530 3.243970 0.143760 
#    z -0.177370 0.143760 3.795920 
# 
# 
# High freq. dielectric constant tensor:
#      x y z
#    x 1.688890 0.007700 -0.004070 
#    y 0.007700 1.674330 0.017600 
#    z -0.004070 0.017600 1.732520 
# 
# From -- ./inp_files/432709.got.cif
#   From: 2010.06.25/outbox.cif.g09.slc.cpg/sg2_217_cif.got.tgz:432709.got - 2010.06.27 13:26:56.
