data_PCOD8001988
_publ_section_title
;
Structure prediction by ZEFSAII (Michael W. Deem and Ramdas Pophale) SiO2 
 PCOD8001988
Probable space group: P -1
;
_chemical_formula_sum "Si O2"
_cell_formula_units_Z 16
_cell_length_a 18.405352
_cell_length_b 9.355223
_cell_length_c 11.999380
_cell_angle_alpha 130.601025
_cell_angle_beta 29.500513
_cell_angle_gamma 123.082448
_cell_volume 771.320565
_symmetry_space_group_name_H-M "P -1"
_symmetry_group_IT_number 2
_symmetry_cell_setting 'triclinic'
loop_
_space_group_symop_operation_xyz
x,y,z
-x,-y,-z
loop_
_atom_site_type_symbol
_atom_site_label
_atom_site_fract_x
_atom_site_fract_y
_atom_site_fract_z
Si Si1 0.018786 0.488471 0.338820
Si Si2 0.669983 0.388086 0.992013
Si Si3 0.292175 0.924827 0.664436
Si Si4 0.399410 0.921960 0.911230
Si Si5 0.901163 0.877665 0.650729
Si Si6 0.674864 0.146320 0.659844
Si Si7 0.500646 0.254893 0.531503
Si Si8 0.004760 0.917090 0.786524
O O1 0.000000 0.500000 0.500000
O O2 0.922110 0.651689 0.483112
O O3 0.979854 0.275076 0.255793
O O4 0.188894 0.517185 0.098417
O O5 0.661076 0.183971 0.955775
O O6 0.532628 0.528730 0.278837
O O7 0.681925 0.342267 0.819783
O O8 0.342781 0.813849 0.428373
O O9 0.352936 0.805497 0.626458
O O10 0.361670 0.130128 0.682015
O O11 0.113567 0.944744 0.921128
O O12 0.457424 0.766357 0.664683
O O13 0.534187 0.038946 0.834369
O O14 0.271004 0.062099 0.102448
O O15 0.949788 0.898594 0.724137
O O16 0.000000 0.000000 0.500000
O O17 0.827524 0.014228 0.405980
#
# Coordination Sequence:
#
# PCOD8001988 Si02
#       8
#     2   2   2   2   2   2   2   2
#     4  10  20  34  62  91 115 154 205 257 289 353
#     4  12  21  39  63  89 126 155 206 253 305 359
#     4  10  21  38  62  88 123 159 202 248 308 360
#     4  11  23  41  62  90 122 164 201 249 305 369
#     4  11  20  37  64  91 119 158 207 250 299 362
#     4  11  24  38  61  92 124 162 195 251 314 360
#     4  10  22  38  61  91 118 160 205 254 295 359
#     4  11  20  41  63  87 126 159 205 249 303 365
#
# _framework density 20.743645000000001
#
# number of rings (size 3 to 8) (size 9 to 14) (size 15 to 20)
#    0.000    1.250    6.250    1.125    0.000    0.500 
#    2.250    0.000    0.000    0.750    0.000    0.000 
#    0.000    0.000    0.000    0.000    0.000    0.000 
#
# Total GULP energy -198311.792941 kJ/mol
# GULP energy per Si atom -12394.487059 kJ/mol
# Density = 2.069643 g / cm^3
# Si number density = 20.743645 Si / 1000 Ang^3
#
#
#
# Elastic Constant Matrix: (Units=GPa)
#
#
# Indices 1 2 3 4 5 6 
#
# 1 65.9871 28.5915 26.2959 7.2162 -8.4835 5.9003
# 2 28.5915 76.1467 33.7182 -0.8651 -16.3254 -12.3004
# 3 26.2959 33.7182 115.0798 5.2126 -15.7690 2.6781
# 4 7.2162 -0.8651 5.2126 35.9368 7.3923 -5.1060
# 5 -8.4835 -16.3254 -15.7690 7.3923 40.9835 -3.9326
# 6 5.9003 -12.3004 2.6781 -5.1060 -3.9326 25.7720
#
#
#
# Elastic Compliance Matrix: (Units=1/GPa)
#
#
# Indices 1 2 3 4 5 6 
#
# 1 0.021214 -0.008810 -0.001737 -0.005694 0.000284 -0.009966
# 2 -0.008810 0.021954 -0.004095 0.003714 0.006076 0.014584
# 3 -0.001737 -0.004095 0.010761 -0.002171 0.002277 -0.002757
# 4 -0.005694 0.003714 -0.002171 0.031734 -0.005418 0.008762
# 5 0.000284 0.006076 0.002277 -0.005418 0.029308 0.005997
# 6 -0.009966 0.014584 -0.002757 0.008762 0.005997 0.050981
#
#
# Mechanical properties :
#
#
# Convention : Reuss Voigt Hill
#
# Bulk Modulus (GPa) = 40.57499 48.26942 44.42220
# Shear Modulus (GPa) = 24.57596 31.77900 28.17748
#
# Velocity S-wave (km/s) = 3.44575 3.91831 3.68960
# Velocity P-wave (km/s) = 5.95261 6.61747 6.29382
#
# Compressibility (1/GPa) = 0.02464572
#
# Stress axis : x y z
#
# Youngs Moduli (GPa) = 47.13771 45.54968 92.93029
#
# Poissons Ratio (x) = 0.40128 0.16146
# Poissons Ratio (y) = 0.41527 0.38050
# Poissons Ratio (z) = 0.08190 0.18650
#
# Static dielectric constant tensor:
#      x y z
#    x 3.757390 0.104330 -0.059930 
#    y 0.104330 4.255670 0.216100 
#    z -0.059930 0.216100 4.020630 
# 
# 
# High freq. dielectric constant tensor:
#      x y z
#    x 1.803520 -0.002770 -0.003980 
#    y -0.002770 1.784630 -0.011950 
#    z -0.003980 -0.011950 1.827120 
# 
# From -- ./inp_files/271447.got.cif
#   From: 2010.06.25/outbox.cif.g09.slc.cpg/sg2_136_cif.got.tgz:271447.got - 2010.06.27 13:26:56.
