data_PCOD8001273
_publ_section_title
;
Structure prediction by ZEFSAII (Michael W. Deem and Ramdas Pophale) SiO2 
 PCOD8001273
Probable space group: P -1
;
_chemical_formula_sum "Si O2"
_cell_formula_units_Z 16
_cell_length_a 9.117597
_cell_length_b 12.255447
_cell_length_c 15.286903
_cell_angle_alpha 26.055207
_cell_angle_beta 68.241352
_cell_angle_gamma 74.680851
_cell_volume 686.842664
_symmetry_space_group_name_H-M "P -1"
_symmetry_group_IT_number 2
_symmetry_cell_setting 'triclinic'
loop_
_space_group_symop_operation_xyz
x,y,z
-x,-y,-z
loop_
_atom_site_type_symbol
_atom_site_label
_atom_site_fract_x
_atom_site_fract_y
_atom_site_fract_z
Si Si1 0.639072 0.619831 0.142323
Si Si2 0.799491 0.308322 0.021228
Si Si3 0.340077 0.368318 0.676198
Si Si4 0.661412 0.187701 0.315352
Si Si5 0.686289 0.197526 0.945615
Si Si6 0.923539 0.862040 0.531344
Si Si7 0.006451 0.255407 0.759033
Si Si8 0.063766 0.986568 0.232899
O O1 0.665620 0.521283 0.304745
O O2 0.687394 0.411369 0.217770
O O3 0.454643 0.644570 0.151959
O O4 0.750577 0.888481 0.906672
O O5 0.675344 0.309172 0.127911
O O6 0.960803 0.210695 0.083669
O O7 0.707607 0.139035 0.085933
O O8 0.842265 0.585548 0.773809
O O9 0.500000 0.500000 0.500000
O O10 0.180458 0.423103 0.620603
O O11 0.348646 0.072874 0.898860
O O12 0.500000 0.000000 0.500000
O O13 0.795273 0.018036 0.412481
O O14 0.850738 0.365385 0.749383
O O15 0.000000 0.000000 0.500000
O O16 0.044701 0.856912 0.426203
O O17 0.987662 0.220011 0.683662
O O18 0.000000 0.000000 0.000000
#
# Coordination Sequence:
#
# PCOD8001273 Si02
#       8
#     2   2   2   2   2   2   2   2
#     4  12  24  43  66 101 140 180 231 297 344 410
#     4  11  23  46  71  97 138 188 231 292 350 420
#     4  11  24  42  69 101 138 179 231 291 351 415
#     4  11  27  45  69  99 140 186 235 291 357 414
#     4  11  23  43  70  96 141 183 230 279 353 422
#     4  11  25  44  69 105 134 179 245 288 349 419
#     4  10  19  43  69  96 135 190 223 278 354 420
#     4  11  22  44  72  97 142 183 230 290 357 417
#
# _framework density 23.295000999999999
#
# number of rings (size 3 to 8) (size 9 to 14) (size 15 to 20)
#    0.000    1.000    5.000    2.625    1.750    6.000 
#    4.500    1.250    0.000    0.000    0.000    0.000 
#    0.000    0.000    0.000    0.000    0.000    0.000 
#
# Total GULP energy -198424.856945 kJ/mol
# GULP energy per Si atom -12401.553559 kJ/mol
# Density = 2.324198 g / cm^3
# Si number density = 23.295001 Si / 1000 Ang^3
#
#
#
# Elastic Constant Matrix: (Units=GPa)
#
#
# Indices 1 2 3 4 5 6 
#
# 1 119.9923 36.9655 44.1102 22.7000 -26.1078 -0.9270
# 2 36.9655 169.0959 52.5837 43.1523 -11.9687 19.2799
# 3 44.1102 52.5837 102.2219 38.4109 -20.3980 3.5209
# 4 22.7000 43.1523 38.4109 46.7605 -4.7722 5.7089
# 5 -26.1078 -11.9687 -20.3980 -4.7722 42.3694 2.9300
# 6 -0.9270 19.2799 3.5209 5.7089 2.9300 41.7833
#
#
#
# Elastic Compliance Matrix: (Units=1/GPa)
#
#
# Indices 1 2 3 4 5 6 
#
# 1 0.011026 -0.000811 -0.002590 -0.002056 0.005034 0.000765
# 2 -0.000811 0.008424 -0.001645 -0.005588 0.000669 -0.003050
# 3 -0.002590 -0.001645 0.016591 -0.010419 0.004726 0.000396
# 4 -0.002056 -0.005588 -0.010419 0.035868 -0.003737 -0.001228
# 5 0.005034 0.000669 0.004726 -0.003737 0.028893 -0.002111
# 6 0.000765 -0.003050 0.000396 -0.001228 -0.002111 0.025640
#
#
# Mechanical properties :
#
#
# Convention : Reuss Voigt Hill
#
# Bulk Modulus (GPa) = 38.53694 73.18097 55.85895
# Shear Modulus (GPa) = 34.43934 43.35933 38.89934
#
# Velocity S-wave (km/s) = 3.84917 4.31898 4.09082
# Velocity P-wave (km/s) = 6.02775 7.50696 6.80765
#
# Compressibility (1/GPa) = 0.02594913
#
# Stress axis : x y z
#
# Youngs Moduli (GPa) = 90.69519 118.71114 60.27422
#
# Poissons Ratio (x) = 0.09630 0.15610
# Poissons Ratio (y) = 0.07357 0.09914
# Poissons Ratio (z) = 0.23488 0.19525
#
# Static dielectric constant tensor:
#      x y z
#    x 4.120370 -0.386430 -0.308900 
#    y -0.386430 3.843900 -0.002990 
#    z -0.308900 -0.002990 4.093300 
# 
# 
# High freq. dielectric constant tensor:
#      x y z
#    x 1.925390 0.002290 -0.005330 
#    y 0.002290 1.940870 0.012620 
#    z -0.005330 0.012620 1.916190 
# 
# From -- ./inp_files/499663.got.cif
#   From: 2010.06.25/outbox.cif.g09.slc.cpg/sg2_250_cif.got.tgz:499663.got - 2010.06.27 13:26:56.
