data_PCOD8001814
_publ_section_title
;
Structure prediction by ZEFSAII (Michael W. Deem and Ramdas Pophale) SiO2 
 PCOD8001814
Probable space group: P -1
;
_chemical_formula_sum "Si O2"
_cell_formula_units_Z 14
_cell_length_a 15.282425
_cell_length_b 24.302791
_cell_length_c 5.059776
_cell_angle_alpha 74.373745
_cell_angle_beta 84.368790
_cell_angle_gamma 149.905069
_cell_volume 660.452682
_symmetry_space_group_name_H-M "P -1"
_symmetry_group_IT_number 2
_symmetry_cell_setting 'triclinic'
loop_
_space_group_symop_operation_xyz
x,y,z
-x,-y,-z
loop_
_atom_site_type_symbol
_atom_site_label
_atom_site_fract_x
_atom_site_fract_y
_atom_site_fract_z
Si Si1 0.418050 0.057514 0.283562
Si Si2 0.985125 0.715289 0.806613
Si Si3 0.818388 0.859116 0.425290
Si Si4 0.374826 0.870286 0.339986
Si Si5 0.311768 0.439585 0.396379
Si Si6 0.715481 0.706190 0.294391
Si Si7 0.173164 0.021087 0.509965
O O1 0.487493 0.069374 0.521836
O O2 0.170336 0.879127 0.488112
O O3 0.383158 0.104348 0.263204
O O4 0.620642 0.173636 0.842048
O O5 0.111542 0.730291 0.697659
O O6 0.762486 0.585454 0.840160
O O7 0.889389 0.662305 0.201426
O O8 0.629467 0.705606 0.517435
O O9 0.974211 0.911693 0.490768
O O10 0.696041 0.839333 0.638247
O O11 0.000000 0.000000 0.000000
O O12 0.500000 0.000000 0.000000
O O13 0.565891 0.621865 0.171953
O O14 0.345176 0.391542 0.436168
O O15 0.004742 0.888402 0.952292
#
# Coordination Sequence:
#
# PCOD8001814 Si02
#       7
#     2   2   2   2   2   2   2
#     4  11  20  33  56  81 110 146 178 229 277 328
#     4  11  20  36  50  78 111 149 182 218 270 318
#     4   9  20  36  54  77 112 142 185 232 271 322
#     4  10  21  33  53  78 111 144 185 226 275 324
#     4  11  23  33  56  79 115 157 178 214 266 329
#     4  10  22  34  51  81 114 146 187 215 263 334
#     4  10  20  34  57  80 113 144 181 230 279 317
#
# _framework density 21.197581
#
# number of rings (size 3 to 8) (size 9 to 14) (size 15 to 20)
#    0.000    1.714    1.429    5.143    6.000    1.143 
#    0.000    0.000    0.000    0.000    0.000    6.000 
#    0.000    0.000    0.000    0.000    0.000    0.000 
#
# Total GULP energy -173460.440479 kJ/mol
# GULP energy per Si atom -12390.031463 kJ/mol
# Density = 2.114933 g / cm^3
# Si number density = 21.197581 Si / 1000 Ang^3
#
#
#
# Elastic Constant Matrix: (Units=GPa)
#
#
# Indices 1 2 3 4 5 6 
#
# 1 147.2087 68.4985 20.9736 6.5277 -28.1949 -15.1174
# 2 68.4985 123.9318 9.0241 12.4007 -1.0545 -16.9505
# 3 20.9736 9.0241 43.3204 8.6142 -14.8135 -11.7534
# 4 6.5277 12.4007 8.6142 26.8087 0.0856 -3.0528
# 5 -28.1949 -1.0545 -14.8135 0.0856 25.1261 7.0789
# 6 -15.1174 -16.9505 -11.7534 -3.0528 7.0789 29.9374
#
#
#
# Elastic Compliance Matrix: (Units=1/GPa)
#
#
# Indices 1 2 3 4 5 6 
#
# 1 0.012682 -0.007015 -0.000109 0.000039 0.014139 -0.000950
# 2 -0.007015 0.012994 -0.000168 -0.003593 -0.008963 0.005502
# 3 -0.000109 -0.000168 0.033103 -0.009701 0.017228 0.007783
# 4 0.000039 -0.003593 -0.009701 0.042075 -0.005934 -0.000130
# 5 0.014139 -0.008963 0.017228 -0.005934 0.067656 -0.007774
# 6 -0.000950 0.005502 0.007783 -0.000130 -0.007774 0.040919
#
#
# Mechanical properties :
#
#
# Convention : Reuss Voigt Hill
#
# Bulk Modulus (GPa) = 22.62714 56.82815 39.72764
# Shear Modulus (GPa) = 20.94276 30.77209 25.85743
#
# Velocity S-wave (km/s) = 3.14662 3.81422 3.49639
# Velocity P-wave (km/s) = 4.88868 6.80182 5.92300
#
# Compressibility (1/GPa) = 0.04419471
#
# Stress axis : x y z
#
# Youngs Moduli (GPa) = 78.85497 76.95762 30.20840
#
# Poissons Ratio (x) = 0.53984 0.00329
# Poissons Ratio (y) = 0.55315 0.00509
# Poissons Ratio (z) = 0.00860 0.01296
#
# Static dielectric constant tensor:
#      x y z
#    x 4.389620 -0.610920 -0.442300 
#    y -0.610920 4.319240 0.435910 
#    z -0.442300 0.435910 3.725680 
# 
# 
# High freq. dielectric constant tensor:
#      x y z
#    x 1.826280 -0.005250 -0.012470 
#    y -0.005250 1.823120 0.040300 
#    z -0.012470 0.040300 1.811380 
# 
# From -- ./inp_files/63918.got.cif
#   From: 2010.06.25/outbox.cif.g09.slc.cpg/sg2_32_cif.got.tgz:63918.got - 2010.06.27 13:26:56.
