data_PCOD8001434
_publ_section_title
;
Structure prediction by ZEFSAII (Michael W. Deem and Ramdas Pophale) SiO2 
 PCOD8001434
Probable space group: P -1
;
_chemical_formula_sum "Si O2"
_cell_formula_units_Z 16
_cell_length_a 6.156745
_cell_length_b 11.531400
_cell_length_c 11.291950
_cell_angle_alpha 73.796274
_cell_angle_beta 77.856520
_cell_angle_gamma 91.206292
_cell_volume 749.888919
_symmetry_space_group_name_H-M "P -1"
_symmetry_group_IT_number 2
_symmetry_cell_setting 'triclinic'
loop_
_space_group_symop_operation_xyz
x,y,z
-x,-y,-z
loop_
_atom_site_type_symbol
_atom_site_label
_atom_site_fract_x
_atom_site_fract_y
_atom_site_fract_z
Si Si1 0.369065 0.754797 0.240142
Si Si2 0.372786 0.530583 0.160613
Si Si3 0.979783 0.088407 0.827810
Si Si4 0.254323 0.150269 0.999616
Si Si5 0.218842 0.583178 0.920819
Si Si6 0.587623 0.902829 0.363495
Si Si7 0.776041 0.923852 0.585030
Si Si8 0.886810 0.714910 0.806756
O O1 0.332873 0.611695 0.257370
O O2 0.497416 0.778206 0.343383
O O3 0.127677 0.806165 0.262598
O O4 0.508744 0.827704 0.098574
O O5 0.622284 0.491095 0.157737
O O6 0.205630 0.410102 0.208555
O O7 0.347415 0.613665 0.021554
O O8 0.187790 0.041155 0.744767
O O9 0.053810 0.147812 0.927887
O O10 0.785546 0.978769 0.892815
O O11 0.241973 0.258523 0.064662
O O12 0.145007 0.700092 0.822141
O O13 0.000000 0.500000 0.000000
O O14 0.643840 0.868897 0.501016
O O15 0.396664 0.996975 0.348810
O O16 0.861677 0.819850 0.686266
O O17 0.000000 0.000000 0.500000
#
# Coordination Sequence:
#
# PCOD8001434 Si02
#       8
#     2   2   2   2   2   2   2   2
#     4  11  20  36  58  83 121 159 189 233 291 349
#     4  10  21  35  55  86 122 156 192 235 284 346
#     4  10  21  36  57  86 119 154 191 241 295 349
#     4  10  20  32  54  89 120 151 193 236 289 353
#     4   9  18  34  53  82 120 157 193 229 277 338
#     4  10  23  40  62  86 112 151 198 244 298 345
#     4  11  24  44  64  85 113 149 198 253 298 345
#     4  11  22  36  60  88 117 156 197 239 291 347
#
# _framework density 21.336494999999999
#
# number of rings (size 3 to 8) (size 9 to 14) (size 15 to 20)
#    0.000    1.750    0.000    5.625    0.000    8.000 
#    0.000    1.875    0.000    3.750    0.000    0.000 
#    0.000    0.000    0.000    0.000    0.000    0.000 
#
# Total GULP energy -198283.181000 kJ/mol
# GULP energy per Si atom -12392.698813 kJ/mol
# Density = 2.128793 g / cm^3
# Si number density = 21.336495 Si / 1000 Ang^3
#
#
#
# Elastic Constant Matrix: (Units=GPa)
#
#
# Indices 1 2 3 4 5 6 
#
# 1 114.8861 53.0219 41.6001 -4.1651 6.3936 -27.0795
# 2 53.0219 124.3122 54.5117 18.2478 14.2811 -1.2430
# 3 41.6001 54.5117 87.4890 8.3787 17.1409 -11.3142
# 4 -4.1651 18.2478 8.3787 34.2343 -2.9226 9.1308
# 5 6.3936 14.2811 17.1409 -2.9226 39.7657 -3.6731
# 6 -27.0795 -1.2430 -11.3142 9.1308 -3.6731 39.8774
#
#
#
# Elastic Compliance Matrix: (Units=1/GPa)
#
#
# Indices 1 2 3 4 5 6 
#
# 1 0.014182 -0.005330 -0.003092 0.003357 0.001952 0.007999
# 2 -0.005330 0.013856 -0.005506 -0.005935 -0.002517 -0.003623
# 3 -0.003092 -0.005506 0.018060 -0.003133 -0.005255 0.003086
# 4 0.003357 -0.005935 -0.003133 0.035711 0.004965 -0.006514
# 5 0.001952 -0.002517 -0.005255 0.004965 0.028482 0.001243
# 6 0.007999 -0.003623 0.003086 -0.006514 0.001243 0.032877
#
#
# Mechanical properties :
#
#
# Convention : Reuss Voigt Hill
#
# Bulk Modulus (GPa) = 54.81933 69.43940 62.12936
# Shear Modulus (GPa) = 28.23188 34.61239 31.42214
#
# Velocity S-wave (km/s) = 3.64149 4.03204 3.84173
# Velocity P-wave (km/s) = 6.59008 7.36831 6.99004
#
# Compressibility (1/GPa) = 0.01824174
#
# Stress axis : x y z
#
# Youngs Moduli (GPa) = 70.51083 72.16949 55.37248
#
# Poissons Ratio (x) = 0.38468 0.17121
# Poissons Ratio (y) = 0.37584 0.30488
# Poissons Ratio (z) = 0.21802 0.39736
#
# Static dielectric constant tensor:
#      x y z
#    x 4.283580 -0.200730 0.327620 
#    y -0.200730 3.868110 0.207360 
#    z 0.327620 0.207360 3.750660 
# 
# 
# High freq. dielectric constant tensor:
#      x y z
#    x 1.856870 -0.001440 0.013230 
#    y -0.001440 1.827480 0.024710 
#    z 0.013230 0.024710 1.800690 
# 
# From -- ./inp_files/70389.got.cif
#   From: 2010.06.25/outbox.cif.g09.slc.cpg/sg2_36_cif.got.tgz:70389.got - 2010.06.27 13:26:56.
