data_PCOD8001107
_publ_section_title
;
Structure prediction by ZEFSAII (Michael W. Deem and Ramdas Pophale) SiO2 
 PCOD8001107
Probable space group: P -1
;
_chemical_formula_sum "Si O2"
_cell_formula_units_Z 16
_cell_length_a 21.976128
_cell_length_b 12.813644
_cell_length_c 9.687838
_cell_angle_alpha 35.979881
_cell_angle_beta 136.328581
_cell_angle_gamma 152.614671
_cell_volume 737.094883
_symmetry_space_group_name_H-M "P -1"
_symmetry_group_IT_number 2
_symmetry_cell_setting 'triclinic'
loop_
_space_group_symop_operation_xyz
x,y,z
-x,-y,-z
loop_
_atom_site_type_symbol
_atom_site_label
_atom_site_fract_x
_atom_site_fract_y
_atom_site_fract_z
Si Si1 0.234992 0.891094 0.645686
Si Si2 0.383160 0.759200 0.727046
Si Si3 0.315902 0.233426 0.866675
Si Si4 0.033537 0.884091 0.360571
Si Si5 0.660986 0.054609 0.961725
Si Si6 0.400441 0.195681 0.322603
Si Si7 0.869135 0.610666 0.113773
Si Si8 0.219679 0.452650 0.521075
O O1 0.148581 0.916676 0.545076
O O2 0.137698 0.584810 0.769668
O O3 0.318937 0.093091 0.439809
O O4 0.336683 0.974204 0.839733
O O5 0.272880 0.554443 0.879311
O O6 0.334749 0.624194 0.642325
O O7 0.510348 0.836781 0.895007
O O8 0.417551 0.017780 0.497384
O O9 0.456011 0.504996 0.743302
O O10 0.212101 0.240283 0.677324
O O11 0.320765 0.180657 0.090404
O O12 0.265800 0.994584 0.947289
O O13 0.978928 0.756003 0.256496
O O14 0.919854 0.693360 0.491919
O O15 0.090093 0.168985 0.157081
O O16 0.740200 0.354784 0.741430
#
# Coordination Sequence:
#
# PCOD8001107 Si02
#       8
#     2   2   2   2   2   2   2   2
#     4  11  26  42  64 100 135 167 209 268 330 382
#     4  10  19  41  66  95 130 165 217 264 321 379
#     4  11  23  38  64  96 125 171 216 260 319 379
#     4  10  23  43  68  96 122 174 225 261 312 379
#     4  12  25  41  63  99 137 173 202 265 335 386
#     4  10  21  39  66  95 128 165 216 268 312 385
#     4   9  22  41  68  94 124 168 214 275 310 373
#     4  11  23  42  68  92 129 172 222 268 307 382
#
# _framework density 21.706838999999999
#
# number of rings (size 3 to 8) (size 9 to 14) (size 15 to 20)
#    0.000    1.500    2.500    2.250    7.000    5.000 
#    0.000    1.250    0.000    0.000    0.000    0.000 
#    0.000    0.000    0.000    0.000    0.000    0.000 
#
# Total GULP energy -198488.442550 kJ/mol
# GULP energy per Si atom -12405.527659 kJ/mol
# Density = 2.165743 g / cm^3
# Si number density = 21.706839 Si / 1000 Ang^3
#
#
#
# Elastic Constant Matrix: (Units=GPa)
#
#
# Indices 1 2 3 4 5 6 
#
# 1 91.8046 15.2619 49.7562 4.7491 9.9966 9.5546
# 2 15.2619 41.7484 39.8450 -3.2323 -7.0383 11.6555
# 3 49.7562 39.8450 117.7118 -8.3741 -5.4319 6.3599
# 4 4.7491 -3.2323 -8.3741 18.8721 1.2100 3.1546
# 5 9.9966 -7.0383 -5.4319 1.2100 39.8703 -6.5201
# 6 9.5546 11.6555 6.3599 3.1546 -6.5201 23.5702
#
#
#
# Elastic Compliance Matrix: (Units=1/GPa)
#
#
# Indices 1 2 3 4 5 6 
#
# 1 0.016467 0.001887 -0.007948 -0.005936 -0.005721 -0.006252
# 2 0.001887 0.041858 -0.013671 0.003449 0.002060 -0.017667
# 3 -0.007948 -0.013671 0.016739 0.006025 0.002555 0.005366
# 4 -0.005936 0.003449 0.006025 0.059265 -0.000345 -0.008953
# 5 -0.005721 0.002060 0.002555 -0.000345 0.028641 0.008580
# 6 -0.006252 -0.017667 0.005366 -0.008953 0.008580 0.055821
#
#
# Mechanical properties :
#
#
# Convention : Reuss Voigt Hill
#
# Bulk Modulus (GPa) = 28.09007 51.22120 39.65563
# Shear Modulus (GPa) = 18.51016 26.22263 22.36639
#
# Velocity S-wave (km/s) = 2.92333 3.47945 3.21344
# Velocity P-wave (km/s) = 4.93591 6.30794 5.66363
#
# Compressibility (1/GPa) = 0.03559977
#
# Stress axis : x y z
#
# Youngs Moduli (GPa) = 60.72667 23.89040 59.74009
#
# Poissons Ratio (x) = -0.04508 0.47480
# Poissons Ratio (y) = -0.11459 0.81673
# Poissons Ratio (z) = 0.48265 0.32662
#
# Static dielectric constant tensor:
#      x y z
#    x 3.794030 -0.036010 0.105620 
#    y -0.036010 3.728690 -0.234650 
#    z 0.105620 -0.234650 3.991470 
# 
# 
# High freq. dielectric constant tensor:
#      x y z
#    x 1.854240 0.001010 0.008530 
#    y 0.001010 1.830390 -0.017620 
#    z 0.008530 -0.017620 1.861490 
# 
# From -- ./inp_files/345897.got.cif
#   From: 2010.06.25/outbox.cif.g09.slc.cpg/sg2_173_cif.got.tgz:345897.got - 2010.06.27 13:26:56.
