data_PCOD8001975
_publ_section_title
;
Structure prediction by ZEFSAII (Michael W. Deem and Ramdas Pophale) SiO2 
 PCOD8001975
Probable space group: P -1
;
_chemical_formula_sum "Si O2"
_cell_formula_units_Z 14
_cell_length_a 22.654298
_cell_length_b 9.522254
_cell_length_c 18.259967
_cell_angle_alpha 37.074209
_cell_angle_beta 163.422654
_cell_angle_gamma 141.138980
_cell_volume 675.268055
_symmetry_space_group_name_H-M "P -1"
_symmetry_group_IT_number 2
_symmetry_cell_setting 'triclinic'
loop_
_space_group_symop_operation_xyz
x,y,z
-x,-y,-z
loop_
_atom_site_type_symbol
_atom_site_label
_atom_site_fract_x
_atom_site_fract_y
_atom_site_fract_z
Si Si1 0.458786 0.270412 0.998901
Si Si2 0.022916 0.617238 0.874988
Si Si3 0.177408 0.752811 0.655372
Si Si4 0.114393 0.156619 0.239452
Si Si5 0.833001 0.768998 0.128472
Si Si6 0.424948 0.929503 0.221180
Si Si7 0.151074 0.148105 0.564523
O O1 0.319211 0.305800 0.746548
O O2 0.500000 0.500000 0.000000
O O3 0.685513 0.207305 0.270706
O O4 0.358595 0.052458 0.016274
O O5 0.880207 0.746131 0.710425
O O6 0.953297 0.670504 0.687830
O O7 0.000796 0.339983 0.977842
O O8 0.267532 0.700960 0.141329
O O9 0.205407 0.499417 0.831277
O O10 0.943954 0.772903 0.339814
O O11 0.253665 0.951277 0.721001
O O12 0.336858 0.127941 0.478282
O O13 0.971703 0.911262 0.172401
O O14 0.617201 0.889696 0.837098
O O15 0.000000 0.000000 0.500000
#
# Coordination Sequence:
#
# PCOD8001975 Si02
#       7
#     2   2   2   2   2   2   2
#     4  12  23  37  64  94 126 167 205 263 325 375
#     4  10  21  39  57  94 126 169 207 260 308 374
#     4  11  21  38  58  92 130 161 207 260 312 372
#     4  10  20  35  64  91 128 165 213 251 313 377
#     4  10  20  34  61  91 122 160 208 253 310 369
#     4  11  18  36  58  94 119 160 209 252 307 375
#     4  12  23  39  61  93 132 161 211 264 313 373
#
# _framework density 20.732506999999998
#
# number of rings (size 3 to 8) (size 9 to 14) (size 15 to 20)
#    0.000    1.143    7.143    0.857    2.000    0.000 
#    0.000    0.000    0.000    4.286    0.000    0.000 
#    0.000    0.000    0.000    0.000    0.000    0.000 
#
# Total GULP energy -173497.830848 kJ/mol
# GULP energy per Si atom -12392.702203 kJ/mol
# Density = 2.068532 g / cm^3
# Si number density = 20.732507 Si / 1000 Ang^3
#
#
#
# Elastic Constant Matrix: (Units=GPa)
#
#
# Indices 1 2 3 4 5 6 
#
# 1 90.8580 41.1634 42.9508 -5.6748 7.2106 0.5224
# 2 41.1634 107.0744 25.6483 -8.5943 -2.8235 6.5522
# 3 42.9508 25.6483 84.5564 -6.8962 20.1401 -4.5076
# 4 -5.6748 -8.5943 -6.8962 25.1019 2.7102 -4.9039
# 5 7.2106 -2.8235 20.1401 2.7102 46.3473 -0.8347
# 6 0.5224 6.5522 -4.5076 -4.9039 -0.8347 42.0078
#
#
#
# Elastic Compliance Matrix: (Units=1/GPa)
#
#
# Indices 1 2 3 4 5 6 
#
# 1 0.016379 -0.004597 -0.006969 0.000152 0.000187 -0.000213
# 2 -0.004597 0.011820 -0.001655 0.002006 0.002007 -0.001690
# 3 -0.006969 -0.001655 0.018016 0.004078 -0.007037 0.002614
# 4 0.000152 0.002006 0.004078 0.043114 -0.004103 0.005074
# 5 0.000187 0.002007 -0.007037 -0.004103 0.024948 -0.001054
# 6 -0.000213 -0.001690 0.002614 0.005074 -0.001054 0.024923
#
#
# Mechanical properties :
#
#
# Convention : Reuss Voigt Hill
#
# Bulk Modulus (GPa) = 50.57099 55.77931 53.17515
# Shear Modulus (GPa) = 29.03022 34.20649 31.61835
#
# Velocity S-wave (km/s) = 3.74602 4.06630 3.90944
# Velocity P-wave (km/s) = 6.56927 7.00065 6.78839
#
# Compressibility (1/GPa) = 0.01977418
#
# Stress axis : x y z
#
# Youngs Moduli (GPa) = 61.05276 84.59969 55.50528
#
# Poissons Ratio (x) = 0.38893 0.38681
# Poissons Ratio (y) = 0.28068 0.09184
# Poissons Ratio (z) = 0.42547 0.13998
#
# Static dielectric constant tensor:
#      x y z
#    x 3.626110 0.299190 0.309920 
#    y 0.299190 3.840880 -0.160400 
#    z 0.309920 -0.160400 3.612430 
# 
# 
# High freq. dielectric constant tensor:
#      x y z
#    x 1.800220 0.025510 0.035340 
#    y 0.025510 1.810090 -0.016820 
#    z 0.035340 -0.016820 1.792430 
# 
# From -- ./inp_files/280120.got.cif
#   From: 2010.06.25/outbox.cif.g09.slc.cpg/sg2_141_cif.got.tgz:280120.got - 2010.06.27 13:26:56.
