data_PCOD8001469
_publ_section_title
;
Structure prediction by ZEFSAII (Michael W. Deem and Ramdas Pophale) SiO2 
 PCOD8001469
Probable space group: P -1
;
_chemical_formula_sum "Si O2"
_cell_formula_units_Z 16
_cell_length_a 9.218204
_cell_length_b 20.822201
_cell_length_c 12.532446
_cell_angle_alpha 39.989639
_cell_angle_beta 130.573562
_cell_angle_gamma 152.535563
_cell_volume 709.454510
_symmetry_space_group_name_H-M "P -1"
_symmetry_group_IT_number 2
_symmetry_cell_setting 'triclinic'
loop_
_space_group_symop_operation_xyz
x,y,z
-x,-y,-z
loop_
_atom_site_type_symbol
_atom_site_label
_atom_site_fract_x
_atom_site_fract_y
_atom_site_fract_z
Si Si1 0.674979 0.173996 0.830630
Si Si2 0.213964 0.269655 0.971339
Si Si3 0.123156 0.510885 0.221990
Si Si4 0.884680 0.938394 0.236617
Si Si5 0.947330 0.611815 0.878675
Si Si6 0.740493 0.227015 0.545791
Si Si7 0.839621 0.781790 0.232673
Si Si8 0.236237 0.929819 0.545039
O O1 0.491111 0.189065 0.779675
O O2 0.688372 0.209449 0.668543
O O3 0.032278 0.296408 0.885639
O O4 0.500000 0.000000 0.000000
O O5 0.576940 0.443844 0.939548
O O6 0.095381 0.189223 0.898428
O O7 0.098800 0.117249 0.163310
O O8 0.974316 0.394848 0.193811
O O9 0.465699 0.612376 0.288096
O O10 0.893517 0.393829 0.361503
O O11 0.134008 0.631869 0.037334
O O12 0.960704 0.933037 0.158693
O O13 0.950685 0.869336 0.428702
O O14 0.068351 0.774677 0.733068
O O15 0.975027 0.235928 0.608163
O O16 0.399896 0.070492 0.529352
O O17 0.500000 0.000000 0.500000
#
# Coordination Sequence:
#
# PCOD8001469 Si02
#       8
#     2   2   2   2   2   2   2   2
#     4   9  22  41  62  87 119 158 201 244 294 355
#     4   9  20  38  62  86 118 158 196 243 299 354
#     4  10  20  34  58  88 124 155 195 241 302 355
#     4  11  21  38  61  87 118 158 199 244 295 349
#     4  10  21  36  56  91 123 154 192 248 300 348
#     4  11  21  39  61  87 119 159 200 244 297 352
#     4  10  20  32  60  91 118 145 202 251 297 342
#     4  12  23  36  60  90 123 150 198 249 293 349
#
# _framework density 22.552538999999999
#
# number of rings (size 3 to 8) (size 9 to 14) (size 15 to 20)
#    0.000    1.750    2.500    1.500    3.500    5.500 
#    0.000    2.500    0.000    4.500    0.000    0.000 
#    0.000    0.000    0.000    0.000    0.000    0.000 
#
# Total GULP energy -198230.785451 kJ/mol
# GULP energy per Si atom -12389.424091 kJ/mol
# Density = 2.250121 g / cm^3
# Si number density = 22.552539 Si / 1000 Ang^3
#
#
#
# Elastic Constant Matrix: (Units=GPa)
#
#
# Indices 1 2 3 4 5 6 
#
# 1 75.5595 7.6806 31.5257 3.7831 14.8810 24.4298
# 2 7.6806 58.0285 16.4061 -0.7492 8.3254 18.3705
# 3 31.5257 16.4061 120.8000 -3.9507 3.2770 13.4871
# 4 3.7831 -0.7492 -3.9507 34.3757 7.4188 1.7516
# 5 14.8810 8.3254 3.2770 7.4188 32.8550 2.0231
# 6 24.4298 18.3705 13.4871 1.7516 2.0231 23.4316
#
#
#
# Elastic Compliance Matrix: (Units=1/GPa)
#
#
# Indices 1 2 3 4 5 6 
#
# 1 0.026806 0.009601 -0.004358 0.001066 -0.012411 -0.031975
# 2 0.009601 0.027460 -0.002589 0.002877 -0.009887 -0.029410
# 3 -0.004358 -0.002589 0.009681 0.001205 0.001343 0.000795
# 4 0.001066 0.002877 0.001205 0.031197 -0.008025 -0.005700
# 5 -0.012411 -0.009887 0.001343 -0.008025 0.039187 0.017135
# 6 -0.031975 -0.029410 0.000795 -0.005700 0.017135 0.097561
#
#
# Mechanical properties :
#
#
# Convention : Reuss Voigt Hill
#
# Bulk Modulus (GPa) = 14.43932 40.62364 27.53148
# Shear Modulus (GPa) = 20.02645 31.38419 25.70532
#
# Velocity S-wave (km/s) = 2.98315 3.73447 3.37975
# Velocity P-wave (km/s) = 4.27575 6.05368 5.24066
#
# Compressibility (1/GPa) = 0.06925532
#
# Stress axis : x y z
#
# Youngs Moduli (GPa) = 37.30503 36.41599 103.29127
#
# Poissons Ratio (x) = -0.34963 0.45016
# Poissons Ratio (y) = -0.35817 0.26744
# Poissons Ratio (z) = 0.16258 0.09429
#
# Static dielectric constant tensor:
#      x y z
#    x 4.148510 0.312620 0.165170 
#    y 0.312620 3.870920 0.159610 
#    z 0.165170 0.159610 4.145780 
# 
# 
# High freq. dielectric constant tensor:
#      x y z
#    x 1.860490 0.021680 0.007260 
#    y 0.021680 1.876830 0.008840 
#    z 0.007260 0.008840 1.899120 
# 
# From -- ./inp_files/405439.got.cif
#   From: 2010.06.25/outbox.cif.g09.slc.cpg/sg2_203_cif.got.tgz:405439.got - 2010.06.27 13:26:56.
