data_PCOD8001664
_publ_section_title
;
Structure prediction by ZEFSAII (Michael W. Deem and Ramdas Pophale) SiO2 
 PCOD8001664
Probable space group: P -1
;
_chemical_formula_sum "Si O2"
_cell_formula_units_Z 14
_cell_length_a 10.916852
_cell_length_b 25.119996
_cell_length_c 11.988962
_cell_angle_alpha 146.721239
_cell_angle_beta 155.541064
_cell_angle_gamma 31.808666
_cell_volume 687.484266
_symmetry_space_group_name_H-M "P -1"
_symmetry_group_IT_number 2
_symmetry_cell_setting 'triclinic'
loop_
_space_group_symop_operation_xyz
x,y,z
-x,-y,-z
loop_
_atom_site_type_symbol
_atom_site_label
_atom_site_fract_x
_atom_site_fract_y
_atom_site_fract_z
Si Si1 0.172018 0.074972 0.307339
Si Si2 0.122123 0.702495 0.876639
Si Si3 0.900663 0.624364 0.133916
Si Si4 0.320626 0.240783 0.594703
Si Si5 0.516123 0.474688 0.839670
Si Si6 0.358811 0.728294 0.686035
Si Si7 0.157816 0.339798 0.211647
O O1 0.265699 0.134317 0.387772
O O2 0.935577 0.160728 0.346008
O O3 0.500000 0.000000 0.500000
O O4 0.000000 0.000000 0.000000
O O5 0.396624 0.586550 0.873991
O O6 0.834028 0.719093 0.582898
O O7 0.983633 0.716772 0.913336
O O8 0.299490 0.782741 0.143175
O O9 0.842561 0.671741 0.293172
O O10 0.213027 0.642427 0.378790
O O11 0.579708 0.687714 0.907790
O O12 0.000000 0.500000 0.000000
O O13 0.276167 0.418588 0.514079
O O14 0.500000 0.500000 0.000000
O O15 0.892293 0.401810 0.004819
O O16 0.556678 0.743635 0.770726
#
# Coordination Sequence:
#
# PCOD8001664 Si02
#       7
#     2   2   2   2   2   2   2
#     4  11  23  45  69  85 112 150 208 269 311 362
#     4  11  21  36  58  86 127 159 203 244 284 353
#     4  11  24  39  56  87 131 165 195 247 297 352
#     4  11  23  38  62  91 116 156 208 245 308 360
#     4  10  20  34  51  82 121 175 211 217 266 340
#     4  11  24  41  61  92 117 159 212 240 308 368
#     4  11  22  37  57  86 125 165 203 242 282 352
#
# _framework density 20.364101000000002
#
# number of rings (size 3 to 8) (size 9 to 14) (size 15 to 20)
#    0.000    1.143    0.000    9.857    6.000    0.000 
#    0.000    0.000    0.000    5.143    0.000    0.000 
#    0.000    0.000    0.000    0.000    0.000    0.000 
#
# Total GULP energy -173550.855436 kJ/mol
# GULP energy per Si atom -12396.489674 kJ/mol
# Density = 2.031775 g / cm^3
# Si number density = 20.364101 Si / 1000 Ang^3
#
#
#
# Elastic Constant Matrix: (Units=GPa)
#
#
# Indices 1 2 3 4 5 6 
#
# 1 111.4451 49.6058 37.2459 1.2899 18.8551 -5.3467
# 2 49.6058 108.6019 40.3820 -5.3217 2.0984 -1.2429
# 3 37.2459 40.3820 135.9562 -3.3408 14.8745 7.1641
# 4 1.2899 -5.3217 -3.3408 43.0555 9.4701 6.4779
# 5 18.8551 2.0984 14.8745 9.4701 37.4444 -5.4464
# 6 -5.3467 -1.2429 7.1641 6.4779 -5.4464 24.0247
#
#
#
# Elastic Compliance Matrix: (Units=1/GPa)
#
#
# Indices 1 2 3 4 5 6 
#
# 1 0.012740 -0.005153 -0.001501 -0.000285 -0.005179 0.001919
# 2 -0.005153 0.012535 -0.002644 0.000760 0.002857 0.000733
# 3 -0.001501 -0.002644 0.009283 0.002018 -0.003975 -0.004684
# 4 -0.000285 0.000760 0.002018 0.026949 -0.008960 -0.009923
# 5 -0.005179 0.002857 -0.003975 -0.008960 0.034515 0.010421
# 6 0.001919 0.000733 -0.004684 -0.009923 0.010421 0.048524
#
#
# Mechanical properties :
#
#
# Convention : Reuss Voigt Hill
#
# Bulk Modulus (GPa) = 62.64850 67.83008 65.23929
# Shear Modulus (GPa) = 29.68018 36.15622 32.91820
#
# Velocity S-wave (km/s) = 3.82183 4.21823 4.02491
# Velocity P-wave (km/s) = 7.09268 7.55682 7.32843
#
# Compressibility (1/GPa) = 0.01596207
#
# Stress axis : x y z
#
# Youngs Moduli (GPa) = 78.49328 79.77521 107.72100
#
# Poissons Ratio (x) = 0.41108 0.16170
# Poissons Ratio (y) = 0.40447 0.28483
# Poissons Ratio (z) = 0.11783 0.21093
#
# Static dielectric constant tensor:
#      x y z
#    x 3.832870 0.262080 0.474120 
#    y 0.262080 5.693740 0.487670 
#    z 0.474120 0.487670 4.667410 
# 
# 
# High freq. dielectric constant tensor:
#      x y z
#    x 1.800100 0.001710 0.011060 
#    y 0.001710 1.760750 -0.019340 
#    z 0.011060 -0.019340 1.823180 
# 
# From -- ./inp_files/439616.got.cif
#   From: 2010.06.25/outbox.cif.g09.slc.cpg/sg2_220_cif.got.tgz:439616.got - 2010.06.27 13:26:56.
