data_PCOD8001711
_publ_section_title
;
Structure prediction by ZEFSAII (Michael W. Deem and Ramdas Pophale) SiO2 
 PCOD8001711
Probable space group: P -1
;
_chemical_formula_sum "Si O2"
_cell_formula_units_Z 16
_cell_length_a 6.126773
_cell_length_b 12.905357
_cell_length_c 22.332282
_cell_angle_alpha 23.414680
_cell_angle_beta 74.428867
_cell_angle_gamma 62.309707
_cell_volume 555.173196
_symmetry_space_group_name_H-M "P -1"
_symmetry_group_IT_number 2
_symmetry_cell_setting 'triclinic'
loop_
_space_group_symop_operation_xyz
x,y,z
-x,-y,-z
loop_
_atom_site_type_symbol
_atom_site_label
_atom_site_fract_x
_atom_site_fract_y
_atom_site_fract_z
Si Si1 0.791895 0.905955 0.931056
Si Si2 0.163535 0.166651 0.277640
Si Si3 0.810818 0.871661 0.327580
Si Si4 0.190905 0.124081 0.431076
Si Si5 0.681233 0.132379 0.695310
Si Si6 0.664809 0.146269 0.313754
Si Si7 0.686508 0.122764 0.079368
Si Si8 0.187852 0.132799 0.918186
O O1 0.988677 0.028079 0.859570
O O2 0.591371 0.075612 0.797481
O O3 0.648388 0.974806 0.971879
O O4 0.956019 0.543027 0.090882
O O5 0.324155 0.090611 0.371335
O O6 0.982811 0.020759 0.367781
O O7 0.353053 0.030454 0.275484
O O8 0.000000 0.500000 0.500000
O O9 0.994665 0.012726 0.244729
O O10 0.651558 0.953267 0.360233
O O11 0.616437 0.024293 0.200486
O O12 0.003063 0.488163 0.271984
O O13 0.412798 0.912257 0.581488
O O14 0.000000 0.000000 0.500000
O O15 0.500000 0.500000 0.500000
O O16 0.474349 0.503953 0.115085
O O17 0.626798 0.998308 0.087433
O O18 0.000000 0.000000 0.000000
#
# Coordination Sequence:
#
# PCOD8001711 Si02
#       8
#     2   2   2   2   2   2   2   2
#     4   9  19  36  53  73 105 138 170 215 264 312
#     4   9  19  36  53  73 105 138 170 215 264 312
#     4  10  21  36  52  74 108 140 173 222 269 315
#     4   9  18  35  55  76 107 144 177 218 269 317
#     4  10  21  34  52  76 100 132 175 216 260 311
#     4  10  20  34  54  80 106 138 178 220 267 320
#     4  10  20  34  54  80 106 138 178 220 267 320
#     4   9  18  35  55  76 107 144 177 218 269 317
#
# _framework density 28.819837
#
# number of rings (size 3 to 8) (size 9 to 14) (size 15 to 20)
#    0.000    2.500    0.000    1.500    0.000    3.000 
#    0.000   11.250    0.000    0.000    0.000    0.000 
#    0.000    0.000    0.000    0.000    0.000    0.000 
#
# Total GULP energy -198349.341583 kJ/mol
# GULP energy per Si atom -12396.833849 kJ/mol
# Density = 2.875424 g / cm^3
# Si number density = 28.819837 Si / 1000 Ang^3
#
#
#
# Elastic Constant Matrix: (Units=GPa)
#
#
# Indices 1 2 3 4 5 6 
#
# 1 156.6568 110.8005 28.5686 46.1074 3.1760 34.3685
# 2 110.8005 341.8265 145.0587 40.6471 -0.4529 5.4242
# 3 28.5686 145.0587 201.7256 35.8190 1.3649 5.8692
# 4 46.1074 40.6471 35.8190 71.2065 15.6390 4.1042
# 5 3.1760 -0.4529 1.3649 15.6390 37.0291 19.9129
# 6 34.3685 5.4242 5.8692 4.1042 19.9129 76.9188
#
#
#
# Elastic Compliance Matrix: (Units=1/GPa)
#
#
# Indices 1 2 3 4 5 6 
#
# 1 0.012502 -0.004183 0.002807 -0.007987 0.005666 -0.006546
# 2 -0.004183 0.005688 -0.003817 0.001516 -0.001131 0.001971
# 3 0.002807 -0.003817 0.008068 -0.004064 0.002179 -0.001948
# 4 -0.007987 0.001516 -0.004064 0.022646 -0.011721 0.005598
# 5 0.005666 -0.001131 0.002179 -0.011721 0.037696 -0.011752
# 6 -0.006546 0.001971 -0.001948 0.005598 -0.011752 0.018679
#
#
# Mechanical properties :
#
#
# Convention : Reuss Voigt Hill
#
# Bulk Modulus (GPa) = 62.99792 141.00717 102.00254
# Shear Modulus (GPa) = 41.33884 64.74963 53.04423
#
# Velocity S-wave (km/s) = 3.79144 4.74508 4.29481
# Velocity P-wave (km/s) = 6.40885 8.89126 7.75009
#
# Compressibility (1/GPa) = 0.01587354
#
# Stress axis : x y z
#
# Youngs Moduli (GPa) = 79.98993 175.81655 123.95245
#
# Poissons Ratio (x) = 0.73536 -0.34799
# Poissons Ratio (y) = 0.33456 0.47307
# Poissons Ratio (z) = -0.22457 0.67102
#
# Static dielectric constant tensor:
#      x y z
#    x 6.791620 0.378720 -0.152120 
#    y 0.378720 6.185630 1.166890 
#    z -0.152120 1.166890 4.696260 
# 
# 
# High freq. dielectric constant tensor:
#      x y z
#    x 2.284820 0.009340 -0.009940 
#    y 0.009340 2.231620 0.053700 
#    z -0.009940 0.053700 2.131830 
# 
# From -- ./inp_files/176381.got.cif
#   From: 2010.06.25/outbox.cif.g09.slc.cpg/sg2_89_cif.got.tgz:176381.got - 2010.06.27 13:26:56.
