data_PCOD8001403
_publ_section_title
;
Structure prediction by ZEFSAII (Michael W. Deem and Ramdas Pophale) SiO2 
 PCOD8001403
Probable space group: P -1
;
_chemical_formula_sum "Si O2"
_cell_formula_units_Z 16
_cell_length_a 12.927414
_cell_length_b 12.615305
_cell_length_c 5.265507
_cell_angle_alpha 85.854795
_cell_angle_beta 100.044168
_cell_angle_gamma 110.426060
_cell_volume 792.328757
_symmetry_space_group_name_H-M "P -1"
_symmetry_group_IT_number 2
_symmetry_cell_setting 'triclinic'
loop_
_space_group_symop_operation_xyz
x,y,z
-x,-y,-z
loop_
_atom_site_type_symbol
_atom_site_label
_atom_site_fract_x
_atom_site_fract_y
_atom_site_fract_z
Si Si1 0.595045 0.264177 0.639903
Si Si2 0.800170 0.201024 0.768702
Si Si3 0.261724 0.934178 0.759983
Si Si4 0.930669 0.451661 0.728537
Si Si5 0.624310 0.834505 0.122180
Si Si6 0.522114 0.087933 0.269353
Si Si7 0.292891 0.487796 0.386544
Si Si8 0.373432 0.410615 0.942431
O O1 0.700064 0.242463 0.817767
O O2 0.480751 0.193232 0.734260
O O3 0.591606 0.217509 0.361493
O O4 0.605067 0.394219 0.617904
O O5 0.778246 0.124546 0.518704
O O6 0.903153 0.316137 0.740330
O O7 0.820341 0.131257 0.034082
O O8 0.391444 0.940848 0.880644
O O9 0.267279 0.067021 0.725826
O O10 0.822831 0.489738 0.667336
O O11 0.000000 0.500000 0.500000
O O12 0.000000 0.500000 0.000000
O O13 0.639831 0.720597 0.055994
O O14 0.596238 0.905102 0.867629
O O15 0.500000 0.000000 0.500000
O O16 0.309131 0.432551 0.666607
O O17 0.302948 0.413620 0.163463
O O18 0.500000 0.500000 0.000000
#
# Coordination Sequence:
#
# PCOD8001403 Si02
#       8
#     2   2   2   2   2   2   2   2
#     4  10  20  32  52  76 119 163 203 244 288 357
#     4  10  22  36  56  88 121 145 186 256 324 363
#     4  11  21  34  51  82 121 165 200 249 291 357
#     4  11  23  44  74  98 117 149 201 271 346 386
#     4  12  22  32  54  78 120 178 219 229 286 355
#     4  11  20  31  48  76 115 164 219 246 284 335
#     4  11  25  42  59  91 126 162 211 265 306 365
#     4  12  25  39  58  86 132 183 219 241 286 357
#
# _framework density 20.193639000000001
#
# number of rings (size 3 to 8) (size 9 to 14) (size 15 to 20)
#    0.000    1.000    3.750    4.500    1.750    2.000 
#    0.000    0.000    0.000    0.000    0.000   17.500 
#    0.000    0.000    0.000    0.000    0.000    0.000 
#
# Total GULP energy -198210.191022 kJ/mol
# GULP energy per Si atom -12388.136939 kJ/mol
# Density = 2.014768 g / cm^3
# Si number density = 20.193639 Si / 1000 Ang^3
#
#
#
# Elastic Constant Matrix: (Units=GPa)
#
#
# Indices 1 2 3 4 5 6 
#
# 1 61.8222 44.4933 38.2277 0.7684 -12.0928 2.8144
# 2 44.4933 190.5931 66.7240 11.6225 -14.6667 -6.8615
# 3 38.2277 66.7240 134.3679 -4.9079 -10.9122 -5.0597
# 4 0.7684 11.6225 -4.9079 28.9104 1.3368 -6.8453
# 5 -12.0928 -14.6667 -10.9122 1.3368 28.6997 -3.6104
# 6 2.8144 -6.8615 -5.0597 -6.8453 -3.6104 31.3270
#
#
#
# Elastic Compliance Matrix: (Units=1/GPa)
#
#
# Indices 1 2 3 4 5 6 
#
# 1 0.022608 -0.003315 -0.004466 -0.001012 0.005800 -0.003031
# 2 -0.003315 0.007288 -0.002624 -0.003131 0.001598 0.000970
# 3 -0.004466 -0.002624 0.010296 0.003436 0.000826 0.002336
# 4 -0.001012 -0.003131 0.003436 0.038468 -0.001481 0.008195
# 5 0.005800 0.001598 0.000826 -0.001481 0.039007 0.004134
# 6 -0.003031 0.000970 0.002336 0.008195 0.004134 0.035051
#
#
# Mechanical properties :
#
#
# Convention : Reuss Voigt Hill
#
# Bulk Modulus (GPa) = 51.59394 76.18591 63.88992
# Shear Modulus (GPa) = 27.77953 33.60997 30.69475
#
# Velocity S-wave (km/s) = 3.71301 4.08411 3.90297
# Velocity P-wave (km/s) = 6.63227 7.74916 7.21237
#
# Compressibility (1/GPa) = 0.01938212
#
# Stress axis : x y z
#
# Youngs Moduli (GPa) = 44.23227 137.20730 97.12233
#
# Poissons Ratio (x) = 0.45491 0.43372
# Poissons Ratio (y) = 0.14665 0.25485
# Poissons Ratio (z) = 0.19753 0.36003
#
# Static dielectric constant tensor:
#      x y z
#    x 3.411640 -0.034640 -0.115880 
#    y -0.034640 4.237430 0.148110 
#    z -0.115880 0.148110 3.824920 
# 
# 
# High freq. dielectric constant tensor:
#      x y z
#    x 1.732260 -0.004930 -0.027230 
#    y -0.004930 1.814580 0.008020 
#    z -0.027230 0.008020 1.795380 
# 
# From -- ./inp_files/70055.got.cif
#   From: 2010.06.25/outbox.cif.g09.slc.cpg/sg2_36_cif.got.tgz:70055.got - 2010.06.27 13:26:56.
