data_PCOD8001287
_publ_section_title
;
Structure prediction by ZEFSAII (Michael W. Deem and Ramdas Pophale) SiO2 
 PCOD8001287
Probable space group: P -1
;
_chemical_formula_sum "Si O2"
_cell_formula_units_Z 16
_cell_length_a 8.258232
_cell_length_b 8.711561
_cell_length_c 13.970323
_cell_angle_alpha 51.605226
_cell_angle_beta 108.003066
_cell_angle_gamma 108.591884
_cell_volume 738.213428
_symmetry_space_group_name_H-M "P -1"
_symmetry_group_IT_number 2
_symmetry_cell_setting 'triclinic'
loop_
_space_group_symop_operation_xyz
x,y,z
-x,-y,-z
loop_
_atom_site_type_symbol
_atom_site_label
_atom_site_fract_x
_atom_site_fract_y
_atom_site_fract_z
Si Si1 0.253772 0.539050 0.582580
Si Si2 0.943821 0.872749 0.633522
Si Si3 0.367495 0.484597 0.281629
Si Si4 0.828387 0.165886 0.868038
Si Si5 0.424691 0.379661 0.125983
Si Si6 0.245471 0.666039 0.737480
Si Si7 0.820799 0.743863 0.019727
Si Si8 0.054659 0.801890 0.333756
O O1 0.456991 0.528299 0.623350
O O2 0.205061 0.661343 0.619349
O O3 0.200778 0.666021 0.435115
O O4 0.139087 0.319995 0.639688
O O5 0.771617 0.712434 0.642934
O O6 0.101434 0.757014 0.733280
O O7 0.914883 0.005795 0.667099
O O8 0.000000 0.000000 0.500000
O O9 0.307875 0.687584 0.225239
O O10 0.396313 0.508565 0.163949
O O11 0.925489 0.139845 0.795689
O O12 0.751425 0.939797 0.972750
O O13 0.972897 0.246972 0.942076
O O14 0.557217 0.227599 0.241186
O O15 0.237978 0.269487 0.097943
O O16 0.500000 0.500000 0.000000
O O17 0.260136 0.440836 0.857811
#
# Coordination Sequence:
#
# PCOD8001287 Si02
#       8
#     2   2   2   2   2   2   2   2
#     4  10  22  42  67  91 130 171 211 267 326 380
#     4  12  24  42  67  99 129 173 218 266 324 386
#     4  11  24  43  66  98 131 168 221 268 320 388
#     4  11  23  40  65  92 131 169 214 266 324 386
#     4   9  21  41  66  93 127 171 212 269 321 376
#     4  10  19  44  65  90 132 165 212 274 318 379
#     4  10  20  41  63  89 127 167 212 263 322 375
#     4  11  23  42  65  93 131 174 211 265 328 384
#
# _framework density 21.673950000000001
#
# number of rings (size 3 to 8) (size 9 to 14) (size 15 to 20)
#    0.000    1.500    3.750    0.750    1.750    2.500 
#   11.250    5.625    0.000    0.000    0.000    0.000 
#    0.000    0.000    0.000    0.000    0.000    0.000 
#
# Total GULP energy -198237.971374 kJ/mol
# GULP energy per Si atom -12389.873211 kJ/mol
# Density = 2.162462 g / cm^3
# Si number density = 21.673950 Si / 1000 Ang^3
#
#
#
# Elastic Constant Matrix: (Units=GPa)
#
#
# Indices 1 2 3 4 5 6 
#
# 1 114.6606 46.1764 45.1327 -6.8133 27.9845 -0.4607
# 2 46.1764 75.1786 39.8801 -1.3827 20.7037 0.4513
# 3 45.1327 39.8801 84.0164 -0.6354 9.9480 10.7355
# 4 -6.8133 -1.3827 -0.6354 36.2320 3.6719 9.5985
# 5 27.9845 20.7037 9.9480 3.6719 39.3104 8.6589
# 6 -0.4607 0.4513 10.7355 9.5985 8.6589 27.7084
#
#
#
# Elastic Compliance Matrix: (Units=1/GPa)
#
#
# Indices 1 2 3 4 5 6 
#
# 1 0.014562 -0.003702 -0.005630 0.002192 -0.008136 0.004267
# 2 -0.003702 0.022153 -0.008281 -0.000643 -0.008096 0.005539
# 3 -0.005630 -0.008281 0.019434 0.000934 0.005461 -0.009519
# 4 0.002192 -0.000643 0.000934 0.030968 -0.002061 -0.010399
# 5 -0.008136 -0.008096 0.005461 -0.002061 0.037174 -0.013022
# 6 0.004267 0.005539 -0.009519 -0.010399 -0.013022 0.047430
#
#
# Mechanical properties :
#
#
# Convention : Reuss Voigt Hill
#
# Bulk Modulus (GPa) = 47.79448 59.58158 53.68803
# Shear Modulus (GPa) = 23.37313 30.16125 26.76719
#
# Velocity S-wave (km/s) = 3.28746 3.73445 3.51806
# Velocity P-wave (km/s) = 6.04229 6.79297 6.42860
#
# Compressibility (1/GPa) = 0.02092292
#
# Stress axis : x y z
#
# Youngs Moduli (GPa) = 68.67315 45.14131 51.45526
#
# Poissons Ratio (x) = 0.16711 0.28972
# Poissons Ratio (y) = 0.25422 0.42608
# Poissons Ratio (z) = 0.38666 0.37379
#
# Static dielectric constant tensor:
#      x y z
#    x 4.013830 0.495880 0.294670 
#    y 0.495880 4.360450 0.241730 
#    z 0.294670 0.241730 4.008840 
# 
# 
# High freq. dielectric constant tensor:
#      x y z
#    x 1.839880 0.018500 0.015410 
#    y 0.018500 1.848940 0.011480 
#    z 0.015410 0.011480 1.859620 
# 
# From -- ./inp_files/494435.got.cif
#   From: 2010.06.25/outbox.cif.g09.slc.cpg/sg2_248_cif.got.tgz:494435.got - 2010.06.27 13:26:56.
