data_PCOD8001207
_publ_section_title
;
Structure prediction by ZEFSAII (Michael W. Deem and Ramdas Pophale) SiO2 
 PCOD8001207
Probable space group: P -1
;
_chemical_formula_sum "Si O2"
_cell_formula_units_Z 14
_cell_length_a 9.525030
_cell_length_b 20.681725
_cell_length_c 11.840252
_cell_angle_alpha 30.756823
_cell_angle_beta 116.050972
_cell_angle_gamma 136.763676
_cell_volume 691.088171
_symmetry_space_group_name_H-M "P -1"
_symmetry_group_IT_number 2
_symmetry_cell_setting 'triclinic'
loop_
_space_group_symop_operation_xyz
x,y,z
-x,-y,-z
loop_
_atom_site_type_symbol
_atom_site_label
_atom_site_fract_x
_atom_site_fract_y
_atom_site_fract_z
Si Si1 0.183902 0.488408 0.825309
Si Si2 0.371324 0.730545 0.302306
Si Si3 0.112113 0.935020 0.665333
Si Si4 0.620030 0.268327 0.267564
Si Si5 0.086618 0.471667 0.223300
Si Si6 0.718123 0.544849 0.481533
Si Si7 0.170626 0.878153 0.013189
O O1 0.293250 0.599656 0.578429
O O2 0.378064 0.626114 0.788929
O O3 0.943572 0.421687 0.870271
O O4 0.107812 0.296476 0.084144
O O5 0.375615 0.643965 0.323899
O O6 0.192830 0.740015 0.206298
O O7 0.637475 0.954063 0.079195
O O8 0.344559 0.046445 0.499641
O O9 0.000000 0.000000 0.500000
O O10 0.204746 0.979866 0.759244
O O11 0.828509 0.290953 0.336266
O O12 0.688371 0.374611 0.013433
O O13 0.142265 0.391373 0.446755
O O14 0.500000 0.500000 0.500000
O O15 0.901062 0.733087 0.182312
#
# Coordination Sequence:
#
# PCOD8001207 Si02
#       7
#     2   2   2   2   2   2   2
#     4  10  19  42  66  94 118 170 216 258 312 370
#     4  11  22  42  74  93 124 170 224 269 305 388
#     4  12  25  37  63  97 128 162 211 264 319 375
#     4   9  21  42  61  90 126 163 211 255 309 380
#     4   9  20  43  62  90 128 165 210 255 317 378
#     4  12  25  40  65  98 135 165 206 274 330 375
#     4  11  22  43  68  98 124 167 224 264 317 382
#
# _framework density 20.257908
#
# number of rings (size 3 to 8) (size 9 to 14) (size 15 to 20)
#    0.857    0.571    4.286    1.286    4.000    1.714 
#    2.571    0.000    0.000    0.000    0.000    0.000 
#    0.000    0.000    0.000    0.000    0.000    0.000 
#
# Total GULP energy -173518.521323 kJ/mol
# GULP energy per Si atom -12394.180095 kJ/mol
# Density = 2.021180 g / cm^3
# Si number density = 20.257908 Si / 1000 Ang^3
#
#
#
# Elastic Constant Matrix: (Units=GPa)
#
#
# Indices 1 2 3 4 5 6 
#
# 1 101.9675 22.8735 53.9422 -1.3694 -9.5826 10.8442
# 2 22.8735 45.3059 19.6614 1.8405 1.0918 -5.8670
# 3 53.9422 19.6614 112.5777 1.0379 -7.1966 6.4804
# 4 -1.3694 1.8405 1.0379 32.5751 2.0695 -3.5950
# 5 -9.5826 1.0918 -7.1966 2.0695 35.5166 2.1683
# 6 10.8442 -5.8670 6.4804 -3.5950 2.1683 21.7926
#
#
#
# Elastic Compliance Matrix: (Units=1/GPa)
#
#
# Indices 1 2 3 4 5 6 
#
# 1 0.015421 -0.006527 -0.005542 0.000058 0.003732 -0.008145
# 2 -0.006527 0.028215 -0.002739 -0.000207 -0.003905 0.012013
# 3 -0.005542 -0.002739 0.012208 -0.000749 0.001220 -0.001855
# 4 0.000058 -0.000207 -0.000749 0.031497 -0.002305 0.005564
# 5 0.003732 -0.003905 0.001220 -0.002305 0.030070 -0.006643
# 6 -0.008145 0.012013 -0.001855 0.005564 -0.006643 0.055305
#
#
# Mechanical properties :
#
#
# Convention : Reuss Voigt Hill
#
# Bulk Modulus (GPa) = 38.12956 50.31170 44.22063
# Shear Modulus (GPa) = 23.68835 28.86846 26.27841
#
# Velocity S-wave (km/s) = 3.42327 3.77907 3.60556
# Velocity P-wave (km/s) = 5.87264 6.62807 6.26176
#
# Compressibility (1/GPa) = 0.02622637
#
# Stress axis : x y z
#
# Youngs Moduli (GPa) = 64.84739 35.44276 81.91144
#
# Poissons Ratio (x) = 0.23135 0.45396
# Poissons Ratio (y) = 0.42328 0.22437
# Poissons Ratio (z) = 0.35939 0.09708
#
# Static dielectric constant tensor:
#      x y z
#    x 3.377360 -0.031240 -0.141090 
#    y -0.031240 3.720050 0.032330 
#    z -0.141090 0.032330 3.579560 
# 
# 
# High freq. dielectric constant tensor:
#      x y z
#    x 1.762560 0.002310 -0.019880 
#    y 0.002310 1.792410 0.005640 
#    z -0.019880 0.005640 1.792130 
# 
# From -- ./inp_files/345423.got.cif
#   From: 2010.06.25/outbox.cif.g09.slc.cpg/sg2_173_cif.got.tgz:345423.got - 2010.06.27 13:26:56.
