data_PCOD8001786
_publ_section_title
;
Structure prediction by ZEFSAII (Michael W. Deem and Ramdas Pophale) SiO2 
 PCOD8001786
Probable space group: P -1
;
_chemical_formula_sum "Si O2"
_cell_formula_units_Z 10
_cell_length_a 13.772605
_cell_length_b 6.063904
_cell_length_c 5.350116
_cell_angle_alpha 99.088561
_cell_angle_beta 91.833345
_cell_angle_gamma 122.049625
_cell_volume 370.366368
_symmetry_space_group_name_H-M "P -1"
_symmetry_group_IT_number 2
_symmetry_cell_setting 'triclinic'
loop_
_space_group_symop_operation_xyz
x,y,z
-x,-y,-z
loop_
_atom_site_type_symbol
_atom_site_label
_atom_site_fract_x
_atom_site_fract_y
_atom_site_fract_z
Si Si1 0.794800 0.742508 0.786764
Si Si2 0.377404 0.780306 0.568998
Si Si3 0.011722 0.334291 0.185509
Si Si4 0.817106 0.139423 0.470410
Si Si5 0.425893 0.626905 0.044120
O O1 0.730483 0.521962 0.523848
O O2 0.916567 0.798435 0.908518
O O3 0.820803 0.013153 0.711173
O O4 0.704791 0.628954 0.991038
O O5 0.316062 0.949887 0.605447
O O6 0.440253 0.803183 0.838330
O O7 0.461054 0.824502 0.333759
O O8 0.096244 0.541673 0.441785
O O9 0.882053 0.096763 0.232792
O O10 0.000000 0.500000 0.000000
O O11 0.500000 0.500000 0.000000
#
# Coordination Sequence:
#
# PCOD8001786 Si02
#       5
#     2   2   2   2   2
#     4   9  21  35  57  85 113 152 192 232 278 339
#     4   9  21  38  59  83 116 148 186 235 283 334
#     4  10  20  34  56  81 118 152 186 234 283 334
#     4  10  20  36  55  84 115 150 190 232 282 337
#     4  10  20  40  62  82 115 151 186 236 287 331
#
# _framework density 27.000288999999999
#
# number of rings (size 3 to 8) (size 9 to 14) (size 15 to 20)
#    1.200    1.200    0.000    2.400    0.000    2.400 
#    0.000    2.000    0.000    0.000    0.000    0.000 
#    0.000    0.000    0.000    0.000    0.000    0.000 
#
# Total GULP energy -123895.782532 kJ/mol
# GULP energy per Si atom -12389.578253 kJ/mol
# Density = 2.693884 g / cm^3
# Si number density = 27.000289 Si / 1000 Ang^3
#
#
#
# Elastic Constant Matrix: (Units=GPa)
#
#
# Indices 1 2 3 4 5 6 
#
# 1 283.8753 57.8662 111.6375 -27.3132 -13.6072 -28.3703
# 2 57.8662 79.4552 48.9052 -18.9792 -3.9469 11.6536
# 3 111.6375 48.9052 160.8905 -40.8971 -4.1079 -1.4481
# 4 -27.3132 -18.9792 -40.8971 49.5596 -2.4296 4.0707
# 5 -13.6072 -3.9469 -4.1079 -2.4296 52.2857 -14.8659
# 6 -28.3703 11.6536 -1.4481 4.0707 -14.8659 42.7630
#
#
#
# Elastic Compliance Matrix: (Units=1/GPa)
#
#
# Indices 1 2 3 4 5 6 
#
# 1 0.006176 -0.003397 -0.003398 -0.001057 0.002728 0.005957
# 2 -0.003397 0.018631 -0.002455 0.003837 -0.001891 -0.008436
# 3 -0.003398 -0.002455 0.010895 0.006317 -0.000485 -0.001986
# 4 -0.001057 0.003837 0.006317 0.026625 0.000657 -0.003839
# 5 0.002728 -0.001891 -0.000485 0.000657 0.022553 0.010087
# 6 0.005957 -0.008436 -0.001986 -0.003839 0.010087 0.033441
#
#
# Mechanical properties :
#
#
# Convention : Reuss Voigt Hill
#
# Bulk Modulus (GPa) = 58.13401 106.78210 82.45806
# Shear Modulus (GPa) = 35.07433 49.30915 42.19174
#
# Velocity S-wave (km/s) = 3.60812 4.27810 3.95731
# Velocity P-wave (km/s) = 6.23985 8.00232 7.17540
#
# Compressibility (1/GPa) = 0.01720163
#
# Stress axis : x y z
#
# Youngs Moduli (GPa) = 161.91975 53.67505 91.78515
#
# Poissons Ratio (x) = 0.18233 0.31190
# Poissons Ratio (y) = 0.55002 0.22533
# Poissons Ratio (z) = 0.55022 0.13177
#
# Static dielectric constant tensor:
#      x y z
#    x 5.453820 0.260810 -0.323180 
#    y 0.260810 5.261470 0.252980 
#    z -0.323180 0.252980 4.628870 
# 
# 
# High freq. dielectric constant tensor:
#      x y z
#    x 2.103860 0.023720 -0.005790 
#    y 0.023720 2.121380 0.014390 
#    z -0.005790 0.014390 2.081190 
# 
# From -- ./inp_files/2308.got.cif
#   From: 2010.06.25/outbox.cif.g09.slc.cpg/sg2_2_cif.got.tgz:2308.got - 2010.06.27 13:26:56.
