data_PCOD8001782
_publ_section_title
;
Structure prediction by ZEFSAII (Michael W. Deem and Ramdas Pophale) SiO2 
 PCOD8001782
Probable space group: P -1
;
_chemical_formula_sum "Si O2"
_cell_formula_units_Z 16
_cell_length_a 9.993851
_cell_length_b 15.585128
_cell_length_c 16.861117
_cell_angle_alpha 155.669848
_cell_angle_beta 67.068041
_cell_angle_gamma 95.485931
_cell_volume 727.157048
_symmetry_space_group_name_H-M "P -1"
_symmetry_group_IT_number 2
_symmetry_cell_setting 'triclinic'
loop_
_space_group_symop_operation_xyz
x,y,z
-x,-y,-z
loop_
_atom_site_type_symbol
_atom_site_label
_atom_site_fract_x
_atom_site_fract_y
_atom_site_fract_z
Si Si1 0.272468 0.859134 0.933326
Si Si2 0.940310 0.843778 0.486877
Si Si3 0.983219 0.377706 0.018234
Si Si4 0.245676 0.184146 0.356607
Si Si5 0.719574 0.715881 0.230821
Si Si6 0.431152 0.803503 0.679406
Si Si7 0.732730 0.283548 0.775510
Si Si8 0.968451 0.828872 0.005107
O O1 0.326244 0.892524 0.863319
O O2 0.427560 0.532520 0.652383
O O3 0.055614 0.962007 0.064355
O O4 0.274864 0.058717 0.157476
O O5 0.031400 0.526239 0.188652
O O6 0.814732 0.955545 0.691397
O O7 0.121978 0.838926 0.439885
O O8 0.792234 0.033821 0.607127
O O9 0.763166 0.619555 0.232505
O O10 0.997890 0.181818 0.915152
O O11 0.145795 0.219527 0.775803
O O12 0.446898 0.098487 0.269976
O O13 0.077864 0.527933 0.683301
O O14 0.500000 0.000000 0.500000
O O15 0.786230 0.443221 0.942026
O O16 0.265399 0.961830 0.782419
O O17 0.500000 0.500000 0.000000
#
# Coordination Sequence:
#
# PCOD8001782 Si02
#       8
#     2   2   2   2   2   2   2   2
#     4  10  22  40  63  93 126 160 204 261 307 371
#     4   9  20  37  55  76 115 150 191 244 295 344
#     4   9  20  37  54  77 113 150 191 240 295 348
#     4  10  22  39  63  89 122 164 206 255 306 368
#     4  10  20  34  56  81 109 151 193 235 292 352
#     4  10  22  41  63  92 126 163 204 253 317 368
#     4  10  20  35  56  80 112 152 191 241 292 350
#     4  10  22  39  62  88 124 164 201 257 308 366
#
# _framework density 22.003499999999999
#
# number of rings (size 3 to 8) (size 9 to 14) (size 15 to 20)
#    0.000    2.250    0.000    1.500    1.750    8.500 
#    0.000    0.000    0.000    0.000    0.000    0.000 
#    0.000    0.000    0.000    0.000    0.000    0.000 
#
# Total GULP energy -198224.946538 kJ/mol
# GULP energy per Si atom -12389.059159 kJ/mol
# Density = 2.195342 g / cm^3
# Si number density = 22.003500 Si / 1000 Ang^3
#
#
#
# Elastic Constant Matrix: (Units=GPa)
#
#
# Indices 1 2 3 4 5 6 
#
# 1 113.1989 33.8336 29.7960 5.1890 -23.4242 2.6955
# 2 33.8336 102.7967 25.7821 -5.8159 -16.1604 2.7016
# 3 29.7960 25.7821 42.5104 4.8854 -24.8114 -4.1277
# 4 5.1890 -5.8159 4.8854 26.6623 -6.0161 -6.5534
# 5 -23.4242 -16.1604 -24.8114 -6.0161 43.9782 4.6604
# 6 2.6955 2.7016 -4.1277 -6.5534 4.6604 36.0076
#
#
#
# Elastic Compliance Matrix: (Units=1/GPa)
#
#
# Indices 1 2 3 4 5 6 
#
# 1 0.011486 -0.002101 -0.005465 -0.001659 0.002239 -0.001920
# 2 -0.002101 0.012327 -0.006243 0.004169 0.000543 -0.000795
# 3 -0.005465 -0.006243 0.042220 -0.003315 0.017864 0.002802
# 4 -0.001659 0.004169 -0.003315 0.041814 0.003804 0.006549
# 5 0.002239 0.000543 0.017864 0.003804 0.034940 -0.001990
# 6 -0.001920 -0.000795 0.002802 0.006549 -0.001990 0.029746
#
#
# Mechanical properties :
#
#
# Convention : Reuss Voigt Hill
#
# Bulk Modulus (GPa) = 26.03197 48.59217 37.31207
# Shear Modulus (GPa) = 23.47894 32.60258 28.04076
#
# Velocity S-wave (km/s) = 3.27012 3.85346 3.57371
# Velocity P-wave (km/s) = 5.11026 6.47539 5.83290
#
# Compressibility (1/GPa) = 0.03841430
#
# Stress axis : x y z
#
# Youngs Moduli (GPa) = 87.06585 81.12020 23.68543
#
# Poissons Ratio (x) = 0.17043 0.12945
# Poissons Ratio (y) = 0.18292 0.14787
# Poissons Ratio (z) = 0.47584 0.50644
#
# Static dielectric constant tensor:
#      x y z
#    x 4.699180 0.676750 0.144480 
#    y 0.676750 4.234970 -0.030760 
#    z 0.144480 -0.030760 3.972080 
# 
# 
# High freq. dielectric constant tensor:
#      x y z
#    x 1.870930 0.014500 0.001000 
#    y 0.014500 1.860310 -0.007760 
#    z 0.001000 -0.007760 1.856140 
# 
# From -- ./inp_files/505799.got.cif
#   From: 2010.06.25/outbox.cif.g09.slc.cpg/sg2_253_cif.got.tgz:505799.got - 2010.06.27 13:26:56.
