data_PCOD8001838
_publ_section_title
;
Structure prediction by ZEFSAII (Michael W. Deem and Ramdas Pophale) SiO2 
 PCOD8001838
Probable space group: P -1
;
_chemical_formula_sum "Si O2"
_cell_formula_units_Z 14
_cell_length_a 15.035401
_cell_length_b 12.241545
_cell_length_c 14.940888
_cell_angle_alpha 61.906364
_cell_angle_beta 41.217465
_cell_angle_gamma 28.414967
_cell_volume 684.490538
_symmetry_space_group_name_H-M "P -1"
_symmetry_group_IT_number 2
_symmetry_cell_setting 'triclinic'
loop_
_space_group_symop_operation_xyz
x,y,z
-x,-y,-z
loop_
_atom_site_type_symbol
_atom_site_label
_atom_site_fract_x
_atom_site_fract_y
_atom_site_fract_z
Si Si1 0.268991 0.757206 0.700227
Si Si2 0.684127 0.167626 0.877526
Si Si3 0.029173 0.837399 0.577861
Si Si4 0.780072 0.573962 0.735013
Si Si5 0.906804 0.440067 0.491561
Si Si6 0.263766 0.024404 0.682300
Si Si7 0.845659 0.259432 0.031424
O O1 0.635823 0.459159 0.509982
O O2 0.247630 0.660755 0.824655
O O3 0.164107 0.975293 0.735327
O O4 0.027286 0.932323 0.736064
O O5 0.461593 0.468217 0.904785
O O6 0.519073 0.220855 0.058599
O O7 0.755919 0.033636 0.782286
O O8 0.990021 0.774692 0.548499
O O9 0.000000 0.000000 0.500000
O O10 0.759333 0.536919 0.664370
O O11 0.798643 0.709006 0.667417
O O12 0.116817 0.252556 0.644421
O O13 0.637636 0.727925 0.522880
O O14 0.092322 0.164963 0.856069
O O15 0.000000 0.000000 0.000000
#
# Coordination Sequence:
#
# PCOD8001838 Si02
#       7
#     2   2   2   2   2   2   2
#     4  10  20  34  57  86 120 156 192 238 293 352
#     4  11  22  37  59  90 120 156 197 238 295 357
#     4  11  23  40  60  86 124 158 189 245 302 348
#     4  10  22  39  63  86 112 158 201 242 286 344
#     4  10  22  41  60  84 119 154 199 244 288 346
#     4   9  19  32  58  87 114 150 192 247 289 340
#     4   9  18  32  51  85 121 151 186 241 292 336
#
# _framework density 20.453168999999999
#
# number of rings (size 3 to 8) (size 9 to 14) (size 15 to 20)
#    0.000    2.000    1.429    1.714    2.000    6.857 
#    0.000    0.000    0.000    0.857    0.000    0.000 
#    0.000    0.000    0.000    0.000    0.000    0.000 
#
# Total GULP energy -173445.959698 kJ/mol
# GULP energy per Si atom -12388.997121 kJ/mol
# Density = 2.040662 g / cm^3
# Si number density = 20.453169 Si / 1000 Ang^3
#
#
#
# Elastic Constant Matrix: (Units=GPa)
#
#
# Indices 1 2 3 4 5 6 
#
# 1 105.5255 35.4289 53.1858 -0.3454 8.5399 11.8625
# 2 35.4289 85.2445 31.3701 4.9997 1.1433 -1.2649
# 3 53.1858 31.3701 106.2942 3.8760 20.9574 12.2894
# 4 -0.3454 4.9997 3.8760 22.6365 -0.5432 -0.8478
# 5 8.5399 1.1433 20.9574 -0.5432 28.0276 0.4652
# 6 11.8625 -1.2649 12.2894 -0.8478 0.4652 26.4174
#
#
#
# Elastic Compliance Matrix: (Units=1/GPa)
#
#
# Indices 1 2 3 4 5 6 
#
# 1 0.014004 -0.003976 -0.005472 0.001886 0.000088 -0.003874
# 2 -0.003976 0.014770 -0.003314 -0.002538 0.002973 0.003900
# 3 -0.005472 -0.003314 0.015743 -0.002470 -0.009935 -0.004929
# 4 0.001886 -0.002538 -0.002470 0.045302 0.002227 0.001595
# 5 0.000088 0.002973 -0.009935 0.002227 0.042936 0.004040
# 6 -0.003874 0.003900 -0.004929 0.001595 0.004040 0.042054
#
#
# Mechanical properties :
#
#
# Convention : Reuss Voigt Hill
#
# Bulk Modulus (GPa) = 52.65172 59.67041 56.16107
# Shear Modulus (GPa) = 24.19414 27.22161 25.70787
#
# Velocity S-wave (km/s) = 3.44307 3.65214 3.54914
# Velocity P-wave (km/s) = 6.45017 6.85724 6.65682
#
# Compressibility (1/GPa) = 0.01899273
#
# Stress axis : x y z
#
# Youngs Moduli (GPa) = 71.41055 67.70544 63.52189
#
# Poissons Ratio (x) = 0.26918 0.34757
# Poissons Ratio (y) = 0.28391 0.21053
# Poissons Ratio (z) = 0.39073 0.22439
#
# Static dielectric constant tensor:
#      x y z
#    x 3.519740 -0.154440 0.271420 
#    y -0.154440 3.757880 -0.017630 
#    z 0.271420 -0.017630 4.041280 
# 
# 
# High freq. dielectric constant tensor:
#      x y z
#    x 1.772420 -0.018140 0.009350 
#    y -0.018140 1.797460 0.001360 
#    z 0.009350 0.001360 1.802850 
# 
# From -- ./inp_files/436967.got.cif
#   From: 2010.06.25/outbox.cif.g09.slc.cpg/sg2_219_cif.got.tgz:436967.got - 2010.06.27 13:26:56.
