data_PCOD8001131
_publ_section_title
;
Structure prediction by ZEFSAII (Michael W. Deem and Ramdas Pophale) SiO2 
 PCOD8001131
Probable space group: P -1
;
_chemical_formula_sum "Si O2"
_cell_formula_units_Z 14
_cell_length_a 8.067735
_cell_length_b 8.811646
_cell_length_c 10.669763
_cell_angle_alpha 119.940771
_cell_angle_beta 106.979801
_cell_angle_gamma 70.701372
_cell_volume 612.815183
_symmetry_space_group_name_H-M "P -1"
_symmetry_group_IT_number 2
_symmetry_cell_setting 'triclinic'
loop_
_space_group_symop_operation_xyz
x,y,z
-x,-y,-z
loop_
_atom_site_type_symbol
_atom_site_label
_atom_site_fract_x
_atom_site_fract_y
_atom_site_fract_z
Si Si1 0.625654 0.658352 0.507010
Si Si2 0.904227 0.440212 0.071355
Si Si3 0.707049 0.782947 0.317394
Si Si4 0.300563 0.817835 0.182916
Si Si5 0.232373 0.844109 0.466139
Si Si6 0.896482 0.340910 0.429217
Si Si7 0.871196 0.812383 0.791366
O O1 0.700928 0.767303 0.459318
O O2 0.415570 0.705705 0.482362
O O3 0.688782 0.442968 0.408192
O O4 0.715466 0.712851 0.675269
O O5 0.839483 0.609490 0.217749
O O6 0.048486 0.278374 0.099672
O O7 0.735659 0.366068 0.956189
O O8 0.000000 0.500000 0.000000
O O9 0.510421 0.802093 0.226239
O O10 0.772468 0.966990 0.386987
O O11 0.208798 0.856789 0.316618
O O12 0.214812 0.975772 0.131400
O O13 0.081292 0.761541 0.471682
O O14 0.000000 0.500000 0.500000
O O15 0.965258 0.202081 0.276891
#
# Coordination Sequence:
#
# PCOD8001131 Si02
#       7
#     2   2   2   2   2   2   2
#     4  10  19  41  69 102 131 170 216 285 331 394
#     4  12  29  44  66  95 141 185 224 269 334 403
#     4  11  22  47  69 100 134 173 224 278 337 393
#     4  11  24  45  70  98 136 181 218 275 334 403
#     4  11  22  40  74 104 131 168 229 274 338 399
#     4  10  23  36  65 102 138 169 213 282 335 386
#     4  11  22  44  66  95 136 175 224 275 333 384
#
# _framework density 22.845386999999999
#
# number of rings (size 3 to 8) (size 9 to 14) (size 15 to 20)
#    0.000    1.143    4.286    2.143    6.000    0.571 
#    0.000    0.714    0.000    0.000    0.000    0.000 
#    0.000    0.000    0.000    0.000    0.000    0.000 
#
# Total GULP energy -173515.360690 kJ/mol
# GULP energy per Si atom -12393.954335 kJ/mol
# Density = 2.279339 g / cm^3
# Si number density = 22.845387 Si / 1000 Ang^3
#
#
#
# Elastic Constant Matrix: (Units=GPa)
#
#
# Indices 1 2 3 4 5 6 
#
# 1 46.2120 47.5814 30.4883 -5.0909 -3.4428 20.3697
# 2 47.5814 110.5031 30.9854 -17.9972 3.0687 -0.3364
# 3 30.4883 30.9854 76.4659 -7.6797 12.5491 8.1822
# 4 -5.0909 -17.9972 -7.6797 43.5443 6.3899 -4.0987
# 5 -3.4428 3.0687 12.5491 6.3899 29.4557 -4.4220
# 6 20.3697 -0.3364 8.1822 -4.0987 -4.4220 43.4918
#
#
#
# Elastic Compliance Matrix: (Units=1/GPa)
#
#
# Indices 1 2 3 4 5 6 
#
# 1 0.088143 -0.034839 -0.021999 -0.014498 0.020947 -0.036650
# 2 -0.034839 0.024614 0.004564 0.009602 -0.008305 0.015710
# 3 -0.021999 0.004564 0.022096 0.005608 -0.012866 0.005402
# 4 -0.014498 0.009602 0.005608 0.028416 -0.010129 0.007457
# 5 0.020947 -0.008305 -0.012866 -0.010129 0.044356 -0.003899
# 6 -0.036650 0.015710 0.005402 0.007457 -0.003899 0.039570
#
#
# Mechanical properties :
#
#
# Convention : Reuss Voigt Hill
#
# Bulk Modulus (GPa) = 32.99887 50.14345 41.57116
# Shear Modulus (GPa) = 13.81806 31.57343 22.69574
#
# Velocity S-wave (km/s) = 2.46204 3.72162 3.15532
# Velocity P-wave (km/s) = 4.74952 6.36113 5.61347
#
# Compressibility (1/GPa) = 0.03030407
#
# Stress axis : x y z
#
# Youngs Moduli (GPa) = 11.34519 40.62775 45.25622
#
# Poissons Ratio (x) = 1.41545 0.99558
# Poissons Ratio (y) = 0.39526 -0.20653
# Poissons Ratio (z) = 0.24958 -0.18541
#
# Static dielectric constant tensor:
#      x y z
#    x 4.489040 -0.435050 -0.219180 
#    y -0.435050 4.629230 0.096930 
#    z -0.219180 0.096930 3.981460 
# 
# 
# High freq. dielectric constant tensor:
#      x y z
#    x 1.903390 -0.010430 0.002520 
#    y -0.010430 1.928950 -0.004980 
#    z 0.002520 -0.004980 1.869930 
# 
# From -- ./inp_files/159849.got.cif
#   From: 2010.06.25/outbox.cif.g09.slc.cpg/sg2_80_cif.got.tgz:159849.got - 2010.06.27 13:26:56.
