data_PCOD8001909
_publ_section_title
;
Structure prediction by ZEFSAII (Michael W. Deem and Ramdas Pophale) SiO2 
 PCOD8001909
Probable space group: P -1
;
_chemical_formula_sum "Si O2"
_cell_formula_units_Z 14
_cell_length_a 23.384425
_cell_length_b 8.685287
_cell_length_c 17.309901
_cell_angle_alpha 42.968054
_cell_angle_beta 157.758729
_cell_angle_gamma 148.063588
_cell_volume 678.060610
_symmetry_space_group_name_H-M "P -1"
_symmetry_group_IT_number 2
_symmetry_cell_setting 'triclinic'
loop_
_space_group_symop_operation_xyz
x,y,z
-x,-y,-z
loop_
_atom_site_type_symbol
_atom_site_label
_atom_site_fract_x
_atom_site_fract_y
_atom_site_fract_z
Si Si1 0.744525 0.747767 0.000920
Si Si2 0.773885 0.704529 0.340158
Si Si3 0.515223 0.260401 0.769895
Si Si4 0.198762 0.336683 0.329579
Si Si5 0.582852 0.315695 0.094305
Si Si6 0.423604 0.676128 0.346471
Si Si7 0.381957 0.718290 0.564665
O O1 0.727176 0.547644 0.121402
O O2 0.689445 0.573506 0.915556
O O3 0.598913 0.813773 0.811421
O O4 0.967697 0.066512 0.158781
O O5 0.689866 0.468984 0.252776
O O6 0.775813 0.559036 0.473721
O O7 0.637571 0.791218 0.147934
O O8 0.000000 0.000000 0.500000
O O9 0.317617 0.218133 0.526935
O O10 0.609862 0.268005 0.803458
O O11 0.448355 0.984007 0.840827
O O12 0.222487 0.469784 0.224572
O O13 0.293893 0.611910 0.407431
O O14 0.500000 0.500000 0.500000
O O15 0.591320 0.994130 0.483574
#
# Coordination Sequence:
#
# PCOD8001909 Si02
#       7
#     2   2   2   2   2   2   2
#     4  10  22  37  59  88 114 152 194 233 292 346
#     4  10  20  34  59  89 116 151 189 230 292 350
#     4  10  21  39  58  83 122 153 187 244 287 333
#     4  10  22  38  60  85 113 155 199 231 284 347
#     4  10  20  36  56  85 122 148 186 241 285 341
#     4  10  21  40  61  82 116 156 194 240 289 330
#     4  10  20  40  60  83 119 149 190 247 284 336
#
# _framework density 20.647123000000001
#
# number of rings (size 3 to 8) (size 9 to 14) (size 15 to 20)
#    0.000    2.000    1.429    1.714    0.000    2.857 
#    0.000    0.000    0.000    0.000    0.000    0.000 
#    0.000    0.000    0.000    0.000    0.000    0.000 
#
# Total GULP energy -173606.852809 kJ/mol
# GULP energy per Si atom -12400.489486 kJ/mol
# Density = 2.060013 g / cm^3
# Si number density = 20.647123 Si / 1000 Ang^3
#
#
#
# Elastic Constant Matrix: (Units=GPa)
#
#
# Indices 1 2 3 4 5 6 
#
# 1 126.4089 47.5600 23.5343 10.8611 -0.9424 12.5933
# 2 47.5600 124.4077 35.4969 5.8030 15.7497 -3.0012
# 3 23.5343 35.4969 51.6587 18.9101 8.2055 8.0543
# 4 10.8611 5.8030 18.9101 23.9235 8.1656 5.3077
# 5 -0.9424 15.7497 8.2055 8.1656 19.4542 3.4984
# 6 12.5933 -3.0012 8.0543 5.3077 3.4984 41.7581
#
#
#
# Elastic Compliance Matrix: (Units=1/GPa)
#
#
# Indices 1 2 3 4 5 6 
#
# 1 0.010577 -0.004708 -0.000327 -0.005106 0.007221 -0.003421
# 2 -0.004708 0.013725 -0.009488 0.009530 -0.012064 0.004036
# 3 -0.000327 -0.009488 0.035621 -0.026231 0.004459 -0.004493
# 4 -0.005106 0.009530 -0.026231 0.071680 -0.027065 0.000441
# 5 0.007221 -0.012064 0.004459 -0.027065 0.072169 -0.006511
# 6 -0.003421 0.004036 -0.004493 0.000441 -0.006511 0.026625
#
#
# Mechanical properties :
#
#
# Convention : Reuss Voigt Hill
#
# Bulk Modulus (GPa) = 32.38812 57.29530 44.84171
# Shear Modulus (GPa) = 18.53664 30.08612 24.31138
#
# Velocity S-wave (km/s) = 2.99955 3.82142 3.43515
# Velocity P-wave (km/s) = 5.26469 6.87612 6.12364
#
# Compressibility (1/GPa) = 0.03087552
#
# Stress axis : x y z
#
# Youngs Moduli (GPa) = 94.54785 72.85843 28.07352
#
# Poissons Ratio (x) = 0.34305 0.00919
# Poissons Ratio (y) = 0.44517 0.26635
# Poissons Ratio (z) = 0.03096 0.69126
#
# Static dielectric constant tensor:
#      x y z
#    x 4.302220 0.134000 -0.180920 
#    y 0.134000 3.765300 -0.094560 
#    z -0.180920 -0.094560 3.410200 
# 
# 
# High freq. dielectric constant tensor:
#      x y z
#    x 1.828670 0.004660 -0.009740 
#    y 0.004660 1.820580 -0.002800 
#    z -0.009740 -0.002800 1.770940 
# 
# From -- ./inp_files/25163.got.cif
#   From: 2010.06.25/outbox.cif.g09.slc.cpg/sg2_13_cif.got.tgz:25163.got - 2010.06.27 13:26:56.
