data_PCOD8001657
_publ_section_title
;
Structure prediction by ZEFSAII (Michael W. Deem and Ramdas Pophale) SiO2 
 PCOD8001657
Probable space group: P -1
;
_chemical_formula_sum "Si O2"
_cell_formula_units_Z 16
_cell_length_a 17.386342
_cell_length_b 11.388419
_cell_length_c 17.742640
_cell_angle_alpha 149.989831
_cell_angle_beta 32.211864
_cell_angle_gamma 126.259620
_cell_volume 794.454016
_symmetry_space_group_name_H-M "P -1"
_symmetry_group_IT_number 2
_symmetry_cell_setting 'triclinic'
loop_
_space_group_symop_operation_xyz
x,y,z
-x,-y,-z
loop_
_atom_site_type_symbol
_atom_site_label
_atom_site_fract_x
_atom_site_fract_y
_atom_site_fract_z
Si Si1 0.993072 0.356702 0.734406
Si Si2 0.823858 0.087406 0.912758
Si Si3 0.418305 0.073344 0.922264
Si Si4 0.586228 0.984619 0.589882
Si Si5 0.239475 0.425542 0.660962
Si Si6 0.484655 0.503908 0.883527
Si Si7 0.648609 0.534575 0.184559
Si Si8 0.113635 0.793074 0.398749
O O1 0.964335 0.361003 0.670026
O O2 0.104528 0.482236 0.738864
O O3 0.812482 0.539346 0.025397
O O4 0.090560 0.042381 0.505734
O O5 0.810111 0.278513 0.100335
O O6 0.706230 0.267903 0.040719
O O7 0.758492 0.890886 0.886408
O O8 0.018817 0.889853 0.612038
O O9 0.420985 0.137167 0.866694
O O10 0.571905 0.751069 0.631403
O O11 0.444187 0.295204 0.067709
O O12 0.618269 0.203740 0.642464
O O13 0.753879 0.769083 0.381975
O O14 0.537563 0.819061 0.480243
O O15 0.455826 0.469298 0.801235
O O16 0.318100 0.610084 0.133883
#
# Coordination Sequence:
#
# PCOD8001657 Si02
#       8
#     2   2   2   2   2   2   2   2
#     4   9  16  32  50  78 102 129 171 210 260 294
#     4  10  20  34  49  79 108 129 169 210 264 302
#     4  10  21  33  50  78 106 135 167 209 257 301
#     4   9  20  33  52  75 103 138 172 204 249 300
#     4   9  19  32  53  74 104 134 164 214 251 301
#     4  11  19  36  53  77 103 138 172 206 247 306
#     4   9  20  32  56  79 103 129 169 218 254 299
#     4   9  18  31  52  73 105 133 165 213 252 301
#
# _framework density 20.139616
#
# number of rings (size 3 to 8) (size 9 to 14) (size 15 to 20)
#    0.750    1.750    1.250    1.875    0.000    6.000 
#    0.000    0.625    0.000    0.000    0.000    4.375 
#    0.000    0.000    0.000    0.000    0.000    0.000 
#
# Total GULP energy -198209.206912 kJ/mol
# GULP energy per Si atom -12388.075432 kJ/mol
# Density = 2.009378 g / cm^3
# Si number density = 20.139616 Si / 1000 Ang^3
#
#
#
# Elastic Constant Matrix: (Units=GPa)
#
#
# Indices 1 2 3 4 5 6 
#
# 1 40.9655 24.1775 19.4031 11.4195 8.8768 20.9231
# 2 24.1775 64.6843 12.8490 1.0958 4.0785 18.1775
# 3 19.4031 12.8490 29.5738 5.0716 12.8038 11.2857
# 4 11.4195 1.0958 5.0716 17.2422 2.6316 2.2093
# 5 8.8768 4.0785 12.8038 2.6316 21.9500 2.0367
# 6 20.9231 18.1775 11.2857 2.2093 2.0367 23.7766
#
#
#
# Elastic Compliance Matrix: (Units=1/GPa)
#
#
# Indices 1 2 3 4 5 6 
#
# 1 0.072893 -0.010345 -0.015968 -0.035721 -0.009831 -0.044496
# 2 -0.010345 0.021495 -0.001187 0.006671 0.000774 -0.007453
# 3 -0.015968 -0.001187 0.061733 -0.001719 -0.028033 -0.011782
# 4 -0.035721 0.006671 -0.001719 0.078778 0.002948 0.019577
# 5 -0.009831 0.000774 -0.028033 0.002948 0.063940 0.015615
# 6 -0.044496 -0.007453 -0.011782 0.019577 0.015615 0.089347
#
#
# Mechanical properties :
#
#
# Convention : Reuss Voigt Hill
#
# Bulk Modulus (GPa) = 9.88901 27.56476 18.72688
# Shear Modulus (GPa) = 10.48455 17.84670 14.16562
#
# Velocity S-wave (km/s) = 2.28413 2.98005 2.65499
# Velocity P-wave (km/s) = 3.44633 5.05544 4.32636
#
# Compressibility (1/GPa) = 0.10112235
#
# Stress axis : x y z
#
# Youngs Moduli (GPa) = 13.71872 46.52337 16.19870
#
# Poissons Ratio (x) = 0.48127 0.25866
# Poissons Ratio (y) = 0.14192 0.01922
# Poissons Ratio (z) = 0.21906 0.05520
#
# Static dielectric constant tensor:
#      x y z
#    x 3.680210 0.053000 0.271600 
#    y 0.053000 3.153760 0.055820 
#    z 0.271600 0.055820 3.607250 
# 
# 
# High freq. dielectric constant tensor:
#      x y z
#    x 1.780160 0.011100 0.025430 
#    y 0.011100 1.739810 0.010750 
#    z 0.025430 0.010750 1.776950 
# 
# From -- ./inp_files/260228.got.cif
#   From: 2010.06.25/outbox.cif.g09.slc.cpg/sg2_131_cif.got.tgz:260228.got - 2010.06.27 13:26:56.
