data_PCOD8001788
_publ_section_title
;
Structure prediction by ZEFSAII (Michael W. Deem and Ramdas Pophale) SiO2 
 PCOD8001788
Probable space group: P -1
;
_chemical_formula_sum "Si O2"
_cell_formula_units_Z 12
_cell_length_a 9.578010
_cell_length_b 12.901711
_cell_length_c 8.779343
_cell_angle_alpha 35.937424
_cell_angle_beta 72.707763
_cell_angle_gamma 87.688075
_cell_volume 567.768165
_symmetry_space_group_name_H-M "P -1"
_symmetry_group_IT_number 2
_symmetry_cell_setting 'triclinic'
loop_
_space_group_symop_operation_xyz
x,y,z
-x,-y,-z
loop_
_atom_site_type_symbol
_atom_site_label
_atom_site_fract_x
_atom_site_fract_y
_atom_site_fract_z
Si Si1 0.083869 0.272406 0.248410
Si Si2 0.797945 0.938463 0.762823
Si Si3 0.358068 0.573008 0.967998
Si Si4 0.515899 0.026830 0.643715
Si Si5 0.231841 0.703542 0.147577
Si Si6 0.903828 0.631339 0.196443
O O1 0.157125 0.116133 0.355665
O O2 0.194737 0.411486 0.169125
O O3 0.063836 0.393712 0.963534
O O4 0.914171 0.150503 0.519253
O O5 0.622421 0.931036 0.812307
O O6 0.815152 0.783187 0.062231
O O7 0.408447 0.747736 0.623690
O O8 0.500000 0.500000 0.000000
O O9 0.328263 0.632087 0.076696
O O10 0.500000 0.000000 0.500000
O O11 0.342709 0.918626 0.900306
O O12 0.205190 0.568795 0.462857
O O13 0.069102 0.711808 0.132384
#
# Coordination Sequence:
#
# PCOD8001788 Si02
#       6
#     2   2   2   2   2   2
#     4   9  18  35  59  80 111 142 190 232 270 330
#     4   9  19  35  61  81 108 152 189 228 272 336
#     4  11  23  35  57  87 113 146 187 239 277 323
#     4  10  20  34  56  82 110 151 187 226 276 332
#     4  10  21  38  60  82 116 149 187 227 281 337
#     4   9  20  37  62  84 108 153 187 227 280 334
#
# _framework density 21.135386
#
# number of rings (size 3 to 8) (size 9 to 14) (size 15 to 20)
#    1.000    1.333    0.000    4.000    2.333    3.333 
#    0.000    1.667    0.000    0.000    0.000    0.000 
#    0.000    0.000    0.000    0.000    0.000    0.000 
#
# Total GULP energy -148665.329671 kJ/mol
# GULP energy per Si atom -12388.777473 kJ/mol
# Density = 2.108728 g / cm^3
# Si number density = 21.135386 Si / 1000 Ang^3
#
#
#
# Elastic Constant Matrix: (Units=GPa)
#
#
# Indices 1 2 3 4 5 6 
#
# 1 120.3473 2.3192 42.4335 -9.1885 13.2984 7.8500
# 2 2.3192 26.4948 6.1795 -15.1729 -1.3550 11.1859
# 3 42.4335 6.1795 133.5812 -16.2044 -0.0808 18.4061
# 4 -9.1885 -15.1729 -16.2044 28.5201 10.3693 -7.0205
# 5 13.2984 -1.3550 -0.0808 10.3693 38.4753 -8.0676
# 6 7.8500 11.1859 18.4061 -7.0205 -8.0676 25.6741
#
#
#
# Elastic Compliance Matrix: (Units=1/GPa)
#
#
# Indices 1 2 3 4 5 6 
#
# 1 0.010295 0.003765 -0.002349 0.005154 -0.005540 -0.003435
# 2 0.003765 0.070687 0.004365 0.039821 -0.015637 -0.029103
# 3 -0.002349 0.004365 0.009764 0.006134 -0.002174 -0.007189
# 4 0.005154 0.039821 0.006134 0.065996 -0.020617 -0.011755
# 5 -0.005540 -0.015637 -0.002174 -0.020617 0.036222 0.015810
# 6 -0.003435 -0.029103 -0.007189 -0.011755 0.015810 0.059588
#
#
# Mechanical properties :
#
#
# Convention : Reuss Voigt Hill
#
# Bulk Modulus (GPa) = 9.77439 42.47639 26.12539
# Shear Modulus (GPa) = 18.17577 33.83331 26.00454
#
# Velocity S-wave (km/s) = 2.93570 4.00533 3.51148
# Velocity P-wave (km/s) = 4.01570 6.44446 5.36922
#
# Compressibility (1/GPa) = 0.10230820
#
# Stress axis : x y z
#
# Youngs Moduli (GPa) = 97.13675 14.14680 102.41928
#
# Poissons Ratio (x) = -0.05327 0.24061
# Poissons Ratio (y) = -0.36574 -0.44707
# Poissons Ratio (z) = 0.22820 -0.06175
#
# Static dielectric constant tensor:
#      x y z
#    x 3.838820 0.142290 0.009100 
#    y 0.142290 3.411440 -0.373830 
#    z 0.009100 -0.373830 4.196780 
# 
# 
# High freq. dielectric constant tensor:
#      x y z
#    x 1.834610 0.013840 -0.000740 
#    y 0.013840 1.777560 -0.031480 
#    z -0.000740 -0.031480 1.835200 
# 
# From -- ./inp_files/194852.got.cif
#   From: 2010.06.25/outbox.cif.g09.slc.cpg/sg2_98_cif.got.tgz:194852.got - 2010.06.27 13:26:56.
