data_PCOD8001460
_publ_section_title
;
Structure prediction by ZEFSAII (Michael W. Deem and Ramdas Pophale) SiO2 
 PCOD8001460
Probable space group: P -1
;
_chemical_formula_sum "Si O2"
_cell_formula_units_Z 16
_cell_length_a 15.557883
_cell_length_b 10.342923
_cell_length_c 8.671838
_cell_angle_alpha 75.121330
_cell_angle_beta 135.370056
_cell_angle_gamma 125.066484
_cell_volume 773.798273
_symmetry_space_group_name_H-M "P -1"
_symmetry_group_IT_number 2
_symmetry_cell_setting 'triclinic'
loop_
_space_group_symop_operation_xyz
x,y,z
-x,-y,-z
loop_
_atom_site_type_symbol
_atom_site_label
_atom_site_fract_x
_atom_site_fract_y
_atom_site_fract_z
Si Si1 0.201513 0.575126 0.175255
Si Si2 0.128269 0.615529 0.748296
Si Si3 0.383799 0.659910 0.900822
Si Si4 0.007190 0.011131 0.185904
Si Si5 0.949962 0.269090 0.119128
Si Si6 0.309864 0.244352 0.656479
Si Si7 0.252318 0.291493 0.905742
Si Si8 0.440868 0.612181 0.649915
O O1 0.376762 0.654013 0.407654
O O2 0.114631 0.420887 0.228530
O O3 0.153433 0.523182 0.950102
O O4 0.167035 0.709980 0.131879
O O5 0.285380 0.722755 0.820429
O O6 0.079346 0.723802 0.736260
O O7 0.000000 0.500000 0.500000
O O8 0.294189 0.472762 0.900916
O O9 0.393819 0.663509 0.727936
O O10 0.550944 0.771183 0.151284
O O11 0.931321 0.101405 0.117990
O O12 0.179417 0.101911 0.427490
O O13 0.907945 0.827673 0.181753
O O14 0.000000 0.000000 0.000000
O O15 0.238940 0.225060 0.738115
O O16 0.371784 0.421237 0.614788
O O17 0.379896 0.288177 0.162283
#
# Coordination Sequence:
#
# PCOD8001460 Si02
#       8
#     2   2   2   2   2   2   2   2
#     4   9  18  33  58  78 115 147 183 234 287 314
#     4  10  20  32  58  89 111 139 192 242 276 330
#     4   9  19  34  61  91 107 141 198 236 282 329
#     4  12  24  37  56  82 120 153 190 228 282 345
#     4   9  21  36  52  82 113 148 186 233 285 322
#     4   9  19  38  58  81 117 149 187 240 275 333
#     4   9  21  34  59  88 113 152 185 231 292 334
#     4   9  16  36  61  85 114 145 188 239 283 330
#
# _framework density 20.677223999999999
#
# number of rings (size 3 to 8) (size 9 to 14) (size 15 to 20)
#    0.750    1.750    1.250    2.625    3.500    1.000 
#    0.000    3.125    0.000    1.500    0.000    0.000 
#    0.000    0.000    0.000    0.000    0.000    0.000 
#
# Total GULP energy -198210.506176 kJ/mol
# GULP energy per Si atom -12388.156636 kJ/mol
# Density = 2.063016 g / cm^3
# Si number density = 20.677224 Si / 1000 Ang^3
#
#
#
# Elastic Constant Matrix: (Units=GPa)
#
#
# Indices 1 2 3 4 5 6 
#
# 1 96.8539 4.6494 37.3055 13.9773 -7.4813 1.5760
# 2 4.6494 37.0665 18.5434 9.8364 -3.8003 7.6552
# 3 37.3055 18.5434 162.2941 6.9184 -3.1833 2.6708
# 4 13.9773 9.8364 6.9184 24.6450 2.8467 7.6839
# 5 -7.4813 -3.8003 -3.1833 2.8467 24.2667 2.1373
# 6 1.5760 7.6552 2.6708 7.6839 2.1373 23.2382
#
#
#
# Elastic Compliance Matrix: (Units=1/GPa)
#
#
# Indices 1 2 3 4 5 6 
#
# 1 0.012837 0.002265 -0.002779 -0.008272 0.004831 0.000994
# 2 0.002265 0.034159 -0.003618 -0.012425 0.007699 -0.007590
# 3 -0.002779 -0.003618 0.007154 0.000994 -0.000627 0.000287
# 4 -0.008272 -0.012425 0.000994 0.055050 -0.009699 -0.012771
# 5 0.004831 0.007699 -0.000627 -0.009699 0.045290 -0.003750
# 6 0.000994 -0.007590 0.000287 -0.012771 -0.003750 0.050000
#
#
# Mechanical properties :
#
#
# Convention : Reuss Voigt Hill
#
# Bulk Modulus (GPa) = 21.79250 46.35678 34.07464
# Shear Modulus (GPa) = 21.92514 30.14438 26.03476
#
# Velocity S-wave (km/s) = 3.25984 3.82233 3.55223
# Velocity P-wave (km/s) = 4.97302 6.47674 5.77404
#
# Compressibility (1/GPa) = 0.04588735
#
# Stress axis : x y z
#
# Youngs Moduli (GPa) = 77.89924 29.27515 139.77568
#
# Poissons Ratio (x) = -0.06631 0.38837
# Poissons Ratio (y) = -0.17645 0.50570
# Poissons Ratio (z) = 0.21645 0.10592
#
# Static dielectric constant tensor:
#      x y z
#    x 3.897160 -0.076690 0.137090 
#    y -0.076690 3.292430 -0.065060 
#    z 0.137090 -0.065060 3.913870 
# 
# 
# High freq. dielectric constant tensor:
#      x y z
#    x 1.809710 0.003480 0.011140 
#    y 0.003480 1.752730 -0.012560 
#    z 0.011140 -0.012560 1.817950 
# 
# From -- ./inp_files/305292.got.cif
#   From: 2010.06.25/outbox.cif.g09.slc.cpg/sg2_153_cif.got.tgz:305292.got - 2010.06.27 13:26:56.
