data_PCOD8001804
_publ_section_title
;
Structure prediction by ZEFSAII (Michael W. Deem and Ramdas Pophale) SiO2 
 PCOD8001804
Probable space group: P -1
;
_chemical_formula_sum "Si O2"
_cell_formula_units_Z 16
_cell_length_a 12.429724
_cell_length_b 9.906247
_cell_length_c 13.088573
_cell_angle_alpha 119.473786
_cell_angle_beta 133.821586
_cell_angle_gamma 92.121971
_cell_volume 808.822556
_symmetry_space_group_name_H-M "P -1"
_symmetry_group_IT_number 2
_symmetry_cell_setting 'triclinic'
loop_
_space_group_symop_operation_xyz
x,y,z
-x,-y,-z
loop_
_atom_site_type_symbol
_atom_site_label
_atom_site_fract_x
_atom_site_fract_y
_atom_site_fract_z
Si Si1 0.556234 0.109980 0.224531
Si Si2 0.554557 0.255774 0.699533
Si Si3 0.336113 0.824107 0.461818
Si Si4 0.163799 0.216618 0.703981
Si Si5 0.068938 0.482361 0.826069
Si Si6 0.423010 0.184502 0.983146
Si Si7 0.913671 0.522832 0.551100
Si Si8 0.682255 0.614363 0.342038
O O1 0.532643 0.128771 0.335930
O O2 0.747714 0.304761 0.389633
O O3 0.567683 0.932643 0.146577
O O4 0.391068 0.079238 0.033096
O O5 0.608276 0.264192 0.620364
O O6 0.465492 0.371883 0.689592
O O7 0.391530 0.032963 0.541241
O O8 0.746658 0.360954 0.929292
O O9 0.114525 0.664122 0.278720
O O10 0.098305 0.347799 0.728666
O O11 0.269647 0.219366 0.874178
O O12 0.282492 0.278191 0.701316
O O13 0.000000 0.000000 0.500000
O O14 0.043672 0.602376 0.768821
O O15 0.613972 0.398293 0.190677
O O16 0.860602 0.672947 0.550593
O O17 0.000000 0.500000 0.500000
#
# Coordination Sequence:
#
# PCOD8001804 Si02
#       8
#     2   2   2   2   2   2   2   2
#     4   9  20  36  57  82 124 156 194 244 308 363
#     4  11  23  41  67  85 119 167 210 256 294 363
#     4  10  23  43  62  87 121 162 213 251 302 357
#     4  12  22  33  56  90 125 150 193 256 308 355
#     4  11  22  39  63  89 121 161 205 248 309 367
#     4  10  20  34  56  86 118 152 192 245 302 373
#     4  10  20  36  55  89 129 160 186 247 314 369
#     4  11  22  37  59  91 121 154 204 246 307 370
#
# _framework density 19.781842000000001
#
# number of rings (size 3 to 8) (size 9 to 14) (size 15 to 20)
#    0.000    1.500    2.500    3.750    1.750    1.000 
#    0.000    5.625    0.000    1.500    0.000    0.000 
#    0.000    0.000    0.000    0.000    0.000    0.000 
#
# Total GULP energy -198227.164960 kJ/mol
# GULP energy per Si atom -12389.197810 kJ/mol
# Density = 1.973682 g / cm^3
# Si number density = 19.781842 Si / 1000 Ang^3
#
#
#
# Elastic Constant Matrix: (Units=GPa)
#
#
# Indices 1 2 3 4 5 6 
#
# 1 118.6196 46.0292 45.0831 -18.4317 -13.8588 1.4176
# 2 46.0292 94.3777 35.0854 -28.1790 -5.4972 -7.3718
# 3 45.0831 35.0854 81.0323 -24.8148 -18.3673 -4.3144
# 4 -18.4317 -28.1790 -24.8148 41.5629 -1.3295 4.1258
# 5 -13.8588 -5.4972 -18.3673 -1.3295 28.3047 -4.4701
# 6 1.4176 -7.3718 -4.3144 4.1258 -4.4701 27.6266
#
#
#
# Elastic Compliance Matrix: (Units=1/GPa)
#
#
# Indices 1 2 3 4 5 6 
#
# 1 0.012050 -0.004239 -0.004585 0.000005 0.001757 -0.002182
# 2 -0.004239 0.015885 -0.001939 0.007440 0.000597 0.003139
# 3 -0.004585 -0.001939 0.021719 0.009653 0.012509 0.003692
# 4 0.000005 0.007440 0.009653 0.035193 0.009324 -0.000255
# 5 0.001757 0.000597 0.012509 0.009324 0.046140 0.008096
# 6 -0.002182 0.003139 0.003692 -0.000255 0.008096 0.039071
#
#
# Mechanical properties :
#
#
# Convention : Reuss Voigt Hill
#
# Bulk Modulus (GPa) = 35.55092 60.71388 48.13240
# Shear Modulus (GPa) = 24.88051 30.68762 27.78406
#
# Velocity S-wave (km/s) = 3.55032 3.94293 3.75176
# Velocity P-wave (km/s) = 5.90058 7.17546 6.56902
#
# Compressibility (1/GPa) = 0.02812867
#
# Stress axis : x y z
#
# Youngs Moduli (GPa) = 82.98772 62.95146 46.04221
#
# Poissons Ratio (x) = 0.26685 0.21111
# Poissons Ratio (y) = 0.35178 0.08927
# Poissons Ratio (z) = 0.38050 0.12205
#
# Static dielectric constant tensor:
#      x y z
#    x 3.459800 0.215730 0.033790 
#    y 0.215730 4.022190 -0.163180 
#    z 0.033790 -0.163180 3.772040 
# 
# 
# High freq. dielectric constant tensor:
#      x y z
#    x 1.747030 0.007220 0.005800 
#    y 0.007220 1.782850 -0.010470 
#    z 0.005800 -0.010470 1.776580 
# 
# From -- ./inp_files/329322.got.cif
#   From: 2010.06.25/outbox.cif.g09.slc.cpg/sg2_165_cif.got.tgz:329322.got - 2010.06.27 13:26:56.
