data_PCOD8001150
_publ_section_title
;
Structure prediction by ZEFSAII (Michael W. Deem and Ramdas Pophale) SiO2 
 PCOD8001150
Probable space group: P -1
;
_chemical_formula_sum "Si O2"
_cell_formula_units_Z 12
_cell_length_a 7.614796
_cell_length_b 13.572910
_cell_length_c 7.380807
_cell_angle_alpha 135.406845
_cell_angle_beta 114.812672
_cell_angle_gamma 69.314961
_cell_volume 484.352492
_symmetry_space_group_name_H-M "P -1"
_symmetry_group_IT_number 2
_symmetry_cell_setting 'triclinic'
loop_
_space_group_symop_operation_xyz
x,y,z
-x,-y,-z
loop_
_atom_site_type_symbol
_atom_site_label
_atom_site_fract_x
_atom_site_fract_y
_atom_site_fract_z
Si Si1 0.557559 0.653372 0.764886
Si Si2 0.389816 0.929216 0.523037
Si Si3 0.319351 0.931489 0.964204
Si Si4 0.108500 0.347151 0.370401
Si Si5 0.039398 0.938090 0.166325
Si Si6 0.404671 0.357915 0.817612
O O1 0.500000 0.500000 0.500000
O O2 0.371646 0.764529 0.790361
O O3 0.726860 0.687981 0.752129
O O4 0.636147 0.661803 0.013713
O O5 0.156890 0.954453 0.427012
O O6 0.435347 0.762564 0.334794
O O7 0.500000 0.000000 0.500000
O O8 0.476666 0.990535 0.829508
O O9 0.178487 0.998789 0.152307
O O10 0.173972 0.973653 0.786491
O O11 0.202411 0.344576 0.608197
O O12 0.000000 0.500000 0.500000
O O13 0.967918 0.224743 0.114409
O O14 0.500000 0.500000 0.000000
#
# Coordination Sequence:
#
# PCOD8001150 Si02
#       6
#     2   2   2   2   2   2
#     4  12  25  45  70 104 141 190 238 288 358 428
#     4  10  19  41  71 101 138 188 230 284 362 409
#     4  10  21  40  73 100 138 188 237 287 355 421
#     4  12  26  44  68 104 144 186 240 293 352 420
#     4  10  20  39  70 103 136 183 232 294 351 410
#     4  12  23  44  73 100 143 186 230 293 354 415
#
# _framework density 24.775347
#
# number of rings (size 3 to 8) (size 9 to 14) (size 15 to 20)
#    0.000    1.000    6.667    2.000    0.000    1.333 
#    0.000    2.500    0.000    0.000    0.000    0.000 
#    0.000    0.000    0.000    0.000    0.000    0.000 
#
# Total GULP energy -148747.346206 kJ/mol
# GULP energy per Si atom -12395.612184 kJ/mol
# Density = 2.471896 g / cm^3
# Si number density = 24.775347 Si / 1000 Ang^3
#
#
#
# Elastic Constant Matrix: (Units=GPa)
#
#
# Indices 1 2 3 4 5 6 
#
# 1 70.7572 40.6488 31.2515 -21.0848 8.3812 -31.2785
# 2 40.6488 210.2596 101.2834 -13.9701 8.4601 -43.8728
# 3 31.2515 101.2834 169.5195 -34.7517 25.0888 -9.4920
# 4 -21.0848 -13.9701 -34.7517 69.3686 4.0616 4.4978
# 5 8.3812 8.4601 25.0888 4.0616 42.5991 -9.6472
# 6 -31.2785 -43.8728 -9.4920 4.4978 -9.6472 40.5383
#
#
#
# Elastic Compliance Matrix: (Units=1/GPa)
#
#
# Indices 1 2 3 4 5 6 
#
# 1 0.024770 0.001054 -0.003235 0.004840 0.000692 0.019122
# 2 0.001054 0.009582 -0.006324 -0.001876 0.004267 0.010926
# 3 -0.003235 -0.006324 0.011858 0.004701 -0.007551 -0.008882
# 4 0.004840 -0.001876 0.004701 0.018197 -0.005185 -0.000448
# 5 0.000692 0.004267 -0.007551 -0.005185 0.029943 0.011085
# 6 0.019122 0.010926 -0.008882 -0.000448 0.011085 0.051855
#
#
# Mechanical properties :
#
#
# Convention : Reuss Voigt Hill
#
# Bulk Modulus (GPa) = 34.24814 88.54487 61.39650
# Shear Modulus (GPa) = 28.91037 48.99137 38.95087
#
# Velocity S-wave (km/s) = 3.41970 4.45165 3.96935
# Velocity P-wave (km/s) = 5.42641 7.88921 6.77073
#
# Compressibility (1/GPa) = 0.02919867
#
# Stress axis : x y z
#
# Youngs Moduli (GPa) = 40.37159 104.36318 84.33374
#
# Poissons Ratio (x) = -0.10996 0.27286
# Poissons Ratio (y) = -0.04254 0.53329
# Poissons Ratio (z) = 0.13062 0.65995
#
# Static dielectric constant tensor:
#      x y z
#    x 4.460960 -0.163140 0.375870 
#    y -0.163140 5.240440 -0.515450 
#    z 0.375870 -0.515450 5.148150 
# 
# 
# High freq. dielectric constant tensor:
#      x y z
#    x 1.994780 0.000020 0.000890 
#    y 0.000020 2.008440 -0.015850 
#    z 0.000890 -0.015850 1.999780 
# 
# From -- ./inp_files/204872.got.cif
#   From: 2010.06.25/outbox.cif.g09.slc.cpg/sg2_103_cif.got.tgz:204872.got - 2010.06.27 13:26:56.
