data_PCOD8001148
_publ_section_title
;
Structure prediction by ZEFSAII (Michael W. Deem and Ramdas Pophale) SiO2 
 PCOD8001148
Probable space group: P -1
;
_chemical_formula_sum "Si O2"
_cell_formula_units_Z 16
_cell_length_a 12.524455
_cell_length_b 21.013872
_cell_length_c 18.568166
_cell_angle_alpha 19.813441
_cell_angle_beta 27.879079
_cell_angle_gamma 38.939143
_cell_volume 728.595189
_symmetry_space_group_name_H-M "P -1"
_symmetry_group_IT_number 2
_symmetry_cell_setting 'triclinic'
loop_
_space_group_symop_operation_xyz
x,y,z
-x,-y,-z
loop_
_atom_site_type_symbol
_atom_site_label
_atom_site_fract_x
_atom_site_fract_y
_atom_site_fract_z
Si Si1 0.872444 0.305404 0.829773
Si Si2 0.100841 0.581308 0.579699
Si Si3 0.430916 0.108184 0.617879
Si Si4 0.975143 0.203714 0.149559
Si Si5 0.325570 0.446853 0.227903
Si Si6 0.777700 0.059917 0.792401
Si Si7 0.432721 0.456168 0.671190
Si Si8 0.298616 0.200611 0.754642
O O1 0.656199 0.351408 0.953365
O O2 0.000000 0.500000 0.500000
O O3 0.078240 0.283358 0.783966
O O4 0.760517 0.105785 0.062115
O O5 0.371245 0.648054 0.312043
O O6 0.945719 0.638550 0.549848
O O7 0.104070 0.699865 0.527133
O O8 0.997864 0.347220 0.913721
O O9 0.701666 0.113007 0.436182
O O10 0.375540 0.281858 0.422658
O O11 0.408970 0.148364 0.671773
O O12 0.065955 0.021630 0.268175
O O13 0.150403 0.318188 0.989582
O O14 0.500000 0.500000 0.000000
O O15 0.805080 0.994942 0.927110
O O16 0.500000 0.000000 0.000000
O O17 0.500000 0.500000 0.500000
O O18 0.483040 0.646521 0.490641
#
# Coordination Sequence:
#
# PCOD8001148 Si02
#       8
#     2   2   2   2   2   2   2   2
#     4  12  27  49  72 102 145 192 240 291 353 434
#     4  11  21  39  72  99 136 179 241 286 338 413
#     4  12  29  45  68 109 152 182 234 293 370 425
#     4  11  23  46  66 105 146 176 230 301 349 418
#     4  12  25  44  71 109 140 189 233 294 361 413
#     4  12  23  41  74 101 129 187 244 284 346 423
#     4  10  19  41  70  97 130 181 238 285 337 407
#     4  12  24  46  73 103 138 190 240 296 345 426
#
# _framework density 21.960068
#
# number of rings (size 3 to 8) (size 9 to 14) (size 15 to 20)
#    0.000    0.500    7.500    1.875    3.500    1.000 
#    0.000    0.625    0.000    0.000    0.000    0.000 
#    0.000    0.000    0.000    0.000    0.000    0.000 
#
# Total GULP energy -198297.686281 kJ/mol
# GULP energy per Si atom -12393.605393 kJ/mol
# Density = 2.191009 g / cm^3
# Si number density = 21.960068 Si / 1000 Ang^3
#
#
#
# Elastic Constant Matrix: (Units=GPa)
#
#
# Indices 1 2 3 4 5 6 
#
# 1 109.0273 37.2065 27.7837 6.2587 -12.3980 6.3806
# 2 37.2065 140.6157 24.1545 1.1843 -2.4119 6.8155
# 3 27.7837 24.1545 57.2065 -2.2207 -7.0796 2.6570
# 4 6.2587 1.1843 -2.2207 37.9193 6.0221 -12.4906
# 5 -12.3980 -2.4119 -7.0796 6.0221 34.7897 -1.8386
# 6 6.3806 6.8155 2.6570 -12.4906 -1.8386 49.5706
#
#
#
# Elastic Compliance Matrix: (Units=1/GPa)
#
#
# Indices 1 2 3 4 5 6 
#
# 1 0.011725 -0.002181 -0.004376 -0.003243 0.003611 -0.001658
# 2 -0.002181 0.008134 -0.002435 -0.000179 -0.000719 -0.000779
# 3 -0.004376 -0.002435 0.020967 0.001769 0.002248 0.000303
# 4 -0.003243 -0.000179 0.001769 0.030493 -0.005673 0.007820
# 5 0.003611 -0.000719 0.002248 -0.005673 0.031381 -0.000752
# 6 -0.001658 -0.000779 0.000303 0.007820 -0.000752 0.022420
#
#
# Mechanical properties :
#
#
# Convention : Reuss Voigt Hill
#
# Bulk Modulus (GPa) = 43.77856 53.90431 48.84143
# Shear Modulus (GPa) = 33.17465 38.96956 36.07211
#
# Velocity S-wave (km/s) = 3.89096 4.21713 4.05733
# Velocity P-wave (km/s) = 6.33758 6.95069 6.65120
#
# Compressibility (1/GPa) = 0.02284223
#
# Stress axis : x y z
#
# Youngs Moduli (GPa) = 85.28622 122.94247 47.69499
#
# Poissons Ratio (x) = 0.26816 0.20870
# Poissons Ratio (y) = 0.18603 0.11613
# Poissons Ratio (z) = 0.37319 0.29934
#
# Static dielectric constant tensor:
#      x y z
#    x 3.981510 0.010300 -0.328290 
#    y 0.010300 4.437300 -0.148320 
#    z -0.328290 -0.148320 3.933530 
# 
# 
# High freq. dielectric constant tensor:
#      x y z
#    x 1.876300 -0.008400 -0.018980 
#    y -0.008400 1.885140 -0.019580 
#    z -0.018980 -0.019580 1.831350 
# 
# From -- ./inp_files/570672.got.cif
#   From: 2010.06.25/outbox.cif.g09.slc.cpg/sg2_286_cif.got.tgz:570672.got - 2010.06.27 13:26:56.
