data_PCOD8001755
_publ_section_title
;
Structure prediction by ZEFSAII (Michael W. Deem and Ramdas Pophale) SiO2 
 PCOD8001755
Probable space group: P -1
;
_chemical_formula_sum "Si O2"
_cell_formula_units_Z 12
_cell_length_a 11.077895
_cell_length_b 8.652425
_cell_length_c 7.280471
_cell_angle_alpha 125.753502
_cell_angle_beta 52.388833
_cell_angle_gamma 124.277586
_cell_volume 424.825083
_symmetry_space_group_name_H-M "P -1"
_symmetry_group_IT_number 2
_symmetry_cell_setting 'triclinic'
loop_
_space_group_symop_operation_xyz
x,y,z
-x,-y,-z
loop_
_atom_site_type_symbol
_atom_site_label
_atom_site_fract_x
_atom_site_fract_y
_atom_site_fract_z
Si Si1 0.771104 0.414803 0.210217
Si Si2 0.566540 0.593185 0.305814
Si Si3 0.274721 0.423278 0.230272
Si Si4 0.168796 0.000447 0.624643
Si Si5 0.940423 0.426417 0.704859
Si Si6 0.156619 0.965498 0.032776
O O1 0.596674 0.446520 0.342925
O O2 0.868549 0.535301 0.386088
O O3 0.878996 0.518668 0.004505
O O4 0.753327 0.179346 0.065259
O O5 0.379959 0.569827 0.399816
O O6 0.661202 0.824077 0.430106
O O7 0.629955 0.515957 0.007678
O O8 0.097333 0.445711 0.350388
O O9 0.259149 0.195546 0.139624
O O10 0.164299 0.808826 0.372477
O O11 0.023935 0.081845 0.751783
O O12 0.139230 0.918111 0.800874
#
# Coordination Sequence:
#
# PCOD8001755 Si02
#       6
#     2   2   2   2   2   2
#     4  10  20  34  55  84 110 137 181 229 267 310
#     4   9  19  36  55  77 110 147 178 215 269 327
#     4   9  19  36  55  77 110 147 178 215 269 327
#     4  10  20  35  57  81 108 145 183 218 265 326
#     4  10  20  35  57  81 108 145 183 218 265 326
#     4  10  20  34  55  84 110 137 181 229 267 310
#
# _framework density 28.246918999999998
#
# number of rings (size 3 to 8) (size 9 to 14) (size 15 to 20)
#    0.000    2.333    0.000    5.000    0.000    6.667 
#    0.000    0.000    0.000    7.000    0.000    0.000 
#    0.000    0.000    0.000    0.000    0.000    0.000 
#
# Total GULP energy -148867.650716 kJ/mol
# GULP energy per Si atom -12405.637560 kJ/mol
# Density = 2.818263 g / cm^3
# Si number density = 28.246919 Si / 1000 Ang^3
#
#
#
# Elastic Constant Matrix: (Units=GPa)
#
#
# Indices 1 2 3 4 5 6 
#
# 1 253.5032 105.3582 96.9902 -0.5323 1.2096 -0.7811
# 2 105.3582 128.0466 69.2939 27.2286 17.0558 -4.3203
# 3 96.9902 69.2939 140.1263 12.2388 25.9240 -7.2261
# 4 -0.5323 27.2286 12.2388 67.2479 -3.0398 3.9215
# 5 1.2096 17.0558 25.9240 -3.0398 49.4430 0.5624
# 6 -0.7811 -4.3203 -7.2261 3.9215 0.5624 56.2424
#
#
#
# Elastic Compliance Matrix: (Units=1/GPa)
#
#
# Indices 1 2 3 4 5 6 
#
# 1 0.007591 -0.005544 -0.003546 0.003182 0.003793 -0.001036
# 2 -0.005544 0.015664 -0.002495 -0.006204 -0.004356 0.001282
# 3 -0.003546 -0.002495 0.012049 -0.001544 -0.005482 0.001470
# 4 0.003182 -0.006204 -0.001544 0.017981 0.003999 -0.001925
# 5 0.003793 -0.004356 -0.005482 0.003999 0.024772 -0.001513
# 6 -0.001036 0.001282 0.001470 -0.001925 -0.001513 0.018202
#
#
# Mechanical properties :
#
#
# Convention : Reuss Voigt Hill
#
# Bulk Modulus (GPa) = 82.40614 118.32897 100.36755
# Shear Modulus (GPa) = 40.49433 51.25559 45.87496
#
# Velocity S-wave (km/s) = 3.79038 4.26438 4.03435
# Velocity P-wave (km/s) = 6.95649 8.13809 7.57038
#
# Compressibility (1/GPa) = 0.01213502
#
# Stress axis : x y z
#
# Youngs Moduli (GPa) = 131.73998 63.84069 82.99286
#
# Poissons Ratio (x) = 0.35392 0.29426
# Poissons Ratio (y) = 0.73034 0.20707
# Poissons Ratio (z) = 0.46710 0.15929
#
# Static dielectric constant tensor:
#      x y z
#    x 5.946020 0.049560 -0.089940 
#    y 0.049560 4.945290 -0.691640 
#    z -0.089940 -0.691640 5.597690 
# 
# 
# High freq. dielectric constant tensor:
#      x y z
#    x 2.182040 -0.003700 0.005890 
#    y -0.003700 2.142330 -0.055930 
#    z 0.005890 -0.055930 2.199450 
# 
# From -- ./inp_files/159478.got.cif
#   From: 2010.06.25/outbox.cif.g09.slc.cpg/sg2_80_cif.got.tgz:159478.got - 2010.06.27 13:26:56.
