data_PCOD8001097
_publ_section_title
;
Structure prediction by ZEFSAII (Michael W. Deem and Ramdas Pophale) SiO2 
 PCOD8001097
Probable space group: P -1
;
_chemical_formula_sum "Si O2"
_cell_formula_units_Z 16
_cell_length_a 13.694504
_cell_length_b 11.604259
_cell_length_c 14.250286
_cell_angle_alpha 147.712518
_cell_angle_beta 40.019026
_cell_angle_gamma 139.758844
_cell_volume 732.235091
_symmetry_space_group_name_H-M "P -1"
_symmetry_group_IT_number 2
_symmetry_cell_setting 'triclinic'
loop_
_space_group_symop_operation_xyz
x,y,z
-x,-y,-z
loop_
_atom_site_type_symbol
_atom_site_label
_atom_site_fract_x
_atom_site_fract_y
_atom_site_fract_z
Si Si1 0.815010 0.426547 0.058180
Si Si2 0.638994 0.576852 0.137577
Si Si3 0.621077 0.978332 0.545770
Si Si4 0.699686 0.714851 0.836398
Si Si5 0.296344 0.078677 0.834003
Si Si6 0.216311 0.200202 0.550027
Si Si7 0.825307 0.318893 0.489657
Si Si8 0.846921 0.967928 0.718264
O O1 0.785840 0.519328 0.040795
O O2 0.724419 0.534058 0.276024
O O3 0.000000 0.500000 0.000000
O O4 0.752083 0.151264 0.916397
O O5 0.572567 0.740134 0.362096
O O6 0.492336 0.334529 0.066803
O O7 0.700117 0.701167 0.079202
O O8 0.670246 0.935819 0.586256
O O9 0.475871 0.075672 0.715273
O O10 0.777538 0.156207 0.503261
O O11 0.704326 0.460187 0.669838
O O12 0.808132 0.826742 0.744857
O O13 0.771699 0.882231 0.987409
O O14 0.184864 0.840129 0.704876
O O15 0.223091 0.201839 0.434235
O O16 0.037952 0.081639 0.642874
O O17 0.000000 0.500000 0.500000
#
# Coordination Sequence:
#
# PCOD8001097 Si02
#       8
#     2   2   2   2   2   2   2   2
#     4   9  20  39  62  87 118 162 211 258 306 365
#     4  10  20  40  64  90 125 166 211 256 305 380
#     4  10  19  41  66  91 121 170 211 250 318 380
#     4  12  24  38  62  96 129 162 212 255 313 374
#     4  11  23  41  65  93 130 167 206 252 318 383
#     4   9  20  40  64  83 117 167 210 255 314 365
#     4  11  23  41  64  94 129 161 207 265 313 368
#     4  10  22  39  58  90 124 159 213 260 303 370
#
# _framework density 21.850905999999998
#
# number of rings (size 3 to 8) (size 9 to 14) (size 15 to 20)
#    0.000    1.750    2.500    1.875    1.750    3.000 
#    0.000    5.000    0.000    0.000    0.000    0.000 
#    0.000    0.000    0.000    0.000    0.000    0.000 
#
# Total GULP energy -198321.802750 kJ/mol
# GULP energy per Si atom -12395.112672 kJ/mol
# Density = 2.180117 g / cm^3
# Si number density = 21.850906 Si / 1000 Ang^3
#
#
#
# Elastic Constant Matrix: (Units=GPa)
#
#
# Indices 1 2 3 4 5 6 
#
# 1 118.2333 26.5970 46.0667 -7.6942 4.3505 -6.9392
# 2 26.5970 58.3806 34.2290 -3.8883 18.8800 5.3334
# 3 46.0667 34.2290 93.9017 12.4328 21.7325 -14.3539
# 4 -7.6942 -3.8883 12.4328 24.6231 -7.4898 6.0461
# 5 4.3505 18.8800 21.7325 -7.4898 44.1153 -1.5145
# 6 -6.9392 5.3334 -14.3539 6.0461 -1.5145 33.3302
#
#
#
# Elastic Compliance Matrix: (Units=1/GPa)
#
#
# Indices 1 2 3 4 5 6 
#
# 1 0.012411 -0.001488 -0.008457 0.010090 0.005209 -0.002414
# 2 -0.001488 0.028123 -0.011898 0.011630 -0.004474 -0.012247
# 3 -0.008457 -0.011898 0.027772 -0.026084 -0.011624 0.016307
# 4 0.010090 0.011630 -0.026084 0.069842 0.017951 -0.022847
# 5 0.005209 -0.004474 -0.011624 0.017951 0.032672 -0.004977
# 6 -0.002414 -0.012247 0.016307 -0.022847 -0.004977 0.042401
#
#
# Mechanical properties :
#
#
# Convention : Reuss Voigt Hill
#
# Bulk Modulus (GPa) = 40.61707 53.81123 47.21415
# Shear Modulus (GPa) = 18.85998 31.32192 25.09095
#
# Velocity S-wave (km/s) = 2.94108 3.79018 3.39230
# Velocity P-wave (km/s) = 5.49198 6.62073 6.08259
#
# Compressibility (1/GPa) = 0.02462019
#
# Stress axis : x y z
#
# Youngs Moduli (GPa) = 80.57470 35.55839 36.00811
#
# Poissons Ratio (x) = 0.05291 0.30451
# Poissons Ratio (y) = 0.11989 0.42842
# Poissons Ratio (z) = 0.68140 0.42307
#
# Static dielectric constant tensor:
#      x y z
#    x 4.216780 -0.086740 -0.029070 
#    y -0.086740 3.498450 0.349830 
#    z -0.029070 0.349830 4.275820 
# 
# 
# High freq. dielectric constant tensor:
#      x y z
#    x 1.875460 -0.001970 0.002770 
#    y -0.001970 1.821780 0.020220 
#    z 0.002770 0.020220 1.862990 
# 
# From -- ./inp_files/187061.got.cif
#   From: 2010.06.25/outbox.cif.g09.slc.cpg/sg2_94_cif.got.tgz:187061.got - 2010.06.27 13:26:56.
