data_PCOD8001635
_publ_section_title
;
Structure prediction by ZEFSAII (Michael W. Deem and Ramdas Pophale) SiO2 
 PCOD8001635
Probable space group: P -1
;
_chemical_formula_sum "Si O2"
_cell_formula_units_Z 12
_cell_length_a 19.936107
_cell_length_b 9.412256
_cell_length_c 5.308809
_cell_angle_alpha 95.232467
_cell_angle_beta 82.911344
_cell_angle_gamma 146.875194
_cell_volume 540.072184
_symmetry_space_group_name_H-M "P -1"
_symmetry_group_IT_number 2
_symmetry_cell_setting 'triclinic'
loop_
_space_group_symop_operation_xyz
x,y,z
-x,-y,-z
loop_
_atom_site_type_symbol
_atom_site_label
_atom_site_fract_x
_atom_site_fract_y
_atom_site_fract_z
Si Si1 0.655294 0.661784 0.340626
Si Si2 0.927980 0.705295 0.236576
Si Si3 0.926804 0.038718 0.289017
Si Si4 0.654503 0.161990 0.335277
Si Si5 0.518444 0.662209 0.201635
Si Si6 0.484709 0.842171 0.796565
O O1 0.623083 0.772043 0.350517
O O2 0.603799 0.515612 0.610216
O O3 0.582794 0.427337 0.127010
O O4 0.619113 0.266346 0.354344
O O5 0.901971 0.827196 0.266591
O O6 0.799240 0.395132 0.272109
O O7 0.011143 0.806067 0.451575
O O8 0.989415 0.767335 0.955259
O O9 0.800278 0.900121 0.294042
O O10 0.607951 0.023908 0.607947
O O11 0.582889 0.927626 0.123204
O O12 0.500000 0.500000 0.000000
O O13 0.500000 0.000000 0.000000
#
# Coordination Sequence:
#
# PCOD8001635 Si02
#       6
#     2   2   2   2   2   2
#     4  10  21  39  58  90 117 161 209 245 312 372
#     4  10  22  39  61  93 123 162 202 257 308 366
#     4  10  22  39  63  89 125 163 203 253 310 369
#     4  10  21  37  55  92 118 152 209 254 305 363
#     4  10  22  39  61  84 122 164 199 257 310 363
#     4  10  20  33  61  87 117 153 197 265 311 356
#
# _framework density 22.219249999999999
#
# number of rings (size 3 to 8) (size 9 to 14) (size 15 to 20)
#    0.000    2.000    1.667    1.000    4.667    1.333 
#    0.000    1.667    0.000    0.000    0.000    0.000 
#    0.000    0.000    0.000    0.000    0.000    0.000 
#
# Total GULP energy -148685.880614 kJ/mol
# GULP energy per Si atom -12390.490051 kJ/mol
# Density = 2.216868 g / cm^3
# Si number density = 22.219250 Si / 1000 Ang^3
#
#
#
# Elastic Constant Matrix: (Units=GPa)
#
#
# Indices 1 2 3 4 5 6 
#
# 1 91.2341 45.5707 21.3121 -14.6930 -21.4401 -3.6524
# 2 45.5707 128.9943 45.9409 -9.7267 -16.7069 7.7425
# 3 21.3121 45.9409 110.9956 -3.9511 -16.1276 10.0294
# 4 -14.6930 -9.7267 -3.9511 39.9520 1.9411 -7.6383
# 5 -21.4401 -16.7069 -16.1276 1.9411 24.9502 -7.8595
# 6 -3.6524 7.7425 10.0294 -7.6383 -7.8595 46.5707
#
#
#
# Elastic Compliance Matrix: (Units=1/GPa)
#
#
# Indices 1 2 3 4 5 6 
#
# 1 0.017346 -0.004336 0.000125 0.005690 0.013288 0.005230
# 2 -0.004336 0.010689 -0.003344 0.000408 0.000865 -0.001184
# 3 0.000125 -0.003344 0.011152 -0.000097 0.004753 -0.001050
# 4 0.005690 0.000408 -0.000097 0.028092 0.004744 0.005807
# 5 0.013288 0.000865 0.004753 0.004744 0.058073 0.010454
# 6 0.005230 -0.001184 -0.001050 0.005807 0.010454 0.025023
#
#
# Mechanical properties :
#
#
# Convention : Reuss Voigt Hill
#
# Bulk Modulus (GPa) = 41.53688 61.87462 51.70575
# Shear Modulus (GPa) = 28.81648 36.85459 32.83553
#
# Velocity S-wave (km/s) = 3.60518 4.07711 3.84838
# Velocity P-wave (km/s) = 6.00537 7.07612 6.56262
#
# Compressibility (1/GPa) = 0.02407499
#
# Stress axis : x y z
#
# Youngs Moduli (GPa) = 57.65030 93.55256 89.67280
#
# Poissons Ratio (x) = 0.40567 -0.01120
# Poissons Ratio (y) = 0.24999 0.29991
# Poissons Ratio (z) = -0.00720 0.31288
#
# Static dielectric constant tensor:
#      x y z
#    x 8.231750 -2.447490 1.226740 
#    y -2.447490 5.292340 -0.416760 
#    z 1.226740 -0.416760 4.496360 
# 
# 
# High freq. dielectric constant tensor:
#      x y z
#    x 1.881120 -0.009150 0.007440 
#    y -0.009150 1.862280 0.006130 
#    z 0.007440 0.006130 1.885690 
# 
# From -- ./inp_files/115605.got.cif
#   From: 2010.06.25/outbox.cif.g09.slc.cpg/sg2_58_cif.got.tgz:115605.got - 2010.06.27 13:26:56.
