data_PCOD8001580
_publ_section_title
;
Structure prediction by ZEFSAII (Michael W. Deem and Ramdas Pophale) SiO2 
 PCOD8001580
Probable space group: P -1
;
_chemical_formula_sum "Si O2"
_cell_formula_units_Z 16
_cell_length_a 13.011104
_cell_length_b 22.296252
_cell_length_c 18.918131
_cell_angle_alpha 21.946098
_cell_angle_beta 25.548485
_cell_angle_gamma 27.345508
_cell_volume 838.384357
_symmetry_space_group_name_H-M "P -1"
_symmetry_group_IT_number 2
_symmetry_cell_setting 'triclinic'
loop_
_space_group_symop_operation_xyz
x,y,z
-x,-y,-z
loop_
_atom_site_type_symbol
_atom_site_label
_atom_site_fract_x
_atom_site_fract_y
_atom_site_fract_z
Si Si1 0.364587 0.025078 0.686829
Si Si2 0.476587 0.340189 0.312504
Si Si3 0.141180 0.941439 0.681699
Si Si4 0.508546 0.419546 0.366390
Si Si5 0.998779 0.398064 0.684489
Si Si6 0.069676 0.021766 0.077397
Si Si7 0.510514 0.791417 0.975825
Si Si8 0.019531 0.872018 0.564541
O O1 0.342682 0.192545 0.564899
O O2 0.631554 0.980790 0.527358
O O3 0.133256 0.059447 0.739282
O O4 0.366762 0.872153 0.904857
O O5 0.729967 0.260538 0.195796
O O6 0.553088 0.389819 0.287487
O O7 0.276302 0.501503 0.221094
O O8 0.957483 0.960930 0.840249
O O9 0.985723 0.034452 0.608822
O O10 0.236853 0.407771 0.571817
O O11 0.524273 0.598991 0.183663
O O12 0.720091 0.278750 0.431397
O O13 0.000000 0.500000 0.500000
O O14 0.020061 0.203707 0.873045
O O15 0.349915 0.897724 0.024536
O O16 0.790618 0.798490 0.795402
O O17 0.000000 0.000000 0.500000
#
# Coordination Sequence:
#
# PCOD8001580 Si02
#       8
#     2   2   2   2   2   2   2   2
#     4   9  18  36  57  84 114 156 187 234 286 344
#     4   9  18  36  58  84 117 147 195 229 292 329
#     4   9  22  36  60  86 117 155 189 237 298 339
#     4  11  20  37  60  86 114 149 201 242 275 336
#     4  10  20  33  56  86 115 148 187 242 278 338
#     4  12  21  36  57  89 123 149 193 236 298 342
#     4  11  22  34  60  90 109 154 195 238 283 345
#     4  11  20  42  64  83 112 152 201 239 283 344
#
# _framework density 19.084323999999999
#
# number of rings (size 3 to 8) (size 9 to 14) (size 15 to 20)
#    0.750    1.000    1.250    5.625    0.000    0.500 
#    0.000    3.125    2.750    0.000    0.000    0.000 
#    0.000    0.000    0.000    0.000    0.000    0.000 
#
# Total GULP energy -198276.545342 kJ/mol
# GULP energy per Si atom -12392.284084 kJ/mol
# Density = 1.904089 g / cm^3
# Si number density = 19.084324 Si / 1000 Ang^3
#
#
#
# Elastic Constant Matrix: (Units=GPa)
#
#
# Indices 1 2 3 4 5 6 
#
# 1 82.3024 52.3247 28.5009 1.5924 0.6993 -9.2897
# 2 52.3247 142.9747 37.8648 -15.4664 10.9434 -9.6896
# 3 28.5009 37.8648 68.7460 -16.8494 -3.0810 5.0385
# 4 1.5924 -15.4664 -16.8494 34.9897 4.8075 2.0464
# 5 0.6993 10.9434 -3.0810 4.8075 24.6435 5.0750
# 6 -9.2897 -9.6896 5.0385 2.0464 5.0750 35.2939
#
#
#
# Elastic Compliance Matrix: (Units=1/GPa)
#
#
# Indices 1 2 3 4 5 6 
#
# 1 0.018659 -0.005661 -0.006591 -0.007008 0.001606 0.004473
# 2 -0.005661 0.011060 -0.003166 0.004365 -0.006552 0.002687
# 3 -0.006591 -0.003166 0.021993 0.009352 0.003929 -0.006851
# 4 -0.007008 0.004365 0.009352 0.036481 -0.007052 -0.003082
# 5 0.001606 -0.006552 0.003929 -0.007052 0.047016 -0.008289
# 6 0.004473 0.002687 -0.006851 -0.003082 -0.008289 0.032597
#
#
# Mechanical properties :
#
#
# Convention : Reuss Voigt Hill
#
# Bulk Modulus (GPa) = 47.90070 59.04486 53.47278
# Shear Modulus (GPa) = 24.31906 30.67426 27.49666
#
# Velocity S-wave (km/s) = 3.57360 4.01347 3.79990
# Velocity P-wave (km/s) = 6.49473 7.24454 6.87985
#
# Compressibility (1/GPa) = 0.02087652
#
# Stress axis : x y z
#
# Youngs Moduli (GPa) = 53.59485 90.41502 45.46937
#
# Poissons Ratio (x) = 0.51182 0.29969
# Poissons Ratio (y) = 0.30339 0.14394
# Poissons Ratio (z) = 0.35324 0.28622
#
# Static dielectric constant tensor:
#      x y z
#    x 3.280230 -0.272520 -0.134430 
#    y -0.272520 3.898700 -0.038580 
#    z -0.134430 -0.038580 3.293340 
# 
# 
# High freq. dielectric constant tensor:
#      x y z
#    x 1.718380 -0.012270 -0.013560 
#    y -0.012270 1.751690 -0.009330 
#    z -0.013560 -0.009330 1.726790 
# 
# From -- ./inp_files/570659.got.cif
#   From: 2010.06.25/outbox.cif.g09.slc.cpg/sg2_286_cif.got.tgz:570659.got - 2010.06.27 13:26:56.
