data_PCOD8001225
_publ_section_title
;
Structure prediction by ZEFSAII (Michael W. Deem and Ramdas Pophale) SiO2 
 PCOD8001225
Probable space group: P -1
;
_chemical_formula_sum "Si O2"
_cell_formula_units_Z 12
_cell_length_a 9.338885
_cell_length_b 7.660576
_cell_length_c 15.882327
_cell_angle_alpha 102.390778
_cell_angle_beta 136.886481
_cell_angle_gamma 50.325105
_cell_volume 524.977276
_symmetry_space_group_name_H-M "P -1"
_symmetry_group_IT_number 2
_symmetry_cell_setting 'triclinic'
loop_
_space_group_symop_operation_xyz
x,y,z
-x,-y,-z
loop_
_atom_site_type_symbol
_atom_site_label
_atom_site_fract_x
_atom_site_fract_y
_atom_site_fract_z
Si Si1 0.166812 0.324506 0.237173
Si Si2 0.855891 0.295084 0.643650
Si Si3 0.161834 0.943851 0.241968
Si Si4 0.788222 0.868921 0.384271
Si Si5 0.689448 0.381745 0.984589
Si Si6 0.311692 0.476032 0.682529
O O1 0.071155 0.554808 0.272862
O O2 0.885622 0.445619 0.066769
O O3 0.213534 0.125406 0.300462
O O4 0.475345 0.165721 0.299666
O O5 0.500000 0.500000 0.500000
O O6 0.969780 0.072375 0.734068
O O7 0.043012 0.143664 0.623164
O O8 0.477397 0.656407 0.323630
O O9 0.932848 0.070092 0.075405
O O10 0.728919 0.699029 0.317990
O O11 0.995039 0.756076 0.545668
O O12 0.500000 0.500000 0.000000
O O13 0.470152 0.496377 0.823808
#
# Coordination Sequence:
#
# PCOD8001225 Si02
#       6
#     2   2   2   2   2   2
#     4   9  24  44  66 101 128 177 221 267 332 388
#     4  12  23  43  66 102 137 167 224 272 332 389
#     4   9  22  42  66  94 130 175 215 275 318 391
#     4  10  22  40  68 102 133 172 216 280 321 394
#     4  10  21  42  69  95 126 181 221 264 329 396
#     4  10  19  42  68  92 134 174 217 266 334 387
#
# _framework density 22.858132000000001
#
# number of rings (size 3 to 8) (size 9 to 14) (size 15 to 20)
#    1.000    1.000    1.667    1.500    0.000    2.667 
#    3.000    4.167    0.000    0.000    0.000    0.000 
#    0.000    0.000    0.000    0.000    0.000    0.000 
#
# Total GULP energy -148695.590118 kJ/mol
# GULP energy per Si atom -12391.299177 kJ/mol
# Density = 2.280611 g / cm^3
# Si number density = 22.858132 Si / 1000 Ang^3
#
#
#
# Elastic Constant Matrix: (Units=GPa)
#
#
# Indices 1 2 3 4 5 6 
#
# 1 120.8029 22.6318 24.3271 -6.1411 -2.7192 -1.9908
# 2 22.6318 43.2841 13.7810 6.5344 4.6999 7.8961
# 3 24.3271 13.7810 143.8478 6.8719 14.4827 6.9041
# 4 -6.1411 6.5344 6.8719 20.7828 -7.1874 12.1417
# 5 -2.7192 4.6999 14.4827 -7.1874 29.9213 -10.5560
# 6 -1.9908 7.8961 6.9041 12.1417 -10.5560 24.2440
#
#
#
# Elastic Compliance Matrix: (Units=1/GPa)
#
#
# Indices 1 2 3 4 5 6 
#
# 1 0.010487 -0.006907 -0.002119 0.006101 0.005626 0.003108
# 2 -0.006907 0.031422 0.000374 -0.009576 -0.012052 -0.011360
# 3 -0.002119 0.000374 0.008263 -0.003552 -0.006393 -0.003653
# 4 0.006101 -0.009576 -0.003552 0.074204 0.011964 -0.027322
# 5 0.005626 -0.012052 -0.006393 0.011964 0.049468 0.021755
# 6 0.003108 -0.011360 -0.003653 -0.027322 0.021755 0.069398
#
#
# Mechanical properties :
#
#
# Convention : Reuss Voigt Hill
#
# Bulk Modulus (GPa) = 30.42515 47.71275 39.06895
# Shear Modulus (GPa) = 18.41600 31.46930 24.94265
#
# Velocity S-wave (km/s) = 2.84150 3.71445 3.30691
# Velocity P-wave (km/s) = 4.90967 6.27016 5.63115
#
# Compressibility (1/GPa) = 0.03286754
#
# Stress axis : x y z
#
# Youngs Moduli (GPa) = 95.35923 31.82444 121.02190
#
# Poissons Ratio (x) = 0.21982 0.25641
# Poissons Ratio (y) = 0.65869 -0.04525
# Poissons Ratio (z) = 0.20204 -0.01190
#
# Static dielectric constant tensor:
#      x y z
#    x 4.281920 0.015090 0.118400 
#    y 0.015090 3.933300 -0.358810 
#    z 0.118400 -0.358810 4.657550 
# 
# 
# High freq. dielectric constant tensor:
#      x y z
#    x 1.900580 -0.012180 0.019850 
#    y -0.012180 1.884490 -0.008140 
#    z 0.019850 -0.008140 1.896250 
# 
# From -- ./inp_files/495313.got.cif
#   From: 2010.06.25/outbox.cif.g09.slc.cpg/sg2_248_cif.got.tgz:495313.got - 2010.06.27 13:26:56.
