data_PCOD8001197
_publ_section_title
;
Structure prediction by ZEFSAII (Michael W. Deem and Ramdas Pophale) SiO2 
 PCOD8001197
Probable space group: P -1
;
_chemical_formula_sum "Si O2"
_cell_formula_units_Z 16
_cell_length_a 10.940417
_cell_length_b 12.276100
_cell_length_c 11.904562
_cell_angle_alpha 45.820498
_cell_angle_beta 60.844108
_cell_angle_gamma 95.633976
_cell_volume 716.214080
_symmetry_space_group_name_H-M "P -1"
_symmetry_group_IT_number 2
_symmetry_cell_setting 'triclinic'
loop_
_space_group_symop_operation_xyz
x,y,z
-x,-y,-z
loop_
_atom_site_type_symbol
_atom_site_label
_atom_site_fract_x
_atom_site_fract_y
_atom_site_fract_z
Si Si1 0.170309 0.320945 0.614960
Si Si2 0.611957 0.413429 0.883928
Si Si3 0.206311 0.000768 0.865209
Si Si4 0.663658 0.519477 0.038715
Si Si5 0.346457 0.988438 0.207028
Si Si6 0.518896 0.236240 0.737807
Si Si7 0.077282 0.893765 0.578276
Si Si8 0.629698 0.950448 0.463277
O O1 0.211049 0.411676 0.405737
O O2 0.148984 0.124477 0.761756
O O3 0.338998 0.512685 0.484388
O O4 0.957993 0.211955 0.834969
O O5 0.418794 0.373306 0.984017
O O6 0.689500 0.491784 0.917274
O O7 0.534187 0.183283 0.059649
O O8 0.407797 0.174614 0.716184
O O9 0.231846 0.919547 0.799459
O O10 0.518617 0.296553 0.327268
O O11 0.884281 0.668470 0.880601
O O12 0.352008 0.817802 0.291340
O O13 0.147531 0.864234 0.454224
O O14 0.360757 0.101770 0.006313
O O15 0.250453 0.015060 0.505512
O O16 0.000000 0.000000 0.500000
O O17 0.500000 0.000000 0.500000
#
# Coordination Sequence:
#
# PCOD8001197 Si02
#       8
#     2   2   2   2   2   2   2   2
#     4  10  23  41  65  97 126 173 227 273 323 401
#     4  10  19  42  65  98 134 166 222 280 337 379
#     4  11  24  41  67  92 133 179 221 263 335 407
#     4  11  22  39  69  96 132 174 217 277 333 393
#     4  10  21  41  64  97 133 165 222 279 332 385
#     4  10  23  42  63  90 134 177 212 275 334 392
#     4  12  24  40  72 105 128 173 230 278 324 401
#     4  12  27  46  66  99 146 177 214 277 343 403
#
# _framework density 22.339687000000001
#
# number of rings (size 3 to 8) (size 9 to 14) (size 15 to 20)
#    0.000    1.250    3.750    1.875    1.750    3.500 
#    0.000    1.875    0.000    0.000    0.000    0.000 
#    0.000    0.000    0.000    0.000    0.000    0.000 
#
# Total GULP energy -198329.972432 kJ/mol
# GULP energy per Si atom -12395.623277 kJ/mol
# Density = 2.228884 g / cm^3
# Si number density = 22.339687 Si / 1000 Ang^3
#
#
#
# Elastic Constant Matrix: (Units=GPa)
#
#
# Indices 1 2 3 4 5 6 
#
# 1 70.7529 16.3653 12.9305 7.4040 -11.4550 6.2609
# 2 16.3653 95.0465 23.6529 25.9598 -4.3127 -1.0674
# 3 12.9305 23.6529 111.4416 20.1637 -18.3693 -1.4953
# 4 7.4040 25.9598 20.1637 42.4644 0.0471 -2.1242
# 5 -11.4550 -4.3127 -18.3693 0.0471 23.3267 2.3145
# 6 6.2609 -1.0674 -1.4953 -2.1242 2.3145 23.3165
#
#
#
# Elastic Compliance Matrix: (Units=1/GPa)
#
#
# Indices 1 2 3 4 5 6 
#
# 1 0.016655 -0.002035 0.000198 -0.002042 0.008517 -0.005584
# 2 -0.002035 0.013129 -0.001185 -0.007090 0.000472 0.000379
# 3 0.000198 -0.001185 0.011563 -0.004846 0.009064 -0.000707
# 4 -0.002042 -0.007090 -0.004846 0.030716 -0.006526 0.003359
# 5 0.008517 0.000472 0.009064 -0.006526 0.055058 -0.007744
# 6 -0.005584 0.000379 -0.000707 0.003359 -0.007744 0.045434
#
#
# Mechanical properties :
#
#
# Convention : Reuss Voigt Hill
#
# Bulk Modulus (GPa) = 28.32652 42.57094 35.44873
# Shear Modulus (GPa) = 26.26510 32.77435 29.51972
#
# Velocity S-wave (km/s) = 3.43259 3.83442 3.63905
# Velocity P-wave (km/s) = 5.33082 6.22103 5.79305
#
# Compressibility (1/GPa) = 0.03530260
#
# Stress axis : x y z
#
# Youngs Moduli (GPa) = 60.04196 76.16978 86.48122
#
# Poissons Ratio (x) = 0.15504 -0.01712
# Poissons Ratio (y) = 0.12221 0.10245
# Poissons Ratio (z) = -0.01189 0.09024
#
# Static dielectric constant tensor:
#      x y z
#    x 3.676580 -0.092700 -0.109340 
#    y -0.092700 4.190300 0.101410 
#    z -0.109340 0.101410 4.406520 
# 
# 
# High freq. dielectric constant tensor:
#      x y z
#    x 1.844580 -0.005180 -0.004990 
#    y -0.005180 1.891490 0.012010 
#    z -0.004990 0.012010 1.891530 
# 
# From -- ./inp_files/424939.got.cif
#   From: 2010.06.25/outbox.cif.g09.slc.cpg/sg2_213_cif.got.tgz:424939.got - 2010.06.27 13:26:56.
