data_PCOD8001633
_publ_section_title
;
Structure prediction by ZEFSAII (Michael W. Deem and Ramdas Pophale) SiO2 
 PCOD8001633
Probable space group: P -1
;
_chemical_formula_sum "Si O2"
_cell_formula_units_Z 16
_cell_length_a 17.391734
_cell_length_b 21.082689
_cell_length_c 9.648057
_cell_angle_alpha 29.117359
_cell_angle_beta 148.405565
_cell_angle_gamma 151.033509
_cell_volume 774.156708
_symmetry_space_group_name_H-M "P -1"
_symmetry_group_IT_number 2
_symmetry_cell_setting 'triclinic'
loop_
_space_group_symop_operation_xyz
x,y,z
-x,-y,-z
loop_
_atom_site_type_symbol
_atom_site_label
_atom_site_fract_x
_atom_site_fract_y
_atom_site_fract_z
Si Si1 0.890582 0.140734 0.115106
Si Si2 0.872095 0.830029 0.076292
Si Si3 0.112323 0.451077 0.349133
Si Si4 0.469383 0.730445 0.323945
Si Si5 0.832003 0.834615 0.699350
Si Si6 0.491923 0.213942 0.409456
Si Si7 0.873318 0.421720 0.583810
Si Si8 0.537068 0.989752 0.735846
O O1 0.069570 0.195576 0.211684
O O2 0.854282 0.002335 0.423461
O O3 0.894064 0.279755 0.936756
O O4 0.741885 0.079236 0.889258
O O5 0.924926 0.714021 0.443181
O O6 0.899196 0.814138 0.986665
O O7 0.670953 0.769015 0.908733
O O8 0.000000 0.000000 0.000000
O O9 0.308528 0.563757 0.397284
O O10 0.075544 0.458794 0.441210
O O11 0.000000 0.500000 0.000000
O O12 0.634710 0.712699 0.596596
O O13 0.489762 0.811230 0.350675
O O14 0.456278 0.821387 0.998247
O O15 0.673197 0.357449 0.359752
O O16 0.452627 0.063551 0.556717
O O17 0.000000 0.500000 0.500000
O O18 0.500000 0.000000 0.500000
#
# Coordination Sequence:
#
# PCOD8001633 Si02
#       8
#     2   2   2   2   2   2   2   2
#     4   9  19  35  58  91 119 164 207 246 306 370
#     4  11  25  39  63  89 122 163 208 259 308 367
#     4  11  26  41  61  93 125 157 205 262 325 368
#     4   9  20  39  61  85 122 166 204 258 305 362
#     4   9  19  37  62  88 119 159 214 251 298 365
#     4   9  21  39  60  89 118 163 215 246 302 375
#     4  10  21  39  65  87 124 165 208 255 311 371
#     4  10  20  33  60  93 128 161 201 251 307 367
#
# _framework density 20.667650999999999
#
# number of rings (size 3 to 8) (size 9 to 14) (size 15 to 20)
#    0.000    2.250    0.000    1.125    5.250    9.500 
#    0.000    0.000    0.000    2.250    0.000    0.000 
#    0.000    0.000    0.000    0.000    0.000    0.000 
#
# Total GULP energy -198271.437511 kJ/mol
# GULP energy per Si atom -12391.964844 kJ/mol
# Density = 2.062061 g / cm^3
# Si number density = 20.667651 Si / 1000 Ang^3
#
#
#
# Elastic Constant Matrix: (Units=GPa)
#
#
# Indices 1 2 3 4 5 6 
#
# 1 88.6164 52.5076 38.9568 0.2940 6.2574 19.3913
# 2 52.5076 100.2739 47.5747 -5.9683 14.0657 7.0871
# 3 38.9568 47.5747 118.1753 -4.8988 10.2833 -1.6369
# 4 0.2940 -5.9683 -4.8988 26.9599 -4.0687 7.9804
# 5 6.2574 14.0657 10.2833 -4.0687 37.5108 -1.0712
# 6 19.3913 7.0871 -1.6369 7.9804 -1.0712 34.6996
#
#
#
# Elastic Compliance Matrix: (Units=1/GPa)
#
#
# Indices 1 2 3 4 5 6 
#
# 1 0.019570 -0.008014 -0.003382 0.000277 0.000426 -0.009510
# 2 -0.008014 0.016502 -0.003583 0.002470 -0.003593 0.000260
# 3 -0.003382 -0.003583 0.011161 0.000206 -0.001042 0.003069
# 4 0.000277 0.002470 0.000206 0.041110 0.003144 -0.010007
# 5 0.000426 -0.003593 -0.001042 0.003144 0.028579 0.000606
# 6 -0.009510 0.000260 0.003069 -0.010007 0.000606 0.036545
#
#
# Mechanical properties :
#
#
# Convention : Reuss Voigt Hill
#
# Bulk Modulus (GPa) = 57.88871 65.01597 61.45234
# Shear Modulus (GPa) = 26.42939 31.03585 28.73262
#
# Velocity S-wave (km/s) = 3.57988 3.87933 3.73261
# Velocity P-wave (km/s) = 6.71994 7.18274 6.95519
#
# Compressibility (1/GPa) = 0.01727453
#
# Stress axis : x y z
#
# Youngs Moduli (GPa) = 51.09870 60.59994 89.59755
#
# Poissons Ratio (x) = 0.48565 0.30305
# Poissons Ratio (y) = 0.40951 0.32100
# Poissons Ratio (z) = 0.17283 0.21711
#
# Static dielectric constant tensor:
#      x y z
#    x 3.843640 0.226710 0.200290 
#    y 0.226710 3.701500 -0.010330 
#    z 0.200290 -0.010330 3.779660 
# 
# 
# High freq. dielectric constant tensor:
#      x y z
#    x 1.811630 0.018610 0.016630 
#    y 0.018610 1.797060 -0.002310 
#    z 0.016630 -0.002310 1.805520 
# 
# From -- ./inp_files/338046.got.cif
#   From: 2010.06.25/outbox.cif.g09.slc.cpg/sg2_170_cif.got.tgz:338046.got - 2010.06.27 13:26:56.
