data_PCOD8001525
_publ_section_title
;
Structure prediction by ZEFSAII (Michael W. Deem and Ramdas Pophale) SiO2 
 PCOD8001525
Probable space group: P -1
;
_chemical_formula_sum "Si O2"
_cell_formula_units_Z 16
_cell_length_a 21.423306
_cell_length_b 8.956718
_cell_length_c 25.403386
_cell_angle_alpha 151.632753
_cell_angle_beta 19.918962
_cell_angle_gamma 150.941989
_cell_volume 755.257231
_symmetry_space_group_name_H-M "P -1"
_symmetry_group_IT_number 2
_symmetry_cell_setting 'triclinic'
loop_
_space_group_symop_operation_xyz
x,y,z
-x,-y,-z
loop_
_atom_site_type_symbol
_atom_site_label
_atom_site_fract_x
_atom_site_fract_y
_atom_site_fract_z
Si Si1 0.733410 0.259715 0.947267
Si Si2 0.346579 0.832844 0.899124
Si Si3 0.137065 0.220625 0.622981
Si Si4 0.154030 0.357208 0.485666
Si Si5 0.293178 0.710358 0.291154
Si Si6 0.421996 0.421943 0.193416
Si Si7 0.431263 0.616536 0.443936
Si Si8 0.966134 0.864204 0.746107
O O1 0.957526 0.339318 0.783090
O O2 0.619521 0.894084 0.908313
O O3 0.693169 0.299861 0.052171
O O4 0.643085 0.510299 0.064806
O O5 0.384570 0.525377 0.742168
O O6 0.542384 0.131985 0.832740
O O7 0.162317 0.945674 0.060322
O O8 0.322556 0.529270 0.559335
O O9 0.146748 0.923355 0.484027
O O10 0.125871 0.120194 0.662742
O O11 0.282121 0.359435 0.334299
O O12 0.286332 0.434625 0.456227
O O13 0.049565 0.644930 0.651159
O O14 0.000000 0.000000 0.500000
O O15 0.394316 0.708652 0.267188
O O16 0.174327 0.355051 0.254679
O O17 0.500000 0.000000 0.500000
#
# Coordination Sequence:
#
# PCOD8001525 Si02
#       8
#     2   2   2   2   2   2   2   2
#     4  10  20  33  53  88 127 156 198 246 302 358
#     4  10  21  37  58  87 120 166 207 248 302 367
#     4  10  20  38  58  83 116 167 202 246 303 367
#     4  12  24  38  64  97 128 160 207 253 306 365
#     4  11  19  32  55  87 130 163 192 240 313 364
#     4  11  20  31  54  87 131 158 192 244 307 357
#     4  11  25  46  65  85 123 166 208 255 315 369
#     4  11  21  34  59  91 126 156 208 251 303 362
#
# _framework density 21.184833999999999
#
# number of rings (size 3 to 8) (size 9 to 14) (size 15 to 20)
#    0.000    1.250    5.000    3.750    0.000    2.000 
#    0.000    3.750    0.000    0.000    0.000    0.000 
#    0.000    0.000    0.000    0.000    0.000    0.000 
#
# Total GULP energy -198283.324387 kJ/mol
# GULP energy per Si atom -12392.707774 kJ/mol
# Density = 2.113662 g / cm^3
# Si number density = 21.184834 Si / 1000 Ang^3
#
#
#
# Elastic Constant Matrix: (Units=GPa)
#
#
# Indices 1 2 3 4 5 6 
#
# 1 53.7985 11.5761 27.7473 1.4382 -18.6580 -18.1315
# 2 11.5761 100.3786 42.6451 1.9568 2.6157 -21.9638
# 3 27.7473 42.6451 159.8875 -8.2584 -17.3006 -21.3380
# 4 1.4382 1.9568 -8.2584 20.0449 -10.6815 0.2092
# 5 -18.6580 2.6157 -17.3006 -10.6815 28.8941 4.4277
# 6 -18.1315 -21.9638 -21.3380 0.2092 4.4277 23.7896
#
#
#
# Elastic Compliance Matrix: (Units=1/GPa)
#
#
# Indices 1 2 3 4 5 6 
#
# 1 0.032761 0.000206 -0.000243 0.008447 0.020899 0.020977
# 2 0.000206 0.014324 -0.003481 -0.007048 -0.007654 0.011746
# 3 -0.000243 -0.003481 0.008940 0.008341 0.008130 0.003033
# 4 0.008447 -0.007048 0.008341 0.073911 0.038471 -0.000398
# 5 0.020899 -0.007654 0.008130 0.038471 0.067385 0.003274
# 6 0.020977 0.011746 0.003033 -0.000398 0.003274 0.070983
#
#
# Mechanical properties :
#
#
# Convention : Reuss Voigt Hill
#
# Bulk Modulus (GPa) = 20.41254 53.11129 36.76191
# Shear Modulus (GPa) = 17.14260 30.01881 23.58071
#
# Velocity S-wave (km/s) = 2.84772 3.76838 3.33993
# Velocity P-wave (km/s) = 4.52427 6.63771 5.68015
#
# Compressibility (1/GPa) = 0.04898950
#
# Stress axis : x y z
#
# Youngs Moduli (GPa) = 30.52409 69.81083 111.85176
#
# Poissons Ratio (x) = -0.01438 0.02720
# Poissons Ratio (y) = -0.00629 0.38935
# Poissons Ratio (z) = 0.00742 0.24301
#
# Static dielectric constant tensor:
#      x y z
#    x 3.862130 -0.427730 -0.309770 
#    y -0.427730 3.463840 -0.033020 
#    z -0.309770 -0.033020 4.397990 
# 
# 
# High freq. dielectric constant tensor:
#      x y z
#    x 1.809980 -0.045730 -0.012260 
#    y -0.045730 1.784320 -0.006480 
#    z -0.012260 -0.006480 1.860240 
# 
# From -- ./inp_files/205458.got.cif
#   From: 2010.06.25/outbox.cif.g09.slc.cpg/sg2_103_cif.got.tgz:205458.got - 2010.06.27 13:26:56.
