data_PCOD8001984
_publ_section_title
;
Structure prediction by ZEFSAII (Michael W. Deem and Ramdas Pophale) SiO2 
 PCOD8001984
Probable space group: P -1
;
_chemical_formula_sum "Si O2"
_cell_formula_units_Z 14
_cell_length_a 11.133265
_cell_length_b 10.603219
_cell_length_c 9.061232
_cell_angle_alpha 137.459429
_cell_angle_beta 66.820646
_cell_angle_gamma 117.534086
_cell_volume 638.787652
_symmetry_space_group_name_H-M "P -1"
_symmetry_group_IT_number 2
_symmetry_cell_setting 'triclinic'
loop_
_space_group_symop_operation_xyz
x,y,z
-x,-y,-z
loop_
_atom_site_type_symbol
_atom_site_label
_atom_site_fract_x
_atom_site_fract_y
_atom_site_fract_z
Si Si1 0.178145 0.910029 0.336211
Si Si2 0.136363 0.628341 0.624095
Si Si3 0.007399 0.991172 0.732422
Si Si4 0.141638 0.553751 0.897860
Si Si5 0.817862 0.912104 0.015038
Si Si6 0.653133 0.678352 0.434248
Si Si7 0.369774 0.428813 0.310347
O O1 0.064921 0.908634 0.264735
O O2 0.097107 0.870389 0.497620
O O3 0.307656 0.096899 0.437298
O O4 0.235960 0.733690 0.103181
O O5 0.119978 0.608549 0.789132
O O6 0.173661 0.860647 0.774671
O O7 0.265005 0.557034 0.448583
O O8 0.000000 0.500000 0.500000
O O9 0.109143 0.146838 0.926011
O O10 0.894356 0.860024 0.785472
O O11 0.212445 0.382383 0.726553
O O12 0.000000 0.500000 0.000000
O O13 0.668386 0.761704 0.942952
O O14 0.519697 0.561462 0.308350
O O15 0.624130 0.651062 0.597221
#
# Coordination Sequence:
#
# PCOD8001984 Si02
#       7
#     2   2   2   2   2   2   2
#     4  11  21  38  58  89 121 158 193 248 299 347
#     4  11  23  36  62  93 117 152 201 248 296 348
#     4  10  20  34  62  86 122 154 192 248 304 342
#     4  11  23  36  62  93 117 152 201 248 296 348
#     4  11  21  38  58  89 121 158 193 248 299 347
#     4  10  22  40  61  87 121 159 199 241 292 356
#     4  10  22  40  61  87 121 159 199 241 292 356
#
# _framework density 21.916515
#
# number of rings (size 3 to 8) (size 9 to 14) (size 15 to 20)
#    0.000    1.429    2.857    3.429    6.000    1.143 
#    0.000    5.000    0.000    1.714    0.000    0.000 
#    0.000    0.000    0.000    0.000    0.000    0.000 
#
# Total GULP energy -173460.948128 kJ/mol
# GULP energy per Si atom -12390.067723 kJ/mol
# Density = 2.186663 g / cm^3
# Si number density = 21.916515 Si / 1000 Ang^3
#
#
#
# Elastic Constant Matrix: (Units=GPa)
#
#
# Indices 1 2 3 4 5 6 
#
# 1 72.9132 30.5628 16.3306 9.8107 27.4023 23.1147
# 2 30.5628 67.4109 44.2420 20.3923 10.6270 17.0870
# 3 16.3306 44.2420 107.2427 16.2927 22.8672 12.4837
# 4 9.8107 20.3923 16.2927 50.4294 7.4406 10.8611
# 5 27.4023 10.6270 22.8672 7.4406 32.6677 7.1120
# 6 23.1147 17.0870 12.4837 10.8611 7.1120 25.9765
#
#
#
# Elastic Compliance Matrix: (Units=1/GPa)
#
#
# Indices 1 2 3 4 5 6 
#
# 1 0.031419 -0.011160 0.006557 0.003886 -0.024109 -0.018793
# 2 -0.011160 0.028159 -0.010634 -0.006490 0.009879 -0.003473
# 3 0.006557 -0.010634 0.015657 0.000480 -0.012421 -0.003165
# 4 0.003886 -0.006490 0.000480 0.024045 -0.005210 -0.008047
# 5 -0.024109 0.009879 -0.012421 -0.005210 0.055798 0.007825
# 6 -0.018793 -0.003473 -0.003165 -0.008047 0.007825 0.060246
#
#
# Mechanical properties :
#
#
# Convention : Reuss Voigt Hill
#
# Bulk Modulus (GPa) = 22.33989 47.75972 35.04981
# Shear Modulus (GPa) = 19.17775 32.24348 25.71062
#
# Velocity S-wave (km/s) = 2.96131 3.83978 3.42879
# Velocity P-wave (km/s) = 4.68058 6.44185 5.63051
#
# Compressibility (1/GPa) = 0.04476297
#
# Stress axis : x y z
#
# Youngs Moduli (GPa) = 31.82739 35.51224 63.86930
#
# Poissons Ratio (x) = 0.39632 -0.41882
# Poissons Ratio (y) = 0.35520 0.67916
# Poissons Ratio (z) = -0.20871 0.37762
#
# Static dielectric constant tensor:
#      x y z
#    x 3.979550 0.064990 0.206390 
#    y 0.064990 3.927660 0.266330 
#    z 0.206390 0.266330 4.819420 
# 
# 
# High freq. dielectric constant tensor:
#      x y z
#    x 1.836820 0.003070 0.014910 
#    y 0.003070 1.845330 0.010830 
#    z 0.014910 0.010830 1.879080 
# 
# From -- ./inp_files/260903.got.cif
#   From: 2010.06.25/outbox.cif.g09.slc.cpg/sg2_131_cif.got.tgz:260903.got - 2010.06.27 13:26:56.
