data_PCOD8001255
_publ_section_title
;
Structure prediction by ZEFSAII (Michael W. Deem and Ramdas Pophale) SiO2 
 PCOD8001255
Probable space group: P -1
;
_chemical_formula_sum "Si O2"
_cell_formula_units_Z 14
_cell_length_a 8.728215
_cell_length_b 8.997934
_cell_length_c 8.540067
_cell_angle_alpha 63.643823
_cell_angle_beta 88.710840
_cell_angle_gamma 79.685714
_cell_volume 590.035051
_symmetry_space_group_name_H-M "P -1"
_symmetry_group_IT_number 2
_symmetry_cell_setting 'triclinic'
loop_
_space_group_symop_operation_xyz
x,y,z
-x,-y,-z
loop_
_atom_site_type_symbol
_atom_site_label
_atom_site_fract_x
_atom_site_fract_y
_atom_site_fract_z
Si Si1 0.540666 0.158107 0.508478
Si Si2 0.612419 0.968657 0.157167
Si Si3 0.530160 0.677909 0.979115
Si Si4 0.579308 0.481461 0.673045
Si Si5 0.940830 0.367326 0.673353
Si Si6 0.840804 0.786737 0.006882
Si Si7 0.899180 0.052349 0.633346
O O1 0.476628 0.331323 0.331005
O O2 0.722945 0.134213 0.552331
O O3 0.500000 0.000000 0.500000
O O4 0.437634 0.172286 0.663580
O O5 0.780374 0.905396 0.104231
O O6 0.587241 0.152652 0.163054
O O7 0.500000 0.000000 0.000000
O O8 0.484142 0.666537 0.168051
O O9 0.710887 0.698660 0.965260
O O10 0.500000 0.500000 0.000000
O O11 0.500000 0.500000 0.500000
O O12 0.762903 0.437256 0.682852
O O13 0.970003 0.191119 0.661720
O O14 0.000000 0.500000 0.500000
O O15 0.025077 0.351508 0.849844
O O16 0.908972 0.890576 0.821617
O O17 0.000000 0.000000 0.500000
#
# Coordination Sequence:
#
# PCOD8001255 Si02
#       7
#     2   2   2   2   2   2   2
#     4  12  25  44  74 106 140 187 241 298 357 428
#     4  10  19  42  74  95 135 183 244 285 344 428
#     4  11  23  42  71 105 141 177 238 300 354 415
#     4  12  24  45  73 103 138 187 243 297 352 428
#     4  12  27  49  73 107 148 191 242 302 365 431
#     4  11  25  49  73 107 142 196 245 293 363 439
#     4  12  28  49  71 106 151 192 239 299 371 433
#
# _framework density 23.727402999999999
#
# number of rings (size 3 to 8) (size 9 to 14) (size 15 to 20)
#    0.000    0.571    4.286    5.571    4.000    0.000 
#    2.571    1.429    0.000    0.000    0.000    0.000 
#    0.000    0.000    0.000    0.000    0.000    0.000 
#
# Total GULP energy -173503.737621 kJ/mol
# GULP energy per Si atom -12393.124116 kJ/mol
# Density = 2.367340 g / cm^3
# Si number density = 23.727403 Si / 1000 Ang^3
#
#
#
# Elastic Constant Matrix: (Units=GPa)
#
#
# Indices 1 2 3 4 5 6 
#
# 1 108.6727 30.9060 66.9219 -6.5988 3.1590 -0.6587
# 2 30.9060 109.0090 4.2990 -11.7734 -4.3648 11.3084
# 3 66.9219 4.2990 137.4063 -36.0597 -25.7542 -8.2182
# 4 -6.5988 -11.7734 -36.0597 39.0931 -4.0770 -5.4057
# 5 3.1590 -4.3648 -25.7542 -4.0770 47.2954 -1.5434
# 6 -0.6587 11.3084 -8.2182 -5.4057 -1.5434 44.8299
#
#
#
# Elastic Compliance Matrix: (Units=1/GPa)
#
#
# Indices 1 2 3 4 5 6 
#
# 1 0.020824 -0.007106 -0.016576 -0.015673 -0.012531 -0.003262
# 2 -0.007106 0.012212 0.006501 0.008992 0.005894 -0.000706
# 3 -0.016576 0.006501 0.025651 0.025611 0.018096 0.006530
# 4 -0.015673 0.008992 0.025611 0.052702 0.020668 0.009263
# 5 -0.012531 0.005894 0.018096 0.020668 0.034334 0.005321
# 6 -0.003262 -0.000706 0.006530 0.009263 0.005321 0.024934
#
#
# Mechanical properties :
#
#
# Convention : Reuss Voigt Hill
#
# Bulk Modulus (GPa) = 41.11138 62.14907 51.63022
# Shear Modulus (GPa) = 23.46012 43.10776 33.28394
#
# Velocity S-wave (km/s) = 3.14783 4.26701 3.74941
# Velocity P-wave (km/s) = 5.52955 7.10818 6.36797
#
# Compressibility (1/GPa) = 0.02432416
#
# Stress axis : x y z
#
# Youngs Moduli (GPa) = 48.02235 81.88421 38.98499
#
# Poissons Ratio (x) = 0.58189 0.64623
# Poissons Ratio (y) = 0.34126 -0.25345
# Poissons Ratio (z) = 0.79604 -0.53235
#
# Static dielectric constant tensor:
#      x y z
#    x 4.815160 -0.632620 -1.210670 
#    y -0.632620 6.159830 -0.164190 
#    z -1.210670 -0.164190 10.653750 
# 
# 
# High freq. dielectric constant tensor:
#      x y z
#    x 1.929900 0.005410 -0.002680 
#    y 0.005410 1.952470 -0.005820 
#    z -0.002680 -0.005820 1.973300 
# 
# From -- ./inp_files/156587.got.cif
#   From: 2010.06.25/outbox.cif.g09.slc.cpg/sg2_79_cif.got.tgz:156587.got - 2010.06.27 13:26:56.
