data_PCOD8001361
_publ_section_title
;
Structure prediction by ZEFSAII (Michael W. Deem and Ramdas Pophale) SiO2 
 PCOD8001361
Probable space group: P -1
;
_chemical_formula_sum "Si O2"
_cell_formula_units_Z 16
_cell_length_a 21.993338
_cell_length_b 8.142870
_cell_length_c 7.218334
_cell_angle_alpha 94.258976
_cell_angle_beta 54.562283
_cell_angle_gamma 53.242228
_cell_volume 644.597073
_symmetry_space_group_name_H-M "P -1"
_symmetry_group_IT_number 2
_symmetry_cell_setting 'triclinic'
loop_
_space_group_symop_operation_xyz
x,y,z
-x,-y,-z
loop_
_atom_site_type_symbol
_atom_site_label
_atom_site_fract_x
_atom_site_fract_y
_atom_site_fract_z
Si Si1 0.138772 0.597262 0.302942
Si Si2 0.612837 0.950950 0.093601
Si Si3 0.541578 0.095427 0.662883
Si Si4 0.494885 0.485700 0.290756
Si Si5 0.758099 0.212668 0.259492
Si Si6 0.214882 0.460543 0.737894
Si Si7 0.966776 0.740368 0.113816
Si Si8 0.111036 0.016921 0.348105
O O1 0.005474 0.748379 0.562112
O O2 0.119309 0.821214 0.406779
O O3 0.183533 0.495607 0.008768
O O4 0.242532 0.330840 0.223775
O O5 0.575777 0.032078 0.380048
O O6 0.578098 0.181477 0.066093
O O7 0.545430 0.905592 0.129331
O O8 0.474328 0.389677 0.848816
O O9 0.667647 0.859940 0.539601
O O10 0.500000 0.500000 0.500000
O O11 0.360043 0.683286 0.470005
O O12 0.739393 0.434274 0.366495
O O13 0.876120 0.948825 0.132947
O O14 0.773773 0.154553 0.003259
O O15 0.090281 0.634719 0.863880
O O16 0.899169 0.853530 0.442208
O O17 0.000000 0.500000 0.000000
#
# Coordination Sequence:
#
# PCOD8001361 Si02
#       8
#     2   2   2   2   2   2   2   2
#     4   8  16  32  58  86 121 157 206 254 307 366
#     4   9  16  29  52  83 118 165 201 248 310 361
#     4   9  16  28  50  81 124 152 201 260 296 356
#     4  10  20  31  54  95 122 156 215 256 298 377
#     4  11  21  38  64  90 120 161 213 252 310 377
#     4   9  17  33  56  86 118 157 202 252 306 363
#     4  11  23  38  58  90 126 162 202 256 313 371
#     4   9  20  37  60  91 121 159 204 258 311 369
#
# _framework density 24.821708999999998
#
# number of rings (size 3 to 8) (size 9 to 14) (size 15 to 20)
#    0.000    2.500    1.250    1.875    5.250    1.500 
#    0.000    0.000    0.000    1.500    0.000    0.000 
#    0.000    0.000    0.000    0.000    0.000    0.000 
#
# Total GULP energy -198219.303679 kJ/mol
# GULP energy per Si atom -12388.706480 kJ/mol
# Density = 2.476521 g / cm^3
# Si number density = 24.821709 Si / 1000 Ang^3
#
#
#
# Elastic Constant Matrix: (Units=GPa)
#
#
# Indices 1 2 3 4 5 6 
#
# 1 94.1088 38.6281 35.9565 18.5468 -5.8366 11.3267
# 2 38.6281 112.5687 33.9280 45.7112 3.6656 17.4429
# 3 35.9565 33.9280 96.1633 47.0978 -7.8753 -7.9237
# 4 18.5468 45.7112 47.0978 42.4836 -8.3487 -2.0475
# 5 -5.8366 3.6656 -7.8753 -8.3487 33.3694 19.0812
# 6 11.3267 17.4429 -7.9237 -2.0475 19.0812 52.1771
#
#
#
# Elastic Compliance Matrix: (Units=1/GPa)
#
#
# Indices 1 2 3 4 5 6 
#
# 1 0.015511 -0.006889 -0.008845 0.011572 0.006821 -0.004448
# 2 -0.006889 0.023383 0.011218 -0.036414 -0.008571 -0.002912
# 3 -0.008845 0.011218 0.030984 -0.044123 -0.009053 0.004454
# 4 0.011572 -0.036414 -0.044123 0.111293 0.024359 -0.001580
# 5 0.006821 -0.008571 -0.009053 0.024359 0.044896 -0.015453
# 6 -0.004448 -0.002912 0.004454 -0.001580 -0.015453 0.027370
#
#
# Mechanical properties :
#
#
# Convention : Reuss Voigt Hill
#
# Bulk Modulus (GPa) = 16.43467 57.76290 37.09878
# Shear Modulus (GPa) = 17.68349 38.56123 28.12236
#
# Velocity S-wave (km/s) = 2.67202 3.94576 3.36962
# Velocity P-wave (km/s) = 4.01933 6.63930 5.48796
#
# Compressibility (1/GPa) = 0.06084697
#
# Stress axis : x y z
#
# Youngs Moduli (GPa) = 64.47185 42.76553 32.27510
#
# Poissons Ratio (x) = 0.29461 0.28546
# Poissons Ratio (y) = 0.44414 -0.36207
# Poissons Ratio (z) = 0.57024 -0.47976
#
# Static dielectric constant tensor:
#      x y z
#    x 4.713720 0.121530 -0.245950 
#    y 0.121530 4.409470 0.561740 
#    z -0.245950 0.561740 4.730310 
# 
# 
# High freq. dielectric constant tensor:
#      x y z
#    x 1.981370 -0.003320 -0.000680 
#    y -0.003320 1.978670 0.028660 
#    z -0.000680 0.028660 1.979290 
# 
# From -- ./inp_files/352247.got.cif
#   From: 2010.06.25/outbox.cif.g09.slc.cpg/sg2_177_cif.got.tgz:352247.got - 2010.06.27 13:26:56.
