data_PCOD8001887
_publ_section_title
;
Structure prediction by ZEFSAII (Michael W. Deem and Ramdas Pophale) SiO2 
 PCOD8001887
Probable space group: P -1
;
_chemical_formula_sum "Si O2"
_cell_formula_units_Z 16
_cell_length_a 11.948445
_cell_length_b 16.040638
_cell_length_c 9.658414
_cell_angle_alpha 131.908159
_cell_angle_beta 143.526716
_cell_angle_gamma 68.417808
_cell_volume 756.618236
_symmetry_space_group_name_H-M "P -1"
_symmetry_group_IT_number 2
_symmetry_cell_setting 'triclinic'
loop_
_space_group_symop_operation_xyz
x,y,z
-x,-y,-z
loop_
_atom_site_type_symbol
_atom_site_label
_atom_site_fract_x
_atom_site_fract_y
_atom_site_fract_z
Si Si1 0.012571 0.439319 0.800673
Si Si2 0.711597 0.320343 0.749703
Si Si3 0.224502 0.940524 0.745210
Si Si4 0.621987 0.257080 0.280186
Si Si5 0.303384 0.164862 0.250653
Si Si6 0.836569 0.108499 0.688383
Si Si7 0.812481 0.764354 0.258807
Si Si8 0.784686 0.916520 0.637589
O O1 0.147310 0.357305 0.855391
O O2 0.778959 0.352236 0.431341
O O3 0.124640 0.542055 0.909224
O O4 0.000000 0.500000 0.000000
O O5 0.721644 0.302512 0.577279
O O6 0.479643 0.297292 0.540713
O O7 0.772363 0.221029 0.780642
O O8 0.365007 0.873539 0.872932
O O9 0.224791 0.946043 0.586119
O O10 0.990811 0.879357 0.495286
O O11 0.330015 0.075099 0.060710
O O12 0.397951 0.255594 0.048867
O O13 0.354741 0.127684 0.414083
O O14 0.079973 0.165895 0.018216
O O15 0.717260 0.997914 0.552401
O O16 0.793689 0.798339 0.437690
O O17 0.000000 0.000000 0.000000
#
# Coordination Sequence:
#
# PCOD8001887 Si02
#       8
#     2   2   2   2   2   2   2   2
#     4   9  21  41  58  88 120 151 205 250 291 347
#     4  10  22  36  57  87 121 155 196 249 292 349
#     4  10  20  34  58  92 122 148 196 246 295 355
#     4   9  21  35  60  92 116 153 199 246 301 347
#     4  11  22  36  57  86 122 162 192 237 296 360
#     4  10  21  36  57  87 124 152 193 248 301 347
#     4  11  20  38  64  84 122 161 190 248 299 345
#     4  10  22  39  57  88 124 162 195 232 299 362
#
# _framework density 21.146728
#
# number of rings (size 3 to 8) (size 9 to 14) (size 15 to 20)
#    0.000    2.000    2.500    1.875    3.500    4.500 
#    0.000    0.625    0.000    3.750    0.000    0.000 
#    0.000    0.000    0.000    0.000    0.000    0.000 
#
# Total GULP energy -198257.697054 kJ/mol
# GULP energy per Si atom -12391.106066 kJ/mol
# Density = 2.109860 g / cm^3
# Si number density = 21.146728 Si / 1000 Ang^3
#
#
#
# Elastic Constant Matrix: (Units=GPa)
#
#
# Indices 1 2 3 4 5 6 
#
# 1 57.0472 39.2626 33.7692 -5.7258 19.7389 7.8026
# 2 39.2626 95.6881 44.4045 4.6288 4.7466 -4.5048
# 3 33.7692 44.4045 52.1206 -0.6760 7.3954 5.8116
# 4 -5.7258 4.6288 -0.6760 15.9764 5.8719 9.7357
# 5 19.7389 4.7466 7.3954 5.8719 38.4935 -1.6220
# 6 7.8026 -4.5048 5.8116 9.7357 -1.6220 39.9217
#
#
#
# Elastic Compliance Matrix: (Units=1/GPa)
#
#
# Indices 1 2 3 4 5 6 
#
# 1 0.064431 -0.023177 -0.012392 0.061718 -0.038480 -0.030019
# 2 -0.023177 0.028198 -0.014023 -0.034972 0.017236 0.018982
# 3 -0.012392 -0.014023 0.040041 0.005442 -0.000707 -0.006345
# 4 0.061718 -0.034972 0.005442 0.148263 -0.053320 -0.055124
# 5 -0.038480 0.017236 -0.000707 -0.053320 0.052896 0.024721
# 6 -0.030019 0.018982 -0.006345 -0.055124 0.024721 0.048429
#
#
# Mechanical properties :
#
#
# Convention : Reuss Voigt Hill
#
# Bulk Modulus (GPa) = 29.86312 48.85872 39.36092
# Shear Modulus (GPa) = 10.15013 24.70630 17.42821
#
# Velocity S-wave (km/s) = 2.19323 3.42179 2.87393
# Velocity P-wave (km/s) = 4.53500 6.22626 5.44667
#
# Compressibility (1/GPa) = 0.03348611
#
# Stress axis : x y z
#
# Youngs Moduli (GPa) = 15.52052 35.46293 24.97453
#
# Poissons Ratio (x) = 0.82191 0.30948
# Poissons Ratio (y) = 0.35971 0.35023
# Poissons Ratio (z) = 0.19233 0.49731
#
# Static dielectric constant tensor:
#      x y z
#    x 4.163680 0.293290 0.121080 
#    y 0.293290 4.111820 0.175400 
#    z 0.121080 0.175400 3.850620 
# 
# 
# High freq. dielectric constant tensor:
#      x y z
#    x 1.827320 0.000530 0.025220 
#    y 0.000530 1.815370 0.006620 
#    z 0.025220 0.006620 1.816510 
# 
# From -- ./inp_files/274535.got.cif
#   From: 2010.06.25/outbox.cif.g09.slc.cpg/sg2_138_cif.got.tgz:274535.got - 2010.06.27 13:26:56.
