data_PCOD8001948
_publ_section_title
;
Structure prediction by ZEFSAII (Michael W. Deem and Ramdas Pophale) SiO2 
 PCOD8001948
Probable space group: P -1
;
_chemical_formula_sum "Si O2"
_cell_formula_units_Z 16
_cell_length_a 15.516293
_cell_length_b 9.404917
_cell_length_c 12.350082
_cell_angle_alpha 77.789155
_cell_angle_beta 108.166434
_cell_angle_gamma 152.597522
_cell_volume 779.282970
_symmetry_space_group_name_H-M "P -1"
_symmetry_group_IT_number 2
_symmetry_cell_setting 'triclinic'
loop_
_space_group_symop_operation_xyz
x,y,z
-x,-y,-z
loop_
_atom_site_type_symbol
_atom_site_label
_atom_site_fract_x
_atom_site_fract_y
_atom_site_fract_z
Si Si1 0.090356 0.663619 0.853712
Si Si2 0.028941 0.289136 0.013278
Si Si3 0.778535 0.326311 0.628397
Si Si4 0.826226 0.801846 0.847117
Si Si5 0.403841 0.177188 0.730755
Si Si6 0.623164 0.131307 0.372936
Si Si7 0.922568 0.798268 0.330293
Si Si8 0.883190 0.000062 0.414274
O O1 0.054039 0.741939 0.911509
O O2 0.913400 0.405344 0.736982
O O3 0.297019 0.999804 0.831032
O O4 0.118943 0.542939 0.932262
O O5 0.183389 0.384109 0.094828
O O6 0.866983 0.965252 0.938355
O O7 0.716986 0.185516 0.506626
O O8 0.906824 0.653067 0.607615
O O9 0.577542 0.069116 0.652528
O O10 0.613243 0.548146 0.767132
O O11 0.987661 0.053733 0.776826
O O12 0.433588 0.067754 0.702866
O O13 0.271591 0.092032 0.618481
O O14 0.779354 0.458529 0.325375
O O15 0.093544 0.026744 0.450641
O O16 0.802490 0.768355 0.332173
#
# Coordination Sequence:
#
# PCOD8001948 Si02
#       8
#     2   2   2   2   2   2   2   2
#     4  10  21  40  61  82 110 145 190 239 278 322
#     4  10  23  41  59  77 106 151 196 236 280 321
#     4   9  19  37  60  84 117 148 181 227 278 334
#     4  11  23  39  57  81 115 150 187 234 279 325
#     4  11  22  36  59  87 114 144 183 232 281 333
#     4  10  20  34  60  91 114 147 184 218 277 347
#     4  10  20  37  57  81 118 153 182 222 276 337
#     4   9  20  36  57  85 116 150 181 220 281 343
#
# _framework density 20.531696
#
# number of rings (size 3 to 8) (size 9 to 14) (size 15 to 20)
#    0.000    2.000    0.000    3.750    0.000    9.000 
#    0.000    5.000    0.000    0.000    0.000    0.000 
#    0.000    0.000    0.000    0.000    0.000    0.000 
#
# Total GULP energy -198285.064258 kJ/mol
# GULP energy per Si atom -12392.816516 kJ/mol
# Density = 2.048496 g / cm^3
# Si number density = 20.531696 Si / 1000 Ang^3
#
#
#
# Elastic Constant Matrix: (Units=GPa)
#
#
# Indices 1 2 3 4 5 6 
#
# 1 59.4070 37.8050 23.3485 -3.5234 4.0616 -3.9014
# 2 37.8050 63.2412 32.2280 7.9989 9.4726 6.4669
# 3 23.3485 32.2280 80.4740 -4.1809 2.0140 2.0615
# 4 -3.5234 7.9989 -4.1809 29.6193 -10.3034 3.5315
# 5 4.0616 9.4726 2.0140 -10.3034 21.6628 1.2292
# 6 -3.9014 6.4669 2.0615 3.5315 1.2292 28.9236
#
#
#
# Elastic Compliance Matrix: (Units=1/GPa)
#
#
# Indices 1 2 3 4 5 6 
#
# 1 0.031955 -0.022930 0.000127 0.012424 0.009507 0.007507
# 2 -0.022930 0.042179 -0.010633 -0.022872 -0.023582 -0.007971
# 3 0.000127 -0.010633 0.016876 0.007590 0.006668 -0.000018
# 4 0.012424 -0.022872 0.007590 0.054107 0.032800 -0.001752
# 5 0.009507 -0.023582 0.006668 0.032800 0.069723 -0.000888
# 6 0.007507 -0.007971 -0.000018 -0.001752 -0.000888 0.037622
#
#
# Mechanical properties :
#
#
# Convention : Reuss Voigt Hill
#
# Bulk Modulus (GPa) = 41.42915 43.32058 42.37486
# Shear Modulus (GPa) = 15.27284 23.35716 19.31500
#
# Velocity S-wave (km/s) = 2.73035 3.37651 3.07048
# Velocity P-wave (km/s) = 5.49197 6.02879 5.76663
#
# Compressibility (1/GPa) = 0.02413760
#
# Stress axis : x y z
#
# Youngs Moduli (GPa) = 31.29372 23.70865 59.25699
#
# Poissons Ratio (x) = 0.54364 -0.00752
# Poissons Ratio (y) = 0.71757 0.63006
# Poissons Ratio (z) = -0.00397 0.25209
#
# Static dielectric constant tensor:
#      x y z
#    x 3.730910 -0.115260 0.005100 
#    y -0.115260 3.606090 -0.037950 
#    z 0.005100 -0.037950 3.912910 
# 
# 
# High freq. dielectric constant tensor:
#      x y z
#    x 1.800120 -0.008010 -0.005230 
#    y -0.008010 1.792480 -0.004610 
#    z -0.005230 -0.004610 1.809670 
# 
# From -- ./inp_files/208036.got.cif
#   From: 2010.06.25/outbox.cif.g09.slc.cpg/sg2_105_cif.got.tgz:208036.got - 2010.06.27 13:26:56.
