data_PCOD8001458
_publ_section_title
;
Structure prediction by ZEFSAII (Michael W. Deem and Ramdas Pophale) SiO2 
 PCOD8001458
Probable space group: P -1
;
_chemical_formula_sum "Si O2"
_cell_formula_units_Z 16
_cell_length_a 12.059504
_cell_length_b 8.462929
_cell_length_c 14.055427
_cell_angle_alpha 94.979396
_cell_angle_beta 41.091467
_cell_angle_gamma 76.023948
_cell_volume 829.685460
_symmetry_space_group_name_H-M "P -1"
_symmetry_group_IT_number 2
_symmetry_cell_setting 'triclinic'
loop_
_space_group_symop_operation_xyz
x,y,z
-x,-y,-z
loop_
_atom_site_type_symbol
_atom_site_label
_atom_site_fract_x
_atom_site_fract_y
_atom_site_fract_z
Si Si1 0.362429 0.246900 0.834332
Si Si2 0.698736 0.253536 0.062629
Si Si3 0.044279 0.598153 0.136978
Si Si4 0.645654 0.941584 0.988294
Si Si5 0.233683 0.747278 0.772141
Si Si6 0.436470 0.556244 0.363809
Si Si7 0.950950 0.340342 0.281882
Si Si8 0.685384 0.941019 0.313828
O O1 0.412826 0.169765 0.904736
O O2 0.530622 0.275247 0.677830
O O3 0.348578 0.090721 0.775553
O O4 0.168538 0.439669 0.971772
O O5 0.828226 0.188967 0.074282
O O6 0.493794 0.423424 0.228646
O O7 0.645885 0.111979 0.044878
O O8 0.821139 0.311621 0.914757
O O9 0.985601 0.514326 0.260094
O O10 0.847848 0.749004 0.231245
O O11 0.859058 0.819269 0.804886
O O12 0.500000 0.000000 0.000000
O O13 0.430116 0.557124 0.639180
O O14 0.080187 0.714960 0.808521
O O15 0.261188 0.898250 0.704977
O O16 0.217722 0.626815 0.535706
O O17 0.500000 0.000000 0.500000
#
# Coordination Sequence:
#
# PCOD8001458 Si02
#       8
#     2   2   2   2   2   2   2   2
#     4  10  20  38  56  80 113 155 188 234 283 341
#     4   9  21  38  57  81 114 146 189 234 288 337
#     4  10  22  33  55  85 116 154 186 225 287 350
#     4  11  24  42  60  81 111 154 203 242 280 330
#     4  10  20  32  58  85 124 145 181 225 292 345
#     4   9  19  37  58  87 119 148 183 231 293 351
#     4  11  21  36  59  88 118 153 188 233 286 342
#     4  12  21  30  52  89 123 152 181 228 286 349
#
# _framework density 19.284416
#
# number of rings (size 3 to 8) (size 9 to 14) (size 15 to 20)
#    0.750    1.000    1.250    3.750    3.500    1.000 
#    0.000    6.875    0.000    0.000    0.000    0.000 
#    0.000    0.000    0.000    0.000    0.000    0.000 
#
# Total GULP energy -198257.706981 kJ/mol
# GULP energy per Si atom -12391.106686 kJ/mol
# Density = 1.924052 g / cm^3
# Si number density = 19.284416 Si / 1000 Ang^3
#
#
#
# Elastic Constant Matrix: (Units=GPa)
#
#
# Indices 1 2 3 4 5 6 
#
# 1 81.9588 51.5126 43.1878 9.4509 -13.3177 -10.9873
# 2 51.5126 106.4752 44.8018 -5.9831 -9.1675 12.4224
# 3 43.1878 44.8018 119.9923 -9.6378 -17.5146 -2.8897
# 4 9.4509 -5.9831 -9.6378 23.6470 1.7563 -10.8353
# 5 -13.3177 -9.1675 -17.5146 1.7563 19.1711 1.0902
# 6 -10.9873 12.4224 -2.8897 -10.8353 1.0902 22.3451
#
#
#
# Elastic Compliance Matrix: (Units=1/GPa)
#
#
# Indices 1 2 3 4 5 6 
#
# 1 0.026897 -0.012821 -0.003998 -0.009510 0.008931 0.014789
# 2 -0.012821 0.018632 -0.002897 0.001323 -0.001837 -0.016306
# 3 -0.003998 -0.002897 0.012497 0.007621 0.006292 0.004649
# 4 -0.009510 0.001323 0.007621 0.061835 -0.006146 0.025859
# 5 0.008931 -0.001837 0.006292 -0.006146 0.063792 0.000134
# 6 0.014789 -0.016306 0.004649 0.025859 0.000134 0.074223
#
#
# Mechanical properties :
#
#
# Convention : Reuss Voigt Hill
#
# Bulk Modulus (GPa) = 53.77942 65.27007 59.52475
# Shear Modulus (GPa) = 16.47416 24.29424 20.38420
#
# Velocity S-wave (km/s) = 2.92597 3.55320 3.25473
# Velocity P-wave (km/s) = 6.27400 7.12412 6.71253
#
# Compressibility (1/GPa) = 0.01859447
#
# Stress axis : x y z
#
# Youngs Moduli (GPa) = 37.17940 53.67037 80.02076
#
# Poissons Ratio (x) = 0.68812 0.31989
# Poissons Ratio (y) = 0.47669 0.23180
# Poissons Ratio (z) = 0.14863 0.15547
#
# Static dielectric constant tensor:
#      x y z
#    x 3.016210 0.191660 -0.058550 
#    y 0.191660 3.759570 -0.044630 
#    z -0.058550 -0.044630 3.494150 
# 
# 
# High freq. dielectric constant tensor:
#      x y z
#    x 1.687940 0.023480 -0.006450 
#    y 0.023480 1.769630 -0.005150 
#    z -0.006450 -0.005150 1.752750 
# 
# From -- ./inp_files/396946.got.cif
#   From: 2010.06.25/outbox.cif.g09.slc.cpg/sg2_199_cif.got.tgz:396946.got - 2010.06.27 13:26:56.
