data_PCOD8001244
_publ_section_title
;
Structure prediction by ZEFSAII (Michael W. Deem and Ramdas Pophale) SiO2 
 PCOD8001244
Probable space group: P -1
;
_chemical_formula_sum "Si O2"
_cell_formula_units_Z 14
_cell_length_a 9.039845
_cell_length_b 11.491432
_cell_length_c 11.582368
_cell_angle_alpha 66.639982
_cell_angle_beta 125.129838
_cell_angle_gamma 71.082154
_cell_volume 611.853815
_symmetry_space_group_name_H-M "P -1"
_symmetry_group_IT_number 2
_symmetry_cell_setting 'triclinic'
loop_
_space_group_symop_operation_xyz
x,y,z
-x,-y,-z
loop_
_atom_site_type_symbol
_atom_site_label
_atom_site_fract_x
_atom_site_fract_y
_atom_site_fract_z
Si Si1 0.167344 0.717871 0.835534
Si Si2 0.160912 0.500347 0.344276
Si Si3 0.824155 0.100588 0.496786
Si Si4 0.401210 0.229324 0.764052
Si Si5 0.744290 0.546096 0.850390
Si Si6 0.087993 0.161283 0.755306
Si Si7 0.706557 0.559864 0.155345
O O1 0.154817 0.645302 0.737469
O O2 0.222276 0.607292 0.016153
O O3 0.396831 0.707208 0.921818
O O4 0.893106 0.931437 0.656319
O O5 0.344314 0.309100 0.577956
O O6 0.315047 0.442675 0.316308
O O7 0.105207 0.666007 0.310070
O O8 0.871207 0.584944 0.152905
O O9 0.507092 0.261876 0.272594
O O10 0.000000 0.000000 0.500000
O O11 0.244223 0.180828 0.737802
O O12 0.283231 0.406851 0.718445
O O13 0.711344 0.037354 0.006556
O O14 0.000000 0.500000 0.000000
O O15 0.899594 0.180161 0.578698
#
# Coordination Sequence:
#
# PCOD8001244 Si02
#       7
#     2   2   2   2   2   2   2
#     4  11  24  43  72 100 144 180 242 294 343 416
#     4  11  25  44  69 101 148 187 229 285 358 424
#     4  12  28  44  76 109 137 188 245 290 349 423
#     4  10  22  40  71 105 142 181 240 288 347 414
#     4  12  29  49  69 105 148 189 228 294 368 414
#     4  10  23  42  69 108 137 185 237 292 345 418
#     4  10  19  42  72 101 133 189 232 292 339 409
#
# _framework density 22.881281000000001
#
# number of rings (size 3 to 8) (size 9 to 14) (size 15 to 20)
#    0.000    1.143    2.857    3.429    8.000    2.286 
#    0.000    1.429    0.000    0.000    0.000    0.000 
#    0.000    0.000    0.000    0.000    0.000    0.000 
#
# Total GULP energy -173479.365057 kJ/mol
# GULP energy per Si atom -12391.383218 kJ/mol
# Density = 2.282920 g / cm^3
# Si number density = 22.881281 Si / 1000 Ang^3
#
#
#
# Elastic Constant Matrix: (Units=GPa)
#
#
# Indices 1 2 3 4 5 6 
#
# 1 90.7787 57.7903 66.6450 -2.9041 -0.8963 -15.9994
# 2 57.7903 122.4306 52.1971 -1.6247 -0.2460 3.0917
# 3 66.6450 52.1971 135.2978 -11.3315 -17.3679 -9.1782
# 4 -2.9041 -1.6247 -11.3315 29.7159 0.6685 -0.8262
# 5 -0.8963 -0.2460 -17.3679 0.6685 40.4907 11.4813
# 6 -15.9994 3.0917 -9.1782 -0.8262 11.4813 40.5074
#
#
#
# Elastic Compliance Matrix: (Units=1/GPa)
#
#
# Indices 1 2 3 4 5 6 
#
# 1 0.024472 -0.007892 -0.009236 -0.001145 -0.006264 0.009927
# 2 -0.007892 0.012522 -0.001223 -0.000695 0.000680 -0.004557
# 3 -0.009236 -0.001223 0.013375 0.003934 0.006074 -0.002166
# 4 -0.001145 -0.000695 0.003934 0.035011 0.000802 0.000979
# 5 -0.006264 0.000680 0.006074 0.000802 0.029877 -0.009602
# 6 0.009927 -0.004557 -0.002166 0.000979 -0.009602 0.031207
#
#
# Mechanical properties :
#
#
# Convention : Reuss Voigt Hill
#
# Bulk Modulus (GPa) = 73.17760 77.97462 75.57611
# Shear Modulus (GPa) = 26.63505 33.60111 30.11808
#
# Velocity S-wave (km/s) = 3.41553 3.83626 3.63199
# Velocity P-wave (km/s) = 6.89966 7.33310 7.11968
#
# Compressibility (1/GPa) = 0.01366538
#
# Stress axis : x y z
#
# Youngs Moduli (GPa) = 40.86329 79.85967 74.76650
#
# Poissons Ratio (x) = 0.63025 0.69056
# Poissons Ratio (y) = 0.32249 0.09148
# Poissons Ratio (z) = 0.37742 0.09771
#
# Static dielectric constant tensor:
#      x y z
#    x 4.336330 -0.239690 0.254120 
#    y -0.239690 4.679540 -0.374920 
#    z 0.254120 -0.374920 4.683460 
# 
# 
# High freq. dielectric constant tensor:
#      x y z
#    x 1.879600 0.008650 0.001820 
#    y 0.008650 1.913910 0.001440 
#    z 0.001820 0.001440 1.911140 
# 
# From -- ./inp_files/398611.got.cif
#   From: 2010.06.25/outbox.cif.g09.slc.cpg/sg2_200_cif.got.tgz:398611.got - 2010.06.27 13:26:56.
