data_PCOD8001856
_publ_section_title
;
Structure prediction by ZEFSAII (Michael W. Deem and Ramdas Pophale) SiO2 
 PCOD8001856
Probable space group: P -1
;
_chemical_formula_sum "Si O2"
_cell_formula_units_Z 16
_cell_length_a 10.947305
_cell_length_b 17.465790
_cell_length_c 9.432637
_cell_angle_alpha 117.833047
_cell_angle_beta 72.663810
_cell_angle_gamma 152.010573
_cell_volume 719.549917
_symmetry_space_group_name_H-M "P -1"
_symmetry_group_IT_number 2
_symmetry_cell_setting 'triclinic'
loop_
_space_group_symop_operation_xyz
x,y,z
-x,-y,-z
loop_
_atom_site_type_symbol
_atom_site_label
_atom_site_fract_x
_atom_site_fract_y
_atom_site_fract_z
Si Si1 0.260999 0.370757 0.280304
Si Si2 0.950414 0.166287 0.938835
Si Si3 0.901478 0.011995 0.364576
Si Si4 0.729166 0.735700 0.309380
Si Si5 0.967531 0.343749 0.911575
Si Si6 0.746647 0.545988 0.361854
Si Si7 0.443053 0.756465 0.103232
Si Si8 0.346893 0.172799 0.195631
O O1 0.418155 0.542383 0.295853
O O2 0.482481 0.427381 0.271489
O O3 0.142298 0.328207 0.438404
O O4 0.014109 0.199444 0.113969
O O5 0.212990 0.288833 0.868397
O O6 0.884590 0.222726 0.953202
O O7 0.703964 0.950499 0.814697
O O8 0.774101 0.862907 0.379535
O O9 0.645815 0.906264 0.288570
O O10 0.074936 0.178941 0.552536
O O11 0.099160 0.089844 0.244396
O O12 0.021343 0.332487 0.729315
O O13 0.705773 0.247863 0.907661
O O14 0.226012 0.554389 0.055193
O O15 0.632915 0.387082 0.330455
O O16 0.633160 0.827826 0.980116
#
# Coordination Sequence:
#
# PCOD8001856 Si02
#       8
#     2   2   2   2   2   2   2   2
#     4  11  21  35  62  90 123 153 196 249 298 344
#     4  11  23  36  62  90 120 156 194 247 302 344
#     4  10  20  35  60  91 123 150 194 246 306 344
#     4  10  20  34  57  94 121 150 189 251 300 353
#     4  10  22  42  59  87 120 160 206 236 282 367
#     4  10  22  37  60  89 124 153 195 246 296 352
#     4  10  22  38  65  82 119 164 200 238 293 352
#     4  10  22  36  60  91 119 148 194 250 298 344
#
# _framework density 22.236122000000002
#
# number of rings (size 3 to 8) (size 9 to 14) (size 15 to 20)
#    0.000    1.750    2.500    1.500    8.750    0.500 
#    0.000    0.625    8.250    3.000    0.000    0.000 
#    0.000    0.000    0.000    0.000    0.000    0.000 
#
# Total GULP energy -198306.252352 kJ/mol
# GULP energy per Si atom -12394.140772 kJ/mol
# Density = 2.218551 g / cm^3
# Si number density = 22.236122 Si / 1000 Ang^3
#
#
#
# Elastic Constant Matrix: (Units=GPa)
#
#
# Indices 1 2 3 4 5 6 
#
# 1 68.9699 7.6348 32.7268 3.6234 5.2358 -4.6565
# 2 7.6348 47.8382 5.1799 -7.0115 10.1662 -0.4077
# 3 32.7268 5.1799 109.7607 -5.2758 2.2571 10.6859
# 4 3.6234 -7.0115 -5.2758 25.1233 -0.2472 1.3996
# 5 5.2358 10.1662 2.2571 -0.2472 22.5440 -3.7375
# 6 -4.6565 -0.4077 10.6859 1.3996 -3.7375 22.2151
#
#
#
# Elastic Compliance Matrix: (Units=1/GPa)
#
#
# Indices 1 2 3 4 5 6 
#
# 1 0.018654 -0.002697 -0.006337 -0.005178 -0.001377 0.007003
# 2 -0.002697 0.024663 0.000478 0.007412 -0.010900 -0.002644
# 3 -0.006337 0.000478 0.011921 0.003957 -0.001136 -0.007494
# 4 -0.005178 0.007412 0.003957 0.043761 -0.003072 -0.006127
# 5 -0.001377 -0.010900 -0.001136 -0.003072 0.051141 0.008855
# 6 0.007003 -0.002644 -0.007494 -0.006127 0.008855 0.051914
#
#
# Mechanical properties :
#
#
# Convention : Reuss Voigt Hill
#
# Bulk Modulus (GPa) = 26.22948 35.29466 30.76207
# Shear Modulus (GPa) = 21.56331 26.04497 23.80414
#
# Velocity S-wave (km/s) = 3.11745 3.42613 3.27542
# Velocity P-wave (km/s) = 4.97790 5.61767 5.30743
#
# Compressibility (1/GPa) = 0.03812504
#
# Stress axis : x y z
#
# Youngs Moduli (GPa) = 53.60763 40.54689 83.88677
#
# Poissons Ratio (x) = 0.10937 0.53160
# Poissons Ratio (y) = 0.14460 -0.04011
# Poissons Ratio (z) = 0.33971 -0.01939
#
# Static dielectric constant tensor:
#      x y z
#    x 3.633080 -0.402030 -0.136920 
#    y -0.402030 4.294600 0.043120 
#    z -0.136920 0.043120 4.096460 
# 
# 
# High freq. dielectric constant tensor:
#      x y z
#    x 1.830070 -0.036840 -0.012490 
#    y -0.036840 1.890310 -0.003460 
#    z -0.012490 -0.003460 1.871090 
# 
# From -- ./inp_files/279630.got.cif
#   From: 2010.06.25/outbox.cif.g09.slc.cpg/sg2_140_cif.got.tgz:279630.got - 2010.06.27 13:26:56.
