data_PCOD8001295
_publ_section_title
;
Structure prediction by ZEFSAII (Michael W. Deem and Ramdas Pophale) SiO2 
 PCOD8001295
Probable space group: P -1
;
_chemical_formula_sum "Si O2"
_cell_formula_units_Z 16
_cell_length_a 10.952792
_cell_length_b 9.284417
_cell_length_c 16.259979
_cell_angle_alpha 127.459761
_cell_angle_beta 148.052940
_cell_angle_gamma 54.511763
_cell_volume 686.266043
_symmetry_space_group_name_H-M "P -1"
_symmetry_group_IT_number 2
_symmetry_cell_setting 'triclinic'
loop_
_space_group_symop_operation_xyz
x,y,z
-x,-y,-z
loop_
_atom_site_type_symbol
_atom_site_label
_atom_site_fract_x
_atom_site_fract_y
_atom_site_fract_z
Si Si1 0.419243 0.827859 0.851471
Si Si2 0.512532 0.085641 0.778488
Si Si3 0.617655 0.313296 0.608775
Si Si4 0.193080 0.787384 0.145374
Si Si5 0.858622 0.811364 0.684548
Si Si6 0.111266 0.047789 0.425453
Si Si7 0.371553 0.671553 0.937714
Si Si8 0.297842 0.297106 0.191102
O O1 0.423566 0.671034 0.869816
O O2 0.583733 0.738663 0.842579
O O3 0.160952 0.896915 0.692226
O O4 0.500000 0.000000 0.000000
O O5 0.650082 0.215790 0.847324
O O6 0.245524 0.109170 0.603143
O O7 0.619853 0.871034 0.758611
O O8 0.534473 0.150034 0.907422
O O9 0.656821 0.308178 0.727281
O O10 0.361298 0.262945 0.426549
O O11 0.631794 0.521971 0.662177
O O12 0.814478 0.170806 0.624955
O O13 0.095386 0.998389 0.183254
O O14 0.980582 0.676162 0.968759
O O15 0.812013 0.843132 0.571826
O O16 0.093937 0.672193 0.789546
O O17 0.500000 0.500000 0.000000
#
# Coordination Sequence:
#
# PCOD8001295 Si02
#       8
#     2   2   2   2   2   2   2   2
#     4  11  23  49  67  93 142 190 221 272 351 419
#     4  12  23  44  68 100 134 180 231 280 345 396
#     4  11  22  41  68 109 131 173 238 284 339 399
#     4  11  21  43  71  96 134 182 229 276 341 412
#     4  10  19  44  69  96 132 182 222 279 339 409
#     4  10  22  42  75  94 137 187 225 273 344 420
#     4  11  26  43  70  99 133 180 239 275 334 413
#     4  12  26  40  68 105 143 178 224 288 348 396
#
# _framework density 23.314571000000001
#
# number of rings (size 3 to 8) (size 9 to 14) (size 15 to 20)
#    0.000    1.000    5.000    3.000    1.750    2.000 
#    2.250    2.500    0.000    0.000    0.000    0.000 
#    0.000    0.000    0.000    0.000    0.000    0.000 
#
# Total GULP energy -198431.427270 kJ/mol
# GULP energy per Si atom -12401.964204 kJ/mol
# Density = 2.326151 g / cm^3
# Si number density = 23.314571 Si / 1000 Ang^3
#
#
#
# Elastic Constant Matrix: (Units=GPa)
#
#
# Indices 1 2 3 4 5 6 
#
# 1 55.5304 -1.6960 27.2940 -2.9111 2.8254 3.1336
# 2 -1.6960 100.2408 38.4395 3.0320 9.8390 -2.1635
# 3 27.2940 38.4395 138.4303 -7.1539 12.4520 -0.5793
# 4 -2.9111 3.0320 -7.1539 39.5721 3.2242 0.4847
# 5 2.8254 9.8390 12.4520 3.2242 33.3582 -0.6856
# 6 3.1336 -2.1635 -0.5793 0.4847 -0.6856 16.9287
#
#
#
# Elastic Compliance Matrix: (Units=1/GPa)
#
#
# Indices 1 2 3 4 5 6 
#
# 1 0.020592 0.002069 -0.004545 0.000646 -0.000797 -0.003753
# 2 0.002069 0.011621 -0.003499 -0.001206 -0.002161 0.000930
# 3 -0.004545 -0.003499 0.009390 0.001808 -0.002251 0.000573
# 4 0.000646 -0.001206 0.001808 0.025987 -0.002908 -0.001074
# 5 -0.000797 -0.002161 -0.002251 -0.002908 0.031828 0.001167
# 6 -0.003753 0.000930 0.000573 -0.001074 0.001167 0.059982
#
#
# Mechanical properties :
#
#
# Convention : Reuss Voigt Hill
#
# Bulk Modulus (GPa) = 33.72382 46.91962 40.32172
# Shear Modulus (GPa) = 27.58850 33.31606 30.45228
#
# Velocity S-wave (km/s) = 3.44367 3.78429 3.61799
# Velocity P-wave (km/s) = 5.50526 6.26600 5.89791
#
# Compressibility (1/GPa) = 0.02965263
#
# Stress axis : x y z
#
# Youngs Moduli (GPa) = 48.56349 86.04785 106.49703
#
# Poissons Ratio (x) = -0.17804 0.48405
# Poissons Ratio (y) = -0.10048 0.37264
# Poissons Ratio (z) = 0.22073 0.30109
#
# Static dielectric constant tensor:
#      x y z
#    x 4.193840 0.119950 -0.012830 
#    y 0.119950 4.121010 -0.049610 
#    z -0.012830 -0.049610 4.307330 
# 
# 
# High freq. dielectric constant tensor:
#      x y z
#    x 1.913580 0.011760 -0.004730 
#    y 0.011760 1.913920 -0.012760 
#    z -0.004730 -0.012760 1.931300 
# 
# From -- ./inp_files/567003.got.cif
#   From: 2010.06.25/outbox.cif.g09.slc.cpg/sg2_284_cif.got.tgz:567003.got - 2010.06.27 13:26:56.
