data_PCOD8001473
_publ_section_title
;
Structure prediction by ZEFSAII (Michael W. Deem and Ramdas Pophale) SiO2 
 PCOD8001473
Probable space group: P -1
;
_chemical_formula_sum "Si O2"
_cell_formula_units_Z 14
_cell_length_a 12.728484
_cell_length_b 13.541259
_cell_length_c 8.747229
_cell_angle_alpha 137.841005
_cell_angle_beta 70.086491
_cell_angle_gamma 134.625929
_cell_volume 667.033224
_symmetry_space_group_name_H-M "P -1"
_symmetry_group_IT_number 2
_symmetry_cell_setting 'triclinic'
loop_
_space_group_symop_operation_xyz
x,y,z
-x,-y,-z
loop_
_atom_site_type_symbol
_atom_site_label
_atom_site_fract_x
_atom_site_fract_y
_atom_site_fract_z
Si Si1 0.257483 0.076137 0.469546
Si Si2 0.086998 0.435385 0.432413
Si Si3 0.112381 0.987263 0.121465
Si Si4 0.584825 0.643717 0.772093
Si Si5 0.027711 0.235119 0.541629
Si Si6 0.387346 0.620989 0.360593
Si Si7 0.694552 0.534430 0.108080
O O1 0.428036 0.153400 0.468256
O O2 0.286703 0.275040 0.713647
O O3 0.167079 0.966651 0.229477
O O4 0.150070 0.912491 0.472664
O O5 0.055415 0.381556 0.565339
O O6 0.276735 0.626194 0.522733
O O7 0.000000 0.500000 0.500000
O O8 0.028546 0.241468 0.139729
O O9 0.257850 0.120246 0.081987
O O10 0.051210 0.095000 0.299796
O O11 0.500000 0.500000 0.500000
O O12 0.631483 0.559285 0.768346
O O13 0.462815 0.640478 0.911460
O O14 0.151851 0.383238 0.786051
O O15 0.323910 0.567909 0.158180
#
# Coordination Sequence:
#
# PCOD8001473 Si02
#       7
#     2   2   2   2   2   2   2
#     4  10  20  34  62  97 124 148 194 253 301 361
#     4  12  27  43  60  85 121 164 209 250 297 356
#     4  11  21  37  65  92 125 153 202 245 306 353
#     4  11  17  33  61 101 125 152 190 254 300 357
#     4  11  21  39  64  92 119 155 201 248 303 358
#     4  11  21  38  59  89 130 155 195 246 306 354
#     4  10  20  32  61  97 131 147 192 245 313 352
#
# _framework density 20.988461000000001
#
# number of rings (size 3 to 8) (size 9 to 14) (size 15 to 20)
#    0.000    1.143    5.714    5.571    4.000    0.000 
#    0.000    4.286    0.000    0.000    0.000    0.000 
#    0.000    0.000    0.000    0.000    0.000    0.000 
#
# Total GULP energy -173627.352444 kJ/mol
# GULP energy per Si atom -12401.953746 kJ/mol
# Density = 2.094069 g / cm^3
# Si number density = 20.988461 Si / 1000 Ang^3
#
#
#
# Elastic Constant Matrix: (Units=GPa)
#
#
# Indices 1 2 3 4 5 6 
#
# 1 117.9304 72.6600 20.0158 3.1407 17.6618 9.8322
# 2 72.6600 182.8319 19.5938 -16.7709 8.6455 31.8986
# 3 20.0158 19.5938 29.8262 -9.3631 15.7238 -10.2389
# 4 3.1407 -16.7709 -9.3631 21.2287 -2.1163 12.9120
# 5 17.6618 8.6455 15.7238 -2.1163 18.4949 -1.1691
# 6 9.8322 31.8986 -10.2389 12.9120 -1.1691 42.4619
#
#
#
# Elastic Compliance Matrix: (Units=1/GPa)
#
#
# Indices 1 2 3 4 5 6 
#
# 1 0.014720 -0.007248 -0.002137 -0.013008 -0.010012 0.005201
# 2 -0.007248 0.013140 -0.007850 0.018203 0.008563 -0.015385
# 3 -0.002137 -0.007850 0.084866 0.012181 -0.063694 0.021398
# 4 -0.013008 0.018203 0.012181 0.090327 0.001672 -0.035146
# 5 -0.010012 0.008563 -0.063694 0.001672 0.112903 -0.016873
# 6 0.005201 -0.015385 0.021398 -0.035146 -0.016873 0.049286
#
#
# Mechanical properties :
#
#
# Convention : Reuss Voigt Hill
#
# Bulk Modulus (GPa) = 12.77838 61.68085 37.22961
# Shear Modulus (GPa) = 11.74264 30.99171 21.36717
#
# Velocity S-wave (km/s) = 2.36790 3.84683 3.19414
# Velocity P-wave (km/s) = 3.68476 7.01303 5.60179
#
# Compressibility (1/GPa) = 0.07825720
#
# Stress axis : x y z
#
# Youngs Moduli (GPa) = 67.93304 76.10132 11.78322
#
# Poissons Ratio (x) = 0.55161 0.02518
# Poissons Ratio (y) = 0.49240 0.09250
# Poissons Ratio (z) = 0.14515 0.59739
#
# Static dielectric constant tensor:
#      x y z
#    x 3.710980 0.342940 0.460210 
#    y 0.342940 4.423020 -0.137430 
#    z 0.460210 -0.137430 3.434060 
# 
# 
# High freq. dielectric constant tensor:
#      x y z
#    x 1.803690 0.022550 0.047190 
#    y 0.022550 1.845490 -0.022500 
#    z 0.047190 -0.022500 1.781430 
# 
# From -- ./inp_files/158842.got.cif
#   From: 2010.06.25/outbox.cif.g09.slc.cpg/sg2_80_cif.got.tgz:158842.got - 2010.06.27 13:26:56.
