data_PCOD8001497
_publ_section_title
;
Structure prediction by ZEFSAII (Michael W. Deem and Ramdas Pophale) SiO2 
 PCOD8001497
Probable space group: P -1
;
_chemical_formula_sum "Si O2"
_cell_formula_units_Z 16
_cell_length_a 8.391906
_cell_length_b 9.189264
_cell_length_c 20.083321
_cell_angle_alpha 36.458031
_cell_angle_beta 52.740629
_cell_angle_gamma 62.475260
_cell_volume 731.469396
_symmetry_space_group_name_H-M "P -1"
_symmetry_group_IT_number 2
_symmetry_cell_setting 'triclinic'
loop_
_space_group_symop_operation_xyz
x,y,z
-x,-y,-z
loop_
_atom_site_type_symbol
_atom_site_label
_atom_site_fract_x
_atom_site_fract_y
_atom_site_fract_z
Si Si1 0.956876 0.872556 0.353308
Si Si2 0.404591 0.256374 0.890918
Si Si3 0.203378 0.561907 0.029179
Si Si4 0.003706 0.977515 0.862173
Si Si5 0.188990 0.652897 0.730213
Si Si6 0.274175 0.613341 0.443614
Si Si7 0.733500 0.559067 0.345392
Si Si8 0.512177 0.795347 0.969290
O O1 0.810648 0.631097 0.481755
O O2 0.157690 0.840253 0.358641
O O3 0.025014 0.954092 0.232508
O O4 0.814669 0.067498 0.350052
O O5 0.365322 0.517538 0.773261
O O6 0.537067 0.307843 0.905215
O O7 0.206793 0.091428 0.023981
O O8 0.517997 0.093231 0.866792
O O9 0.144372 0.745110 0.917528
O O10 0.277665 0.314800 0.066564
O O11 0.356749 0.703028 0.987500
O O12 0.018691 0.489790 0.148762
O O13 0.111830 0.207203 0.788578
O O14 0.227102 0.641062 0.646686
O O15 0.511378 0.658606 0.357644
O O16 0.230066 0.587127 0.542551
#
# Coordination Sequence:
#
# PCOD8001497 Si02
#       8
#     2   2   2   2   2   2   2   2
#     4  10  21  39  61  83 108 146 185 232 283 325
#     4  10  21  36  53  85 120 147 183 223 264 337
#     4  10  21  36  53  85 120 147 183 223 264 337
#     4  10  20  36  58  81 116 153 180 218 278 332
#     4  11  22  35  58  85 114 148 182 223 282 332
#     4   9  22  42  60  80 108 141 192 238 276 328
#     4  10  21  39  61  83 108 146 185 232 283 325
#     4  10  20  33  52  74 118 158 182 219 258 304
#
# _framework density 21.873778000000001
#
# number of rings (size 3 to 8) (size 9 to 14) (size 15 to 20)
#    0.000    2.000    0.000    3.000    0.000   11.000 
#    0.000    2.500    0.000    3.000    0.000    0.000 
#    0.000    0.000    0.000    0.000    0.000    0.000 
#
# Total GULP energy -198346.064695 kJ/mol
# GULP energy per Si atom -12396.629043 kJ/mol
# Density = 2.182399 g / cm^3
# Si number density = 21.873778 Si / 1000 Ang^3
#
#
#
# Elastic Constant Matrix: (Units=GPa)
#
#
# Indices 1 2 3 4 5 6 
#
# 1 108.4981 35.3607 27.1948 -12.2317 32.8505 -14.1336
# 2 35.3607 141.3277 21.2676 -10.6767 32.9549 -6.3632
# 3 27.1948 21.2676 56.4160 -5.5796 16.5667 -2.5745
# 4 -12.2317 -10.6767 -5.5796 25.1725 -4.9306 7.0369
# 5 32.8505 32.9549 16.5667 -4.9306 28.2315 -6.9860
# 6 -14.1336 -6.3632 -2.5745 7.0369 -6.9860 28.1629
#
#
#
# Elastic Compliance Matrix: (Units=1/GPa)
#
#
# Indices 1 2 3 4 5 6 
#
# 1 0.015072 0.000588 -0.002488 0.003194 -0.015507 0.002824
# 2 0.000588 0.009877 -0.000338 0.002367 -0.011858 -0.001037
# 3 -0.002488 -0.000338 0.022057 0.002257 -0.009832 -0.002312
# 4 0.003194 0.002367 0.002257 0.044979 -0.002291 -0.009463
# 5 -0.015507 -0.011858 -0.009832 -0.002291 0.074586 0.007714
# 6 0.002824 -0.001037 -0.002312 -0.009463 0.007714 0.040757
#
#
# Mechanical properties :
#
#
# Convention : Reuss Voigt Hill
#
# Bulk Modulus (GPa) = 23.51307 52.65423 38.08365
# Shear Modulus (GPa) = 22.12572 31.14130 26.63351
#
# Velocity S-wave (km/s) = 3.18389 3.77726 3.49320
# Velocity P-wave (km/s) = 4.92838 6.56869 5.80675
#
# Compressibility (1/GPa) = 0.04252953
#
# Stress axis : x y z
#
# Youngs Moduli (GPa) = 66.34749 101.24792 45.33691
#
# Poissons Ratio (x) = -0.05952 0.11282
# Poissons Ratio (y) = -0.03900 0.01531
# Poissons Ratio (z) = 0.16510 0.03419
#
# Static dielectric constant tensor:
#      x y z
#    x 4.272140 -0.109990 0.209500 
#    y -0.109990 4.093650 -0.081760 
#    z 0.209500 -0.081760 3.729020 
# 
# 
# High freq. dielectric constant tensor:
#      x y z
#    x 1.878470 -0.002300 0.013670 
#    y -0.002300 1.863090 0.000000 
#    z 0.013670 0.000000 1.836560 
# 
# From -- ./inp_files/201893.got.cif
#   From: 2010.06.25/outbox.cif.g09.slc.cpg/sg2_101_cif.got.tgz:201893.got - 2010.06.27 13:26:56.
