data_PCOD8001094
_publ_section_title
;
Structure prediction by ZEFSAII (Michael W. Deem and Ramdas Pophale) SiO2 
 PCOD8001094
Probable space group: P -1
;
_chemical_formula_sum "Si O2"
_cell_formula_units_Z 14
_cell_length_a 9.333081
_cell_length_b 9.101376
_cell_length_c 9.317045
_cell_angle_alpha 71.377396
_cell_angle_beta 109.427948
_cell_angle_gamma 114.026375
_cell_volume 665.977545
_symmetry_space_group_name_H-M "P -1"
_symmetry_group_IT_number 2
_symmetry_cell_setting 'triclinic'
loop_
_space_group_symop_operation_xyz
x,y,z
-x,-y,-z
loop_
_atom_site_type_symbol
_atom_site_label
_atom_site_fract_x
_atom_site_fract_y
_atom_site_fract_z
Si Si1 0.259054 0.097629 0.026732
Si Si2 0.034824 0.401237 0.241500
Si Si3 0.253668 0.890592 0.818414
Si Si4 0.137306 0.369034 0.963887
Si Si5 0.420836 0.648963 0.039236
Si Si6 0.550047 0.059340 0.659321
Si Si7 0.622454 0.424890 0.629605
O O1 0.306876 0.998618 0.205305
O O2 0.117423 0.176130 0.990313
O O3 0.411383 0.260813 0.006846
O O4 0.207969 0.000052 0.890980
O O5 0.197584 0.442846 0.375609
O O6 0.901487 0.222498 0.290905
O O7 0.970365 0.556056 0.197152
O O8 0.082716 0.388713 0.098466
O O9 0.390548 0.001620 0.723583
O O10 0.316030 0.769870 0.971537
O O11 0.324159 0.485846 0.967439
O O12 0.438993 0.602371 0.221163
O O13 0.616817 0.255255 0.607775
O O14 0.500000 0.000000 0.500000
O O15 0.500000 0.500000 0.500000
#
# Coordination Sequence:
#
# PCOD8001094 Si02
#       7
#     2   2   2   2   2   2   2
#     4  11  19  35  66  96 120 154 214 254 300 349
#     4   9  21  40  58  89 126 159 203 248 310 356
#     4  10  19  41  66  89 124 158 200 265 298 347
#     4   9  19  32  60  92 124 152 198 261 299 352
#     4   9  17  36  60  91 119 159 206 246 294 356
#     4  11  24  40  61  94 127 162 204 251 304 363
#     4  11  22  41  64  83 125 170 198 242 311 375
#
# _framework density 21.021730999999999
#
# number of rings (size 3 to 8) (size 9 to 14) (size 15 to 20)
#    0.000    2.000    2.857    2.143    4.000    0.571 
#    0.000    1.429    0.000    0.000    0.000    0.000 
#    0.000    0.000    0.000    0.000    0.000    0.000 
#
# Total GULP energy -173443.601321 kJ/mol
# GULP energy per Si atom -12388.828666 kJ/mol
# Density = 2.097388 g / cm^3
# Si number density = 21.021731 Si / 1000 Ang^3
#
#
#
# Elastic Constant Matrix: (Units=GPa)
#
#
# Indices 1 2 3 4 5 6 
#
# 1 61.2982 56.3239 32.0716 1.6079 24.8482 -12.2932
# 2 56.3239 125.6596 31.4305 3.1611 16.0947 -22.5151
# 3 32.0716 31.4305 80.0877 10.6937 9.3206 -13.8412
# 4 1.6079 3.1611 10.6937 21.8467 3.0227 1.8212
# 5 24.8482 16.0947 9.3206 3.0227 25.5656 -2.0964
# 6 -12.2932 -22.5151 -13.8412 1.8212 -2.0964 46.9164
#
#
#
# Elastic Compliance Matrix: (Units=1/GPa)
#
#
# Indices 1 2 3 4 5 6 
#
# 1 0.051524 -0.015626 -0.011274 0.009072 -0.037149 0.000664
# 2 -0.015626 0.014677 0.000710 -0.002484 0.006272 0.003535
# 3 -0.011274 0.000710 0.017869 -0.009028 0.005330 0.003247
# 4 0.009072 -0.002484 -0.009028 0.051651 -0.010393 -0.003948
# 5 -0.037149 0.006272 0.005330 -0.010393 0.070428 -0.001601
# 6 0.000664 0.003535 0.003247 -0.003948 -0.001601 0.024225
#
#
# Mechanical properties :
#
#
# Convention : Reuss Voigt Hill
#
# Bulk Modulus (GPa) = 31.55533 56.29972 43.92753
# Shear Modulus (GPa) = 17.04645 28.68037 22.86341
#
# Velocity S-wave (km/s) = 2.85071 3.69768 3.30147
# Velocity P-wave (km/s) = 5.08712 6.71344 5.95605
#
# Compressibility (1/GPa) = 0.03169036
#
# Stress axis : x y z
#
# Youngs Moduli (GPa) = 19.40828 68.13463 55.96387
#
# Poissons Ratio (x) = 1.06466 0.63095
# Poissons Ratio (y) = 0.30327 -0.03975
# Poissons Ratio (z) = 0.21881 -0.04839
#
# Static dielectric constant tensor:
#      x y z
#    x 4.275150 0.384800 0.247280 
#    y 0.384800 4.323510 -0.029690 
#    z 0.247280 -0.029690 3.448970 
# 
# 
# High freq. dielectric constant tensor:
#      x y z
#    x 1.825170 0.002510 0.010750 
#    y 0.002510 1.845070 -0.002220 
#    z 0.010750 -0.002220 1.779330 
# 
# From -- ./inp_files/157705.got.cif
#   From: 2010.06.25/outbox.cif.g09.slc.cpg/sg2_79_cif.got.tgz:157705.got - 2010.06.27 13:26:56.
