data_PCOD8001385
_publ_section_title
;
Structure prediction by ZEFSAII (Michael W. Deem and Ramdas Pophale) SiO2 
 PCOD8001385
Probable space group: P -1
;
_chemical_formula_sum "Si O2"
_cell_formula_units_Z 14
_cell_length_a 21.226639
_cell_length_b 11.995260
_cell_length_c 12.037305
_cell_angle_alpha 56.223274
_cell_angle_beta 144.163423
_cell_angle_gamma 148.575237
_cell_volume 837.862836
_symmetry_space_group_name_H-M "P -1"
_symmetry_group_IT_number 2
_symmetry_cell_setting 'triclinic'
loop_
_space_group_symop_operation_xyz
x,y,z
-x,-y,-z
loop_
_atom_site_type_symbol
_atom_site_label
_atom_site_fract_x
_atom_site_fract_y
_atom_site_fract_z
Si Si1 0.907892 0.954775 0.718469
Si Si2 0.030717 0.119493 0.370270
Si Si3 0.195504 0.873494 0.032739
Si Si4 0.158380 0.339733 0.029187
Si Si5 0.427732 0.644874 0.578540
Si Si6 0.165729 0.549038 0.102116
Si Si7 0.498323 0.530364 0.352747
O O1 0.024184 0.024731 0.738116
O O2 0.880907 0.797136 0.846069
O O3 0.706587 0.801455 0.467694
O O4 0.992896 0.163209 0.797538
O O5 0.250610 0.398539 0.530395
O O6 0.879316 0.085481 0.176916
O O7 0.000000 0.000000 0.500000
O O8 0.046404 0.704927 0.015039
O O9 0.196956 0.739777 0.036432
O O10 0.413756 0.122505 0.246185
O O11 0.179404 0.509595 0.016184
O O12 0.339255 0.479724 0.135306
O O13 0.336381 0.659622 0.356774
O O14 0.543888 0.649157 0.676184
O O15 0.500000 0.500000 0.500000
#
# Coordination Sequence:
#
# PCOD8001385 Si02
#       7
#     2   2   2   2   2   2   2
#     4   9  17  28  45  72  94 123 154 198 243 281
#     4  10  20  36  51  70  97 127 171 207 229 279
#     4  10  20  32  47  69 101 134 161 192 241 290
#     4  10  16  27  47  71 102 120 150 194 247 295
#     4  10  18  32  48  74 100 126 159 198 245 289
#     4  10  19  30  46  74 104 130 154 192 243 302
#     4   9  15  24  41  67  98 118 145 187 237 288
#
# _framework density 16.709178000000001
#
# number of rings (size 3 to 8) (size 9 to 14) (size 15 to 20)
#    0.000    2.286    5.714    1.286    4.000    0.571 
#    0.000    0.000    0.000    0.857    0.000    5.000 
#    0.000    0.000    0.000    0.000    0.000    0.000 
#
# Total GULP energy -173465.890642 kJ/mol
# GULP energy per Si atom -12390.420760 kJ/mol
# Density = 1.667115 g / cm^3
# Si number density = 16.709178 Si / 1000 Ang^3
#
#
#
# Elastic Constant Matrix: (Units=GPa)
#
#
# Indices 1 2 3 4 5 6 
#
# 1 111.3457 48.9229 43.2999 -3.6882 2.5311 -27.6955
# 2 48.9229 65.1705 45.1809 1.1851 -7.3696 -15.6941
# 3 43.2999 45.1809 78.4941 11.8281 -3.3277 -13.3149
# 4 -3.6882 1.1851 11.8281 22.7866 -3.7989 -3.6067
# 5 2.5311 -7.3696 -3.3277 -3.7989 23.2221 0.5043
# 6 -27.6955 -15.6941 -13.3149 -3.6067 0.5043 24.8933
#
#
#
# Elastic Compliance Matrix: (Units=1/GPa)
#
#
# Indices 1 2 3 4 5 6 
#
# 1 0.017743 -0.007630 -0.004294 0.006983 -0.004127 0.013729
# 2 -0.007630 0.033923 -0.015023 0.007463 0.010541 0.005730
# 3 -0.004294 -0.015023 0.025278 -0.013944 -0.002900 -0.002690
# 4 0.006983 0.007463 -0.013944 0.055297 0.008376 0.012858
# 5 -0.004127 0.010541 -0.002900 0.008376 0.047796 0.000749
# 6 0.013729 0.005730 -0.002690 0.012858 0.000749 0.059467
#
#
# Mechanical properties :
#
#
# Convention : Reuss Voigt Hill
#
# Bulk Modulus (GPa) = 43.38408 58.86863 51.12636
# Shear Modulus (GPa) = 16.60671 22.02084 19.31377
#
# Velocity S-wave (km/s) = 3.15599 3.63421 3.40351
# Velocity P-wave (km/s) = 6.26904 7.27446 6.79039
#
# Compressibility (1/GPa) = 0.02304993
#
# Stress axis : x y z
#
# Youngs Moduli (GPa) = 56.35875 29.47812 39.56043
#
# Poissons Ratio (x) = 0.22493 0.16989
# Poissons Ratio (y) = 0.43003 0.59431
# Poissons Ratio (z) = 0.24202 0.44284
#
# Static dielectric constant tensor:
#      x y z
#    x 3.418450 -0.140460 0.393670 
#    y -0.140460 2.795480 0.338200 
#    z 0.393670 0.338200 3.431600 
# 
# 
# High freq. dielectric constant tensor:
#      x y z
#    x 1.649720 -0.020820 0.012770 
#    y -0.020820 1.589370 0.031540 
#    z 0.012770 0.031540 1.642700 
# 
# From -- ./inp_files/216222.got.cif
#   From: 2010.06.25/outbox.cif.g09.slc.cpg/sg2_109_cif.got.tgz:216222.got - 2010.06.27 13:26:56.
