data_PCOD8001289
_publ_section_title
;
Structure prediction by ZEFSAII (Michael W. Deem and Ramdas Pophale) SiO2 
 PCOD8001289
Probable space group: P -1
;
_chemical_formula_sum "Si O2"
_cell_formula_units_Z 14
_cell_length_a 11.464216
_cell_length_b 12.182886
_cell_length_c 14.261423
_cell_angle_alpha 150.258279
_cell_angle_beta 48.128642
_cell_angle_gamma 130.762192
_cell_volume 721.149477
_symmetry_space_group_name_H-M "P -1"
_symmetry_group_IT_number 2
_symmetry_cell_setting 'triclinic'
loop_
_space_group_symop_operation_xyz
x,y,z
-x,-y,-z
loop_
_atom_site_type_symbol
_atom_site_label
_atom_site_fract_x
_atom_site_fract_y
_atom_site_fract_z
Si Si1 0.426389 0.408039 0.568925
Si Si2 0.941831 0.695410 0.730007
Si Si3 0.416199 0.397990 0.199762
Si Si4 0.357949 0.890078 0.181196
Si Si5 0.140816 0.638815 0.963307
Si Si6 0.035357 0.194041 0.991386
Si Si7 0.634007 0.523829 0.023265
O O1 0.500000 0.500000 0.500000
O O2 0.577494 0.497582 0.622604
O O3 0.269682 0.493461 0.752523
O O4 0.378052 0.139484 0.394459
O O5 0.751595 0.637912 0.787921
O O6 0.000000 0.500000 0.500000
O O7 0.003214 0.708860 0.814473
O O8 0.006883 0.925043 0.810059
O O9 0.546930 0.580666 0.207438
O O10 0.474020 0.155807 0.986002
O O11 0.226384 0.847160 0.136729
O O12 0.306142 0.713751 0.165403
O O13 0.000000 0.500000 0.000000
O O14 0.074682 0.731127 0.973382
O O15 0.220635 0.275971 0.928953
O O16 0.500000 0.500000 0.000000
#
# Coordination Sequence:
#
# PCOD8001289 Si02
#       7
#     2   2   2   2   2   2   2
#     4  11  25  39  66  97 125 171 219 257 319 392
#     4  11  26  41  62  97 129 167 215 263 321 388
#     4   9  22  42  63  90 130 160 214 260 317 374
#     4   9  22  41  63  93 129 161 217 264 312 381
#     4  11  23  43  65  95 133 167 211 268 329 377
#     4  11  23  43  65  91 130 167 209 270 325 373
#     4  10  19  44  67  86 121 174 206 260 322 369
#
# _framework density 19.413450000000001
#
# number of rings (size 3 to 8) (size 9 to 14) (size 15 to 20)
#    0.857    0.857    2.857    0.000    6.000    4.000 
#    5.143    1.429    0.000    0.000    0.000    0.000 
#    0.000    0.000    0.000    0.000    0.000    0.000 
#
# Total GULP energy -173466.231353 kJ/mol
# GULP energy per Si atom -12390.445097 kJ/mol
# Density = 1.936926 g / cm^3
# Si number density = 19.413450 Si / 1000 Ang^3
#
#
#
# Elastic Constant Matrix: (Units=GPa)
#
#
# Indices 1 2 3 4 5 6 
#
# 1 145.9710 27.0192 46.1178 8.7647 1.2334 -16.4802
# 2 27.0192 108.1819 52.8432 2.0437 -5.6034 -8.4431
# 3 46.1178 52.8432 116.1844 14.2499 11.2898 -0.0184
# 4 8.7647 2.0437 14.2499 27.4453 2.7842 1.1430
# 5 1.2334 -5.6034 11.2898 2.7842 22.4715 -8.0213
# 6 -16.4802 -8.4431 -0.0184 1.1430 -8.0213 35.8934
#
#
#
# Elastic Compliance Matrix: (Units=1/GPa)
#
#
# Indices 1 2 3 4 5 6 
#
# 1 0.008553 0.000207 -0.003636 -0.001389 0.003277 0.004751
# 2 0.000207 0.013582 -0.007302 0.001616 0.008691 0.005177
# 3 -0.003636 -0.007302 0.014981 -0.004770 -0.010550 -0.005585
# 4 -0.001389 0.001616 -0.004770 0.039609 -0.002798 -0.002147
# 5 0.003277 0.008691 -0.010550 -0.002798 0.058064 0.016609
# 6 0.004751 0.005177 -0.005585 -0.002147 0.016609 0.035036
#
#
# Mechanical properties :
#
#
# Convention : Reuss Voigt Hill
#
# Bulk Modulus (GPa) = 63.88222 69.14419 66.51321
# Shear Modulus (GPa) = 25.44446 33.45252 29.44849
#
# Velocity S-wave (km/s) = 3.62423 4.15560 3.89898
# Velocity P-wave (km/s) = 7.10570 7.66285 7.38953
#
# Compressibility (1/GPa) = 0.01565381
#
# Stress axis : x y z
#
# Youngs Moduli (GPa) = 116.91315 73.62515 66.75243
#
# Poissons Ratio (x) = -0.01522 0.24274
# Poissons Ratio (y) = -0.02417 0.48740
# Poissons Ratio (z) = 0.42515 0.53758
#
# Static dielectric constant tensor:
#      x y z
#    x 3.994430 -0.035630 0.118170 
#    y -0.035630 3.555510 0.045640 
#    z 0.118170 0.045640 3.239690 
# 
# 
# High freq. dielectric constant tensor:
#      x y z
#    x 1.779090 -0.002160 0.009130 
#    y -0.002160 1.759940 -0.005580 
#    z 0.009130 -0.005580 1.733480 
# 
# From -- ./inp_files/518353.got.cif
#   From: 2010.06.25/outbox.cif.g09.slc.cpg/sg2_260_cif.got.tgz:518353.got - 2010.06.27 13:26:56.
