data_PCOD8001177
_publ_section_title
;
Structure prediction by ZEFSAII (Michael W. Deem and Ramdas Pophale) SiO2 
 PCOD8001177
Probable space group: P -1
;
_chemical_formula_sum "Si O2"
_cell_formula_units_Z 14
_cell_length_a 7.024055
_cell_length_b 8.022949
_cell_length_c 21.177370
_cell_angle_alpha 41.892177
_cell_angle_beta 39.766636
_cell_angle_gamma 56.652289
_cell_volume 509.031052
_symmetry_space_group_name_H-M "P -1"
_symmetry_group_IT_number 2
_symmetry_cell_setting 'triclinic'
loop_
_space_group_symop_operation_xyz
x,y,z
-x,-y,-z
loop_
_atom_site_type_symbol
_atom_site_label
_atom_site_fract_x
_atom_site_fract_y
_atom_site_fract_z
Si Si1 0.673002 0.205643 0.464771
Si Si2 0.014180 0.188167 0.672446
Si Si3 0.694660 0.880840 0.932089
Si Si4 0.800800 0.211064 0.015964
Si Si5 0.374460 0.623216 0.862336
Si Si6 0.249471 0.322731 0.368056
Si Si7 0.042622 0.330560 0.227196
O O1 0.356565 0.285927 0.549255
O O2 0.737485 0.342585 0.342535
O O3 0.931478 0.282490 0.426649
O O4 0.688326 0.903325 0.536244
O O5 0.784214 0.413706 0.660760
O O6 0.921915 0.963958 0.711488
O O7 0.970297 0.069050 0.788110
O O8 0.516144 0.806527 0.934050
O O9 0.828406 0.637507 0.000102
O O10 0.500000 0.000000 0.000000
O O11 0.967931 0.486442 0.882912
O O12 0.744127 0.167982 0.117921
O O13 0.000000 0.000000 0.000000
O O14 0.455047 0.686580 0.751048
O O15 0.695419 0.553860 0.827947
#
# Coordination Sequence:
#
# PCOD8001177 Si02
#       7
#     2   2   2   2   2   2   2
#     4  10  24  43  60  91 130 169 217 257 322 377
#     4  12  21  39  67  91 126 168 211 266 320 376
#     4  11  21  39  65  95 126 164 211 264 328 377
#     4  11  23  41  66  96 130 169 211 263 332 386
#     4  10  19  42  63  87 129 164 203 261 329 375
#     4  10  23  42  64  91 127 167 214 269 311 388
#     4  10  21  42  63  87 128 167 210 261 312 390
#
# _framework density 27.503233999999999
#
# number of rings (size 3 to 8) (size 9 to 14) (size 15 to 20)
#    0.000    1.429    4.286    1.714    0.000    2.857 
#    7.714    1.429    0.000    0.000    0.000    0.000 
#    0.000    0.000    0.000    0.000    0.000    0.000 
#
# Total GULP energy -173439.216044 kJ/mol
# GULP energy per Si atom -12388.515432 kJ/mol
# Density = 2.744064 g / cm^3
# Si number density = 27.503234 Si / 1000 Ang^3
#
#
#
# Elastic Constant Matrix: (Units=GPa)
#
#
# Indices 1 2 3 4 5 6 
#
# 1 31.3604 3.1805 12.7973 7.9648 -18.3765 -0.6863
# 2 3.1805 173.3445 49.0797 18.0493 5.0145 -8.4338
# 3 12.7973 49.0797 176.7340 36.7267 23.3313 -4.6342
# 4 7.9648 18.0493 36.7267 53.7945 4.1542 0.5306
# 5 -18.3765 5.0145 23.3313 4.1542 29.0703 -1.6392
# 6 -0.6863 -8.4338 -4.6342 0.5306 -1.6392 36.2480
#
#
#
# Elastic Compliance Matrix: (Units=1/GPa)
#
#
# Indices 1 2 3 4 5 6 
#
# 1 0.069639 0.001146 -0.010829 -0.007479 0.053739 0.002740
# 2 0.001146 0.006398 -0.001732 -0.001245 0.001266 0.001364
# 3 -0.010829 -0.001732 0.009381 -0.003168 -0.013621 0.000022
# 4 -0.007479 -0.001245 -0.003168 0.022700 -0.005294 -0.001408
# 5 0.053739 0.001266 -0.013621 -0.005294 0.080024 0.003267
# 6 0.002740 0.001364 0.000022 -0.001408 0.003267 0.028128
#
#
# Mechanical properties :
#
#
# Convention : Reuss Voigt Hill
#
# Bulk Modulus (GPa) = 15.97785 56.83931 36.40858
# Shear Modulus (GPa) = 19.23352 44.91464 32.07408
#
# Velocity S-wave (km/s) = 2.64733 4.04551 3.41866
# Velocity P-wave (km/s) = 3.89442 6.52172 5.37119
#
# Compressibility (1/GPa) = 0.06258666
#
# Stress axis : x y z
#
# Youngs Moduli (GPa) = 14.35971 156.30680 106.60388
#
# Poissons Ratio (x) = -0.17910 1.15441
# Poissons Ratio (y) = -0.01645 0.18467
# Poissons Ratio (z) = 0.15550 0.27077
#
# Static dielectric constant tensor:
#      x y z
#    x 4.924210 0.005520 -0.202960 
#    y 0.005520 4.959020 0.083080 
#    z -0.202960 0.083080 6.101140 
# 
# 
# High freq. dielectric constant tensor:
#      x y z
#    x 2.100400 0.004270 -0.016890 
#    y 0.004270 2.103550 0.016810 
#    z -0.016890 0.016810 2.137170 
# 
# From -- ./inp_files/178473.got.cif
#   From: 2010.06.25/outbox.cif.g09.slc.cpg/sg2_90_cif.got.tgz:178473.got - 2010.06.27 13:26:56.
