data_PCOD8001359
_publ_section_title
;
Structure prediction by ZEFSAII (Michael W. Deem and Ramdas Pophale) SiO2 
 PCOD8001359
Probable space group: P -1
;
_chemical_formula_sum "Si O2"
_cell_formula_units_Z 16
_cell_length_a 12.347683
_cell_length_b 11.375751
_cell_length_c 9.132410
_cell_angle_alpha 84.951754
_cell_angle_beta 122.653823
_cell_angle_gamma 128.379310
_cell_volume 785.130731
_symmetry_space_group_name_H-M "P -1"
_symmetry_group_IT_number 2
_symmetry_cell_setting 'triclinic'
loop_
_space_group_symop_operation_xyz
x,y,z
-x,-y,-z
loop_
_atom_site_type_symbol
_atom_site_label
_atom_site_fract_x
_atom_site_fract_y
_atom_site_fract_z
Si Si1 0.861066 0.309519 0.445495
Si Si2 0.917275 0.820859 0.972764
Si Si3 0.744248 0.373786 0.881827
Si Si4 0.339070 0.311964 0.936404
Si Si5 0.106186 0.711096 0.198529
Si Si6 0.685591 0.553723 0.614448
Si Si7 0.832598 0.640551 0.393893
Si Si8 0.618299 0.312788 0.105882
O O1 0.814592 0.259224 0.586243
O O2 0.677418 0.228465 0.239597
O O3 0.000000 0.500000 0.500000
O O4 0.956817 0.253051 0.451828
O O5 0.752704 0.715832 0.974513
O O6 0.070220 0.826893 0.133936
O O7 0.840794 0.734283 0.769576
O O8 0.000000 0.000000 0.000000
O O9 0.755410 0.253304 0.823597
O O10 0.678417 0.426768 0.709550
O O11 0.610235 0.284340 0.929043
O O12 0.929845 0.524252 0.073036
O O13 0.199990 0.247916 0.708246
O O14 0.500000 0.500000 0.000000
O O15 0.418141 0.228480 0.009408
O O16 0.500000 0.500000 0.500000
O O17 0.729582 0.554502 0.478362
O O18 0.756025 0.502302 0.230265
#
# Coordination Sequence:
#
# PCOD8001359 Si02
#       8
#     2   2   2   2   2   2   2   2
#     4  10  16  27  46  81 113 144 189 245 304 342
#     4  11  24  41  60  85 124 168 201 241 308 374
#     4  10  18  29  52  86 118 146 193 255 302 339
#     4  10  18  36  58  82 113 156 204 245 293 351
#     4  10  18  32  51  80 117 152 197 248 292 355
#     4  11  21  34  57  90 120 152 205 257 303 350
#     4  10  17  29  50  78 114 145 189 249 293 346
#     4  10  18  27  50  83 115 143 185 247 309 345
#
# _framework density 20.378771
#
# number of rings (size 3 to 8) (size 9 to 14) (size 15 to 20)
#    0.000    1.750    3.750    6.000    3.500    0.000 
#    0.000    0.625    0.000    3.750    0.000    0.000 
#    0.000    0.000    0.000    0.000    0.000    0.000 
#
# Total GULP energy -198286.559300 kJ/mol
# GULP energy per Si atom -12392.909956 kJ/mol
# Density = 2.033239 g / cm^3
# Si number density = 20.378771 Si / 1000 Ang^3
#
#
#
# Elastic Constant Matrix: (Units=GPa)
#
#
# Indices 1 2 3 4 5 6 
#
# 1 179.9027 34.7853 64.0223 -31.6616 10.2943 -7.8903
# 2 34.7853 58.6136 29.4043 -13.6095 -2.3166 -11.5742
# 3 64.0223 29.4043 87.9627 -42.4339 15.4814 -7.4056
# 4 -31.6616 -13.6095 -42.4339 28.4069 -3.8088 1.5642
# 5 10.2943 -2.3166 15.4814 -3.8088 44.4387 -19.4331
# 6 -7.8903 -11.5742 -7.4056 1.5642 -19.4331 24.5033
#
#
#
# Elastic Compliance Matrix: (Units=1/GPa)
#
#
# Indices 1 2 3 4 5 6 
#
# 1 0.007725 -0.002258 -0.004308 0.001050 -0.000450 -0.000304
# 2 -0.002258 0.027122 -0.009843 -0.003473 0.014006 0.020439
# 3 -0.004308 -0.009843 0.051795 0.066238 -0.014583 -0.006177
# 4 0.001050 -0.003473 0.066238 0.132024 -0.011766 0.000957
# 5 -0.000450 0.014006 -0.014583 -0.011766 0.043847 0.037589
# 6 -0.000304 0.020439 -0.006177 0.000957 0.037589 0.078250
#
#
# Mechanical properties :
#
#
# Convention : Reuss Voigt Hill
#
# Bulk Modulus (GPa) = 18.57905 64.76698 41.67301
# Shear Modulus (GPa) = 12.77070 32.68759 22.72915
#
# Velocity S-wave (km/s) = 2.50605 4.00934 3.34329
# Velocity P-wave (km/s) = 4.18454 7.29957 5.94954
#
# Compressibility (1/GPa) = 0.05382407
#
# Stress axis : x y z
#
# Youngs Moduli (GPa) = 129.44343 36.87092 19.30706
#
# Poissons Ratio (x) = 0.08324 0.08318
# Poissons Ratio (y) = 0.29224 0.19004
# Poissons Ratio (z) = 0.55766 0.36292
#
# Static dielectric constant tensor:
#      x y z
#    x 4.893070 -0.387750 0.750070 
#    y -0.387750 3.186030 -0.718470 
#    z 0.750070 -0.718470 4.212430 
# 
# 
# High freq. dielectric constant tensor:
#      x y z
#    x 1.827170 -0.003320 0.012460 
#    y -0.003320 1.725760 -0.056620 
#    z 0.012460 -0.056620 1.786520 
# 
# From -- ./inp_files/257538.got.cif
#   From: 2010.06.25/outbox.cif.g09.slc.cpg/sg2_129_cif.got.tgz:257538.got - 2010.06.27 13:26:56.
