data_PCOD8001643
_publ_section_title
;
Structure prediction by ZEFSAII (Michael W. Deem and Ramdas Pophale) SiO2 
 PCOD8001643
Probable space group: P -1
;
_chemical_formula_sum "Si O2"
_cell_formula_units_Z 16
_cell_length_a 10.499395
_cell_length_b 12.481125
_cell_length_c 13.550073
_cell_angle_alpha 135.157846
_cell_angle_beta 59.274848
_cell_angle_gamma 88.104736
_cell_volume 815.933059
_symmetry_space_group_name_H-M "P -1"
_symmetry_group_IT_number 2
_symmetry_cell_setting 'triclinic'
loop_
_space_group_symop_operation_xyz
x,y,z
-x,-y,-z
loop_
_atom_site_type_symbol
_atom_site_label
_atom_site_fract_x
_atom_site_fract_y
_atom_site_fract_z
Si Si1 0.580736 0.933652 0.271968
Si Si2 0.318432 0.917025 0.499459
Si Si3 0.569204 0.711282 0.782784
Si Si4 0.166985 0.505200 0.168421
Si Si5 0.485424 0.469233 0.143341
Si Si6 0.036429 0.534647 0.616694
Si Si7 0.068349 0.830464 0.285508
Si Si8 0.337263 0.063166 0.972034
O O1 0.392154 0.975787 0.419633
O O2 0.638987 0.038956 0.382951
O O3 0.760845 0.695949 0.044130
O O4 0.540458 0.020435 0.233290
O O5 0.431859 0.681578 0.297223
O O6 0.083871 0.058400 0.672743
O O7 0.543463 0.571638 0.760285
O O8 0.735877 0.574163 0.543604
O O9 0.611099 0.813927 0.913345
O O10 0.381163 0.887891 0.908229
O O11 0.352412 0.470984 0.117716
O O12 0.055988 0.675245 0.240893
O O13 0.009537 0.571097 0.358367
O O14 0.711312 0.285585 0.911108
O O15 0.000000 0.500000 0.500000
O O16 0.896284 0.773895 0.850532
O O17 0.000000 0.000000 0.500000
#
# Coordination Sequence:
#
# PCOD8001643 Si02
#       8
#     2   2   2   2   2   2   2   2
#     4  10  21  44  62  83 127 161 200 256 296 355
#     4  11  25  41  60  88 123 167 201 244 308 357
#     4  10  20  33  62  92 118 151 199 250 299 352
#     4  11  20  38  64  88 124 153 203 255 299 353
#     4  12  22  41  58  92 131 151 194 260 301 358
#     4   9  17  33  53  89 115 149 191 249 295 338
#     4  12  25  35  62  93 119 158 202 246 308 361
#     4   9  19  34  58  89 114 149 200 247 293 346
#
# _framework density 19.609451
#
# number of rings (size 3 to 8) (size 9 to 14) (size 15 to 20)
#    0.000    1.500    6.250    1.125    1.750    3.500 
#    0.000    0.625    0.000    3.750    0.000    0.000 
#    0.000    0.000    0.000    0.000    0.000    0.000 
#
# Total GULP energy -198321.082902 kJ/mol
# GULP energy per Si atom -12395.067681 kJ/mol
# Density = 1.956482 g / cm^3
# Si number density = 19.609451 Si / 1000 Ang^3
#
#
#
# Elastic Constant Matrix: (Units=GPa)
#
#
# Indices 1 2 3 4 5 6 
#
# 1 64.3729 30.8191 47.4621 5.2412 -8.1169 0.5976
# 2 30.8191 83.1252 29.4984 1.4385 -6.7522 -7.8626
# 3 47.4621 29.4984 109.4623 -5.9846 -11.5968 1.0285
# 4 5.2412 1.4385 -5.9846 36.9998 0.7759 -1.7886
# 5 -8.1169 -6.7522 -11.5968 0.7759 30.1218 0.5351
# 6 0.5976 -7.8626 1.0285 -1.7886 0.5351 19.9723
#
#
#
# Elastic Compliance Matrix: (Units=1/GPa)
#
#
# Indices 1 2 3 4 5 6 
#
# 1 0.026591 -0.006421 -0.009832 -0.005314 0.002137 -0.003350
# 2 -0.006421 0.015574 -0.001333 0.000374 0.001124 0.006395
# 3 -0.009832 -0.001333 0.014224 0.003660 0.002446 -0.000701
# 4 -0.005314 0.000374 0.003660 0.028503 -0.000721 0.002690
# 5 0.002137 0.001124 0.002446 -0.000721 0.035000 -0.000750
# 6 -0.003350 0.006395 -0.000701 0.002690 -0.000750 0.052984
#
#
# Mechanical properties :
#
#
# Convention : Reuss Voigt Hill
#
# Bulk Modulus (GPa) = 47.13466 52.50218 49.81842
# Shear Modulus (GPa) = 23.24288 27.36416 25.30352
#
# Velocity S-wave (km/s) = 3.44654 3.73964 3.59607
# Velocity P-wave (km/s) = 6.31879 6.74378 6.53474
#
# Compressibility (1/GPa) = 0.02121581
#
# Stress axis : x y z
#
# Youngs Moduli (GPa) = 37.60673 64.21142 70.30497
#
# Poissons Ratio (x) = 0.41231 0.69123
# Poissons Ratio (y) = 0.24148 0.09373
# Poissons Ratio (z) = 0.36975 0.08561
#
# Static dielectric constant tensor:
#      x y z
#    x 3.023040 0.091870 0.162060 
#    y 0.091870 3.653610 -0.315740 
#    z 0.162060 -0.315740 3.411990 
# 
# 
# High freq. dielectric constant tensor:
#      x y z
#    x 1.718080 -0.011280 -0.011740 
#    y -0.011280 1.773260 -0.002450 
#    z -0.011740 -0.002450 1.774210 
# 
# From -- ./inp_files/392996.got.cif
#   From: 2010.06.25/outbox.cif.g09.slc.cpg/sg2_197_cif.got.tgz:392996.got - 2010.06.27 13:26:56.
