data_PCOD8001794
_publ_section_title
;
Structure prediction by ZEFSAII (Michael W. Deem and Ramdas Pophale) SiO2 
 PCOD8001794
Probable space group: P -1
;
_chemical_formula_sum "Si O2"
_cell_formula_units_Z 16
_cell_length_a 15.409088
_cell_length_b 8.214440
_cell_length_c 14.267993
_cell_angle_alpha 137.550246
_cell_angle_beta 54.835022
_cell_angle_gamma 94.796924
_cell_volume 782.920494
_symmetry_space_group_name_H-M "P -1"
_symmetry_group_IT_number 2
_symmetry_cell_setting 'triclinic'
loop_
_space_group_symop_operation_xyz
x,y,z
-x,-y,-z
loop_
_atom_site_type_symbol
_atom_site_label
_atom_site_fract_x
_atom_site_fract_y
_atom_site_fract_z
Si Si1 0.039681 0.367697 0.774455
Si Si2 0.379894 0.303973 0.754728
Si Si3 0.694332 0.675924 0.812235
Si Si4 0.794111 0.992119 0.640218
Si Si5 0.062751 0.589249 0.573355
Si Si6 0.906058 0.275472 0.984665
Si Si7 0.210987 0.454245 0.093250
Si Si8 0.445718 0.723614 0.964058
O O1 0.175793 0.061378 0.512656
O O2 0.000336 0.257348 0.838891
O O3 0.916420 0.534534 0.847382
O O4 0.072496 0.596152 0.880684
O O5 0.444857 0.466700 0.808430
O O6 0.500000 0.000000 0.500000
O O7 0.251121 0.509475 0.853716
O O8 0.332340 0.234579 0.850201
O O9 0.815419 0.440898 0.566724
O O10 0.743900 0.672638 0.884080
O O11 0.597152 0.580536 0.838130
O O12 0.613491 0.017246 0.967899
O O13 0.888401 0.647012 0.473587
O O14 0.833826 0.200815 0.743547
O O15 0.640293 0.151158 0.832392
O O16 0.000000 0.500000 0.500000
O O17 0.955647 0.932730 0.825668
#
# Coordination Sequence:
#
# PCOD8001794 Si02
#       8
#     2   2   2   2   2   2   2   2
#     4  10  20  35  54  82 116 145 187 235 277 330
#     4  10  22  39  56  79 114 151 188 231 278 334
#     4  10  20  36  60  84 113 145 183 237 280 326
#     4  10  20  34  56  84 113 144 188 236 277 331
#     4  11  20  35  59  83 111 148 185 231 285 330
#     4  10  22  37  56  82 114 152 188 228 285 337
#     4  10  20  35  58  86 111 145 192 235 281 332
#     4   9  21  38  56  84 113 147 192 226 277 343
#
# _framework density 20.436302000000001
#
# number of rings (size 3 to 8) (size 9 to 14) (size 15 to 20)
#    0.000    2.000    0.000    4.875    0.000    7.500 
#    0.000    0.625    0.000    0.000    0.000    0.000 
#    0.000    0.000    0.000    0.000    0.000    0.000 
#
# Total GULP energy -198358.533551 kJ/mol
# GULP energy per Si atom -12397.408347 kJ/mol
# Density = 2.038979 g / cm^3
# Si number density = 20.436302 Si / 1000 Ang^3
#
#
#
# Elastic Constant Matrix: (Units=GPa)
#
#
# Indices 1 2 3 4 5 6 
#
# 1 109.6455 9.4201 35.7372 -13.8316 8.0498 3.5079
# 2 9.4201 45.5522 30.9893 -16.1925 -1.6501 -1.6557
# 3 35.7372 30.9893 143.1147 -14.6598 10.7294 5.8392
# 4 -13.8316 -16.1925 -14.6598 31.0605 1.1135 -1.1025
# 5 8.0498 -1.6501 10.7294 1.1135 29.2049 0.6556
# 6 3.5079 -1.6557 5.8392 -1.1025 0.6556 29.0765
#
#
#
# Elastic Compliance Matrix: (Units=1/GPa)
#
#
# Indices 1 2 3 4 5 6 
#
# 1 0.010454 0.000628 -0.002145 0.004028 -0.002198 -0.000592
# 2 0.000628 0.030851 -0.005809 0.013627 0.003111 0.003294
# 3 -0.002145 -0.005809 0.009122 0.000367 -0.003062 -0.001821
# 4 0.004028 0.013627 0.000367 0.041406 -0.002095 0.001833
# 5 -0.002198 0.003111 -0.003062 -0.002095 0.036223 0.000161
# 6 -0.000592 0.003294 -0.001821 0.001833 0.000161 0.035083
#
#
# Mechanical properties :
#
#
# Convention : Reuss Voigt Hill
#
# Bulk Modulus (GPa) = 27.95189 50.06729 39.00959
# Shear Modulus (GPa) = 26.35511 32.67945 29.51728
#
# Velocity S-wave (km/s) = 3.59503 4.00320 3.80459
# Velocity P-wave (km/s) = 5.56233 6.77642 6.19917
#
# Compressibility (1/GPa) = 0.03577576
#
# Stress axis : x y z
#
# Youngs Moduli (GPa) = 95.65806 32.41372 109.62198
#
# Poissons Ratio (x) = -0.02036 0.23512
# Poissons Ratio (y) = -0.06007 0.63679
# Poissons Ratio (z) = 0.20517 0.18829
#
# Static dielectric constant tensor:
#      x y z
#    x 3.815490 0.185390 -0.010340 
#    y 0.185390 3.509830 -0.340110 
#    z -0.010340 -0.340110 3.783370 
# 
# 
# High freq. dielectric constant tensor:
#      x y z
#    x 1.797550 0.008300 -0.003940 
#    y 0.008300 1.798020 -0.013490 
#    z -0.003940 -0.013490 1.795480 
# 
# From -- ./inp_files/274764.got.cif
#   From: 2010.06.25/outbox.cif.g09.slc.cpg/sg2_138_cif.got.tgz:274764.got - 2010.06.27 13:26:56.
