data_PCOD8001646
_publ_section_title
;
Structure prediction by ZEFSAII (Michael W. Deem and Ramdas Pophale) SiO2 
 PCOD8001646
Probable space group: P -1
;
_chemical_formula_sum "Si O2"
_cell_formula_units_Z 16
_cell_length_a 18.322898
_cell_length_b 12.069731
_cell_length_c 23.601554
_cell_angle_alpha 152.601737
_cell_angle_beta 21.446570
_cell_angle_gamma 152.781071
_cell_volume 814.514566
_symmetry_space_group_name_H-M "P -1"
_symmetry_group_IT_number 2
_symmetry_cell_setting 'triclinic'
loop_
_space_group_symop_operation_xyz
x,y,z
-x,-y,-z
loop_
_atom_site_type_symbol
_atom_site_label
_atom_site_fract_x
_atom_site_fract_y
_atom_site_fract_z
Si Si1 0.242192 0.312144 0.867089
Si Si2 0.128160 0.826579 0.663605
Si Si3 0.372783 0.356137 0.918845
Si Si4 0.207756 0.747619 0.451548
Si Si5 0.799548 0.012288 0.023496
Si Si6 0.603021 0.101974 0.808354
Si Si7 0.422589 0.159355 0.173266
Si Si8 0.011746 0.773557 0.493011
O O1 0.252276 0.347431 0.943077
O O2 0.426485 0.540739 0.805410
O O3 0.267127 0.040561 0.706955
O O4 0.001318 0.290168 0.011491
O O5 0.241705 0.919155 0.562066
O O6 0.108767 0.538523 0.563541
O O7 0.884953 0.828794 0.839100
O O8 0.605478 0.358553 0.739207
O O9 0.245994 0.106813 0.934733
O O10 0.391137 0.611492 0.055633
O O11 0.000000 0.500000 0.500000
O O12 0.162977 0.882287 0.488499
O O13 0.591106 0.042442 0.160725
O O14 0.831603 0.122278 0.626687
O O15 0.551597 0.931159 0.823904
O O16 0.172702 0.107883 0.319860
O O17 0.500000 0.000000 0.000000
#
# Coordination Sequence:
#
# PCOD8001646 Si02
#       8
#     2   2   2   2   2   2   2   2
#     4  10  23  42  62  99 128 163 206 256 323 368
#     4   9  21  37  65  97 124 157 201 271 319 355
#     4  12  20  38  67  97 127 160 208 259 323 365
#     4  10  20  33  62  98 128 154 199 268 314 364
#     4  10  22  38  66  96 125 159 201 267 318 361
#     4  12  22  41  64  92 127 170 211 250 304 386
#     4  12  27  41  64  88 126 180 210 250 301 383
#     4  11  22  41  63  95 126 161 217 258 310 364
#
# _framework density 19.643604
#
# number of rings (size 3 to 8) (size 9 to 14) (size 15 to 20)
#    0.750    0.500    3.750    4.125    1.750    2.500 
#    0.000    0.000    0.000    1.500    0.000    0.000 
#    0.000    0.000    0.000    0.000    0.000    0.000 
#
# Total GULP energy -198285.947749 kJ/mol
# GULP energy per Si atom -12392.871734 kJ/mol
# Density = 1.959889 g / cm^3
# Si number density = 19.643604 Si / 1000 Ang^3
#
#
#
# Elastic Constant Matrix: (Units=GPa)
#
#
# Indices 1 2 3 4 5 6 
#
# 1 118.1361 42.8084 37.7361 -15.8914 0.8855 -10.5612
# 2 42.8084 53.3225 31.8109 -18.3847 -0.2369 -3.3555
# 3 37.7361 31.8109 137.4145 -24.4209 1.2478 1.7890
# 4 -15.8914 -18.3847 -24.4209 23.6080 -3.7748 0.6230
# 5 0.8855 -0.2369 1.2478 -3.7748 34.5486 -8.5248
# 6 -10.5612 -3.3555 1.7890 0.6230 -8.5248 33.8431
#
#
#
# Elastic Compliance Matrix: (Units=1/GPa)
#
#
# Indices 1 2 3 4 5 6 
#
# 1 0.012433 -0.008972 -0.001396 -0.000075 0.000446 0.003178
# 2 -0.008972 0.033624 -0.002087 0.018407 0.002796 0.001010
# 3 -0.001396 -0.002087 0.009450 0.007270 0.000170 -0.001233
# 4 -0.000075 0.018407 0.007270 0.065310 0.007522 0.002110
# 5 0.000446 0.002796 0.000170 0.007522 0.031812 0.008282
# 6 0.003178 0.001010 -0.001233 0.002110 0.008282 0.032752
#
#
# Mechanical properties :
#
#
# Convention : Reuss Voigt Hill
#
# Bulk Modulus (GPa) = 32.68349 59.28712 45.98531
# Shear Modulus (GPa) = 22.67660 31.50110 27.08885
#
# Velocity S-wave (km/s) = 3.40133 4.00888 3.71754
# Velocity P-wave (km/s) = 5.66567 7.18854 6.47205
#
# Compressibility (1/GPa) = 0.03059648
#
# Stress axis : x y z
#
# Youngs Moduli (GPa) = 80.43357 29.74023 105.81590
#
# Poissons Ratio (x) = 0.26684 0.14770
# Poissons Ratio (y) = 0.72167 0.22088
# Poissons Ratio (z) = 0.11227 0.06208
#
# Static dielectric constant tensor:
#      x y z
#    x 5.555740 0.224310 0.450670 
#    y 0.224310 3.421400 -0.219040 
#    z 0.450670 -0.219040 3.953610 
# 
# 
# High freq. dielectric constant tensor:
#      x y z
#    x 1.772360 0.001000 0.012730 
#    y 0.001000 1.740900 -0.027170 
#    z 0.012730 -0.027170 1.768840 
# 
# From -- ./inp_files/613196.got.cif
#   From: 2010.06.25/outbox.cif.g09.slc.cpg/sg2_307_cif.got.tgz:613196.got - 2010.06.27 13:26:56.
