data_PCOD8001039
_publ_section_title
;
Structure prediction by ZEFSAII (Michael W. Deem and Ramdas Pophale) SiO2 
 PCOD8001039
Probable space group: P -1
;
_chemical_formula_sum "Si O2"
_cell_formula_units_Z 16
_cell_length_a 11.360854
_cell_length_b 19.218197
_cell_length_c 16.055770
_cell_angle_alpha 156.289283
_cell_angle_beta 148.401487
_cell_angle_gamma 43.165086
_cell_volume 717.110120
_symmetry_space_group_name_H-M "P -1"
_symmetry_group_IT_number 2
_symmetry_cell_setting 'triclinic'
loop_
_space_group_symop_operation_xyz
x,y,z
-x,-y,-z
loop_
_atom_site_type_symbol
_atom_site_label
_atom_site_fract_x
_atom_site_fract_y
_atom_site_fract_z
Si Si1 0.872393 0.350264 0.878882
Si Si2 0.350131 0.861640 0.645828
Si Si3 0.766765 0.178241 0.190119
Si Si4 0.422424 0.791950 0.066997
Si Si5 0.071617 0.012673 0.459738
Si Si6 0.319204 0.601504 0.472297
Si Si7 0.478888 0.470045 0.856307
Si Si8 0.177676 0.087087 0.271606
O O1 0.760575 0.281890 0.648322
O O2 0.728128 0.469902 0.970109
O O3 0.897412 0.179581 0.762297
O O4 0.126545 0.478053 0.162139
O O5 0.457539 0.764413 0.677042
O O6 0.150428 0.932714 0.653859
O O7 0.545528 0.015409 0.891722
O O8 0.789792 0.334491 0.441138
O O9 0.009886 0.116891 0.278856
O O10 0.733063 0.255669 0.162459
O O11 0.692438 0.842632 0.259487
O O12 0.347162 0.955907 0.250006
O O13 0.379091 0.622974 0.917971
O O14 0.000000 0.000000 0.500000
O O15 0.500000 0.500000 0.500000
O O16 0.318416 0.275922 0.528127
O O17 0.500000 0.500000 0.000000
O O18 0.000000 0.000000 0.000000
#
# Coordination Sequence:
#
# PCOD8001039 Si02
#       8
#     2   2   2   2   2   2   2   2
#     4  11  22  44  69 100 137 181 232 290 349 416
#     4  11  23  44  72  96 138 191 232 280 350 429
#     4  11  23  45  67  98 140 184 228 287 356 416
#     4  11  23  45  75  98 136 189 231 289 349 417
#     4  10  19  40  75  99 127 177 240 278 340 417
#     4  12  27  40  62 110 146 174 232 294 354 412
#     4  12  26  45  71 104 136 179 247 290 343 412
#     4  10  23  47  68 100 139 182 235 284 351 416
#
# _framework density 22.311776999999999
#
# number of rings (size 3 to 8) (size 9 to 14) (size 15 to 20)
#    0.000    1.000    3.750    3.750    3.500    2.500 
#    6.750    0.000    0.000    0.000    0.000    0.000 
#    0.000    0.000    0.000    0.000    0.000    0.000 
#
# Total GULP energy -198306.706020 kJ/mol
# GULP energy per Si atom -12394.169126 kJ/mol
# Density = 2.226099 g / cm^3
# Si number density = 22.311777 Si / 1000 Ang^3
#
#
#
# Elastic Constant Matrix: (Units=GPa)
#
#
# Indices 1 2 3 4 5 6 
#
# 1 87.5249 64.6552 19.7445 10.4887 -4.0475 -13.9784
# 2 64.6552 158.0569 43.3135 28.8377 9.0329 -5.6800
# 3 19.7445 43.3135 95.4665 13.2069 8.4211 2.9138
# 4 10.4887 28.8377 13.2069 35.7671 -7.3904 4.8377
# 5 -4.0475 9.0329 8.4211 -7.3904 31.3103 -0.7604
# 6 -13.9784 -5.6800 2.9138 4.8377 -0.7604 45.5823
#
#
#
# Elastic Compliance Matrix: (Units=1/GPa)
#
#
# Indices 1 2 3 4 5 6 
#
# 1 0.017991 -0.007483 -0.001163 0.001664 0.005301 0.004571
# 2 -0.007483 0.011692 -0.002225 -0.007554 -0.005525 0.000014
# 3 -0.001163 -0.002225 0.012506 -0.003074 -0.003626 -0.001168
# 4 0.001664 -0.007554 -0.003074 0.037728 0.012028 -0.004038
# 5 0.005301 -0.005525 -0.003626 0.012028 0.038045 0.000527
# 6 0.004571 0.000014 -0.001168 -0.004038 0.000527 0.023854
#
#
# Mechanical properties :
#
#
# Convention : Reuss Voigt Hill
#
# Bulk Modulus (GPa) = 48.90856 66.27497 57.59177
# Shear Modulus (GPa) = 29.34715 36.75428 33.05072
#
# Velocity S-wave (km/s) = 3.63067 4.06310 3.85296
# Velocity P-wave (km/s) = 6.28839 7.19585 6.75737
#
# Compressibility (1/GPa) = 0.02044632
#
# Stress axis : x y z
#
# Youngs Moduli (GPa) = 55.58237 85.52678 79.96344
#
# Poissons Ratio (x) = 0.64001 0.09302
# Poissons Ratio (y) = 0.41593 0.17793
# Poissons Ratio (z) = 0.06465 0.19031
#
# Static dielectric constant tensor:
#      x y z
#    x 5.429390 -0.772860 -4.386100 
#    y -0.772860 4.853800 1.436400 
#    z -4.386100 1.436400 15.943410 
# 
# 
# High freq. dielectric constant tensor:
#      x y z
#    x 1.871220 -0.018320 0.002110 
#    y -0.018320 1.886790 0.006550 
#    z 0.002110 0.006550 1.880770 
# 
# From -- ./inp_files/570830.got.cif
#   From: 2010.06.25/outbox.cif.g09.slc.cpg/sg2_286_cif.got.tgz:570830.got - 2010.06.27 13:26:56.
