data_PCOD8001293
_publ_section_title
;
Structure prediction by ZEFSAII (Michael W. Deem and Ramdas Pophale) SiO2 
 PCOD8001293
Probable space group: P -1
;
_chemical_formula_sum "Si O2"
_cell_formula_units_Z 14
_cell_length_a 8.112910
_cell_length_b 11.330151
_cell_length_c 9.315975
_cell_angle_alpha 52.697844
_cell_angle_beta 115.703372
_cell_angle_gamma 120.251661
_cell_volume 578.042190
_symmetry_space_group_name_H-M "P -1"
_symmetry_group_IT_number 2
_symmetry_cell_setting 'triclinic'
loop_
_space_group_symop_operation_xyz
x,y,z
-x,-y,-z
loop_
_atom_site_type_symbol
_atom_site_label
_atom_site_fract_x
_atom_site_fract_y
_atom_site_fract_z
Si Si1 0.891801 0.398582 0.208083
Si Si2 0.461574 0.713937 0.022501
Si Si3 0.650789 0.919411 0.674776
Si Si4 0.857347 0.821081 0.581629
Si Si5 0.869927 0.243451 0.585928
Si Si6 0.303048 0.376336 0.594117
Si Si7 0.250233 0.668343 0.236888
O O1 0.728893 0.414274 0.025970
O O2 0.772168 0.311854 0.368581
O O3 0.014090 0.292790 0.266765
O O4 0.036200 0.572921 0.167302
O O5 0.579834 0.839460 0.860167
O O6 0.593048 0.626654 0.212914
O O7 0.373773 0.785133 0.072780
O O8 0.703507 0.804040 0.666761
O O9 0.500000 0.000000 0.500000
O O10 0.851337 0.063677 0.675755
O O11 0.728081 0.767259 0.426122
O O12 0.000000 0.000000 0.500000
O O13 0.758644 0.233164 0.700252
O O14 0.089159 0.362313 0.582258
O O15 0.373965 0.549181 0.411901
#
# Coordination Sequence:
#
# PCOD8001293 Si02
#       7
#     2   2   2   2   2   2   2
#     4  10  21  44  69  94 126 178 215 263 327 383
#     4  12  25  40  66 104 131 164 222 271 319 384
#     4  12  24  43  67  99 131 169 219 266 324 384
#     4  10  19  44  69  88 131 176 212 259 327 386
#     4  10  21  45  68  91 135 175 211 263 327 389
#     4  10  23  43  68  99 127 169 219 271 321 379
#     4  10  23  45  67  92 133 176 214 262 328 384
#
# _framework density 24.219684999999998
#
# number of rings (size 3 to 8) (size 9 to 14) (size 15 to 20)
#    0.000    1.714    4.286    2.571    2.000    2.286 
#    2.571    8.571    0.000    0.000    0.000    0.000 
#    0.000    0.000    0.000    0.000    0.000    0.000 
#
# Total GULP energy -173435.904414 kJ/mol
# GULP energy per Si atom -12388.278887 kJ/mol
# Density = 2.416456 g / cm^3
# Si number density = 24.219685 Si / 1000 Ang^3
#
#
#
# Elastic Constant Matrix: (Units=GPa)
#
#
# Indices 1 2 3 4 5 6 
#
# 1 84.3158 28.4630 57.1569 19.3056 -30.9641 -15.4305
# 2 28.4630 73.2553 34.2250 16.9348 6.5133 -8.6959
# 3 57.1569 34.2250 162.3488 29.9829 -16.5656 16.4278
# 4 19.3056 16.9348 29.9829 34.0943 9.3566 -7.8594
# 5 -30.9641 6.5133 -16.5656 9.3566 61.6233 13.4084
# 6 -15.4305 -8.6959 16.4278 -7.8594 13.4084 31.1850
#
#
#
# Elastic Compliance Matrix: (Units=1/GPa)
#
#
# Indices 1 2 3 4 5 6 
#
# 1 0.024613 -0.005251 -0.005730 -0.007684 0.011012 0.007062
# 2 -0.005251 0.018984 -0.003995 0.001110 -0.007714 0.008397
# 3 -0.005730 -0.003995 0.013938 -0.013044 0.007107 -0.017635
# 4 -0.007684 0.001110 -0.013044 0.056922 -0.022047 0.027204
# 5 0.011012 -0.007714 0.007107 -0.022047 0.032148 -0.019825
# 6 0.007062 0.008397 -0.017635 0.027204 -0.019825 0.062573
#
#
# Mechanical properties :
#
#
# Convention : Reuss Voigt Hill
#
# Bulk Modulus (GPa) = 36.25536 62.17887 49.21712
# Shear Modulus (GPa) = 20.13504 38.71884 29.42694
#
# Velocity S-wave (km/s) = 2.88644 4.00265 3.48947
# Velocity P-wave (km/s) = 5.10985 6.86223 6.04983
#
# Compressibility (1/GPa) = 0.02758213
#
# Stress axis : x y z
#
# Youngs Moduli (GPa) = 40.62907 52.67693 71.74718
#
# Poissons Ratio (x) = 0.27658 0.41113
# Poissons Ratio (y) = 0.21333 0.28665
# Poissons Ratio (z) = 0.23282 0.21046
#
# Static dielectric constant tensor:
#      x y z
#    x 4.724880 0.272340 -0.261140 
#    y 0.272340 4.334580 0.304450 
#    z -0.261140 0.304450 4.417520 
# 
# 
# High freq. dielectric constant tensor:
#      x y z
#    x 1.977670 0.023370 -0.026410 
#    y 0.023370 1.947950 0.023700 
#    z -0.026410 0.023700 1.957360 
# 
# From -- ./inp_files/175475.got.cif
#   From: 2010.06.25/outbox.cif.g09.slc.cpg/sg2_88_cif.got.tgz:175475.got - 2010.06.27 13:26:56.
