data_PCOD8001802
_publ_section_title
;
Structure prediction by ZEFSAII (Michael W. Deem and Ramdas Pophale) SiO2 
 PCOD8001802
Probable space group: P -1
;
_chemical_formula_sum "Si O2"
_cell_formula_units_Z 16
_cell_length_a 11.194392
_cell_length_b 15.438820
_cell_length_c 14.872736
_cell_angle_alpha 19.089640
_cell_angle_beta 74.932718
_cell_angle_gamma 75.896016
_cell_volume 811.734501
_symmetry_space_group_name_H-M "P -1"
_symmetry_group_IT_number 2
_symmetry_cell_setting 'triclinic'
loop_
_space_group_symop_operation_xyz
x,y,z
-x,-y,-z
loop_
_atom_site_type_symbol
_atom_site_label
_atom_site_fract_x
_atom_site_fract_y
_atom_site_fract_z
Si Si1 0.738838 0.262545 0.850269
Si Si2 0.920986 0.115432 0.821994
Si Si3 0.221904 0.181246 0.005777
Si Si4 0.870141 0.875314 0.510053
Si Si5 0.511267 0.739335 0.195588
Si Si6 0.833600 0.768821 0.422922
Si Si7 0.138111 0.582404 0.918056
Si Si8 0.849187 0.299405 0.392959
O O1 0.818676 0.309619 0.696060
O O2 0.594566 0.274591 0.845264
O O3 0.771578 0.484440 0.698921
O O4 0.771375 0.976067 0.164392
O O5 0.017645 0.261167 0.593150
O O6 0.849386 0.887050 0.005363
O O7 0.000000 0.000000 0.000000
O O8 0.229750 0.923484 0.321135
O O9 0.360290 0.275712 0.867018
O O10 0.148834 0.422742 0.827763
O O11 0.806084 0.857154 0.443226
O O12 0.013101 0.805744 0.540990
O O13 0.856978 0.170490 0.258658
O O14 0.803361 0.668099 0.794937
O O15 0.500000 0.500000 0.500000
O O16 0.500000 0.000000 0.000000
O O17 0.209433 0.651258 0.743532
O O18 0.000000 0.500000 0.000000
#
# Coordination Sequence:
#
# PCOD8001802 Si02
#       8
#     2   2   2   2   2   2   2   2
#     4  11  24  41  56  82 117 160 201 246 284 336
#     4  10  23  36  58  83 123 154 198 231 299 340
#     4  12  24  38  60  88 113 165 197 246 289 340
#     4  11  20  35  58  88 123 157 186 229 300 367
#     4  12  25  43  62  81 114 159 214 250 288 332
#     4  11  23  36  60  87 119 154 194 238 292 358
#     4  10  20  34  56  85 124 160 181 229 298 365
#     4  11  22  36  57  88 124 148 197 236 295 356
#
# _framework density 19.710878999999998
#
# number of rings (size 3 to 8) (size 9 to 14) (size 15 to 20)
#    0.000    1.000    2.500    6.375    5.250    0.000 
#    0.000    0.000    0.000    0.000    0.000   17.500 
#    0.000    0.000    0.000    0.000    0.000    0.000 
#
# Total GULP energy -198407.133534 kJ/mol
# GULP energy per Si atom -12400.445846 kJ/mol
# Density = 1.966602 g / cm^3
# Si number density = 19.710879 Si / 1000 Ang^3
#
#
#
# Elastic Constant Matrix: (Units=GPa)
#
#
# Indices 1 2 3 4 5 6 
#
# 1 91.6202 28.2811 16.1457 4.3677 -11.8374 7.8243
# 2 28.2811 105.2562 34.2625 -2.7663 -11.8945 23.0728
# 3 16.1457 34.2625 110.6332 1.5864 -7.7976 6.0960
# 4 4.3677 -2.7663 1.5864 47.9517 7.3833 -4.1677
# 5 -11.8374 -11.8945 -7.7976 7.3833 22.8604 -3.7753
# 6 7.8243 23.0728 6.0960 -4.1677 -3.7753 19.5219
#
#
#
# Elastic Compliance Matrix: (Units=1/GPa)
#
#
# Indices 1 2 3 4 5 6 
#
# 1 0.012704 -0.002281 -0.000629 -0.002276 0.005649 -0.001593
# 2 -0.002281 0.014802 -0.003188 -0.000630 0.003141 -0.015112
# 3 -0.000629 -0.003188 0.010202 -0.000662 0.001884 0.001057
# 4 -0.002276 -0.000630 -0.000662 0.022761 -0.008236 0.005130
# 5 0.005649 0.003141 0.001884 -0.008236 0.051889 0.001712
# 6 -0.001593 -0.015112 0.001057 0.005130 0.001712 0.070820
#
#
# Mechanical properties :
#
#
# Convention : Reuss Voigt Hill
#
# Bulk Modulus (GPa) = 39.19726 51.65423 45.42575
# Shear Modulus (GPa) = 24.52440 33.32147 28.92294
#
# Velocity S-wave (km/s) = 3.53116 4.11604 3.83477
# Velocity P-wave (km/s) = 6.04605 6.98942 6.53478
#
# Compressibility (1/GPa) = 0.02551199
#
# Stress axis : x y z
#
# Youngs Moduli (GPa) = 78.71575 67.55687 98.01938
#
# Poissons Ratio (x) = 0.15409 0.06166
# Poissons Ratio (y) = 0.17954 0.31251
# Poissons Ratio (z) = 0.04952 0.21539
#
# Static dielectric constant tensor:
#      x y z
#    x 3.378660 0.043950 -0.039480 
#    y 0.043950 4.114290 0.353300 
#    z -0.039480 0.353300 3.915490 
# 
# 
# High freq. dielectric constant tensor:
#      x y z
#    x 1.727560 0.020950 0.000640 
#    y 0.020950 1.777600 -0.000210 
#    z 0.000640 -0.000210 1.783950 
# 
# From -- ./inp_files/455699.got.cif
#   From: 2010.06.25/outbox.cif.g09.slc.cpg/sg2_228_cif.got.tgz:455699.got - 2010.06.27 13:26:56.
