data_PCOD8001089
_publ_section_title
;
Structure prediction by ZEFSAII (Michael W. Deem and Ramdas Pophale) SiO2 
 PCOD8001089
Probable space group: P -1
;
_chemical_formula_sum "Si O2"
_cell_formula_units_Z 16
_cell_length_a 11.898657
_cell_length_b 7.681490
_cell_length_c 9.018060
_cell_angle_alpha 112.166437
_cell_angle_beta 101.435790
_cell_angle_gamma 62.689594
_cell_volume 677.924678
_symmetry_space_group_name_H-M "P -1"
_symmetry_group_IT_number 2
_symmetry_cell_setting 'triclinic'
loop_
_space_group_symop_operation_xyz
x,y,z
-x,-y,-z
loop_
_atom_site_type_symbol
_atom_site_label
_atom_site_fract_x
_atom_site_fract_y
_atom_site_fract_z
Si Si1 0.794218 0.136343 0.253733
Si Si2 0.948854 0.228117 0.833434
Si Si3 0.088382 0.632077 0.805373
Si Si4 0.233507 0.351843 0.178938
Si Si5 0.702472 0.764663 0.380596
Si Si6 0.377320 0.074402 0.891818
Si Si7 0.837911 0.902895 0.701127
Si Si8 0.367632 0.491409 0.490088
O O1 0.821939 0.250060 0.158379
O O2 0.747650 0.283942 0.434434
O O3 0.676712 0.095292 0.157075
O O4 0.918863 0.925484 0.256304
O O5 0.895154 0.434917 0.784081
O O6 0.849443 0.121828 0.783093
O O7 0.972661 0.301049 0.026098
O O8 0.171611 0.390342 0.722704
O O9 0.979974 0.717176 0.676351
O O10 0.221877 0.153896 0.186496
O O11 0.340829 0.395748 0.304204
O O12 0.278102 0.295675 0.003084
O O13 0.603684 0.901011 0.271505
O O14 0.751921 0.903971 0.538492
O O15 0.628490 0.657867 0.419375
O O16 0.500000 0.000000 0.000000
O O17 0.500000 0.500000 0.500000
#
# Coordination Sequence:
#
# PCOD8001089 Si02
#       8
#     2   2   2   2   2   2   2   2
#     4  10  23  40  67  97 134 172 223 275 333 406
#     4  11  22  40  69 105 138 176 216 276 349 404
#     4  10  19  41  65  99 140 174 213 275 341 409
#     4  11  24  42  68  99 136 180 221 278 344 397
#     4  10  23  42  67  98 129 180 226 276 342 391
#     4  12  25  45  65  98 135 178 233 282 328 401
#     4  10  22  40  66 100 139 174 220 273 335 417
#     4  10  23  48  66  93 134 178 231 283 326 401
#
# _framework density 23.60144
#
# number of rings (size 3 to 8) (size 9 to 14) (size 15 to 20)
#    0.000    1.500    1.250    4.125    3.500    2.500 
#    4.500    3.750    0.000    0.000    0.000    0.000 
#    0.000    0.000    0.000    0.000    0.000    0.000 
#
# Total GULP energy -198292.409560 kJ/mol
# GULP energy per Si atom -12393.275598 kJ/mol
# Density = 2.354772 g / cm^3
# Si number density = 23.601440 Si / 1000 Ang^3
#
#
#
# Elastic Constant Matrix: (Units=GPa)
#
#
# Indices 1 2 3 4 5 6 
#
# 1 96.6249 8.5542 32.5582 -5.9785 10.0937 6.3246
# 2 8.5542 65.7677 25.8567 -13.8856 1.4647 3.1191
# 3 32.5582 25.8567 114.2060 -19.0151 5.9091 11.6752
# 4 -5.9785 -13.8856 -19.0151 38.4105 -6.3383 2.9158
# 5 10.0937 1.4647 5.9091 -6.3383 37.7667 4.6632
# 6 6.3246 3.1191 11.6752 2.9158 4.6632 22.8555
#
#
#
# Elastic Compliance Matrix: (Units=1/GPa)
#
#
# Indices 1 2 3 4 5 6 
#
# 1 0.011733 -0.000235 -0.003065 -0.000108 -0.002527 -0.001120
# 2 -0.000235 0.017527 -0.002923 0.005129 0.000908 -0.001673
# 3 -0.003065 -0.002923 0.011598 0.004712 0.000575 -0.005396
# 4 -0.000108 0.005129 0.004712 0.031727 0.005434 -0.008234
# 5 -0.002527 0.000908 0.000575 0.005434 0.028715 -0.006270
# 6 -0.001120 -0.001673 -0.005396 -0.008234 -0.006270 0.049378
#
#
# Mechanical properties :
#
#
# Convention : Reuss Voigt Hill
#
# Bulk Modulus (GPa) = 35.19432 45.61520 40.40476
# Shear Modulus (GPa) = 28.96990 33.78186 31.37588
#
# Velocity S-wave (km/s) = 3.50732 3.78742 3.65006
# Velocity P-wave (km/s) = 5.59875 6.20446 5.90937
#
# Compressibility (1/GPa) = 0.02841367
#
# Stress axis : x y z
#
# Youngs Moduli (GPa) = 85.22743 57.05518 86.22122
#
# Poissons Ratio (x) = 0.01339 0.26423
# Poissons Ratio (y) = 0.02000 0.25204
# Poissons Ratio (z) = 0.26118 0.16678
#
# Static dielectric constant tensor:
#      x y z
#    x 4.245030 0.160790 0.024410 
#    y 0.160790 4.118920 0.217470 
#    z 0.024410 0.217470 4.305510 
# 
# 
# High freq. dielectric constant tensor:
#      x y z
#    x 1.934250 0.014580 0.007840 
#    y 0.014580 1.922490 0.008790 
#    z 0.007840 0.008790 1.936980 
# 
# From -- ./inp_files/184876.got.cif
#   From: 2010.06.25/outbox.cif.g09.slc.cpg/sg2_93_cif.got.tgz:184876.got - 2010.06.27 13:26:56.
