data_PCOD8001407
_publ_section_title
;
Structure prediction by ZEFSAII (Michael W. Deem and Ramdas Pophale) SiO2 
 PCOD8001407
Probable space group: P -1
;
_chemical_formula_sum "Si O2"
_cell_formula_units_Z 16
_cell_length_a 13.569204
_cell_length_b 14.088490
_cell_length_c 5.205125
_cell_angle_alpha 56.076857
_cell_angle_beta 109.175659
_cell_angle_gamma 96.445707
_cell_volume 776.665548
_symmetry_space_group_name_H-M "P -1"
_symmetry_group_IT_number 2
_symmetry_cell_setting 'triclinic'
loop_
_space_group_symop_operation_xyz
x,y,z
-x,-y,-z
loop_
_atom_site_type_symbol
_atom_site_label
_atom_site_fract_x
_atom_site_fract_y
_atom_site_fract_z
Si Si1 0.260515 0.204333 0.417022
Si Si2 0.409828 0.543553 0.549233
Si Si3 0.183365 0.556712 0.197504
Si Si4 0.060323 0.605017 0.492197
Si Si5 0.150327 0.297277 0.675628
Si Si6 0.442363 0.883996 0.610065
Si Si7 0.618211 0.035604 0.063577
Si Si8 0.443353 0.324409 0.224034
O O1 0.175314 0.235833 0.517238
O O2 0.295427 0.070117 0.668572
O O3 0.361444 0.277344 0.427606
O O4 0.215588 0.230220 0.056276
O O5 0.500000 0.500000 0.500000
O O6 0.304104 0.585029 0.242757
O O7 0.449911 0.649509 0.581004
O O8 0.387432 0.439411 0.876740
O O9 0.127083 0.639328 0.248061
O O10 0.179386 0.426862 0.483795
O O11 0.133503 0.572461 0.849531
O O12 0.000000 0.500000 0.500000
O O13 0.973194 0.705462 0.358021
O O14 0.526226 0.773364 0.816873
O O15 0.500000 0.000000 0.500000
O O16 0.375843 0.875915 0.826477
O O17 0.361333 0.895442 0.283791
O O18 0.500000 0.000000 0.000000
#
# Coordination Sequence:
#
# PCOD8001407 Si02
#       8
#     2   2   2   2   2   2   2   2
#     4  12  21  33  56  82 117 151 181 229 286 344
#     4  11  26  38  56  82 120 165 206 228 267 344
#     4  11  21  37  56  74 114 152 196 236 286 328
#     4  10  21  37  55  79 105 147 195 248 287 341
#     4  11  21  33  54  81 108 145 191 231 294 343
#     4  10  20  35  54  76 110 156 187 233 281 330
#     4  10  20  32  52  79 111 148 181 223 292 338
#     4  11  24  37  54  81 121 165 198 229 275 338
#
# _framework density 20.600888000000001
#
# number of rings (size 3 to 8) (size 9 to 14) (size 15 to 20)
#    0.000    1.250    3.750    5.250    7.000    0.000 
#    0.000    0.000    0.000    0.000    0.000    0.000 
#    0.000   20.000    0.000    0.000    0.000    0.000 
#
# Total GULP energy -198303.622601 kJ/mol
# GULP energy per Si atom -12393.976413 kJ/mol
# Density = 2.055400 g / cm^3
# Si number density = 20.600888 Si / 1000 Ang^3
#
#
#
# Elastic Constant Matrix: (Units=GPa)
#
#
# Indices 1 2 3 4 5 6 
#
# 1 101.8073 42.6394 24.4507 16.8028 15.0692 -25.2867
# 2 42.6394 83.5195 29.4482 17.9837 2.2260 -26.8897
# 3 24.4507 29.4482 113.4904 31.2161 7.8926 -5.2820
# 4 16.8028 17.9837 31.2161 37.1066 -8.6696 -2.6063
# 5 15.0692 2.2260 7.8926 -8.6696 33.3734 9.6429
# 6 -25.2867 -26.8897 -5.2820 -2.6063 9.6429 37.0191
#
#
#
# Elastic Compliance Matrix: (Units=1/GPa)
#
#
# Indices 1 2 3 4 5 6 
#
# 1 0.017939 -0.002533 0.001392 -0.010603 -0.014994 0.013771
# 2 -0.002533 0.019934 -0.001501 -0.007639 -0.005712 0.013486
# 3 0.001392 -0.001501 0.012975 -0.012404 -0.007637 0.002828
# 4 -0.010603 -0.007639 -0.012404 0.050848 0.026616 -0.017914
# 5 -0.014994 -0.005712 -0.007637 0.026616 0.053817 -0.027625
# 6 0.013771 0.013486 0.002828 -0.017914 -0.027625 0.052554
#
#
# Mechanical properties :
#
#
# Convention : Reuss Voigt Hill
#
# Bulk Modulus (GPa) = 21.94609 54.65488 38.30048
# Shear Modulus (GPa) = 21.87812 34.98509 28.43160
#
# Velocity S-wave (km/s) = 3.26237 4.12543 3.71902
# Velocity P-wave (km/s) = 4.98667 7.01999 6.08880
#
# Compressibility (1/GPa) = 0.04556621
#
# Stress axis : x y z
#
# Youngs Moduli (GPa) = 55.74560 50.16457 77.06908
#
# Poissons Ratio (x) = 0.12706 -0.10732
# Poissons Ratio (y) = 0.14119 0.11567
# Poissons Ratio (z) = -0.07763 0.07529
#
# Static dielectric constant tensor:
#      x y z
#    x 4.052740 -0.536100 -0.030490 
#    y -0.536100 3.957350 0.431960 
#    z -0.030490 0.431960 4.069060 
# 
# 
# High freq. dielectric constant tensor:
#      x y z
#    x 1.778330 -0.042860 0.002390 
#    y -0.042860 1.786380 0.021740 
#    z 0.002390 0.021740 1.815470 
# 
# From -- ./inp_files/77225.got.cif
#   From: 2010.06.25/outbox.cif.g09.slc.cpg/sg2_39_cif.got.tgz:77225.got - 2010.06.27 13:26:56.
