data_PCOD8001373
_publ_section_title
;
Structure prediction by ZEFSAII (Michael W. Deem and Ramdas Pophale) SiO2 
 PCOD8001373
Probable space group: P -1
;
_chemical_formula_sum "Si O2"
_cell_formula_units_Z 16
_cell_length_a 11.551420
_cell_length_b 5.275613
_cell_length_c 15.960942
_cell_angle_alpha 74.256928
_cell_angle_beta 117.764346
_cell_angle_gamma 81.851643
_cell_volume 786.279415
_symmetry_space_group_name_H-M "P -1"
_symmetry_group_IT_number 2
_symmetry_cell_setting 'triclinic'
loop_
_space_group_symop_operation_xyz
x,y,z
-x,-y,-z
loop_
_atom_site_type_symbol
_atom_site_label
_atom_site_fract_x
_atom_site_fract_y
_atom_site_fract_z
Si Si1 0.845305 0.154522 0.904624
Si Si2 0.089957 0.505395 0.793113
Si Si3 0.825895 0.319803 0.455243
Si Si4 0.293684 0.989788 0.977621
Si Si5 0.340471 0.507658 0.776230
Si Si6 0.080211 0.346834 0.122316
Si Si7 0.531938 0.149944 0.102764
Si Si8 0.089469 0.295446 0.437670
O O1 0.829872 0.458058 0.834069
O O2 0.816864 0.958026 0.839340
O O3 0.740717 0.191022 0.943757
O O4 0.000000 0.000000 0.000000
O O5 0.154211 0.181344 0.869086
O O6 0.206562 0.618472 0.781504
O O7 0.026900 0.678667 0.839912
O O8 0.968588 0.539801 0.681938
O O9 0.698501 0.404956 0.340259
O O10 0.808144 0.553098 0.500252
O O11 0.967041 0.299189 0.458433
O O12 0.828920 0.027719 0.524264
O O13 0.394761 0.781325 0.963362
O O14 0.371197 0.199221 0.024203
O O15 0.400117 0.177024 0.826625
O O16 0.448955 0.658958 0.831441
O O17 0.000000 0.500000 0.000000
#
# Coordination Sequence:
#
# PCOD8001373 Si02
#       8
#     2   2   2   2   2   2   2   2
#     4  10  20  33  50  69  95 144 168 211 252 293
#     4  10  20  32  52  75 110 142 170 204 259 315
#     4   9  17  33  48  69 101 127 168 216 258 299
#     4  10  21  36  51  72 112 140 177 213 248 294
#     4  10  21  35  53  73 102 140 177 219 251 303
#     4  10  20  32  47  73  97 141 170 202 247 306
#     4  10  23  34  51  77  99 145 183 208 244 309
#     4   9  18  29  48  74  97 134 165 201 262 322
#
# _framework density 20.349001999999999
#
# number of rings (size 3 to 8) (size 9 to 14) (size 15 to 20)
#    0.000    2.250    2.500    0.750    3.500   12.500 
#    0.000    0.000    0.000    0.000    0.000    0.000 
#    0.000   20.000    0.000    0.000    0.000    0.000 
#
# Total GULP energy -198302.427804 kJ/mol
# GULP energy per Si atom -12393.901738 kJ/mol
# Density = 2.030269 g / cm^3
# Si number density = 20.349002 Si / 1000 Ang^3
#
#
#
# Elastic Constant Matrix: (Units=GPa)
#
#
# Indices 1 2 3 4 5 6 
#
# 1 48.7667 9.4663 17.2040 -2.3591 -10.1219 0.2163
# 2 9.4663 129.4005 31.4893 10.6403 -0.4116 13.4893
# 3 17.2040 31.4893 101.6930 10.5139 0.0973 4.7640
# 4 -2.3591 10.6403 10.5139 27.6420 2.8835 2.1445
# 5 -10.1219 -0.4116 0.0973 2.8835 14.9338 4.8032
# 6 0.2163 13.4893 4.7640 2.1445 4.8032 15.3308
#
#
#
# Elastic Compliance Matrix: (Units=1/GPa)
#
#
# Indices 1 2 3 4 5 6 
#
# 1 0.026178 -0.000504 -0.004321 0.002482 0.018832 -0.004830
# 2 -0.000504 0.009360 -0.002175 -0.002503 0.003036 -0.008153
# 3 -0.004321 -0.002175 0.011643 -0.003696 -0.002212 -0.000433
# 4 0.002482 -0.002503 -0.003696 0.039396 -0.005853 -0.000362
# 5 0.018832 0.003036 -0.002212 -0.005853 0.090538 -0.029797
# 6 -0.004830 -0.008153 -0.000433 -0.000362 -0.029797 0.081991
#
#
# Mechanical properties :
#
#
# Convention : Reuss Voigt Hill
#
# Bulk Modulus (GPa) = 30.13887 44.01991 37.07939
# Shear Modulus (GPa) = 17.59538 26.36136 21.97837
#
# Velocity S-wave (km/s) = 2.94373 3.60316 3.29001
# Velocity P-wave (km/s) = 5.13782 6.24418 5.71782
#
# Compressibility (1/GPa) = 0.03317974
#
# Stress axis : x y z
#
# Youngs Moduli (GPa) = 38.19974 106.84302 85.89211
#
# Poissons Ratio (x) = 0.05388 0.37113
# Poissons Ratio (y) = 0.01926 0.18682
# Poissons Ratio (z) = 0.16506 0.23239
#
# Static dielectric constant tensor:
#      x y z
#    x 3.396110 0.273820 -0.025580 
#    y 0.273820 2.252630 0.001580 
#    z -0.025580 0.001580 3.594830 
# 
# 
# High freq. dielectric constant tensor:
#      x y z
#    x 1.743070 0.008000 -0.007720 
#    y 0.008000 1.808420 0.006930 
#    z -0.007720 0.006930 1.767380 
# 
# From -- ./inp_files/97228.got.cif
#   From: 2010.06.25/outbox.cif.g09.slc.cpg/sg2_49_cif.got.tgz:97228.got - 2010.06.27 13:26:56.
