data_PCOD8001489
_publ_section_title
;
Structure prediction by ZEFSAII (Michael W. Deem and Ramdas Pophale) SiO2 
 PCOD8001489
Probable space group: P -1
;
_chemical_formula_sum "Si O2"
_cell_formula_units_Z 16
_cell_length_a 9.236969
_cell_length_b 17.899418
_cell_length_c 11.428182
_cell_angle_alpha 147.759912
_cell_angle_beta 122.804257
_cell_angle_gamma 53.366179
_cell_volume 805.834564
_symmetry_space_group_name_H-M "P -1"
_symmetry_group_IT_number 2
_symmetry_cell_setting 'triclinic'
loop_
_space_group_symop_operation_xyz
x,y,z
-x,-y,-z
loop_
_atom_site_type_symbol
_atom_site_label
_atom_site_fract_x
_atom_site_fract_y
_atom_site_fract_z
Si Si1 0.255173 0.082087 0.877391
Si Si2 0.621434 0.088762 0.065315
Si Si3 0.723717 0.531617 0.438948
Si Si4 0.315832 0.655108 0.459334
Si Si5 0.317122 0.804927 0.416722
Si Si6 0.282381 0.220307 0.403416
Si Si7 0.044019 0.555317 0.343720
Si Si8 0.109876 0.681614 0.978342
O O1 0.410721 0.160557 0.025209
O O2 0.226109 0.982395 0.624018
O O3 0.064683 0.191519 0.979270
O O4 0.361833 0.959577 0.855681
O O5 0.721383 0.946556 0.841833
O O6 0.709211 0.221850 0.283750
O O7 0.520654 0.546681 0.409699
O O8 0.740219 0.688153 0.607418
O O9 0.860178 0.478680 0.534152
O O10 0.777398 0.409798 0.199792
O O11 0.269726 0.720843 0.396705
O O12 0.178381 0.564722 0.310980
O O13 0.531590 0.771991 0.447643
O O14 0.240682 0.752604 0.198324
O O15 0.119623 0.292001 0.516485
O O16 0.961579 0.422774 0.104289
#
# Coordination Sequence:
#
# PCOD8001489 Si02
#       8
#     2   2   2   2   2   2   2   2
#     4   9  16  30  54  79  95 123 169 209 247 286
#     4   9  16  31  53  73 103 129 156 210 254 283
#     4  10  20  33  51  75 101 128 167 210 249 288
#     4  10  21  34  49  75 106 133 162 198 250 306
#     4   9  20  35  52  74  99 132 168 205 244 291
#     4   9  18  33  52  75  97 128 172 207 244 289
#     4  11  21  32  51  77 103 130 165 204 248 302
#     4  11  20  33  54  74 101 133 166 208 242 286
#
# _framework density 19.855193
#
# number of rings (size 3 to 8) (size 9 to 14) (size 15 to 20)
#    0.000    2.250    0.000    6.750    0.000    5.500 
#    0.000    0.000    0.000    0.000    0.000    8.750 
#    0.000    0.000    0.000    0.000    0.000    0.000 
#
# Total GULP energy -198287.739300 kJ/mol
# GULP energy per Si atom -12392.983706 kJ/mol
# Density = 1.981000 g / cm^3
# Si number density = 19.855193 Si / 1000 Ang^3
#
#
#
# Elastic Constant Matrix: (Units=GPa)
#
#
# Indices 1 2 3 4 5 6 
#
# 1 83.9837 19.6997 17.8990 10.8453 4.0000 -22.3070
# 2 19.6997 64.4504 28.7547 6.0847 -7.3414 -25.0664
# 3 17.8990 28.7547 83.5084 -0.2428 -4.9299 -11.0083
# 4 10.8453 6.0847 -0.2428 24.3606 -4.8653 -5.9295
# 5 4.0000 -7.3414 -4.9299 -4.8653 14.1965 5.2496
# 6 -22.3070 -25.0664 -11.0083 -5.9295 5.2496 25.6745
#
#
#
# Elastic Compliance Matrix: (Units=1/GPa)
#
#
# Indices 1 2 3 4 5 6 
#
# 1 0.018479 0.001596 -0.003067 -0.007261 -0.014433 0.017572
# 2 0.001596 0.028185 -0.006585 -0.001233 0.002031 0.025380
# 3 -0.003067 -0.006585 0.014807 0.003410 0.004861 -0.002951
# 4 -0.007261 -0.001233 0.003410 0.048706 0.018783 0.001358
# 5 -0.014433 0.002031 0.004861 0.018783 0.092180 -0.022982
# 6 0.017572 0.025380 -0.002951 0.001358 -0.022982 0.082743
#
#
# Mechanical properties :
#
#
# Convention : Reuss Voigt Hill
#
# Bulk Modulus (GPa) = 22.04630 40.51660 31.28145
# Shear Modulus (GPa) = 15.80616 23.88560 19.84588
#
# Velocity S-wave (km/s) = 2.82454 3.47218 3.16497
# Velocity P-wave (km/s) = 4.66530 6.04359 5.39861
#
# Compressibility (1/GPa) = 0.04535909
#
# Stress axis : x y z
#
# Youngs Moduli (GPa) = 54.11599 35.48029 67.53343
#
# Poissons Ratio (x) = -0.05663 0.20712
# Poissons Ratio (y) = -0.08637 0.44471
# Poissons Ratio (z) = 0.16597 0.23364
#
# Static dielectric constant tensor:
#      x y z
#    x 3.335570 -0.310510 0.137480 
#    y -0.310510 3.485270 0.194240 
#    z 0.137480 0.194240 3.735250 
# 
# 
# High freq. dielectric constant tensor:
#      x y z
#    x 1.741200 -0.037470 0.005980 
#    y -0.037470 1.759700 0.012670 
#    z 0.005980 0.012670 1.781980 
# 
# From -- ./inp_files/223023.got.cif
#   From: 2010.06.25/outbox.cif.g09.slc.cpg/sg2_112_cif.got.tgz:223023.got - 2010.06.27 13:26:56.
