data_PCOD8001288
_publ_section_title
;
Structure prediction by ZEFSAII (Michael W. Deem and Ramdas Pophale) SiO2 
 PCOD8001288
Probable space group: P -1
;
_chemical_formula_sum "Si O2"
_cell_formula_units_Z 16
_cell_length_a 22.199864
_cell_length_b 8.882807
_cell_length_c 15.476961
_cell_angle_alpha 102.895315
_cell_angle_beta 162.961979
_cell_angle_gamma 69.413485
_cell_volume 762.788537
_symmetry_space_group_name_H-M "P -1"
_symmetry_group_IT_number 2
_symmetry_cell_setting 'triclinic'
loop_
_space_group_symop_operation_xyz
x,y,z
-x,-y,-z
loop_
_atom_site_type_symbol
_atom_site_label
_atom_site_fract_x
_atom_site_fract_y
_atom_site_fract_z
Si Si1 0.748983 0.834025 0.805118
Si Si2 0.612216 0.898652 0.909468
Si Si3 0.245636 0.520752 0.163657
Si Si4 0.887653 0.521295 0.204242
Si Si5 0.109966 0.127478 0.184594
Si Si6 0.071133 0.053408 0.784106
Si Si7 0.980597 0.225328 0.416155
Si Si8 0.739688 0.356297 0.271971
O O1 0.753019 0.654980 0.820349
O O2 0.811237 0.818983 0.788499
O O3 0.500000 0.000000 0.500000
O O4 0.927548 0.883311 0.108173
O O5 0.332380 0.034838 0.544962
O O6 0.647640 0.700062 0.923454
O O7 0.711438 0.946356 0.966800
O O8 0.768708 0.899033 0.207338
O O9 0.500000 0.500000 0.500000
O O10 0.143915 0.570413 0.934544
O O11 0.087111 0.688535 0.025550
O O12 0.988274 0.390648 0.406196
O O13 0.075852 0.579701 0.444850
O O14 0.000000 0.000000 0.000000
O O15 0.816861 0.180690 0.410634
O O16 0.085962 0.864081 0.765620
O O17 0.760805 0.302505 0.192726
O O18 0.500000 0.500000 0.000000
#
# Coordination Sequence:
#
# PCOD8001288 Si02
#       8
#     2   2   2   2   2   2   2   2
#     4  12  23  48  70  96 134 175 225 279 339 394
#     4  10  19  44  65  95 134 169 217 271 328 397
#     4  12  26  46  69  98 133 177 227 277 340 400
#     4  10  21  42  65  93 133 173 217 268 328 394
#     4  12  27  44  70 101 134 176 225 283 337 402
#     4  10  21  41  66  93 132 168 218 268 329 400
#     4  10  22  39  69  97 126 183 213 263 341 390
#     4  10  20  41  62  93 134 166 217 269 323 394
#
# _framework density 20.975670000000001
#
# number of rings (size 3 to 8) (size 9 to 14) (size 15 to 20)
#    0.000    1.500    3.750    4.875    3.500    2.000 
#    6.750    1.250    0.000    0.000    0.000    0.000 
#    0.000    0.000    0.000    0.000    0.000    0.000 
#
# Total GULP energy -198212.655157 kJ/mol
# GULP energy per Si atom -12388.290947 kJ/mol
# Density = 2.092793 g / cm^3
# Si number density = 20.975670 Si / 1000 Ang^3
#
#
#
# Elastic Constant Matrix: (Units=GPa)
#
#
# Indices 1 2 3 4 5 6 
#
# 1 85.9247 45.5234 44.6881 -9.9953 -10.2023 -7.3667
# 2 45.5234 139.2279 56.5836 -4.5449 -1.5676 -19.7021
# 3 44.6881 56.5836 103.6721 -22.5800 8.8970 -6.5717
# 4 -9.9953 -4.5449 -22.5800 30.4318 -9.0929 -0.8607
# 5 -10.2023 -1.5676 8.8970 -9.0929 28.2074 -4.7482
# 6 -7.3667 -19.7021 -6.5717 -0.8607 -4.7482 33.3475
#
#
#
# Elastic Compliance Matrix: (Units=1/GPa)
#
#
# Indices 1 2 3 4 5 6 
#
# 1 0.018244 -0.002853 -0.006104 0.004148 0.010156 0.002695
# 2 -0.002853 0.010756 -0.004988 -0.002558 0.001129 0.004836
# 3 -0.006104 -0.004988 0.017190 0.008329 -0.005470 -0.001472
# 4 0.004148 -0.002558 0.008329 0.044226 0.013684 0.004136
# 5 0.010156 0.001129 -0.005470 0.013684 0.046814 0.008851
# 6 0.002695 0.004836 -0.001472 0.004136 0.008851 0.034517
#
#
# Mechanical properties :
#
#
# Convention : Reuss Voigt Hill
#
# Bulk Modulus (GPa) = 54.64949 69.15720 61.90335
# Shear Modulus (GPa) = 24.30282 30.53263 27.41773
#
# Velocity S-wave (km/s) = 3.40754 3.81940 3.61933
# Velocity P-wave (km/s) = 6.44919 7.24515 6.85873
#
# Compressibility (1/GPa) = 0.01829843
#
# Stress axis : x y z
#
# Youngs Moduli (GPa) = 54.81307 92.96903 58.17474
#
# Poissons Ratio (x) = 0.26528 0.35510
# Poissons Ratio (y) = 0.15640 0.29018
# Poissons Ratio (z) = 0.33458 0.46374
#
# Static dielectric constant tensor:
#      x y z
#    x -0.145520 -0.282610 -4.632730 
#    y -0.282610 4.781380 -1.072180 
#    z -4.632730 -1.072180 -0.161190 
# 
# 
# High freq. dielectric constant tensor:
#      x y z
#    x 1.814960 -0.001050 -0.018590 
#    y -0.001050 1.837300 -0.001800 
#    z -0.018590 -0.001800 1.810570 
# 
# From -- ./inp_files/540529.got.cif
#   From: 2010.06.25/outbox.cif.g09.slc.cpg/sg2_271_cif.got.tgz:540529.got - 2010.06.27 13:26:56.
