data_PCOD8001371
_publ_section_title
;
Structure prediction by ZEFSAII (Michael W. Deem and Ramdas Pophale) SiO2 
 PCOD8001371
Probable space group: P -1
;
_chemical_formula_sum "Si O2"
_cell_formula_units_Z 16
_cell_length_a 14.744858
_cell_length_b 12.785393
_cell_length_c 14.851428
_cell_angle_alpha 80.152751
_cell_angle_beta 19.191144
_cell_angle_gamma 76.405182
_cell_volume 883.101861
_symmetry_space_group_name_H-M "P -1"
_symmetry_group_IT_number 2
_symmetry_cell_setting 'triclinic'
loop_
_space_group_symop_operation_xyz
x,y,z
-x,-y,-z
loop_
_atom_site_type_symbol
_atom_site_label
_atom_site_fract_x
_atom_site_fract_y
_atom_site_fract_z
Si Si1 0.802175 0.922509 0.723241
Si Si2 0.721966 0.576600 0.282365
Si Si3 0.541705 0.603582 0.767501
Si Si4 0.019141 0.560241 0.183444
Si Si5 0.297220 0.616798 0.266811
Si Si6 0.716435 0.713243 0.743389
Si Si7 0.272595 0.319560 0.916060
Si Si8 0.129856 0.757860 0.572272
O O1 0.784883 0.830962 0.678565
O O2 0.928684 0.868622 0.707241
O O3 0.000000 0.000000 0.500000
O O4 0.500000 0.000000 0.000000
O O5 0.500000 0.500000 0.500000
O O6 0.663065 0.677187 0.252223
O O7 0.796345 0.615122 0.306032
O O8 0.000000 0.500000 0.000000
O O9 0.531205 0.508129 0.864633
O O10 0.563355 0.709596 0.790486
O O11 0.821150 0.558266 0.454255
O O12 0.251153 0.631573 0.977520
O O13 0.215428 0.441756 0.992498
O O14 0.154624 0.664441 0.487987
O O15 0.020385 0.626588 0.461827
O O16 0.515414 0.686802 0.015773
O O17 0.547117 0.236637 0.711659
O O18 0.001853 0.273549 0.205339
#
# Coordination Sequence:
#
# PCOD8001371 Si02
#       8
#     2   2   2   2   2   2   2   2
#     4  11  23  40  56  73 102 132 171 228 278 309
#     4  10  20  32  47  71 105 147 179 207 247 294
#     4  12  21  32  50  74 109 140 181 208 244 310
#     4  11  20  32  48  74 109 149 173 207 252 294
#     4  11  19  34  48  73 108 137 174 212 252 296
#     4  11  23  35  52  74  99 140 179 216 261 306
#     4  11  18  33  49  74 105 136 180 208 239 306
#     4  11  20  32  56  75  98 136 177 212 259 302
#
# _framework density 18.117956
#
# number of rings (size 3 to 8) (size 9 to 14) (size 15 to 20)
#    0.000    1.000    2.500    9.000    0.000    0.000 
#    0.000    0.000    0.000    0.000    0.000    0.000 
#    0.000   20.000    0.000    0.000    0.000    0.000 
#
# Total GULP energy -198233.718062 kJ/mol
# GULP energy per Si atom -12389.607379 kJ/mol
# Density = 1.807672 g / cm^3
# Si number density = 18.117956 Si / 1000 Ang^3
#
#
#
# Elastic Constant Matrix: (Units=GPa)
#
#
# Indices 1 2 3 4 5 6 
#
# 1 104.3017 42.3820 41.7997 -4.1552 -13.7390 -0.0015
# 2 42.3820 66.5389 29.6786 -6.4093 -1.7381 -2.1753
# 3 41.7997 29.6786 121.7422 -13.6816 -15.4190 -0.4668
# 4 -4.1552 -6.4093 -13.6816 26.3619 -7.0682 -6.0695
# 5 -13.7390 -1.7381 -15.4190 -7.0682 30.5873 -2.1992
# 6 -0.0015 -2.1753 -0.4668 -6.0695 -2.1992 22.6629
#
#
#
# Elastic Compliance Matrix: (Units=1/GPa)
#
#
# Indices 1 2 3 4 5 6 
#
# 1 0.014438 -0.007994 -0.002343 0.000381 0.004921 -0.000235
# 2 -0.007994 0.021507 -0.002598 0.002369 -0.002961 0.002358
# 3 -0.002343 -0.002598 0.011257 0.007104 0.006296 0.002496
# 4 0.000381 0.002369 0.007104 0.050268 0.016614 0.015449
# 5 0.004921 -0.002961 0.006296 0.016614 0.042353 0.008405
# 6 -0.000235 0.002358 0.002496 0.015449 0.008405 0.049356
#
#
# Mechanical properties :
#
#
# Convention : Reuss Voigt Hill
#
# Bulk Modulus (GPa) = 46.87704 57.81148 52.34426
# Shear Modulus (GPa) = 22.50626 27.83727 25.17176
#
# Velocity S-wave (km/s) = 3.52832 3.92401 3.73141
# Velocity P-wave (km/s) = 6.52136 7.24625 6.89334
#
# Compressibility (1/GPa) = 0.02133241
#
# Stress axis : x y z
#
# Youngs Moduli (GPa) = 69.26052 46.49611 88.83065
#
# Poissons Ratio (x) = 0.37167 0.20816
# Poissons Ratio (y) = 0.55364 0.23080
# Poissons Ratio (z) = 0.16230 0.12081
#
# Static dielectric constant tensor:
#      x y z
#    x 2.452770 -0.019890 -0.299280 
#    y -0.019890 3.131000 0.054890 
#    z -0.299280 0.054890 3.489490 
# 
# 
# High freq. dielectric constant tensor:
#      x y z
#    x 1.698040 -0.011840 -0.012500 
#    y -0.011840 1.634980 -0.005910 
#    z -0.012500 -0.005910 1.733140 
# 
# From -- ./inp_files/465187.got.cif
#   From: 2010.06.25/outbox.cif.g09.slc.cpg/sg2_233_cif.got.tgz:465187.got - 2010.06.27 13:26:56.
