data_PCOD8001724
_publ_section_title
;
Structure prediction by ZEFSAII (Michael W. Deem and Ramdas Pophale) SiO2 
 PCOD8001724
Probable space group: P -1
;
_chemical_formula_sum "Si O2"
_cell_formula_units_Z 14
_cell_length_a 12.067523
_cell_length_b 8.797120
_cell_length_c 13.266694
_cell_angle_alpha 132.691250
_cell_angle_beta 88.454748
_cell_angle_gamma 59.172925
_cell_volume 715.621752
_symmetry_space_group_name_H-M "P -1"
_symmetry_group_IT_number 2
_symmetry_cell_setting 'triclinic'
loop_
_space_group_symop_operation_xyz
x,y,z
-x,-y,-z
loop_
_atom_site_type_symbol
_atom_site_label
_atom_site_fract_x
_atom_site_fract_y
_atom_site_fract_z
Si Si1 0.765399 0.400333 0.249788
Si Si2 0.093909 0.951491 0.118312
Si Si3 0.852015 0.556020 0.050725
Si Si4 0.504642 0.453624 0.277565
Si Si5 0.598578 0.220841 0.946070
Si Si6 0.376941 0.038578 0.596347
Si Si7 0.510581 0.072621 0.243535
O O1 0.671028 0.326359 0.260425
O O2 0.623522 0.766705 0.398055
O O3 0.846548 0.222189 0.065225
O O4 0.908956 0.281847 0.266613
O O5 0.099093 0.749724 0.103422
O O6 0.213485 0.973794 0.157114
O O7 0.797452 0.687311 0.225294
O O8 0.700591 0.796328 0.087455
O O9 0.000000 0.500000 0.000000
O O10 0.528514 0.340048 0.113242
O O11 0.375536 0.815817 0.443011
O O12 0.442163 0.357966 0.310025
O O13 0.500000 0.500000 0.000000
O O14 0.586993 0.998599 0.816272
O O15 0.509315 0.869896 0.609054
#
# Coordination Sequence:
#
# PCOD8001724 Si02
#       7
#     2   2   2   2   2   2   2
#     4   9  17  31  53  79 105 136 184 219 265 310
#     4   9  17  31  52  78 104 141 178 224 260 312
#     4   9  17  31  54  81 106 133 180 222 267 309
#     4  11  20  33  57  82 111 139 180 229 269 314
#     4  11  20  37  56  79 110 146 183 218 265 328
#     4   9  20  35  54  84 107 143 177 226 273 313
#     4  10  20  34  54  83 109 142 178 219 269 323
#
# _framework density 19.563407000000002
#
# number of rings (size 3 to 8) (size 9 to 14) (size 15 to 20)
#    0.857    1.429    1.429    3.000    0.000    1.143 
#    0.000    0.000    0.000    6.857    0.000    0.000 
#    0.000    0.000    0.000    0.000    0.000    0.000 
#
# Total GULP energy -173444.387508 kJ/mol
# GULP energy per Si atom -12388.884822 kJ/mol
# Density = 1.951888 g / cm^3
# Si number density = 19.563407 Si / 1000 Ang^3
#
#
#
# Elastic Constant Matrix: (Units=GPa)
#
#
# Indices 1 2 3 4 5 6 
#
# 1 120.1647 40.7209 26.0026 7.4882 28.4029 7.1585
# 2 40.7209 90.6011 28.9141 11.4563 11.3900 14.6598
# 3 26.0026 28.9141 62.7846 8.0157 18.3918 8.1303
# 4 7.4882 11.4563 8.0157 35.2761 4.2601 0.0714
# 5 28.4029 11.3900 18.3918 4.2601 25.1265 10.0262
# 6 7.1585 14.6598 8.1303 0.0714 10.0262 39.7766
#
#
#
# Elastic Compliance Matrix: (Units=1/GPa)
#
#
# Indices 1 2 3 4 5 6 
#
# 1 0.012942 -0.004721 0.000520 0.000361 -0.014069 0.002850
# 2 -0.004721 0.015550 -0.005574 -0.003366 0.004925 -0.004977
# 3 0.000520 -0.005574 0.022694 -0.001670 -0.014812 0.001059
# 4 0.000361 -0.003366 -0.001670 0.030190 -0.003738 0.002405
# 5 -0.014069 0.004925 -0.014812 -0.003738 0.070544 -0.014030
# 6 0.002850 -0.004977 0.001059 0.002405 -0.014030 0.029778
#
#
# Mechanical properties :
#
#
# Convention : Reuss Voigt Hill
#
# Bulk Modulus (GPa) = 31.60925 51.64729 41.62827
# Shear Modulus (GPa) = 23.60775 31.89670 27.75222
#
# Velocity S-wave (km/s) = 3.47757 4.04223 3.77049
# Velocity P-wave (km/s) = 5.68481 6.94575 6.34667
#
# Compressibility (1/GPa) = 0.03163631
#
# Stress axis : x y z
#
# Youngs Moduli (GPa) = 77.26529 64.30804 44.06404
#
# Poissons Ratio (x) = 0.30361 -0.02292
# Poissons Ratio (y) = 0.36478 0.24563
# Poissons Ratio (z) = -0.04020 0.35848
#
# Static dielectric constant tensor:
#      x y z
#    x 3.712590 -0.006650 -0.131960 
#    y -0.006650 3.664710 0.224310 
#    z -0.131960 0.224310 3.481830 
# 
# 
# High freq. dielectric constant tensor:
#      x y z
#    x 1.759870 0.017810 -0.004790 
#    y 0.017810 1.753510 0.014570 
#    z -0.004790 0.014570 1.744960 
# 
# From -- ./inp_files/284715.got.cif
#   From: 2010.06.25/outbox.cif.g09.slc.cpg/sg2_143_cif.got.tgz:284715.got - 2010.06.27 13:26:56.
