data_PCOD8001362
_publ_section_title
;
Structure prediction by ZEFSAII (Michael W. Deem and Ramdas Pophale) SiO2 
 PCOD8001362
Probable space group: P -1
;
_chemical_formula_sum "Si O2"
_cell_formula_units_Z 16
_cell_length_a 4.934629
_cell_length_b 16.682698
_cell_length_c 10.169530
_cell_angle_alpha 103.864541
_cell_angle_beta 77.420736
_cell_angle_gamma 114.280852
_cell_volume 734.137475
_symmetry_space_group_name_H-M "P -1"
_symmetry_group_IT_number 2
_symmetry_cell_setting 'triclinic'
loop_
_space_group_symop_operation_xyz
x,y,z
-x,-y,-z
loop_
_atom_site_type_symbol
_atom_site_label
_atom_site_fract_x
_atom_site_fract_y
_atom_site_fract_z
Si Si1 0.877821 0.349168 0.588933
Si Si2 0.472817 0.897458 0.680131
Si Si3 0.285230 0.899646 0.966482
Si Si4 0.510524 0.239892 0.196392
Si Si5 0.511493 0.535159 0.366440
Si Si6 0.001075 0.915342 0.256654
Si Si7 0.882974 0.652176 0.722462
Si Si8 0.654861 0.153054 0.613965
O O1 0.654966 0.396900 0.595911
O O2 0.693841 0.255665 0.641447
O O3 0.138544 0.411349 0.685613
O O4 0.039947 0.334505 0.434779
O O5 0.209035 0.894030 0.813875
O O6 0.558469 0.811731 0.674283
O O7 0.340167 0.889733 0.546096
O O8 0.774182 0.984298 0.700067
O O9 0.452133 0.829378 0.944105
O O10 0.019370 0.881157 0.092239
O O11 0.500000 0.000000 0.000000
O O12 0.257131 0.275240 0.192887
O O13 0.820667 0.326590 0.213040
O O14 0.500000 0.500000 0.500000
O O15 0.345755 0.448454 0.258730
O O16 0.075225 0.852754 0.330428
O O17 0.659860 0.905920 0.306898
#
# Coordination Sequence:
#
# PCOD8001362 Si02
#       8
#     2   2   2   2   2   2   2   2
#     4  11  20  35  51  83 120 158 181 234 308 354
#     4   9  21  41  59  86 119 159 200 248 290 337
#     4   8  19  43  59  85 116 162 202 249 288 341
#     4  10  21  33  61  82 115 150 193 240 293 332
#     4  10  20  31  55  80 119 152 184 238 301 358
#     4  11  24  41  56  87 119 164 199 241 290 349
#     4  11  19  34  54  89 114 145 196 243 292 347
#     4  12  24  36  61  86 124 154 198 242 294 357
#
# _framework density 21.794281999999999
#
# number of rings (size 3 to 8) (size 9 to 14) (size 15 to 20)
#    0.750    1.000    1.250    5.250    1.750    2.000 
#    0.000    2.500    0.000    0.000    0.000   17.500 
#    0.000    0.000    0.000    0.000    0.000    0.000 
#
# Total GULP energy -198231.663565 kJ/mol
# GULP energy per Si atom -12389.478973 kJ/mol
# Density = 2.174468 g / cm^3
# Si number density = 21.794282 Si / 1000 Ang^3
#
#
#
# Elastic Constant Matrix: (Units=GPa)
#
#
# Indices 1 2 3 4 5 6 
#
# 1 68.6989 16.8528 2.7619 -3.9406 -4.4499 1.0690
# 2 16.8528 97.8075 11.1838 14.5567 6.5115 16.6089
# 3 2.7619 11.1838 96.0804 -8.4946 1.6793 0.4080
# 4 -3.9406 14.5567 -8.4946 24.2629 -1.5800 -6.6669
# 5 -4.4499 6.5115 1.6793 -1.5800 10.0297 3.1863
# 6 1.0690 16.6089 0.4080 -6.6669 3.1863 27.7816
#
#
#
# Elastic Compliance Matrix: (Units=1/GPa)
#
#
# Indices 1 2 3 4 5 6 
#
# 1 0.016998 -0.005463 0.000634 0.007871 0.011204 0.003207
# 2 -0.005463 0.016754 -0.002965 -0.016105 -0.011429 -0.012317
# 3 0.000634 -0.002965 0.011310 0.006733 0.000371 0.003155
# 4 0.007871 -0.016105 0.006733 0.061632 0.015463 0.022243
# 5 0.011204 -0.011429 0.000371 0.015463 0.115465 -0.003136
# 6 0.003207 -0.012317 0.003155 0.022243 -0.003136 0.048886
#
#
# Mechanical properties :
#
#
# Convention : Reuss Voigt Hill
#
# Bulk Modulus (GPa) = 33.92877 36.02042 34.97460
# Shear Modulus (GPa) = 16.86573 27.86737 22.36655
#
# Velocity S-wave (km/s) = 2.78485 3.57971 3.20700
# Velocity P-wave (km/s) = 5.09334 5.80078 5.45853
#
# Compressibility (1/GPa) = 0.02947351
#
# Stress axis : x y z
#
# Youngs Moduli (GPa) = 58.82937 59.68763 88.41554
#
# Poissons Ratio (x) = 0.32609 -0.05603
# Poissons Ratio (y) = 0.32140 0.26215
# Poissons Ratio (z) = -0.03728 0.17697
#
# Static dielectric constant tensor:
#      x y z
#    x 3.519850 0.300530 0.061400 
#    y 0.300530 4.318770 0.223980 
#    z 0.061400 0.223980 4.035130 
# 
# 
# High freq. dielectric constant tensor:
#      x y z
#    x 1.849200 0.013050 -0.005360 
#    y 0.013050 1.869320 0.021930 
#    z -0.005360 0.021930 1.812450 
# 
# From -- ./inp_files/367850.got.cif
#   From: 2010.06.25/outbox.cif.g09.slc.cpg/sg2_184_cif.got.tgz:367850.got - 2010.06.27 13:26:56.
