data_PCOD8001508
_publ_section_title
;
Structure prediction by ZEFSAII (Michael W. Deem and Ramdas Pophale) SiO2 
 PCOD8001508
Probable space group: P -1
;
_chemical_formula_sum "Si O2"
_cell_formula_units_Z 14
_cell_length_a 10.333327
_cell_length_b 12.114526
_cell_length_c 13.698281
_cell_angle_alpha 138.858203
_cell_angle_beta 108.091934
_cell_angle_gamma 49.641085
_cell_volume 804.248362
_symmetry_space_group_name_H-M "P -1"
_symmetry_group_IT_number 2
_symmetry_cell_setting 'triclinic'
loop_
_space_group_symop_operation_xyz
x,y,z
-x,-y,-z
loop_
_atom_site_type_symbol
_atom_site_label
_atom_site_fract_x
_atom_site_fract_y
_atom_site_fract_z
Si Si1 0.997838 0.751829 0.412191
Si Si2 0.520007 0.844730 0.020117
Si Si3 0.609132 0.565736 0.028593
Si Si4 0.662349 0.026210 0.274271
Si Si5 0.646737 0.690755 0.739401
Si Si6 0.645529 0.861490 0.357702
Si Si7 0.949992 0.159967 0.727012
O O1 0.157079 0.553501 0.388108
O O2 0.076733 0.720834 0.301849
O O3 0.844299 0.734497 0.363978
O O4 0.914770 0.990757 0.594640
O O5 0.486649 0.733683 0.021603
O O6 0.684451 0.832420 0.090103
O O7 0.345348 0.111197 0.140977
O O8 0.570420 0.712046 0.843522
O O9 0.635505 0.681138 0.195728
O O10 0.500000 0.500000 0.000000
O O11 0.808241 0.348669 0.895908
O O12 0.494763 0.267892 0.347151
O O13 0.610448 0.027205 0.374806
O O14 0.846227 0.981314 0.279385
O O15 0.500000 0.000000 0.500000
#
# Coordination Sequence:
#
# PCOD8001508 Si02
#       7
#     2   2   2   2   2   2   2
#     4  10  20  33  57  81 111 140 175 229 264 318
#     4   8  17  31  54  84 106 136 177 219 268 321
#     4  11  21  34  58  79 111 143 180 226 264 319
#     4   8  18  32  56  80 107 137 177 225 261 322
#     4   9  16  33  56  83 107 140 173 221 273 316
#     4  10  21  36  54  79 108 143 186 218 266 317
#     4  10  20  33  52  88 108 135 184 223 268 309
#
# _framework density 17.407557000000001
#
# number of rings (size 3 to 8) (size 9 to 14) (size 15 to 20)
#    0.857    1.714    1.429    0.857    2.000    2.286 
#    0.000    0.714    0.000    1.714    0.000    0.000 
#    0.000    0.000    0.000    0.000    0.000    0.000 
#
# Total GULP energy -173480.951009 kJ/mol
# GULP energy per Si atom -12391.496501 kJ/mol
# Density = 1.736794 g / cm^3
# Si number density = 17.407557 Si / 1000 Ang^3
#
#
#
# Elastic Constant Matrix: (Units=GPa)
#
#
# Indices 1 2 3 4 5 6 
#
# 1 106.8839 52.0938 52.4334 2.8206 1.6478 1.1838
# 2 52.0938 116.8254 36.2926 7.9929 -5.7698 -11.8438
# 3 52.4334 36.2926 102.1664 -1.0600 -9.9701 -1.2012
# 4 2.8206 7.9929 -1.0600 25.7115 -0.3111 -0.0902
# 5 1.6478 -5.7698 -9.9701 -0.3111 25.6797 0.9103
# 6 1.1838 -11.8438 -1.2012 -0.0902 0.9103 24.6236
#
#
#
# Elastic Compliance Matrix: (Units=1/GPa)
#
#
# Indices 1 2 3 4 5 6 
#
# 1 0.015219 -0.005350 -0.006398 -0.000337 -0.004544 -0.003450
# 2 -0.005350 0.012317 -0.001365 -0.003249 0.002328 0.006017
# 3 -0.006398 -0.001365 0.014123 0.001777 0.005604 0.000139
# 4 -0.000337 -0.003249 0.001777 0.040015 0.000514 -0.001332
# 5 -0.004544 0.002328 0.005604 0.000514 0.041936 0.000063
# 6 -0.003450 0.006017 0.000139 -0.001332 0.000063 0.043671
#
#
# Mechanical properties :
#
#
# Convention : Reuss Voigt Hill
#
# Bulk Modulus (GPa) = 64.79628 67.50170 66.14899
# Shear Modulus (GPa) = 25.16968 27.54000 26.35484
#
# Velocity S-wave (km/s) = 3.80663 3.98184 3.89522
# Velocity P-wave (km/s) = 7.52492 7.74606 7.63629
#
# Compressibility (1/GPa) = 0.01543298
#
# Stress axis : x y z
#
# Youngs Moduli (GPa) = 65.70656 81.18951 70.80486
#
# Poissons Ratio (x) = 0.43437 0.45299
# Poissons Ratio (y) = 0.35153 0.09668
# Poissons Ratio (z) = 0.42037 0.11085
#
# Static dielectric constant tensor:
#      x y z
#    x 2.991900 -0.008200 0.092930 
#    y -0.008200 3.381310 -0.057110 
#    z 0.092930 -0.057110 3.100980 
# 
# 
# High freq. dielectric constant tensor:
#      x y z
#    x 1.643690 -0.001480 0.009420 
#    y -0.001480 1.674410 -0.003350 
#    z 0.009420 -0.003350 1.664680 
# 
# From -- ./inp_files/498498.got.cif
#   From: 2010.06.25/outbox.cif.g09.slc.cpg/sg2_250_cif.got.tgz:498498.got - 2010.06.27 13:26:56.
