data_PCOD8001650
_publ_section_title
;
Structure prediction by ZEFSAII (Michael W. Deem and Ramdas Pophale) SiO2 
 PCOD8001650
Probable space group: P -1
;
_chemical_formula_sum "Si O2"
_cell_formula_units_Z 14
_cell_length_a 11.460070
_cell_length_b 10.914196
_cell_length_c 11.371139
_cell_angle_alpha 48.038120
_cell_angle_beta 133.535762
_cell_angle_gamma 94.527109
_cell_volume 541.483397
_symmetry_space_group_name_H-M "P -1"
_symmetry_group_IT_number 2
_symmetry_cell_setting 'triclinic'
loop_
_space_group_symop_operation_xyz
x,y,z
-x,-y,-z
loop_
_atom_site_type_symbol
_atom_site_label
_atom_site_fract_x
_atom_site_fract_y
_atom_site_fract_z
Si Si1 0.917511 0.067597 0.136249
Si Si2 0.571513 0.674421 0.044851
Si Si3 0.309254 0.948595 0.208972
Si Si4 0.943007 0.476741 0.611628
Si Si5 0.285831 0.055520 0.770516
Si Si6 0.675467 0.524033 0.603309
Si Si7 0.412614 0.701355 0.680932
O O1 0.745477 0.088175 0.084101
O O2 0.874361 0.038763 0.989058
O O3 0.878376 0.295414 0.969529
O O4 0.175156 0.846768 0.493292
O O5 0.824391 0.553934 0.347106
O O6 0.509105 0.539681 0.142272
O O7 0.584002 0.661274 0.919798
O O8 0.359512 0.945104 0.761995
O O9 0.551006 0.772070 0.417806
O O10 0.371399 0.848087 0.447668
O O11 0.198601 0.213028 0.962207
O O12 0.935405 0.665158 0.546286
O O13 0.768170 0.495495 0.556676
O O14 0.500000 0.000000 0.000000
O O15 0.500000 0.500000 0.500000
#
# Coordination Sequence:
#
# PCOD8001650 Si02
#       7
#     2   2   2   2   2   2   2
#     4  11  20  36  63  95 117 159 212 253 299 355
#     4  10  21  38  58  88 129 159 196 253 312 357
#     4  11  20  36  63  89 122 155 206 253 297 357
#     4  11  21  41  64  90 123 162 203 252 302 362
#     4  10  22  40  58  88 125 163 202 251 302 363
#     4  10  20  33  63  92 115 154 208 254 296 345
#     4  11  21  36  62  95 122 161 196 260 310 353
#
# _framework density 25.854901999999999
#
# number of rings (size 3 to 8) (size 9 to 14) (size 15 to 20)
#    0.000    1.429    2.857    6.429    0.000    1.143 
#    2.571    0.714    0.000    7.714    7.429    0.000 
#    0.000    0.000    0.000    0.000    0.000    0.000 
#
# Total GULP energy -173444.199263 kJ/mol
# GULP energy per Si atom -12388.871376 kJ/mol
# Density = 2.579606 g / cm^3
# Si number density = 25.854902 Si / 1000 Ang^3
#
#
#
# Elastic Constant Matrix: (Units=GPa)
#
#
# Indices 1 2 3 4 5 6 
#
# 1 31.6284 2.5895 16.7598 1.7023 -10.7087 3.6198
# 2 2.5895 126.8628 64.7794 -33.8869 -3.6229 -6.4497
# 3 16.7598 64.7794 117.5204 -37.2153 -15.1865 -3.4487
# 4 1.7023 -33.8869 -37.2153 55.6728 -3.8647 2.6690
# 5 -10.7087 -3.6229 -15.1865 -3.8647 46.0771 -8.5691
# 6 3.6198 -6.4497 -3.4487 2.6690 -8.5691 23.5617
#
#
#
# Elastic Compliance Matrix: (Units=1/GPa)
#
#
# Indices 1 2 3 4 5 6 
#
# 1 0.037760 0.001642 -0.007058 -0.004305 0.005492 -0.003900
# 2 0.001642 0.011650 -0.005571 0.003236 0.000064 0.001778
# 3 -0.007058 -0.005571 0.015526 0.007370 0.004121 0.002496
# 4 -0.004305 0.003236 0.007370 0.025211 0.004027 0.001235
# 5 0.005492 0.000064 0.004121 0.004027 0.026335 0.008898
# 6 -0.003900 0.001778 0.002496 0.001235 0.008898 0.046989
#
#
# Mechanical properties :
#
#
# Convention : Reuss Voigt Hill
#
# Bulk Modulus (GPa) = 23.27582 49.36323 36.31952
# Shear Modulus (GPa) = 25.02918 37.85451 31.44184
#
# Velocity S-wave (km/s) = 3.11475 3.83052 3.49103
# Velocity P-wave (km/s) = 4.68589 6.22075 5.50705
#
# Compressibility (1/GPa) = 0.04296304
#
# Stress axis : x y z
#
# Youngs Moduli (GPa) = 26.48274 85.83475 64.40758
#
# Poissons Ratio (x) = -0.14094 0.45460
# Poissons Ratio (y) = -0.04348 0.35880
# Poissons Ratio (z) = 0.18692 0.47816
#
# Static dielectric constant tensor:
#      x y z
#    x 4.639910 -0.069410 -0.068970 
#    y -0.069410 5.242510 -1.271260 
#    z -0.068970 -1.271260 5.651490 
# 
# 
# High freq. dielectric constant tensor:
#      x y z
#    x 2.045300 -0.005950 -0.009350 
#    y -0.005950 2.008040 -0.047560 
#    z -0.009350 -0.047560 2.033510 
# 
# From -- ./inp_files/425331.got.cif
#   From: 2010.06.25/outbox.cif.g09.slc.cpg/sg2_213_cif.got.tgz:425331.got - 2010.06.27 13:26:56.
