data_PCOD8001710
_publ_section_title
;
Structure prediction by ZEFSAII (Michael W. Deem and Ramdas Pophale) SiO2 
 PCOD8001710
Probable space group: P -1
;
_chemical_formula_sum "Si O2"
_cell_formula_units_Z 14
_cell_length_a 12.955024
_cell_length_b 18.763817
_cell_length_c 9.031989
_cell_angle_alpha 47.592064
_cell_angle_beta 69.567211
_cell_angle_gamma 31.524289
_cell_volume 687.566235
_symmetry_space_group_name_H-M "P -1"
_symmetry_group_IT_number 2
_symmetry_cell_setting 'triclinic'
loop_
_space_group_symop_operation_xyz
x,y,z
-x,-y,-z
loop_
_atom_site_type_symbol
_atom_site_label
_atom_site_fract_x
_atom_site_fract_y
_atom_site_fract_z
Si Si1 0.194931 0.444638 0.102932
Si Si2 0.653708 0.086581 0.158426
Si Si3 0.774570 0.792869 0.601548
Si Si4 0.835999 0.250247 0.554832
Si Si5 0.680546 0.498553 0.807622
Si Si6 0.525905 0.630701 0.368668
Si Si7 0.793673 0.237792 0.267146
O O1 0.441746 0.256076 0.148858
O O2 0.144408 0.372615 0.279004
O O3 0.220178 0.484318 0.185621
O O4 0.962430 0.667738 0.817215
O O5 0.770724 0.887597 0.359276
O O6 0.547250 0.207388 0.886328
O O7 0.873450 0.985101 0.240614
O O8 0.500000 0.000000 0.500000
O O9 0.728804 0.425987 0.448146
O O10 0.714830 0.246760 0.679747
O O11 0.772459 0.313056 0.326354
O O12 0.638807 0.557934 0.575805
O O13 0.446304 0.638585 0.815483
O O14 0.858112 0.266357 0.065767
O O15 0.000000 0.000000 0.500000
#
# Coordination Sequence:
#
# PCOD8001710 Si02
#       7
#     2   2   2   2   2   2   2
#     4  10  20  38  60  82 107 137 183 236 275 318
#     4  11  19  34  59  82 107 145 186 224 267 321
#     4   9  20  36  60  85 103 134 185 233 277 325
#     4  10  21  36  54  79 113 155 187 215 261 321
#     4  10  21  35  52  80 113 143 177 225 275 316
#     4  10  22  35  51  81 120 151 180 216 264 330
#     4  10  20  34  54  79 108 145 187 225 263 314
#
# _framework density 20.361677
#
# number of rings (size 3 to 8) (size 9 to 14) (size 15 to 20)
#    0.000    2.000    0.000    3.857    0.000    8.000 
#    0.000    0.714    0.000   12.000    0.000    0.000 
#    0.000    0.000    0.000    0.000    0.000    0.000 
#
# Total GULP energy -173497.601334 kJ/mol
# GULP energy per Si atom -12392.685810 kJ/mol
# Density = 2.031533 g / cm^3
# Si number density = 20.361677 Si / 1000 Ang^3
#
#
#
# Elastic Constant Matrix: (Units=GPa)
#
#
# Indices 1 2 3 4 5 6 
#
# 1 120.1749 36.6913 79.0585 5.6709 4.6593 18.2052
# 2 36.6913 55.7102 46.3901 -4.2745 7.6727 -1.3346
# 3 79.0585 46.3901 182.4451 10.5372 -19.3241 17.8254
# 4 5.6709 -4.2745 10.5372 28.5994 -5.0208 5.3184
# 5 4.6593 7.6727 -19.3241 -5.0208 42.1071 -4.7117
# 6 18.2052 -1.3346 17.8254 5.3184 -4.7117 26.7771
#
#
#
# Elastic Compliance Matrix: (Units=1/GPa)
#
#
# Indices 1 2 3 4 5 6 
#
# 1 0.014161 -0.005535 -0.004304 -0.001290 -0.003515 -0.007401
# 2 -0.005535 0.028435 -0.006505 0.005301 -0.006096 0.007385
# 3 -0.004304 -0.006505 0.009988 -0.002321 0.005679 -0.002587
# 4 -0.001290 0.005301 -0.002321 0.038083 0.002149 -0.004499
# 5 -0.003515 -0.006096 0.005679 0.002149 0.028434 0.002882
# 6 -0.007401 0.007385 -0.002587 -0.004499 0.002882 0.045868
#
#
# Mechanical properties :
#
#
# Convention : Reuss Voigt Hill
#
# Bulk Modulus (GPa) = 50.25846 75.84556 63.05201
# Shear Modulus (GPa) = 24.47515 32.57609 28.52562
#
# Velocity S-wave (km/s) = 3.47078 4.00418 3.74698
# Velocity P-wave (km/s) = 6.38735 7.66211 7.05359
#
# Compressibility (1/GPa) = 0.01989715
#
# Stress axis : x y z
#
# Youngs Moduli (GPa) = 70.61879 35.16732 100.11625
#
# Poissons Ratio (x) = 0.19465 0.43086
# Poissons Ratio (y) = 0.39086 0.65128
# Poissons Ratio (z) = 0.30391 0.22877
#
# Static dielectric constant tensor:
#      x y z
#    x 4.070490 -0.031750 0.156920 
#    y -0.031750 3.584240 0.177140 
#    z 0.156920 0.177140 5.291130 
# 
# 
# High freq. dielectric constant tensor:
#      x y z
#    x 1.795140 -0.012120 -0.005440 
#    y -0.012120 1.761190 -0.017760 
#    z -0.005440 -0.017760 1.814850 
# 
# From -- ./inp_files/34464.got.cif
#   From: 2010.06.25/outbox.cif.g09.slc.cpg/sg2_18_cif.got.tgz:34464.got - 2010.06.27 13:26:56.
