data_PCOD8001769
_publ_section_title
;
Structure prediction by ZEFSAII (Michael W. Deem and Ramdas Pophale) SiO2 
 PCOD8001769
Probable space group: P -1
;
_chemical_formula_sum "Si O2"
_cell_formula_units_Z 16
_cell_length_a 9.302722
_cell_length_b 11.600687
_cell_length_c 15.334882
_cell_angle_alpha 121.037647
_cell_angle_beta 142.422425
_cell_angle_gamma 75.419892
_cell_volume 824.828077
_symmetry_space_group_name_H-M "P -1"
_symmetry_group_IT_number 2
_symmetry_cell_setting 'triclinic'
loop_
_space_group_symop_operation_xyz
x,y,z
-x,-y,-z
loop_
_atom_site_type_symbol
_atom_site_label
_atom_site_fract_x
_atom_site_fract_y
_atom_site_fract_z
Si Si1 0.512809 0.625546 0.433663
Si Si2 0.257994 0.673970 0.814207
Si Si3 0.223058 0.630145 0.131005
Si Si4 0.901019 0.414649 0.647804
Si Si5 0.372550 0.650595 0.669661
Si Si6 0.665775 0.568197 0.028376
Si Si7 0.065504 0.172196 0.004933
Si Si8 0.025895 0.145553 0.179516
O O1 0.400137 0.683929 0.319334
O O2 0.308657 0.551392 0.379832
O O3 0.638752 0.510310 0.417594
O O4 0.714636 0.759956 0.621736
O O5 0.213336 0.652553 0.680606
O O6 0.071770 0.554519 0.737301
O O7 0.207542 0.818953 0.874026
O O8 0.545732 0.679391 0.968874
O O9 0.356196 0.567547 0.095605
O O10 0.000000 0.500000 0.000000
O O11 0.122828 0.756261 0.101478
O O12 0.768013 0.304537 0.463987
O O13 0.061696 0.353293 0.770079
O O14 0.651641 0.748176 0.851491
O O15 0.500000 0.500000 0.000000
O O16 0.017281 0.171547 0.083435
O O17 0.001729 0.015713 0.874667
#
# Coordination Sequence:
#
# PCOD8001769 Si02
#       8
#     2   2   2   2   2   2   2   2
#     4  12  22  37  64  92 121 158 206 259 302 348
#     4  11  22  37  60  93 126 157 197 254 313 364
#     4  12  21  36  62  94 119 154 206 258 300 353
#     4  11  21  34  60  92 122 155 204 256 303 351
#     4  12  21  36  63  93 121 155 206 259 302 357
#     4  10  20  34  55  91 124 151 189 252 311 354
#     4  11  24  43  62  89 124 166 208 245 304 365
#     4  11  25  42  62  89 126 167 203 245 303 375
#
# _framework density 19.397981999999999
#
# number of rings (size 3 to 8) (size 9 to 14) (size 15 to 20)
#    0.000    0.750    6.250    3.000    0.000    1.000 
#    0.000    0.000    0.000    0.750    0.000    0.000 
#    0.000    0.000    0.000    0.000    0.000    0.000 
#
# Total GULP energy -198307.508712 kJ/mol
# GULP energy per Si atom -12394.219295 kJ/mol
# Density = 1.935383 g / cm^3
# Si number density = 19.397982 Si / 1000 Ang^3
#
#
#
# Elastic Constant Matrix: (Units=GPa)
#
#
# Indices 1 2 3 4 5 6 
#
# 1 117.8921 49.7687 39.7418 2.2485 -23.8527 -19.2902
# 2 49.7687 122.9897 62.0540 -5.6124 -8.9583 -17.4243
# 3 39.7418 62.0540 116.7726 -10.2187 -9.2608 -10.8813
# 4 2.2485 -5.6124 -10.2187 32.6644 -0.6850 -2.3497
# 5 -23.8527 -8.9583 -9.2608 -0.6850 27.7615 -3.8841
# 6 -19.2902 -17.4243 -10.8813 -2.3497 -3.8841 27.2399
#
#
#
# Elastic Compliance Matrix: (Units=1/GPa)
#
#
# Indices 1 2 3 4 5 6 
#
# 1 0.014156 -0.002778 -0.001623 -0.001045 0.011989 0.009219
# 2 -0.002778 0.012556 -0.005208 0.001029 0.000534 0.004149
# 3 -0.001623 -0.005208 0.012344 0.003170 0.001247 0.000901
# 4 -0.001045 0.001029 0.003170 0.032198 0.001878 0.004229
# 5 0.011989 0.000534 0.001247 0.001878 0.049268 0.016517
# 6 0.009219 0.004149 0.000901 0.004229 0.016517 0.048973
#
#
# Mechanical properties :
#
#
# Convention : Reuss Voigt Hill
#
# Bulk Modulus (GPa) = 50.40800 73.42037 61.91418
# Shear Modulus (GPa) = 25.59813 31.27249 28.43531
#
# Velocity S-wave (km/s) = 3.63661 4.01952 3.83285
# Velocity P-wave (km/s) = 6.60877 7.71192 7.18156
#
# Compressibility (1/GPa) = 0.01983812
#
# Stress axis : x y z
#
# Youngs Moduli (GPa) = 70.63941 79.64232 81.01133
#
# Poissons Ratio (x) = 0.22123 0.13151
# Poissons Ratio (y) = 0.19622 0.42192
# Poissons Ratio (z) = 0.11467 0.41479
#
# Static dielectric constant tensor:
#      x y z
#    x 3.943650 -0.629030 0.465680 
#    y -0.629030 5.072330 -2.089440 
#    z 0.465680 -2.089440 5.510740 
# 
# 
# High freq. dielectric constant tensor:
#      x y z
#    x 1.777410 -0.006560 -0.012400 
#    y -0.006560 1.727140 -0.035850 
#    z -0.012400 -0.035850 1.753880 
# 
# From -- ./inp_files/238920.got.cif
#   From: 2010.06.25/outbox.cif.g09.slc.cpg/sg2_120_cif.got.tgz:238920.got - 2010.06.27 13:26:56.
