data_PCOD8001306
_publ_section_title
;
Structure prediction by ZEFSAII (Michael W. Deem and Ramdas Pophale) SiO2 
 PCOD8001306
Probable space group: P -1
;
_chemical_formula_sum "Si O2"
_cell_formula_units_Z 12
_cell_length_a 9.674322
_cell_length_b 16.676340
_cell_length_c 8.151124
_cell_angle_alpha 128.606347
_cell_angle_beta 130.754404
_cell_angle_gamma 29.516016
_cell_volume 485.244823
_symmetry_space_group_name_H-M "P -1"
_symmetry_group_IT_number 2
_symmetry_cell_setting 'triclinic'
loop_
_space_group_symop_operation_xyz
x,y,z
-x,-y,-z
loop_
_atom_site_type_symbol
_atom_site_label
_atom_site_fract_x
_atom_site_fract_y
_atom_site_fract_z
Si Si1 0.791778 0.324889 0.070929
Si Si2 0.401675 0.797608 0.696305
Si Si3 0.389775 0.169361 0.780696
Si Si4 0.418694 0.098690 0.218960
Si Si5 0.152401 0.934877 0.209430
Si Si6 0.745397 0.445088 0.519044
O O1 0.807220 0.333403 0.287261
O O2 0.069642 0.266218 0.145984
O O3 0.500000 0.500000 0.000000
O O4 0.801719 0.201878 0.870038
O O5 0.420541 0.861214 0.626450
O O6 0.604609 0.613779 0.566029
O O7 0.523758 0.799863 0.956533
O O8 0.063271 0.916853 0.631891
O O9 0.540627 0.140747 0.687442
O O10 0.042709 0.333817 0.705953
O O11 0.485393 0.008600 0.682209
O O12 0.500000 0.000000 0.000000
O O13 0.000000 0.000000 0.000000
O O14 0.500000 0.500000 0.500000
#
# Coordination Sequence:
#
# PCOD8001306 Si02
#       6
#     2   2   2   2   2   2
#     4  12  27  45  69  99 146 180 228 284 346 404
#     4  10  22  44  71 101 138 176 229 277 348 408
#     4  10  22  43  75  96 139 177 233 281 336 407
#     4  10  21  44  72  98 133 185 224 273 351 403
#     4  10  19  45  70  98 130 185 224 276 338 410
#     4  12  28  43  68 108 138 179 232 286 342 401
#
# _framework density 24.729782
#
# number of rings (size 3 to 8) (size 9 to 14) (size 15 to 20)
#    0.000    1.333    5.000    2.500    7.000    1.333 
#    0.000    1.667    0.000    0.000    0.000    0.000 
#    0.000    0.000    0.000    0.000    0.000    0.000 
#
# Total GULP energy -148719.164711 kJ/mol
# GULP energy per Si atom -12393.263726 kJ/mol
# Density = 2.467350 g / cm^3
# Si number density = 24.729782 Si / 1000 Ang^3
#
#
#
# Elastic Constant Matrix: (Units=GPa)
#
#
# Indices 1 2 3 4 5 6 
#
# 1 187.0408 60.4417 1.7174 -8.3262 6.4912 -22.5679
# 2 60.4417 164.9534 7.5867 -4.5439 12.4121 -17.5453
# 3 1.7174 7.5867 34.5147 4.3088 12.9957 -11.1332
# 4 -8.3262 -4.5439 4.3088 32.4415 -1.0277 5.6518
# 5 6.4912 12.4121 12.9957 -1.0277 30.5814 5.0109
# 6 -22.5679 -17.5453 -11.1332 5.6518 5.0109 57.4247
#
#
#
# Elastic Compliance Matrix: (Units=1/GPa)
#
#
# Indices 1 2 3 4 5 6 
#
# 1 0.006331 -0.002023 0.001253 0.000755 -0.001384 0.002159
# 2 -0.002023 0.007188 0.000095 0.000098 -0.002796 0.001654
# 3 0.001253 0.000095 0.040753 -0.007597 -0.019661 0.010886
# 4 0.000755 0.000098 -0.007597 0.033039 0.004930 -0.004828
# 5 -0.001384 -0.002796 -0.019661 0.004930 0.044214 -0.009553
# 6 0.002159 0.001654 0.010886 -0.004828 -0.009553 0.022187
#
#
# Mechanical properties :
#
#
# Convention : Reuss Voigt Hill
#
# Bulk Modulus (GPa) = 18.89611 58.44453 38.67032
# Shear Modulus (GPa) = 28.95151 45.20707 37.07929
#
# Velocity S-wave (km/s) = 3.42528 4.28020 3.87638
# Velocity P-wave (km/s) = 4.82711 6.93624 5.97547
#
# Compressibility (1/GPa) = 0.05292093
#
# Stress axis : x y z
#
# Youngs Moduli (GPa) = 157.95986 139.11793 24.53825
#
# Poissons Ratio (x) = 0.28140 -0.03074
# Poissons Ratio (y) = 0.31951 -0.00232
# Poissons Ratio (z) = -0.19789 -0.01316
#
# Static dielectric constant tensor:
#      x y z
#    x 7.245400 2.021370 0.777130 
#    y 2.021370 6.557280 0.882070 
#    z 0.777130 0.882070 5.001400 
# 
# 
# High freq. dielectric constant tensor:
#      x y z
#    x 2.002330 -0.011640 -0.002200 
#    y -0.011640 1.989630 0.002380 
#    z -0.002200 0.002380 1.984200 
# 
# From -- ./inp_files/174012.got.cif
#   From: 2010.06.25/outbox.cif.g09.slc.cpg/sg2_88_cif.got.tgz:174012.got - 2010.06.27 13:26:56.
