data_PCOD8001069
_publ_section_title
;
Structure prediction by ZEFSAII (Michael W. Deem and Ramdas Pophale) SiO2 
 PCOD8001069
Probable space group: P -1
;
_chemical_formula_sum "Si O2"
_cell_formula_units_Z 16
_cell_length_a 11.372925
_cell_length_b 8.132612
_cell_length_c 16.373553
_cell_angle_alpha 56.462140
_cell_angle_beta 144.073033
_cell_angle_gamma 120.868937
_cell_volume 733.945973
_symmetry_space_group_name_H-M "P -1"
_symmetry_group_IT_number 2
_symmetry_cell_setting 'triclinic'
loop_
_space_group_symop_operation_xyz
x,y,z
-x,-y,-z
loop_
_atom_site_type_symbol
_atom_site_label
_atom_site_fract_x
_atom_site_fract_y
_atom_site_fract_z
Si Si1 0.010070 0.867596 0.961876
Si Si2 0.851485 0.750865 0.303360
Si Si3 0.307519 0.192345 0.978189
Si Si4 0.714890 0.373520 0.426282
Si Si5 0.393408 0.039281 0.344726
Si Si6 0.088315 0.470377 0.888320
Si Si7 0.672858 0.122050 0.118622
Si Si8 0.677953 0.396937 0.591089
O O1 0.826983 0.890316 0.789604
O O2 0.997481 0.636149 0.046080
O O3 0.215133 0.959986 0.005700
O O4 0.000000 0.000000 0.000000
O O5 0.784303 0.733387 0.176938
O O6 0.712682 0.579789 0.321855
O O7 0.083021 0.722565 0.448399
O O8 0.825499 0.965028 0.270597
O O9 0.247931 0.337778 0.975173
O O10 0.552299 0.200233 0.107052
O O11 0.537165 0.214190 0.331155
O O12 0.672126 0.410031 0.486842
O O13 0.500000 0.000000 0.500000
O O14 0.360409 0.830652 0.334842
O O15 0.204034 0.690205 0.910720
O O16 0.899191 0.496167 0.716687
O O17 0.500000 0.000000 0.000000
O O18 0.500000 0.500000 0.500000
#
# Coordination Sequence:
#
# PCOD8001069 Si02
#       8
#     2   2   2   2   2   2   2   2
#     4  10  20  38  66  94 126 165 216 262 325 392
#     4  10  21  42  62  88 128 171 220 261 318 394
#     4  10  19  41  64  87 129 167 210 266 323 388
#     4  10  22  41  66  89 128 174 217 261 327 391
#     4  10  20  39  66  94 126 171 216 264 323 390
#     4  11  22  42  65  92 130 173 213 270 334 387
#     4  10  24  39  61  90 126 166 218 269 318 382
#     4  11  23  41  65  98 131 164 216 278 328 387
#
# _framework density 21.799970999999999
#
# number of rings (size 3 to 8) (size 9 to 14) (size 15 to 20)
#    0.000    1.750    3.750    1.125    5.250    1.000 
#    2.250    3.125    0.000    0.000    0.000    0.000 
#    0.000    0.000    0.000    0.000    0.000    0.000 
#
# Total GULP energy -198296.455254 kJ/mol
# GULP energy per Si atom -12393.528453 kJ/mol
# Density = 2.175035 g / cm^3
# Si number density = 21.799971 Si / 1000 Ang^3
#
#
#
# Elastic Constant Matrix: (Units=GPa)
#
#
# Indices 1 2 3 4 5 6 
#
# 1 62.3988 42.3916 17.1902 -13.1215 7.3090 16.8411
# 2 42.3916 184.0502 34.9303 -13.3763 5.0338 36.5854
# 3 17.1902 34.9303 55.0787 -8.6622 1.9488 6.6829
# 4 -13.1215 -13.3763 -8.6622 38.5082 -0.3281 -2.8402
# 5 7.3090 5.0338 1.9488 -0.3281 33.9422 -7.4741
# 6 16.8411 36.5854 6.6829 -2.8402 -7.4741 37.1881
#
#
#
# Elastic Compliance Matrix: (Units=1/GPa)
#
#
# Indices 1 2 3 4 5 6 
#
# 1 0.022646 -0.002383 -0.003505 0.005453 -0.006049 -0.008081
# 2 -0.002383 0.008027 -0.003372 0.000719 -0.001918 -0.006543
# 3 -0.003505 -0.003372 0.021630 0.002597 0.000320 0.001281
# 4 0.005453 0.000719 0.002597 0.028516 -0.001545 -0.001776
# 5 -0.006049 -0.001918 0.000320 -0.001545 0.033477 0.011178
# 6 -0.008081 -0.006543 0.001281 -0.001776 0.011178 0.038867
#
#
# Mechanical properties :
#
#
# Convention : Reuss Voigt Hill
#
# Bulk Modulus (GPa) = 29.59984 54.50576 42.05280
# Shear Modulus (GPa) = 27.33046 35.72874 31.52960
#
# Velocity S-wave (km/s) = 3.54459 4.05277 3.80717
# Velocity P-wave (km/s) = 5.50995 6.85251 6.21757
#
# Compressibility (1/GPa) = 0.03378397
#
# Stress axis : x y z
#
# Youngs Moduli (GPa) = 44.15698 124.57305 46.23166
#
# Poissons Ratio (x) = 0.29684 0.16203
# Poissons Ratio (y) = 0.10522 0.15591
# Poissons Ratio (z) = 0.15476 0.42012
#
# Static dielectric constant tensor:
#      x y z
#    x 4.159880 0.386370 0.234010 
#    y 0.386370 4.540950 -0.146070 
#    z 0.234010 -0.146070 4.029200 
# 
# 
# High freq. dielectric constant tensor:
#      x y z
#    x 1.838900 0.022750 0.012410 
#    y 0.022750 1.869150 -0.004510 
#    z 0.012410 -0.004510 1.850430 
# 
# From -- ./inp_files/407249.got.cif
#   From: 2010.06.25/outbox.cif.g09.slc.cpg/sg2_204_cif.got.tgz:407249.got - 2010.06.27 13:26:56.
