data_PCOD8001892
_publ_section_title
;
Structure prediction by ZEFSAII (Michael W. Deem and Ramdas Pophale) SiO2 
 PCOD8001892
Probable space group: P -1
;
_chemical_formula_sum "Si O2"
_cell_formula_units_Z 16
_cell_length_a 9.084936
_cell_length_b 19.516297
_cell_length_c 9.686575
_cell_angle_alpha 52.767856
_cell_angle_beta 105.289707
_cell_angle_gamma 141.928623
_cell_volume 760.046845
_symmetry_space_group_name_H-M "P -1"
_symmetry_group_IT_number 2
_symmetry_cell_setting 'triclinic'
loop_
_space_group_symop_operation_xyz
x,y,z
-x,-y,-z
loop_
_atom_site_type_symbol
_atom_site_label
_atom_site_fract_x
_atom_site_fract_y
_atom_site_fract_z
Si Si1 0.339709 0.358119 0.496102
Si Si2 0.401255 0.819119 0.132245
Si Si3 0.159805 0.172386 0.089260
Si Si4 0.627898 0.441094 0.715352
Si Si5 0.679597 0.829344 0.398914
Si Si6 0.138862 0.611718 0.065070
Si Si7 0.119537 0.839198 0.155968
Si Si8 0.418962 0.682132 0.787062
O O1 0.606641 0.458390 0.528028
O O2 0.370755 0.468597 0.304373
O O3 0.300019 0.265550 0.485823
O O4 0.094072 0.249435 0.670852
O O5 0.511420 0.786302 0.279422
O O6 0.253181 0.727058 0.067504
O O7 0.197099 0.775236 0.235385
O O8 0.633391 0.990923 0.938397
O O9 0.334692 0.262180 0.162745
O O10 0.372865 0.263262 0.906415
O O11 0.976755 0.003373 0.258329
O O12 0.976913 0.170071 0.007878
O O13 0.874199 0.493457 0.750528
O O14 0.530775 0.786313 0.556386
O O15 0.831652 0.493627 0.102369
O O16 0.316313 0.699277 0.862241
#
# Coordination Sequence:
#
# PCOD8001892 Si02
#       8
#     2   2   2   2   2   2   2   2
#     4  10  20  34  58  96 121 151 194 257 311 345
#     4  10  21  39  64  94 120 159 205 253 314 352
#     4   9  20  40  61  80 125 161 202 244 300 358
#     4   9  19  35  57  88 124 153 193 249 304 359
#     4  11  22  37  66  96 116 157 208 256 300 363
#     4  10  21  40  61  85 126 170 198 244 307 370
#     4   9  21  37  63  93 125 153 202 265 301 357
#     4  10  23  38  58  92 124 164 206 245 294 369
#
# _framework density 21.051335000000002
#
# number of rings (size 3 to 8) (size 9 to 14) (size 15 to 20)
#    0.000    2.250    1.250    0.375    5.250    5.000 
#    0.000    6.875    0.000    3.000    0.000    0.000 
#    0.000    0.000    0.000    0.000    0.000    0.000 
#
# Total GULP energy -198222.635450 kJ/mol
# GULP energy per Si atom -12388.914716 kJ/mol
# Density = 2.100342 g / cm^3
# Si number density = 21.051335 Si / 1000 Ang^3
#
#
#
# Elastic Constant Matrix: (Units=GPa)
#
#
# Indices 1 2 3 4 5 6 
#
# 1 76.6982 49.9764 17.4355 -8.4449 6.2080 -7.7179
# 2 49.9764 146.4274 35.2714 2.1889 2.7685 7.6810
# 3 17.4355 35.2714 67.8646 -1.9639 -6.8155 -9.6953
# 4 -8.4449 2.1889 -1.9639 24.6349 -5.6781 0.4941
# 5 6.2080 2.7685 -6.8155 -5.6781 21.6515 -3.9914
# 6 -7.7179 7.6810 -9.6953 0.4941 -3.9914 29.3674
#
#
#
# Elastic Compliance Matrix: (Units=1/GPa)
#
#
# Indices 1 2 3 4 5 6 
#
# 1 0.019070 -0.006784 -0.000478 0.006543 -0.001881 0.006263
# 2 -0.006784 0.010940 -0.005407 -0.004415 -0.003575 -0.006841
# 3 -0.000478 -0.005407 0.020093 0.004016 0.009903 0.009200
# 4 0.006543 -0.004415 0.004016 0.046462 0.013096 0.005198
# 5 -0.001881 -0.003575 0.009903 0.013096 0.055775 0.011070
# 6 0.006263 -0.006841 0.009200 0.005198 0.011070 0.041941
#
#
# Mechanical properties :
#
#
# Convention : Reuss Voigt Hill
#
# Bulk Modulus (GPa) = 40.38019 55.15075 47.76547
# Shear Modulus (GPa) = 21.94184 27.68455 24.81320
#
# Velocity S-wave (km/s) = 3.23197 3.63036 3.43694
# Velocity P-wave (km/s) = 5.75769 6.62026 6.20398
#
# Compressibility (1/GPa) = 0.02476462
#
# Stress axis : x y z
#
# Youngs Moduli (GPa) = 52.43743 91.41052 49.76796
#
# Poissons Ratio (x) = 0.62016 0.02380
# Poissons Ratio (y) = 0.35576 0.26908
# Poissons Ratio (z) = 0.02508 0.49423
#
# Static dielectric constant tensor:
#      x y z
#    x 3.833810 0.315370 0.184340 
#    y 0.315370 3.884950 -0.029560 
#    z 0.184340 -0.029560 3.793760 
# 
# 
# High freq. dielectric constant tensor:
#      x y z
#    x 1.807130 0.021600 -0.000330 
#    y 0.021600 1.823390 -0.009090 
#    z -0.000330 -0.009090 1.811770 
# 
# From -- ./inp_files/209256.got.cif
#   From: 2010.06.25/outbox.cif.g09.slc.cpg/sg2_105_cif.got.tgz:209256.got - 2010.06.27 13:26:56.
