data_PCOD8001352
_publ_section_title
;
Structure prediction by ZEFSAII (Michael W. Deem and Ramdas Pophale) SiO2 
 PCOD8001352
Probable space group: P -1
;
_chemical_formula_sum "Si O2"
_cell_formula_units_Z 16
_cell_length_a 23.178888
_cell_length_b 20.211764
_cell_length_c 14.134273
_cell_angle_alpha 26.498567
_cell_angle_beta 23.551008
_cell_angle_gamma 19.073187
_cell_volume 843.639315
_symmetry_space_group_name_H-M "P -1"
_symmetry_group_IT_number 2
_symmetry_cell_setting 'triclinic'
loop_
_space_group_symop_operation_xyz
x,y,z
-x,-y,-z
loop_
_atom_site_type_symbol
_atom_site_label
_atom_site_fract_x
_atom_site_fract_y
_atom_site_fract_z
Si Si1 0.635095 0.328201 0.234807
Si Si2 0.452147 0.843801 0.547416
Si Si3 0.718594 0.460946 0.776808
Si Si4 0.094334 0.128944 0.007602
Si Si5 0.535458 0.117449 0.112071
Si Si6 0.099919 0.960283 0.031605
Si Si7 0.818841 0.637747 0.524863
Si Si8 0.377456 0.513833 0.749613
O O1 0.541171 0.234288 0.468767
O O2 0.574433 0.426199 0.304470
O O3 0.571823 0.488155 0.041187
O O4 0.875584 0.150076 0.090369
O O5 0.587712 0.649973 0.660664
O O6 0.523125 0.962604 0.282759
O O7 0.228292 0.988194 0.742956
O O8 0.844180 0.250304 0.799394
O O9 0.864122 0.472296 0.596092
O O10 0.189529 0.203129 0.720211
O O11 0.232016 0.007759 0.049559
O O12 0.857071 0.321758 0.139339
O O13 0.118507 0.973439 0.099433
O O14 0.395857 0.230619 0.269696
O O15 0.456630 0.289744 0.931636
O O16 0.000000 0.500000 0.500000
O O17 0.500000 0.500000 0.500000
#
# Coordination Sequence:
#
# PCOD8001352 Si02
#       8
#     2   2   2   2   2   2   2   2
#     4  10  21  36  56  84 118 160 193 238 292 348
#     4  11  21  32  55  92 122 154 186 223 311 375
#     4  11  20  31  52  91 126 155 182 229 297 373
#     4  11  22  39  60  94 120 154 197 240 305 366
#     4  12  23  37  63  86 127 156 190 251 303 354
#     4  10  20  31  53  85 128 155 184 223 292 366
#     4  12  20  33  57  93 130 158 186 232 305 373
#     4  11  26  45  64  83 111 161 217 256 287 335
#
# _framework density 18.965451000000002
#
# number of rings (size 3 to 8) (size 9 to 14) (size 15 to 20)
#    0.000    1.000    5.000    4.875    3.500    0.500 
#    0.000    0.625    0.000    0.750    0.000    0.000 
#    0.000    0.000    0.000    0.000    0.000    0.000 
#
# Total GULP energy -198336.174048 kJ/mol
# GULP energy per Si atom -12396.010878 kJ/mol
# Density = 1.892229 g / cm^3
# Si number density = 18.965451 Si / 1000 Ang^3
#
#
#
# Elastic Constant Matrix: (Units=GPa)
#
#
# Indices 1 2 3 4 5 6 
#
# 1 126.1492 54.5712 47.3586 -12.6765 -30.8357 3.4079
# 2 54.5712 89.5543 52.8085 -15.4939 -2.0225 -2.6238
# 3 47.3586 52.8085 90.7815 -6.7460 2.6158 7.9717
# 4 -12.6765 -15.4939 -6.7460 17.6638 4.0117 -9.7333
# 5 -30.8357 -2.0225 2.6158 4.0117 25.8162 -0.2693
# 6 3.4079 -2.6238 7.9717 -9.7333 -0.2693 28.0597
#
#
#
# Elastic Compliance Matrix: (Units=1/GPa)
#
#
# Indices 1 2 3 4 5 6 
#
# 1 0.019138 -0.007958 -0.005997 -0.001744 0.023097 -0.001748
# 2 -0.007958 0.026554 -0.010520 0.023874 -0.009916 0.014624
# 3 -0.005997 -0.010520 0.020681 -0.008721 -0.008823 -0.009240
# 4 -0.001744 0.023874 -0.008721 0.097427 -0.014067 0.038582
# 5 0.023097 -0.009916 -0.008823 -0.014067 0.068569 -0.005447
# 6 -0.001748 0.014624 -0.009240 0.038582 -0.005447 0.053174
#
#
# Mechanical properties :
#
#
# Convention : Reuss Voigt Hill
#
# Bulk Modulus (GPa) = 57.38847 68.44020 62.91433
# Shear Modulus (GPa) = 14.69297 24.42439 19.55868
#
# Velocity S-wave (km/s) = 2.78640 3.59254 3.21484
# Velocity P-wave (km/s) = 6.37787 7.30572 6.85751
#
# Compressibility (1/GPa) = 0.01742510
#
# Stress axis : x y z
#
# Youngs Moduli (GPa) = 52.25110 37.65963 48.35404
#
# Poissons Ratio (x) = 0.29968 0.28996
# Poissons Ratio (y) = 0.41579 0.50867
# Poissons Ratio (z) = 0.31333 0.39617
#
# Static dielectric constant tensor:
#      x y z
#    x 3.929370 0.049370 -0.468650 
#    y 0.049370 3.619390 -0.235590 
#    z -0.468650 -0.235590 3.147810 
# 
# 
# High freq. dielectric constant tensor:
#      x y z
#    x 1.755070 -0.011900 -0.029300 
#    y -0.011900 1.741320 -0.031050 
#    z -0.029300 -0.031050 1.687530 
# 
# From -- ./inp_files/336440.got.cif
#   From: 2010.06.25/outbox.cif.g09.slc.cpg/sg2_169_cif.got.tgz:336440.got - 2010.06.27 13:26:56.
