data_PCOD8001238
_publ_section_title
;
Structure prediction by ZEFSAII (Michael W. Deem and Ramdas Pophale) SiO2 
 PCOD8001238
Probable space group: P -1
;
_chemical_formula_sum "Si O2"
_cell_formula_units_Z 14
_cell_length_a 16.019469
_cell_length_b 10.294635
_cell_length_c 10.018315
_cell_angle_alpha 38.197048
_cell_angle_beta 48.629785
_cell_angle_gamma 33.524582
_cell_volume 564.169565
_symmetry_space_group_name_H-M "P -1"
_symmetry_group_IT_number 2
_symmetry_cell_setting 'triclinic'
loop_
_space_group_symop_operation_xyz
x,y,z
-x,-y,-z
loop_
_atom_site_type_symbol
_atom_site_label
_atom_site_fract_x
_atom_site_fract_y
_atom_site_fract_z
Si Si1 0.903500 0.646924 0.851402
Si Si2 0.908439 0.311684 0.573747
Si Si3 0.393304 0.831807 0.848146
Si Si4 0.279352 0.801145 0.253180
Si Si5 0.832356 0.285628 0.114842
Si Si6 0.321712 0.293331 0.287361
Si Si7 0.616308 0.217100 0.400406
O O1 0.001521 0.615920 0.651594
O O2 0.766071 0.983754 0.753679
O O3 0.843479 0.490763 0.012471
O O4 0.000000 0.500000 0.000000
O O5 0.840705 0.235505 0.598553
O O6 0.771714 0.603623 0.558189
O O7 0.012556 0.045075 0.781948
O O8 0.502039 0.889335 0.719916
O O9 0.324166 0.927622 0.695558
O O10 0.500000 0.500000 0.000000
O O11 0.274832 0.939614 0.006386
O O12 0.440630 0.495903 0.366303
O O13 0.707126 0.292917 0.309911
O O14 0.765464 0.409125 0.938019
O O15 0.331101 0.074092 0.356229
#
# Coordination Sequence:
#
# PCOD8001238 Si02
#       7
#     2   2   2   2   2   2   2
#     4  12  29  48  73 103 144 203 242 282 359 431
#     4  12  26  47  76 107 145 188 240 297 358 433
#     4  10  19  42  71 107 141 181 231 297 358 412
#     4  11  23  47  75 102 142 187 244 295 344 432
#     4  12  26  49  69 109 149 186 240 298 359 423
#     4  12  24  44  78 113 143 183 234 301 373 419
#     4  11  24  44  74 110 142 182 242 302 358 412
#
# _framework density 24.815234
#
# number of rings (size 3 to 8) (size 9 to 14) (size 15 to 20)
#    0.000    0.571    7.143    2.143    2.000    4.000 
#    0.000    1.429    0.000    0.000    0.000    0.000 
#    0.000    0.000    0.000    0.000    0.000    0.000 
#
# Total GULP energy -173484.481709 kJ/mol
# GULP energy per Si atom -12391.748694 kJ/mol
# Density = 2.475875 g / cm^3
# Si number density = 24.815234 Si / 1000 Ang^3
#
#
#
# Elastic Constant Matrix: (Units=GPa)
#
#
# Indices 1 2 3 4 5 6 
#
# 1 96.3164 20.2036 35.8169 -3.4264 -46.5919 -12.2417
# 2 20.2036 86.4443 42.3482 -12.2688 -18.7362 -0.7684
# 3 35.8169 42.3482 106.1213 -11.3436 -30.6010 -4.0743
# 4 -3.4264 -12.2688 -11.3436 40.2593 1.5860 -0.7060
# 5 -46.5919 -18.7362 -30.6010 1.5860 52.1190 -0.9756
# 6 -12.2417 -0.7684 -4.0743 -0.7060 -0.9756 36.6993
#
#
#
# Elastic Compliance Matrix: (Units=1/GPa)
#
#
# Indices 1 2 3 4 5 6 
#
# 1 0.020245 -0.000102 -0.001449 0.000725 0.017321 0.007065
# 2 -0.000102 0.014944 -0.004951 0.003058 0.002278 -0.000151
# 3 -0.001449 -0.004951 0.013538 0.002011 0.004833 0.001083
# 4 0.000725 0.003058 0.002011 0.026334 0.002148 0.001093
# 5 0.017321 0.002278 0.004833 0.002148 0.038401 0.007424
# 6 0.007065 -0.000151 0.001083 0.001093 0.007424 0.029940
#
#
# Mechanical properties :
#
#
# Convention : Reuss Voigt Hill
#
# Bulk Modulus (GPa) = 27.99282 53.95770 40.97526
# Shear Modulus (GPa) = 29.70644 38.51640 34.11142
#
# Velocity S-wave (km/s) = 3.46367 3.94398 3.71160
# Velocity P-wave (km/s) = 5.22504 6.52158 5.90898
#
# Compressibility (1/GPa) = 0.03572344
#
# Stress axis : x y z
#
# Youngs Moduli (GPa) = 49.39464 66.91704 73.86612
#
# Poissons Ratio (x) = 0.00682 0.10702
# Poissons Ratio (y) = 0.00504 0.36571
# Poissons Ratio (z) = 0.07156 0.33131
#
# Static dielectric constant tensor:
#      x y z
#    x 3.363900 -0.279270 -1.714170 
#    y -0.279270 3.760930 -1.070520 
#    z -1.714170 -1.070520 1.862750 
# 
# 
# High freq. dielectric constant tensor:
#      x y z
#    x 1.985520 -0.010470 -0.012050 
#    y -0.010470 1.976840 -0.024230 
#    z -0.012050 -0.024230 2.007700 
# 
# From -- ./inp_files/464995.got.cif
#   From: 2010.06.25/outbox.cif.g09.slc.cpg/sg2_233_cif.got.tgz:464995.got - 2010.06.27 13:26:56.
