data_PCOD8001313
_publ_section_title
;
Structure prediction by ZEFSAII (Michael W. Deem and Ramdas Pophale) SiO2 
 PCOD8001313
Probable space group: P -1
;
_chemical_formula_sum "Si O2"
_cell_formula_units_Z 16
_cell_length_a 25.452076
_cell_length_b 9.346007
_cell_length_c 21.096854
_cell_angle_alpha 152.030130
_cell_angle_beta 23.732440
_cell_angle_gamma 138.256402
_cell_volume 894.060753
_symmetry_space_group_name_H-M "P -1"
_symmetry_group_IT_number 2
_symmetry_cell_setting 'triclinic'
loop_
_space_group_symop_operation_xyz
x,y,z
-x,-y,-z
loop_
_atom_site_type_symbol
_atom_site_label
_atom_site_fract_x
_atom_site_fract_y
_atom_site_fract_z
Si Si1 0.368247 0.791126 0.491038
Si Si2 0.456686 0.753355 0.090715
Si Si3 0.345040 0.735220 0.753858
Si Si4 0.360521 0.218806 0.203474
Si Si5 0.604707 0.533858 0.534940
Si Si6 0.296131 0.534404 0.856968
Si Si7 0.161164 0.829587 0.249299
Si Si8 0.348143 0.398226 0.967094
O O1 0.302183 0.582438 0.437587
O O2 0.343435 0.691238 0.549985
O O3 0.529035 0.706425 0.261500
O O4 0.292880 0.170711 0.715249
O O5 0.374522 0.117106 0.346546
O O6 0.500000 0.500000 0.000000
O O7 0.600372 0.758532 0.903954
O O8 0.366177 0.656705 0.098800
O O9 0.500000 0.500000 0.500000
O O10 0.299387 0.641983 0.699076
O O11 0.248251 0.690606 0.901048
O O12 0.341377 0.102430 0.901175
O O13 0.239396 0.069524 0.281191
O O14 0.500000 0.000000 0.000000
O O15 0.445574 0.562888 0.714667
O O16 0.193131 0.722843 0.099385
O O17 0.210203 0.534368 0.129883
O O18 0.000000 0.000000 0.500000
#
# Coordination Sequence:
#
# PCOD8001313 Si02
#       8
#     2   2   2   2   2   2   2   2
#     4  11  18  31  59  84 110 141 186 247 294 325
#     4  11  20  29  55  85 119 143 179 238 298 339
#     4  10  20  29  51  84 122 140 183 240 299 345
#     4  11  19  37  57  86 115 146 195 247 286 335
#     4  11  17  29  48  83 116 139 178 232 300 332
#     4  11  20  34  51  84 114 147 188 241 285 342
#     4  12  24  40  60  82 116 163 200 231 282 348
#     4  11  19  35  53  87 118 149 186 239 292 338
#
# _framework density 17.895875
#
# number of rings (size 3 to 8) (size 9 to 14) (size 15 to 20)
#    0.000    1.000    8.750    2.625    1.750    0.000 
#    0.000    1.250    0.000    0.000    0.000    2.625 
#    0.000    0.000    0.000    0.000    0.000    0.000 
#
# Total GULP energy -198303.371882 kJ/mol
# GULP energy per Si atom -12393.960743 kJ/mol
# Density = 1.785514 g / cm^3
# Si number density = 17.895875 Si / 1000 Ang^3
#
#
#
# Elastic Constant Matrix: (Units=GPa)
#
#
# Indices 1 2 3 4 5 6 
#
# 1 75.4379 48.7604 36.1720 -3.0101 16.4064 -10.9884
# 2 48.7604 132.0424 44.0210 24.0110 5.5284 -11.8838
# 3 36.1720 44.0210 71.9610 1.9829 8.1717 9.1459
# 4 -3.0101 24.0110 1.9829 24.9118 4.8143 7.5719
# 5 16.4064 5.5284 8.1717 4.8143 28.7824 3.7300
# 6 -10.9884 -11.8838 9.1459 7.5719 3.7300 38.8108
#
#
#
# Elastic Compliance Matrix: (Units=1/GPa)
#
#
# Indices 1 2 3 4 5 6 
#
# 1 0.027161 -0.008814 -0.007684 0.013516 -0.014590 0.005567
# 2 -0.008814 0.017690 -0.007565 -0.021229 0.006256 0.008244
# 3 -0.007684 -0.007565 0.023723 0.008147 -0.000762 -0.011598
# 4 0.013516 -0.021229 0.008147 0.069643 -0.015425 -0.016698
# 5 -0.014590 0.006256 -0.000762 -0.015425 0.045090 -0.003360
# 6 0.005567 0.008244 -0.011598 -0.016698 -0.003360 0.036180
#
#
# Mechanical properties :
#
#
# Convention : Reuss Voigt Hill
#
# Bulk Modulus (GPa) = 48.90402 59.70536 54.30469
# Shear Modulus (GPa) = 18.21966 28.53351 23.37658
#
# Velocity S-wave (km/s) = 3.19422 3.99735 3.61814
# Velocity P-wave (km/s) = 6.40237 7.39866 6.91847
#
# Compressibility (1/GPa) = 0.02044822
#
# Stress axis : x y z
#
# Youngs Moduli (GPa) = 36.81796 56.52776 42.15405
#
# Poissons Ratio (x) = 0.49824 0.32391
# Poissons Ratio (y) = 0.32452 0.31888
# Poissons Ratio (z) = 0.28291 0.42761
#
# Static dielectric constant tensor:
#      x y z
#    x 4.225780 -0.200680 0.597700 
#    y -0.200680 3.654320 0.179580 
#    z 0.597700 0.179580 3.083480 
# 
# 
# High freq. dielectric constant tensor:
#      x y z
#    x 1.694340 -0.017960 0.046940 
#    y -0.017960 1.706500 0.030740 
#    z 0.046940 0.030740 1.638080 
# 
# From -- ./inp_files/313802.got.cif
#   From: 2010.06.25/outbox.cif.g09.slc.cpg/sg2_157_cif.got.tgz:313802.got - 2010.06.27 13:26:56.
