data_PCOD8001507
_publ_section_title
;
Structure prediction by ZEFSAII (Michael W. Deem and Ramdas Pophale) SiO2 
 PCOD8001507
Probable space group: P -1
;
_chemical_formula_sum "Si O2"
_cell_formula_units_Z 16
_cell_length_a 9.271688
_cell_length_b 19.872774
_cell_length_c 23.513052
_cell_angle_alpha 155.205589
_cell_angle_beta 43.149432
_cell_angle_gamma 149.905478
_cell_volume 878.269542
_symmetry_space_group_name_H-M "P -1"
_symmetry_group_IT_number 2
_symmetry_cell_setting 'triclinic'
loop_
_space_group_symop_operation_xyz
x,y,z
-x,-y,-z
loop_
_atom_site_type_symbol
_atom_site_label
_atom_site_fract_x
_atom_site_fract_y
_atom_site_fract_z
Si Si1 0.914345 0.925454 0.861063
Si Si2 0.090718 0.671080 0.057804
Si Si3 0.370336 0.779234 0.948578
Si Si4 0.293120 0.894659 0.801224
Si Si5 0.761945 0.416832 0.355740
Si Si6 0.636517 0.671837 0.143988
Si Si7 0.901683 0.847738 0.677310
Si Si8 0.953186 0.645921 0.868379
O O1 0.555169 0.736690 0.831658
O O2 0.977176 0.881414 0.748167
O O3 0.047011 0.881152 0.837168
O O4 0.068349 0.184220 0.019043
O O5 0.838837 0.667818 0.121798
O O6 0.399196 0.922164 0.182187
O O7 0.147747 0.606693 0.931693
O O8 0.000000 0.500000 0.000000
O O9 0.188637 0.785065 0.959612
O O10 0.633178 0.027184 0.092733
O O11 0.182085 0.650799 0.652444
O O12 0.885938 0.660993 0.514376
O O13 0.407098 0.223948 0.297812
O O14 0.948237 0.437253 0.267270
O O15 0.367123 0.588114 0.196708
O O16 0.500000 0.500000 0.000000
O O17 0.831395 0.923311 0.257527
#
# Coordination Sequence:
#
# PCOD8001507 Si02
#       8
#     2   2   2   2   2   2   2   2
#     4  12  20  34  63  91 113 154 198 248 288 337
#     4  10  20  33  52  86 125 148 177 243 303 339
#     4  10  20  33  55  90 117 146 200 241 286 340
#     4  10  21  34  57  87 120 148 197 241 291 346
#     4  11  23  42  59  83 119 164 193 243 290 347
#     4  12  21  35  59  92 114 147 200 243 286 349
#     4  11  24  40  61  85 118 157 205 234 292 348
#     4  12  21  35  64  86 120 150 195 250 291 332
#
# _framework density 18.217642000000001
#
# number of rings (size 3 to 8) (size 9 to 14) (size 15 to 20)
#    0.750    0.250    6.250    2.250    0.000    1.000 
#    0.000    0.000    0.000    0.000    0.000    3.500 
#    0.000    0.000    0.000    0.000    0.000    0.000 
#
# Total GULP energy -198274.585225 kJ/mol
# GULP energy per Si atom -12392.161577 kJ/mol
# Density = 1.817618 g / cm^3
# Si number density = 18.217642 Si / 1000 Ang^3
#
#
#
# Elastic Constant Matrix: (Units=GPa)
#
#
# Indices 1 2 3 4 5 6 
#
# 1 104.7356 42.1650 40.0678 2.5862 -30.5081 6.7243
# 2 42.1650 146.3860 53.3813 3.2032 -13.5618 -2.7874
# 3 40.0678 53.3813 83.8178 4.0982 -12.2469 -6.6857
# 4 2.5862 3.2032 4.0982 27.4063 -4.2936 -1.0294
# 5 -30.5081 -13.5618 -12.2469 -4.2936 24.0686 0.8212
# 6 6.7243 -2.7874 -6.6857 -1.0294 0.8212 32.3100
#
#
#
# Elastic Compliance Matrix: (Units=1/GPa)
#
#
# Indices 1 2 3 4 5 6 
#
# 1 0.018501 -0.001635 -0.005377 0.002234 0.020382 -0.005551
# 2 -0.001635 0.009167 -0.004966 -0.000085 0.000549 0.000087
# 3 -0.005377 -0.004966 0.017957 -0.001575 -0.000907 0.004379
# 4 0.002234 -0.000085 -0.001575 0.037898 0.008736 0.000187
# 5 0.020382 0.000549 -0.000907 0.008736 0.068989 -0.005857
# 6 -0.005551 0.000087 0.004379 0.000187 -0.005857 0.033174
#
#
# Mechanical properties :
#
#
# Convention : Reuss Voigt Hill
#
# Bulk Modulus (GPa) = 46.14447 67.35195 56.74821
# Shear Modulus (GPa) = 23.05573 30.04535 26.55054
#
# Velocity S-wave (km/s) = 3.56135 4.06550 3.82174
# Velocity P-wave (km/s) = 6.50350 7.68691 7.11984
#
# Compressibility (1/GPa) = 0.02167107
#
# Stress axis : x y z
#
# Youngs Moduli (GPa) = 54.05044 109.08431 55.68722
#
# Poissons Ratio (x) = 0.17831 0.29944
# Poissons Ratio (y) = 0.08835 0.27653
# Poissons Ratio (z) = 0.29064 0.54168
#
# Static dielectric constant tensor:
#      x y z
#    x 3.462480 0.216020 -0.137430 
#    y 0.216020 3.878250 -0.075460 
#    z -0.137430 -0.075460 3.084320 
# 
# 
# High freq. dielectric constant tensor:
#      x y z
#    x 1.710420 -0.000640 -0.015800 
#    y -0.000640 1.722720 -0.000950 
#    z -0.015800 -0.000950 1.664780 
# 
# From -- ./inp_files/617555.got.cif
#   From: 2010.06.25/outbox.cif.g09.slc.cpg/sg2_309_cif.got.tgz:617555.got - 2010.06.27 13:26:56.
