data_PCOD8001456
_publ_section_title
;
Structure prediction by ZEFSAII (Michael W. Deem and Ramdas Pophale) SiO2 
 PCOD8001456
Probable space group: P -1
;
_chemical_formula_sum "Si O2"
_cell_formula_units_Z 14
_cell_length_a 11.462458
_cell_length_b 8.923036
_cell_length_c 13.683648
_cell_angle_alpha 149.590725
_cell_angle_beta 72.082378
_cell_angle_gamma 114.927592
_cell_volume 637.653900
_symmetry_space_group_name_H-M "P -1"
_symmetry_group_IT_number 2
_symmetry_cell_setting 'triclinic'
loop_
_space_group_symop_operation_xyz
x,y,z
-x,-y,-z
loop_
_atom_site_type_symbol
_atom_site_label
_atom_site_fract_x
_atom_site_fract_y
_atom_site_fract_z
Si Si1 0.881796 0.083936 0.902268
Si Si2 0.649541 0.880324 0.344712
Si Si3 0.510939 0.740839 0.489387
Si Si4 0.154748 0.676626 0.757909
Si Si5 0.849639 0.897872 0.162401
Si Si6 0.890125 0.423828 0.590505
Si Si7 0.694158 0.746036 0.609742
O O1 0.862215 0.742534 0.757898
O O2 0.805102 0.041662 0.795274
O O3 0.037743 0.262941 0.949439
O O4 0.826115 0.273700 0.102160
O O5 0.576873 0.658013 0.327027
O O6 0.724453 0.711395 0.155890
O O7 0.547641 0.984066 0.364167
O O8 0.757212 0.184283 0.535976
O O9 0.618332 0.876596 0.622051
O O10 0.402777 0.425428 0.374906
O O11 0.252007 0.506537 0.597623
O O12 0.005912 0.463014 0.659245
O O13 0.184663 0.023394 0.894713
O O14 0.914441 0.257910 0.389836
#
# Coordination Sequence:
#
# PCOD8001456 Si02
#       7
#     2   2   2   2   2   2   2
#     4  11  18  30  55  82 107 136 169 217 269 304
#     4   9  17  33  58  81  96 143 180 204 267 315
#     4  10  20  32  58  74 104 148 174 210 260 302
#     4  11  18  30  55  82 107 136 169 217 269 304
#     4   9  15  30  54  78 107 126 172 219 255 308
#     4   9  15  30  54  78 107 126 172 219 255 308
#     4  11  19  37  52  81 106 135 180 216 249 313
#
# _framework density 21.955484999999999
#
# number of rings (size 3 to 8) (size 9 to 14) (size 15 to 20)
#    0.857    1.143    5.714    2.571    0.000    0.000 
#    0.000    5.714    0.000   10.286    0.000    0.000 
#    0.000    0.000    0.000    0.000    0.000    0.000 
#
# Total GULP energy -173460.792931 kJ/mol
# GULP energy per Si atom -12390.056638 kJ/mol
# Density = 2.190551 g / cm^3
# Si number density = 21.955485 Si / 1000 Ang^3
#
#
#
# Elastic Constant Matrix: (Units=GPa)
#
#
# Indices 1 2 3 4 5 6 
#
# 1 126.9407 50.0648 33.0463 -28.1083 -6.5576 1.0892
# 2 50.0648 73.5204 21.8358 -32.8228 -10.5967 2.2988
# 3 33.0463 21.8358 70.3754 -34.0097 -1.6958 1.6046
# 4 -28.1083 -32.8228 -34.0097 32.2983 5.3628 -3.0275
# 5 -6.5576 -10.5967 -1.6958 5.3628 17.9620 -17.1285
# 6 1.0892 2.2988 1.6046 -3.0275 -17.1285 23.7619
#
#
#
# Elastic Compliance Matrix: (Units=1/GPa)
#
#
# Indices 1 2 3 4 5 6 
#
# 1 0.011430 -0.007231 -0.003850 -0.001504 0.000720 0.000763
# 2 -0.007231 0.036693 0.011927 0.040808 0.029016 0.022091
# 3 -0.003850 0.011927 0.034455 0.046054 -0.007747 -0.003021
# 4 -0.001504 0.040808 0.046054 0.120437 -0.000372 0.008088
# 5 0.000720 0.029016 -0.007747 -0.000372 0.224492 0.159459
# 6 0.000763 0.022091 -0.003021 0.008088 0.159459 0.156091
#
#
# Mechanical properties :
#
#
# Convention : Reuss Voigt Hill
#
# Bulk Modulus (GPa) = 11.86676 53.41448 32.64062
# Shear Modulus (GPa) = 8.19677 25.86374 17.03025
#
# Velocity S-wave (km/s) = 1.93429 3.43594 2.78811
# Velocity P-wave (km/s) = 3.22572 6.33421 5.02631
#
# Compressibility (1/GPa) = 0.08426901
#
# Stress axis : x y z
#
# Youngs Moduli (GPa) = 87.49241 27.25286 29.02335
#
# Poissons Ratio (x) = 0.19707 0.11175
# Poissons Ratio (y) = 0.63267 -0.34616
# Poissons Ratio (z) = 0.33686 -0.32504
#
# Static dielectric constant tensor:
#      x y z
#    x 4.366560 0.120150 -0.037950 
#    y 0.120150 3.579960 -0.429550 
#    z -0.037950 -0.429550 3.549800 
# 
# 
# High freq. dielectric constant tensor:
#      x y z
#    x 1.876470 0.008400 -0.010020 
#    y 0.008400 1.830790 -0.037280 
#    z -0.010020 -0.037280 1.823640 
# 
# From -- ./inp_files/418584.got.cif
#   From: 2010.06.25/outbox.cif.g09.slc.cpg/sg2_210_cif.got.tgz:418584.got - 2010.06.27 13:26:56.
