data_PCOD8001999
_publ_section_title
;
Structure prediction by ZEFSAII (Michael W. Deem and Ramdas Pophale) SiO2 
 PCOD8001999
Probable space group: P -1
;
_chemical_formula_sum "Si O2"
_cell_formula_units_Z 16
_cell_length_a 12.895219
_cell_length_b 21.750633
_cell_length_c 9.257311
_cell_angle_alpha 133.520308
_cell_angle_beta 51.615524
_cell_angle_gamma 154.441632
_cell_volume 812.291780
_symmetry_space_group_name_H-M "P -1"
_symmetry_group_IT_number 2
_symmetry_cell_setting 'triclinic'
loop_
_space_group_symop_operation_xyz
x,y,z
-x,-y,-z
loop_
_atom_site_type_symbol
_atom_site_label
_atom_site_fract_x
_atom_site_fract_y
_atom_site_fract_z
Si Si1 0.612279 0.024447 0.795989
Si Si2 0.196516 0.305242 0.284483
Si Si3 0.210956 0.126511 0.910867
Si Si4 0.642220 0.353933 0.089745
Si Si5 0.719217 0.148165 0.454110
Si Si6 0.946584 0.049140 0.523834
Si Si7 0.885090 0.316443 0.855770
Si Si8 0.606353 0.644506 0.505824
O O1 0.759381 0.018150 0.697620
O O2 0.787237 0.187279 0.830062
O O3 0.390216 0.880106 0.649610
O O4 0.500000 0.000000 0.000000
O O5 0.394681 0.479088 0.341023
O O6 0.250680 0.327395 0.444767
O O7 0.919884 0.184032 0.305436
O O8 0.237690 0.242159 0.053673
O O9 0.159547 0.045768 0.683791
O O10 0.457629 0.220972 0.913949
O O11 0.000000 0.000000 0.000000
O O12 0.499681 0.325621 0.291939
O O13 0.827852 0.516878 0.110421
O O14 0.760787 0.337908 0.043113
O O15 0.845607 0.286553 0.667615
O O16 0.500000 0.000000 0.500000
O O17 0.199189 0.231426 0.582912
O O18 0.000000 0.000000 0.500000
#
# Coordination Sequence:
#
# PCOD8001999 Si02
#       8
#     2   2   2   2   2   2   2   2
#     4  11  27  42  63  88 132 172 211 257 316 384
#     4  10  20  35  65  95 123 159 205 262 322 367
#     4  11  23  36  65  95 128 160 210 263 319 364
#     4  10  20  35  65  96 125 156 208 271 312 369
#     4  10  20  34  63  88 122 156 214 255 308 366
#     4  12  27  44  64  92 129 172 215 259 318 379
#     4  10  21  37  65  93 124 163 213 256 322 370
#     4  10  20  38  64  95 132 157 208 266 322 369
#
# _framework density 19.697355000000002
#
# number of rings (size 3 to 8) (size 9 to 14) (size 15 to 20)
#    0.000    1.500    3.750    2.250   10.500    0.000 
#    0.000    1.875    0.000    3.000    0.000    0.000 
#    0.000    0.000    0.000    0.000    0.000    0.000 
#
# Total GULP energy -198313.630577 kJ/mol
# GULP energy per Si atom -12394.601911 kJ/mol
# Density = 1.965252 g / cm^3
# Si number density = 19.697355 Si / 1000 Ang^3
#
#
#
# Elastic Constant Matrix: (Units=GPa)
#
#
# Indices 1 2 3 4 5 6 
#
# 1 99.7745 44.1272 29.6741 -8.5734 -12.4097 12.1030
# 2 44.1272 111.3827 41.7428 6.7423 3.7788 15.1354
# 3 29.6741 41.7428 95.5978 -5.2482 -4.6892 -0.2992
# 4 -8.5734 6.7423 -5.2482 33.7386 3.3575 -4.8376
# 5 -12.4097 3.7788 -4.6892 3.3575 30.2043 -1.5113
# 6 12.1030 15.1354 -0.2992 -4.8376 -1.5113 32.7420
#
#
#
# Elastic Compliance Matrix: (Units=1/GPa)
#
#
# Indices 1 2 3 4 5 6 
#
# 1 0.013999 -0.005025 -0.001693 0.003437 0.005630 -0.002099
# 2 -0.005025 0.014134 -0.005132 -0.005287 -0.004328 -0.005704
# 3 -0.001693 -0.005132 0.013497 0.003031 0.001888 0.003657
# 4 0.003437 -0.005287 0.003031 0.032988 -0.000821 0.006037
# 5 0.005630 -0.004328 0.001888 -0.000821 0.036422 0.001496
# 6 -0.002099 -0.005704 0.003657 0.006037 0.001496 0.034949
#
#
# Mechanical properties :
#
#
# Convention : Reuss Voigt Hill
#
# Bulk Modulus (GPa) = 55.77271 59.76037 57.76654
# Shear Modulus (GPa) = 28.46286 32.08437 30.27361
#
# Velocity S-wave (km/s) = 3.80545 4.04030 3.92463
# Velocity P-wave (km/s) = 6.90543 7.22292 7.06595
#
# Compressibility (1/GPa) = 0.01792992
#
# Stress axis : x y z
#
# Youngs Moduli (GPa) = 71.43408 70.74941 74.08846
#
# Poissons Ratio (x) = 0.35555 0.12541
# Poissons Ratio (y) = 0.35899 0.38024
# Poissons Ratio (z) = 0.12092 0.36310
#
# Static dielectric constant tensor:
#      x y z
#    x 3.675870 0.290250 -0.055010 
#    y 0.290250 3.819820 0.328850 
#    z -0.055010 0.328850 3.646040 
# 
# 
# High freq. dielectric constant tensor:
#      x y z
#    x 1.751460 0.028590 -0.025800 
#    y 0.028590 1.774840 0.016410 
#    z -0.025800 0.016410 1.763810 
# 
# From -- ./inp_files/283223.got.cif
#   From: 2010.06.25/outbox.cif.g09.slc.cpg/sg2_142_cif.got.tgz:283223.got - 2010.06.27 13:26:56.
