data_PCOD8001079
_publ_section_title
;
Structure prediction by ZEFSAII (Michael W. Deem and Ramdas Pophale) SiO2 
 PCOD8001079
Probable space group: P -1
;
_chemical_formula_sum "Si O2"
_cell_formula_units_Z 14
_cell_length_a 9.404289
_cell_length_b 6.385619
_cell_length_c 22.527239
_cell_angle_alpha 92.806740
_cell_angle_beta 144.174628
_cell_angle_gamma 68.687388
_cell_volume 658.525513
_symmetry_space_group_name_H-M "P -1"
_symmetry_group_IT_number 2
_symmetry_cell_setting 'triclinic'
loop_
_space_group_symop_operation_xyz
x,y,z
-x,-y,-z
loop_
_atom_site_type_symbol
_atom_site_label
_atom_site_fract_x
_atom_site_fract_y
_atom_site_fract_z
Si Si1 0.144296 0.463637 0.140835
Si Si2 0.773315 0.777544 0.276522
Si Si3 0.007972 0.270263 0.300934
Si Si4 0.553377 0.723726 0.886117
Si Si5 0.451220 0.389536 0.702187
Si Si6 0.574362 0.940424 0.670083
Si Si7 0.038547 0.045788 0.427809
O O1 0.305415 0.379894 0.131442
O O2 0.234621 0.646772 0.200322
O O3 0.254658 0.223926 0.216771
O O4 0.795700 0.613772 0.018153
O O5 0.010163 0.517613 0.320034
O O6 0.558522 0.728656 0.240043
O O7 0.607335 0.975379 0.169719
O O8 0.916416 0.869882 0.373997
O O9 0.677206 0.348179 0.178015
O O10 0.199233 0.133269 0.306827
O O11 0.144028 0.082201 0.400320
O O12 0.201903 0.687140 0.620295
O O13 0.425511 0.236566 0.637589
O O14 0.316617 0.903439 0.563588
#
# Coordination Sequence:
#
# PCOD8001079 Si02
#       7
#     2   2   2   2   2   2   2
#     4  11  23  38  65  94 117 158 209 251 297 359
#     4  10  19  41  65  85 122 166 199 247 298 359
#     4  10  23  42  63  90 124 164 197 245 312 360
#     4  10  21  43  63  89 122 157 208 248 299 368
#     4  11  21  40  61  96 121 158 203 251 304 350
#     4  12  25  39  61  96 127 155 202 254 303 354
#     4  10  22  41  63  89 124 164 203 244 299 366
#
# _framework density 21.259616000000001
#
# number of rings (size 3 to 8) (size 9 to 14) (size 15 to 20)
#    0.000    1.429    5.714    0.857    0.000    9.714 
#    0.000    1.429    0.000    0.000    0.000    0.000 
#    0.000    0.000    0.000    0.000    0.000    0.000 
#
# Total GULP energy -173564.741132 kJ/mol
# GULP energy per Si atom -12397.481509 kJ/mol
# Density = 2.121123 g / cm^3
# Si number density = 21.259616 Si / 1000 Ang^3
#
#
#
# Elastic Constant Matrix: (Units=GPa)
#
#
# Indices 1 2 3 4 5 6 
#
# 1 70.3307 57.6798 33.5130 5.0334 3.4529 -12.7150
# 2 57.6798 96.2413 14.3457 2.6921 6.9431 1.7610
# 3 33.5130 14.3457 131.7652 7.2256 4.3783 5.6111
# 4 5.0334 2.6921 7.2256 20.8068 6.1747 1.1632
# 5 3.4529 6.9431 4.3783 6.1747 14.8400 1.3521
# 6 -12.7150 1.7610 5.6111 1.1632 1.3521 28.0906
#
#
#
# Elastic Compliance Matrix: (Units=1/GPa)
#
#
# Indices 1 2 3 4 5 6 
#
# 1 0.044232 -0.025746 -0.009237 -0.007038 0.005265 0.023518
# 2 -0.025746 0.025880 0.004342 0.004529 -0.008013 -0.013945
# 3 -0.009237 0.004342 0.009842 -0.000840 -0.001863 -0.006295
# 4 -0.007038 0.004529 -0.000840 0.056667 -0.023400 -0.004522
# 5 0.005265 -0.008013 -0.001863 -0.023400 0.080162 0.000368
# 6 0.023518 -0.013945 -0.006295 -0.004522 0.000368 0.048546
#
#
# Mechanical properties :
#
#
# Convention : Reuss Voigt Hill
#
# Bulk Modulus (GPa) = 53.55573 56.60158 55.07866
# Shear Modulus (GPa) = 15.02255 25.60074 20.31164
#
# Velocity S-wave (km/s) = 2.66112 3.47392 3.09432
# Velocity P-wave (km/s) = 5.88966 6.54008 6.22337
#
# Compressibility (1/GPa) = 0.01867214
#
# Stress axis : x y z
#
# Youngs Moduli (GPa) = 22.60817 38.64019 101.60580
#
# Poissons Ratio (x) = 0.99481 0.93857
# Poissons Ratio (y) = 0.58206 -0.44119
# Poissons Ratio (z) = 0.20884 -0.16778
#
# Static dielectric constant tensor:
#      x y z
#    x 3.692730 0.095260 0.076090 
#    y 0.095260 4.091830 0.105040 
#    z 0.076090 0.105040 3.972140 
# 
# 
# High freq. dielectric constant tensor:
#      x y z
#    x 1.822430 0.011640 0.000720 
#    y 0.011640 1.838560 0.006430 
#    z 0.000720 0.006430 1.821730 
# 
# From -- ./inp_files/27307.got.cif
#   From: 2010.06.25/outbox.cif.g09.slc.cpg/sg2_14_cif.got.tgz:27307.got - 2010.06.27 13:26:56.
