data_PCOD8001906
_publ_section_title
;
Structure prediction by ZEFSAII (Michael W. Deem and Ramdas Pophale) SiO2 
 PCOD8001906
Probable space group: P -1
;
_chemical_formula_sum "Si O2"
_cell_formula_units_Z 16
_cell_length_a 8.922877
_cell_length_b 11.705107
_cell_length_c 9.440199
_cell_angle_alpha 89.103582
_cell_angle_beta 121.099525
_cell_angle_gamma 96.949553
_cell_volume 836.776677
_symmetry_space_group_name_H-M "P -1"
_symmetry_group_IT_number 2
_symmetry_cell_setting 'triclinic'
loop_
_space_group_symop_operation_xyz
x,y,z
-x,-y,-z
loop_
_atom_site_type_symbol
_atom_site_label
_atom_site_fract_x
_atom_site_fract_y
_atom_site_fract_z
Si Si1 0.762163 0.919534 0.305951
Si Si2 0.259210 0.190812 0.010690
Si Si3 0.854281 0.416718 0.343616
Si Si4 0.031704 0.827113 0.628442
Si Si5 0.922926 0.190662 0.034365
Si Si6 0.581052 0.014094 0.881859
Si Si7 0.468869 0.440902 0.134563
Si Si8 0.836254 0.433586 0.000603
O O1 0.769560 0.858668 0.159995
O O2 0.564278 0.923088 0.273113
O O3 0.852369 0.839931 0.458908
O O4 0.840780 0.054115 0.333843
O O5 0.358485 0.317603 0.057296
O O6 0.066010 0.182439 0.983774
O O7 0.387345 0.112081 0.157233
O O8 0.881680 0.283193 0.384645
O O9 0.656409 0.432634 0.303471
O O10 0.000000 0.500000 0.500000
O O11 0.863773 0.451788 0.182458
O O12 0.979449 0.803463 0.766685
O O13 0.774573 0.082528 0.964076
O O14 0.820582 0.299940 0.956768
O O15 0.500000 0.000000 0.000000
O O16 0.339379 0.519267 0.149314
O O17 0.500000 0.500000 0.000000
O O18 0.000000 0.500000 0.000000
#
# Coordination Sequence:
#
# PCOD8001906 Si02
#       8
#     2   2   2   2   2   2   2   2
#     4  10  22  36  62  84 116 156 195 235 287 355
#     4  11  21  36  65  86 116 151 202 238 291 347
#     4  10  23  38  62  85 117 153 196 241 293 347
#     4  10  21  38  57  85 122 151 189 239 299 339
#     4  11  21  37  60  86 120 152 188 249 293 344
#     4  10  20  34  59  88 111 150 197 234 283 344
#     4  10  22  36  62  87 113 153 201 243 282 353
#     4  10  21  39  59  85 118 149 197 244 294 336
#
# _framework density 19.120991
#
# number of rings (size 3 to 8) (size 9 to 14) (size 15 to 20)
#    0.000    1.750    3.750    1.125   12.250    0.000 
#    0.000    1.250    5.500    0.000    0.000    0.000 
#    0.000    0.000    0.000    0.000    0.000    0.000 
#
# Total GULP energy -198228.542305 kJ/mol
# GULP energy per Si atom -12389.283894 kJ/mol
# Density = 1.907747 g / cm^3
# Si number density = 19.120991 Si / 1000 Ang^3
#
#
#
# Elastic Constant Matrix: (Units=GPa)
#
#
# Indices 1 2 3 4 5 6 
#
# 1 146.8778 64.7883 47.9867 -6.7196 30.2449 -14.7072
# 2 64.7883 121.4397 35.6990 -16.4018 12.8767 -17.2261
# 3 47.9867 35.6990 73.1790 -10.3296 26.4626 -16.4568
# 4 -6.7196 -16.4018 -10.3296 23.2241 -7.6754 7.8944
# 5 30.2449 12.8767 26.4626 -7.6754 29.4916 -6.6658
# 6 -14.7072 -17.2261 -16.4568 7.8944 -6.6658 42.6409
#
#
#
# Elastic Compliance Matrix: (Units=1/GPa)
#
#
# Indices 1 2 3 4 5 6 
#
# 1 0.011368 -0.004946 -0.002581 -0.004200 -0.008180 0.000426
# 2 -0.004946 0.012480 -0.003198 0.006976 0.004656 0.001538
# 3 -0.002581 -0.003198 0.023856 0.000780 -0.016176 0.004352
# 4 -0.004200 0.006976 0.000780 0.053553 0.013098 -0.006196
# 5 -0.008180 0.004656 -0.016176 0.013098 0.058068 -0.000531
# 6 0.000426 0.001538 0.004352 -0.006196 -0.000531 0.026963
#
#
# Mechanical properties :
#
#
# Convention : Reuss Voigt Hill
#
# Bulk Modulus (GPa) = 38.08873 70.93829 54.51351
# Shear Modulus (GPa) = 23.09597 31.93948 27.51772
#
# Velocity S-wave (km/s) = 3.47924 4.09147 3.79771
# Velocity P-wave (km/s) = 6.00859 7.71365 6.91389
#
# Compressibility (1/GPa) = 0.02625449
#
# Stress axis : x y z
#
# Youngs Moduli (GPa) = 87.96580 80.12904 41.91849
#
# Poissons Ratio (x) = 0.39629 0.10819
# Poissons Ratio (y) = 0.43505 0.13406
# Poissons Ratio (z) = 0.22704 0.25625
#
# Static dielectric constant tensor:
#      x y z
#    x 3.850660 -0.153410 0.443750 
#    y -0.153410 3.560660 -0.214210 
#    z 0.443750 -0.214210 3.516520 
# 
# 
# High freq. dielectric constant tensor:
#      x y z
#    x 1.750740 -0.012810 0.024090 
#    y -0.012810 1.768060 -0.010410 
#    z 0.024090 -0.010410 1.707510 
# 
# From -- ./inp_files/179474.got.cif
#   From: 2010.06.25/outbox.cif.g09.slc.cpg/sg2_90_cif.got.tgz:179474.got - 2010.06.27 13:26:56.
