data_PCOD8001898
_publ_section_title
;
Structure prediction by ZEFSAII (Michael W. Deem and Ramdas Pophale) SiO2 
 PCOD8001898
Probable space group: P -1
;
_chemical_formula_sum "Si O2"
_cell_formula_units_Z 14
_cell_length_a 26.160192
_cell_length_b 14.722680
_cell_length_c 18.007761
_cell_angle_alpha 19.914978
_cell_angle_beta 160.797779
_cell_angle_gamma 158.248099
_cell_volume 723.370189
_symmetry_space_group_name_H-M "P -1"
_symmetry_group_IT_number 2
_symmetry_cell_setting 'triclinic'
loop_
_space_group_symop_operation_xyz
x,y,z
-x,-y,-z
loop_
_atom_site_type_symbol
_atom_site_label
_atom_site_fract_x
_atom_site_fract_y
_atom_site_fract_z
Si Si1 0.729922 0.336868 0.328518
Si Si2 0.877163 0.626865 0.693209
Si Si3 0.538922 0.176963 0.573161
Si Si4 0.328246 0.251050 0.965761
Si Si5 0.001217 0.286604 0.847337
Si Si6 0.058402 0.271685 0.467060
Si Si7 0.223160 0.310045 0.008192
O O1 0.744977 0.654287 0.134410
O O2 0.873836 0.264588 0.621737
O O3 0.552177 0.073371 0.299016
O O4 0.763851 0.396885 0.241536
O O5 0.688872 0.453175 0.598522
O O6 0.891950 0.599297 0.645877
O O7 0.915361 0.957188 0.511527
O O8 0.000000 0.500000 0.000000
O O9 0.402068 0.277179 0.270060
O O10 0.635983 0.042778 0.750507
O O11 0.217052 0.241954 0.747756
O O12 0.500000 0.500000 0.000000
O O13 0.013304 0.518483 0.748214
O O14 0.181168 0.351605 0.005272
O O15 0.923390 0.963000 0.020897
#
# Coordination Sequence:
#
# PCOD8001898 Si02
#       7
#     2   2   2   2   2   2   2
#     4   9  19  33  54  83 115 147 176 230 280 334
#     4  11  23  38  58  81 110 153 194 230 276 329
#     4  10  21  33  51  84 112 139 192 226 275 332
#     4   9  18  33  51  85 118 134 176 225 285 340
#     4   9  20  38  54  86 111 145 193 219 278 343
#     4  10  22  38  58  81 112 152 184 236 276 323
#     4  10  20  34  59  81 116 150 177 230 281 334
#
# _framework density 19.353852
#
# number of rings (size 3 to 8) (size 9 to 14) (size 15 to 20)
#    0.000    2.286    1.429    1.286    6.000    0.571 
#    0.000    0.714    0.000    1.714    0.000    0.000 
#    0.000    0.000    0.000    0.000    0.000    0.000 
#
# Total GULP energy -173433.240074 kJ/mol
# GULP energy per Si atom -12388.088577 kJ/mol
# Density = 1.930980 g / cm^3
# Si number density = 19.353852 Si / 1000 Ang^3
#
#
#
# Elastic Constant Matrix: (Units=GPa)
#
#
# Indices 1 2 3 4 5 6 
#
# 1 74.7191 46.2121 32.0724 -8.2425 -4.1854 -2.4160
# 2 46.2121 123.7220 28.9843 -9.0095 -7.3847 6.5727
# 3 32.0724 28.9843 54.2353 -1.5338 0.0784 5.9111
# 4 -8.2425 -9.0095 -1.5338 29.4466 -0.8384 -0.4285
# 5 -4.1854 -7.3847 0.0784 -0.8384 31.2823 -11.1451
# 6 -2.4160 6.5727 5.9111 -0.4285 -11.1451 27.9839
#
#
#
# Elastic Compliance Matrix: (Units=1/GPa)
#
#
# Indices 1 2 3 4 5 6 
#
# 1 0.022585 -0.005673 -0.011023 0.004248 0.004482 0.007461
# 2 -0.005673 0.011035 -0.002266 0.001672 0.001140 -0.002123
# 3 -0.011023 -0.002266 0.026992 -0.002636 -0.005061 -0.008177
# 4 0.004248 0.001672 -0.002636 0.035631 0.002690 0.002148
# 5 0.004482 0.001140 -0.005061 0.002690 0.038875 0.016712
# 6 0.007461 -0.002123 -0.008177 0.002148 0.016712 0.045294
#
#
# Mechanical properties :
#
#
# Convention : Reuss Voigt Hill
#
# Bulk Modulus (GPa) = 44.07674 51.91267 47.99470
# Shear Modulus (GPa) = 22.13403 27.43638 24.78521
#
# Velocity S-wave (km/s) = 3.38546 3.76921 3.58248
# Velocity P-wave (km/s) = 6.17295 6.76932 6.47801
#
# Compressibility (1/GPa) = 0.02268771
#
# Stress axis : x y z
#
# Youngs Moduli (GPa) = 44.27802 90.62218 37.04842
#
# Poissons Ratio (x) = 0.51407 0.40840
# Poissons Ratio (y) = 0.25118 0.08393
# Poissons Ratio (z) = 0.48810 0.20531
#
# Static dielectric constant tensor:
#      x y z
#    x 4.073140 -0.466420 0.687060 
#    y -0.466420 4.070990 -0.587620 
#    z 0.687060 -0.587620 4.015570 
# 
# 
# High freq. dielectric constant tensor:
#      x y z
#    x 1.730510 0.018400 0.007450 
#    y 0.018400 1.747150 -0.015910 
#    z 0.007450 -0.015910 1.756790 
# 
# From -- ./inp_files/84868.got.cif
#   From: 2010.06.25/outbox.cif.g09.slc.cpg/sg2_43_cif.got.tgz:84868.got - 2010.06.27 13:26:56.
