data_PCOD8001449
_publ_section_title
;
Structure prediction by ZEFSAII (Michael W. Deem and Ramdas Pophale) SiO2 
 PCOD8001449
Probable space group: P -1
;
_chemical_formula_sum "Si O2"
_cell_formula_units_Z 14
_cell_length_a 18.102095
_cell_length_b 20.681420
_cell_length_c 11.439659
_cell_angle_alpha 39.616175
_cell_angle_beta 149.622656
_cell_angle_gamma 160.067055
_cell_volume 717.481730
_symmetry_space_group_name_H-M "P -1"
_symmetry_group_IT_number 2
_symmetry_cell_setting 'triclinic'
loop_
_space_group_symop_operation_xyz
x,y,z
-x,-y,-z
loop_
_atom_site_type_symbol
_atom_site_label
_atom_site_fract_x
_atom_site_fract_y
_atom_site_fract_z
Si Si1 0.412459 0.834397 0.640983
Si Si2 0.793029 0.948095 0.174373
Si Si3 0.744824 0.385942 0.732085
Si Si4 0.291709 0.422988 0.487151
Si Si5 0.914338 0.437650 0.631584
Si Si6 0.687778 0.496056 0.851471
Si Si7 0.825875 0.000221 0.403204
O O1 0.346807 0.728925 0.582088
O O2 0.132134 0.656711 0.586972
O O3 0.500000 0.000000 0.500000
O O4 0.684462 0.951128 0.915115
O O5 0.582159 0.733093 0.218517
O O6 0.823170 0.032039 0.217466
O O7 0.085053 0.066106 0.374328
O O8 0.696366 0.478156 0.543041
O O9 0.792967 0.388490 0.660303
O O10 0.475928 0.165453 0.718905
O O11 0.000000 0.500000 0.000000
O O12 0.591659 0.540750 0.727904
O O13 0.201808 0.412456 0.253146
O O14 0.041113 0.197955 0.494620
O O15 0.074748 0.424059 0.864892
#
# Coordination Sequence:
#
# PCOD8001449 Si02
#       7
#     2   2   2   2   2   2   2
#     4  10  22  38  61  83 107 157 201 233 271 349
#     4   9  18  37  58  85 116 144 198 241 273 336
#     4  12  22  37  54  87 126 148 176 246 301 337
#     4  10  20  32  57  87 114 149 189 225 284 346
#     4  10  22  39  57  82 119 151 187 237 294 329
#     4   9  17  36  56  81 116 149 191 231 269 342
#     4  10  21  34  59  88 113 150 185 238 294 334
#
# _framework density 19.512692000000001
#
# number of rings (size 3 to 8) (size 9 to 14) (size 15 to 20)
#    0.000    2.000    2.857    0.857    4.000    1.714 
#    0.000    0.714    0.000   18.000    0.000    0.000 
#    0.000    0.000    0.000    0.000    0.000    0.000 
#
# Total GULP energy -173551.330830 kJ/mol
# GULP energy per Si atom -12396.523631 kJ/mol
# Density = 1.946828 g / cm^3
# Si number density = 19.512692 Si / 1000 Ang^3
#
#
#
# Elastic Constant Matrix: (Units=GPa)
#
#
# Indices 1 2 3 4 5 6 
#
# 1 116.0213 26.9771 50.0854 1.2536 0.3961 9.0618
# 2 26.9771 60.2789 28.3081 -12.9523 6.0672 9.1824
# 3 50.0854 28.3081 114.8988 -5.4357 -8.4185 4.5763
# 4 1.2536 -12.9523 -5.4357 26.0371 -1.4055 4.6756
# 5 0.3961 6.0672 -8.4185 -1.4055 27.8798 -1.1486
# 6 9.0618 9.1824 4.5763 4.6756 -1.1486 29.4712
#
#
#
# Elastic Compliance Matrix: (Units=1/GPa)
#
#
# Indices 1 2 3 4 5 6 
#
# 1 0.011404 -0.003435 -0.004278 -0.002960 -0.000911 -0.001338
# 2 -0.003435 0.024681 -0.004111 0.012730 -0.006262 -0.008259
# 3 -0.004278 -0.004111 0.011924 0.000755 0.004627 0.000805
# 4 -0.002960 0.012730 0.000755 0.046919 -0.000573 -0.010640
# 5 -0.000911 -0.006262 0.004627 -0.000573 0.038741 0.003113
# 6 -0.001338 -0.008259 0.000805 -0.010640 0.003113 0.038600
#
#
# Mechanical properties :
#
#
# Convention : Reuss Voigt Hill
#
# Bulk Modulus (GPa) = 41.05048 55.77113 48.41080
# Shear Modulus (GPa) = 24.50508 29.06618 26.78563
#
# Velocity S-wave (km/s) = 3.54765 3.86373 3.70905
# Velocity P-wave (km/s) = 6.15342 6.96768 6.57317
#
# Compressibility (1/GPa) = 0.02436025
#
# Stress axis : x y z
#
# Youngs Moduli (GPa) = 87.68547 40.51638 83.86568
#
# Poissons Ratio (x) = 0.13919 0.35881
# Poissons Ratio (y) = 0.30123 0.34477
# Poissons Ratio (z) = 0.37515 0.16656
#
# Static dielectric constant tensor:
#      x y z
#    x 3.428940 -0.083270 0.115060 
#    y -0.083270 3.674280 -0.002770 
#    z 0.115060 -0.002770 3.731510 
# 
# 
# High freq. dielectric constant tensor:
#      x y z
#    x 1.729920 -0.005360 0.003700 
#    y -0.005360 1.771510 0.003730 
#    z 0.003700 0.003730 1.753400 
# 
# From -- ./inp_files/177141.got.cif
#   From: 2010.06.25/outbox.cif.g09.slc.cpg/sg2_89_cif.got.tgz:177141.got - 2010.06.27 13:26:56.
