data_PCOD8001981
_publ_section_title
;
Structure prediction by ZEFSAII (Michael W. Deem and Ramdas Pophale) SiO2 
 PCOD8001981
Probable space group: P -1
;
_chemical_formula_sum "Si O2"
_cell_formula_units_Z 16
_cell_length_a 22.105044
_cell_length_b 9.532183
_cell_length_c 9.474470
_cell_angle_alpha 150.087282
_cell_angle_beta 132.656976
_cell_angle_gamma 56.461647
_cell_volume 728.834763
_symmetry_space_group_name_H-M "P -1"
_symmetry_group_IT_number 2
_symmetry_cell_setting 'triclinic'
loop_
_space_group_symop_operation_xyz
x,y,z
-x,-y,-z
loop_
_atom_site_type_symbol
_atom_site_label
_atom_site_fract_x
_atom_site_fract_y
_atom_site_fract_z
Si Si1 0.846179 0.091872 0.543641
Si Si2 0.656694 0.183278 0.716710
Si Si3 0.514080 0.024130 0.877363
Si Si4 0.299042 0.392139 0.616181
Si Si5 0.024324 0.051288 0.743510
Si Si6 0.868073 0.382627 0.535089
Si Si7 0.617562 0.577213 0.521722
Si Si8 0.252426 0.496905 0.110529
O O1 0.838062 0.198124 0.462830
O O2 0.826364 0.337013 0.833268
O O3 0.938358 0.014050 0.662054
O O4 0.777723 0.831980 0.233692
O O5 0.567050 0.080802 0.427607
O O6 0.707499 0.402314 0.885182
O O7 0.706233 0.908829 0.576042
O O8 0.645710 0.359883 0.997123
O O9 0.588125 0.848308 0.790428
O O10 0.500000 0.000000 0.000000
O O11 0.539492 0.351879 0.169413
O O12 0.207671 0.491219 0.550429
O O13 0.337201 0.333920 0.474070
O O14 0.088522 0.821917 0.685164
O O15 0.064774 0.367753 0.096964
O O16 0.000000 0.000000 0.500000
O O17 0.680712 0.438238 0.603377
#
# Coordination Sequence:
#
# PCOD8001981 Si02
#       8
#     2   2   2   2   2   2   2   2
#     4  11  21  37  67 101 133 166 228 282 322 387
#     4  12  28  46  67  97 137 184 222 275 343 412
#     4  12  26  46  72  99 134 174 224 285 340 393
#     4  12  27  45  68 101 140 178 225 275 337 408
#     4  10  20  34  62 101 138 168 217 278 341 381
#     4  11  21  39  64  98 138 177 211 279 340 391
#     4  12  26  43  74  99 130 179 225 280 336 395
#     4  12  24  41  69  98 133 175 226 276 332 392
#
# _framework density 21.952850000000002
#
# number of rings (size 3 to 8) (size 9 to 14) (size 15 to 20)
#    0.000    0.500    2.500    7.875    3.500    3.000 
#    0.000    0.000    0.000   15.000    0.000    0.000 
#    0.000    0.000    0.000    0.000    0.000    0.000 
#
# Total GULP energy -198458.271658 kJ/mol
# GULP energy per Si atom -12403.641979 kJ/mol
# Density = 2.190288 g / cm^3
# Si number density = 21.952850 Si / 1000 Ang^3
#
#
#
# Elastic Constant Matrix: (Units=GPa)
#
#
# Indices 1 2 3 4 5 6 
#
# 1 90.0223 48.7989 13.3295 -7.0933 -5.4937 -17.7997
# 2 48.7989 100.1906 43.7936 8.7722 5.2732 -7.0729
# 3 13.3295 43.7936 93.4175 11.6726 2.4664 0.3676
# 4 -7.0933 8.7722 11.6726 35.6953 1.1138 -2.1447
# 5 -5.4937 5.2732 2.4664 1.1138 45.4517 8.9913
# 6 -17.7997 -7.0729 0.3676 -2.1447 8.9913 25.9810
#
#
#
# Elastic Compliance Matrix: (Units=1/GPa)
#
#
# Indices 1 2 3 4 5 6 
#
# 1 0.018660 -0.009341 0.000858 0.006312 0.001086 0.010374
# 2 -0.009341 0.017761 -0.006410 -0.004101 -0.002558 -0.000927
# 3 0.000858 -0.006410 0.013947 -0.002938 0.000514 -0.001774
# 4 0.006312 -0.004101 -0.002938 0.031620 -0.000575 0.006059
# 5 0.001086 -0.002558 0.000514 -0.000575 0.024064 -0.008335
# 6 0.010374 -0.000927 -0.001774 0.006059 -0.008335 0.048754
#
#
# Mechanical properties :
#
#
# Convention : Reuss Voigt Hill
#
# Bulk Modulus (GPa) = 48.58382 55.05273 51.81827
# Shear Modulus (GPa) = 26.11621 33.27283 29.69452
#
# Velocity S-wave (km/s) = 3.45287 3.89736 3.68183
# Velocity P-wave (km/s) = 6.17053 6.73682 6.45988
#
# Compressibility (1/GPa) = 0.02058298
#
# Stress axis : x y z
#
# Youngs Moduli (GPa) = 53.59148 56.30470 71.69763
#
# Poissons Ratio (x) = 0.52594 -0.06154
# Poissons Ratio (y) = 0.50060 0.45955
# Poissons Ratio (z) = -0.04600 0.36089
#
# Static dielectric constant tensor:
#      x y z
#    x 3.966200 -0.075890 -0.390670 
#    y -0.075890 3.781600 0.388560 
#    z -0.390670 0.388560 3.933610 
# 
# 
# High freq. dielectric constant tensor:
#      x y z
#    x 1.867770 -0.021230 -0.000050 
#    y -0.021230 1.851350 0.015890 
#    z -0.000050 0.015890 1.879880 
# 
# From -- ./inp_files/343220.got.cif
#   From: 2010.06.25/outbox.cif.g09.slc.cpg/sg2_172_cif.got.tgz:343220.got - 2010.06.27 13:26:56.
