data_PCOD8001617
_publ_section_title
;
Structure prediction by ZEFSAII (Michael W. Deem and Ramdas Pophale) SiO2 
 PCOD8001617
Probable space group: P -1
;
_chemical_formula_sum "Si O2"
_cell_formula_units_Z 16
_cell_length_a 14.459130
_cell_length_b 24.818543
_cell_length_c 9.340747
_cell_angle_alpha 53.663952
_cell_angle_beta 39.149556
_cell_angle_gamma 23.822847
_cell_volume 759.659664
_symmetry_space_group_name_H-M "P -1"
_symmetry_group_IT_number 2
_symmetry_cell_setting 'triclinic'
loop_
_space_group_symop_operation_xyz
x,y,z
-x,-y,-z
loop_
_atom_site_type_symbol
_atom_site_label
_atom_site_fract_x
_atom_site_fract_y
_atom_site_fract_z
Si Si1 0.785291 0.153243 0.527710
Si Si2 0.426405 0.709790 0.139522
Si Si3 0.942442 0.693113 0.154079
Si Si4 0.848535 0.426845 0.472637
Si Si5 0.688087 0.349966 0.849744
Si Si6 0.188472 0.364230 0.404344
Si Si7 0.851092 0.253247 0.123157
Si Si8 0.903875 0.628052 0.032375
O O1 0.798184 0.173273 0.645023
O O2 0.955362 0.138910 0.242140
O O3 0.414299 0.289564 0.707240
O O4 0.000000 0.000000 0.500000
O O5 0.245758 0.722774 0.254630
O O6 0.482133 0.743938 0.898152
O O7 0.785561 0.544010 0.029516
O O8 0.703741 0.741016 0.455207
O O9 0.883707 0.700186 0.047682
O O10 0.306277 0.526075 0.038080
O O11 0.877791 0.798607 0.093331
O O12 0.912865 0.323922 0.604455
O O13 0.461823 0.596084 0.641769
O O14 0.936598 0.441309 0.468232
O O15 0.067258 0.352850 0.189039
O O16 0.781557 0.274633 0.003758
O O17 0.000000 0.500000 0.500000
#
# Coordination Sequence:
#
# PCOD8001617 Si02
#       8
#     2   2   2   2   2   2   2   2
#     4  12  27  43  59  84 123 163 204 249 298 353
#     4  11  22  36  63  92 120 157 199 247 301 352
#     4  10  21  32  58  98 123 153 190 245 304 356
#     4  11  19  33  58  92 127 149 192 246 298 359
#     4  10  20  33  58  96 126 149 189 250 308 348
#     4  12  18  31  54  92 129 150 188 243 296 355
#     4  11  20  37  59  86 127 159 191 241 305 355
#     4  11  22  37  62  92 116 156 199 250 300 350
#
# _framework density 21.062062999999998
#
# number of rings (size 3 to 8) (size 9 to 14) (size 15 to 20)
#    0.000    1.000    7.500    1.875    3.500    1.500 
#    0.000    1.250    0.000    1.500    0.000    0.000 
#    0.000    0.000    0.000    0.000    0.000    0.000 
#
# Total GULP energy -198373.596252 kJ/mol
# GULP energy per Si atom -12398.349766 kJ/mol
# Density = 2.101412 g / cm^3
# Si number density = 21.062063 Si / 1000 Ang^3
#
#
#
# Elastic Constant Matrix: (Units=GPa)
#
#
# Indices 1 2 3 4 5 6 
#
# 1 161.6984 43.0866 52.7706 -24.4191 7.9862 11.3574
# 2 43.0866 64.2261 41.2543 -29.8272 6.0065 19.9955
# 3 52.7706 41.2543 97.9371 -43.8207 2.0908 7.4006
# 4 -24.4191 -29.8272 -43.8207 33.2936 4.3862 -6.5632
# 5 7.9862 6.0065 2.0908 4.3862 33.7128 -8.5843
# 6 11.3574 19.9955 7.4006 -6.5632 -8.5843 20.5810
#
#
#
# Elastic Compliance Matrix: (Units=1/GPa)
#
#
# Indices 1 2 3 4 5 6 
#
# 1 0.008185 -0.004153 -0.003867 -0.002769 -0.000663 -0.000251
# 2 -0.004153 0.054555 0.003220 0.043950 -0.027179 -0.049190
# 3 -0.003867 0.003220 0.027916 0.037294 -0.006737 -0.001950
# 4 -0.002769 0.043950 0.037294 0.114510 -0.032430 -0.031592
# 5 -0.000663 -0.027179 -0.006737 -0.032430 0.049340 0.039432
# 6 -0.000251 -0.049190 -0.001950 -0.031592 0.039432 0.103591
#
#
# Mechanical properties :
#
#
# Convention : Reuss Voigt Hill
#
# Bulk Modulus (GPa) = 12.33714 66.45384 39.39549
# Shear Modulus (GPa) = 12.66735 29.96748 21.31742
#
# Velocity S-wave (km/s) = 2.45507 3.77612 3.18484
# Velocity P-wave (km/s) = 3.72917 7.11562 5.68061
#
# Compressibility (1/GPa) = 0.08105607
#
# Stress axis : x y z
#
# Youngs Moduli (GPa) = 122.17292 18.33005 35.82210
#
# Poissons Ratio (x) = 0.07613 0.13851
# Poissons Ratio (y) = 0.50739 -0.11533
# Poissons Ratio (z) = 0.47239 -0.05902
#
# Static dielectric constant tensor:
#      x y z
#    x 4.144100 0.096240 -0.106720 
#    y 0.096240 3.240890 -0.552570 
#    z -0.106720 -0.552570 4.139250 
# 
# 
# High freq. dielectric constant tensor:
#      x y z
#    x 1.851210 0.003570 -0.003050 
#    y 0.003570 1.754870 -0.049970 
#    z -0.003050 -0.049970 1.824420 
# 
# From -- ./inp_files/205185.got.cif
#   From: 2010.06.25/outbox.cif.g09.slc.cpg/sg2_103_cif.got.tgz:205185.got - 2010.06.27 13:26:56.
