data_PCOD8001730
_publ_section_title
;
Structure prediction by ZEFSAII (Michael W. Deem and Ramdas Pophale) SiO2 
 PCOD8001730
Probable space group: P -1
;
_chemical_formula_sum "Si O2"
_cell_formula_units_Z 16
_cell_length_a 11.235218
_cell_length_b 19.834780
_cell_length_c 11.948577
_cell_angle_alpha 28.317585
_cell_angle_beta 62.164139
_cell_angle_gamma 44.067952
_cell_volume 759.820100
_symmetry_space_group_name_H-M "P -1"
_symmetry_group_IT_number 2
_symmetry_cell_setting 'triclinic'
loop_
_space_group_symop_operation_xyz
x,y,z
-x,-y,-z
loop_
_atom_site_type_symbol
_atom_site_label
_atom_site_fract_x
_atom_site_fract_y
_atom_site_fract_z
Si Si1 0.601728 0.694893 0.388858
Si Si2 0.870164 0.921510 0.648088
Si Si3 0.035678 0.814751 0.295752
Si Si4 0.713993 0.323772 0.221897
Si Si5 0.338468 0.071832 0.094435
Si Si6 0.988465 0.239150 0.857134
Si Si7 0.196003 0.916183 0.803730
Si Si8 0.405319 0.554240 0.656888
O O1 0.816501 0.466368 0.655811
O O2 0.463160 0.673502 0.439446
O O3 0.527736 0.823461 0.350288
O O4 0.604310 0.808070 0.121926
O O5 0.798244 0.099762 0.504170
O O6 0.796074 0.011971 0.423925
O O7 0.758001 0.870989 0.822912
O O8 0.109589 0.716309 0.851592
O O9 0.007888 0.736082 0.315109
O O10 0.258209 0.621349 0.525407
O O11 0.878278 0.909981 0.326355
O O12 0.000000 0.000000 0.000000
O O13 0.698753 0.383944 0.268044
O O14 0.500000 0.500000 0.000000
O O15 0.191110 0.140211 0.960012
O O16 0.957917 0.096958 0.111775
O O17 0.409367 0.694102 0.069574
#
# Coordination Sequence:
#
# PCOD8001730 Si02
#       8
#     2   2   2   2   2   2   2   2
#     4  10  22  36  54  79 115 150 183 225 270 329
#     4  11  21  32  55  81 118 143 179 228 286 335
#     4  10  21  35  56  84 113 146 180 231 283 322
#     4  11  20  31  53  83 115 146 172 233 287 332
#     4  11  22  36  55  83 115 148 183 224 272 334
#     4  10  21  37  56  81 112 145 187 225 278 327
#     4  10  20  34  54  85 111 144 175 233 285 326
#     4  11  20  35  55  85 116 139 185 223 284 333
#
# _framework density 21.057617
#
# number of rings (size 3 to 8) (size 9 to 14) (size 15 to 20)
#    0.000    1.500    3.750    3.375    1.750    5.500 
#    0.000    0.000    0.000    0.750    0.000   16.625 
#    0.000    0.000    0.000    0.000    0.000    0.000 
#
# Total GULP energy -198325.628133 kJ/mol
# GULP energy per Si atom -12395.351758 kJ/mol
# Density = 2.100969 g / cm^3
# Si number density = 21.057617 Si / 1000 Ang^3
#
#
#
# Elastic Constant Matrix: (Units=GPa)
#
#
# Indices 1 2 3 4 5 6 
#
# 1 42.6260 38.9072 36.6206 4.5931 13.6926 4.0355
# 2 38.9072 133.6135 48.4873 15.0212 -1.4196 -12.7659
# 3 36.6206 48.4873 75.9356 7.2118 14.7555 -4.6748
# 4 4.5931 15.0212 7.2118 40.0549 -1.4383 4.8607
# 5 13.6926 -1.4196 14.7555 -1.4383 27.9801 8.3233
# 6 4.0355 -12.7659 -4.6748 4.8607 8.3233 26.7443
#
#
#
# Elastic Compliance Matrix: (Units=1/GPa)
#
#
# Indices 1 2 3 4 5 6 
#
# 1 0.053569 -0.010959 -0.017066 0.002030 -0.014006 -0.012307
# 2 -0.010959 0.012949 -0.003410 -0.003511 0.005835 0.006061
# 3 -0.017066 -0.003410 0.025957 -0.002768 -0.008192 0.008537
# 4 0.002030 -0.003511 -0.002768 0.027781 0.004355 -0.008870
# 5 -0.014006 0.005835 -0.008192 0.004355 0.051396 -0.013320
# 6 -0.012307 0.006061 0.008537 -0.008870 -0.013320 0.049391
#
#
# Mechanical properties :
#
#
# Convention : Reuss Voigt Hill
#
# Bulk Modulus (GPa) = 33.77770 55.57837 44.67803
# Shear Modulus (GPa) = 17.01943 27.49986 22.25964
#
# Velocity S-wave (km/s) = 2.84603 3.61769 3.25481
# Velocity P-wave (km/s) = 5.18413 6.62578 5.94879
#
# Compressibility (1/GPa) = 0.02960533
#
# Stress axis : x y z
#
# Youngs Moduli (GPa) = 18.66735 77.22676 38.52523
#
# Poissons Ratio (x) = 0.84633 0.65745
# Poissons Ratio (y) = 0.20458 0.13139
# Poissons Ratio (z) = 0.31857 0.26338
#
# Static dielectric constant tensor:
#      x y z
#    x 3.476100 0.080160 0.131590 
#    y 0.080160 4.544940 -0.144760 
#    z 0.131590 -0.144760 3.742660 
# 
# 
# High freq. dielectric constant tensor:
#      x y z
#    x 1.770100 -0.005100 0.024810 
#    y -0.005100 1.852700 -0.013340 
#    z 0.024810 -0.013340 1.817010 
# 
# From -- ./inp_files/438332.got.cif
#   From: 2010.06.25/outbox.cif.g09.slc.cpg/sg2_220_cif.got.tgz:438332.got - 2010.06.27 13:26:56.
