data_PCOD8001870
_publ_section_title
;
Structure prediction by ZEFSAII (Michael W. Deem and Ramdas Pophale) SiO2 
 PCOD8001870
Probable space group: P -1
;
_chemical_formula_sum "Si O2"
_cell_formula_units_Z 16
_cell_length_a 25.485842
_cell_length_b 11.459623
_cell_length_c 18.873744
_cell_angle_alpha 151.768248
_cell_angle_beta 161.226608
_cell_angle_gamma 29.594867
_cell_volume 816.198129
_symmetry_space_group_name_H-M "P -1"
_symmetry_group_IT_number 2
_symmetry_cell_setting 'triclinic'
loop_
_space_group_symop_operation_xyz
x,y,z
-x,-y,-z
loop_
_atom_site_type_symbol
_atom_site_label
_atom_site_fract_x
_atom_site_fract_y
_atom_site_fract_z
Si Si1 0.777411 0.861966 0.933961
Si Si2 0.028075 0.801009 0.097705
Si Si3 0.758904 0.121615 0.255242
Si Si4 0.551154 0.010417 0.152409
Si Si5 0.401446 0.528864 0.463968
Si Si6 0.134675 0.278425 0.518333
Si Si7 0.983247 0.673921 0.234423
Si Si8 0.309747 0.613852 0.833848
O O1 0.611300 0.744558 0.666804
O O2 0.913328 0.760974 0.114324
O O3 0.873422 0.785783 0.942780
O O4 0.711427 0.165642 0.016164
O O5 0.209604 0.675029 0.292522
O O6 0.035226 0.092770 0.251141
O O7 0.001257 0.632416 0.904154
O O8 0.783110 0.269110 0.293570
O O9 0.835765 0.258590 0.490277
O O10 0.859969 0.826656 0.218992
O O11 0.565995 0.132376 0.028824
O O12 0.512705 0.306812 0.284865
O O13 0.740769 0.863225 0.335756
O O14 0.500000 0.000000 0.000000
O O15 0.500000 0.500000 0.500000
O O16 0.232217 0.386231 0.639479
O O17 0.000000 0.500000 0.500000
O O18 0.500000 0.500000 0.000000
#
# Coordination Sequence:
#
# PCOD8001870 Si02
#       8
#     2   2   2   2   2   2   2   2
#     4  10  20  34  60  85 112 156 200 243 292 364
#     4  10  20  34  58  85 115 153 202 243 290 364
#     4  10  21  36  58  87 119 156 193 253 301 364
#     4  11  24  36  62  94 123 151 199 262 311 345
#     4  10  20  35  57  88 120 153 200 249 301 352
#     4  11  23  40  61  87 121 161 203 245 297 369
#     4   9  19  34  59  85 116 150 195 246 305 345
#     4  11  21  39  59  83 115 161 207 233 292 371
#
# _framework density 19.603083000000002
#
# number of rings (size 3 to 8) (size 9 to 14) (size 15 to 20)
#    0.000    1.750    2.500    3.750    7.000    1.000 
#    0.000    0.625    2.750    2.250    0.000    0.000 
#    0.000    0.000    0.000    0.000    0.000    0.000 
#
# Total GULP energy -198253.615615 kJ/mol
# GULP energy per Si atom -12390.850976 kJ/mol
# Density = 1.955847 g / cm^3
# Si number density = 19.603083 Si / 1000 Ang^3
#
#
#
# Elastic Constant Matrix: (Units=GPa)
#
#
# Indices 1 2 3 4 5 6 
#
# 1 94.1299 34.3069 50.1600 17.0097 12.8499 -5.7140
# 2 34.3069 103.5321 55.1834 27.6833 -0.1901 -16.3700
# 3 50.1600 55.1834 131.4512 34.8853 2.8435 -9.4528
# 4 17.0097 27.6833 34.8853 43.8996 -3.7997 1.8167
# 5 12.8499 -0.1901 2.8435 -3.7997 39.4491 3.9283
# 6 -5.7140 -16.3700 -9.4528 1.8167 3.9283 28.8039
#
#
#
# Elastic Compliance Matrix: (Units=1/GPa)
#
#
# Indices 1 2 3 4 5 6 
#
# 1 0.014545 -0.002059 -0.004097 -0.001536 -0.004711 0.001110
# 2 -0.002059 0.014970 -0.003253 -0.006400 -0.000385 0.007488
# 3 -0.004097 -0.003253 0.012341 -0.006275 -0.000358 0.001833
# 4 -0.001536 -0.006400 -0.006275 0.033192 0.004993 -0.008776
# 5 -0.004711 -0.000385 -0.000358 0.004993 0.027926 -0.005394
# 6 0.001110 0.007488 0.001833 -0.008776 -0.005394 0.041084
#
#
# Mechanical properties :
#
#
# Convention : Reuss Voigt Hill
#
# Bulk Modulus (GPa) = 43.40577 67.60151 55.50364
# Shear Modulus (GPa) = 29.31624 35.06139 32.18881
#
# Velocity S-wave (km/s) = 3.87135 4.23373 4.05659
# Velocity P-wave (km/s) = 6.49412 7.64587 7.09341
#
# Compressibility (1/GPa) = 0.02303841
#
# Stress axis : x y z
#
# Youngs Moduli (GPa) = 68.75254 66.80207 81.02901
#
# Poissons Ratio (x) = 0.13752 0.33194
# Poissons Ratio (y) = 0.14153 0.26363
# Poissons Ratio (z) = 0.28165 0.21734
#
# Static dielectric constant tensor:
#      x y z
#    x 12.507810 6.966730 7.175250 
#    y 6.966730 9.529350 6.064140 
#    z 7.175250 6.064140 9.449850 
# 
# 
# High freq. dielectric constant tensor:
#      x y z
#    x 1.738820 -0.025830 0.021170 
#    y -0.025830 1.761060 0.025810 
#    z 0.021170 0.025810 1.769800 
# 
# From -- ./inp_files/389145.got.cif
#   From: 2010.06.25/outbox.cif.g09.slc.cpg/sg2_195_cif.got.tgz:389145.got - 2010.06.27 13:26:56.
