data_PCOD8001056
_publ_section_title
;
Structure prediction by ZEFSAII (Michael W. Deem and Ramdas Pophale) SiO2 
 PCOD8001056
Probable space group: P -1
;
_chemical_formula_sum "Si O2"
_cell_formula_units_Z 12
_cell_length_a 12.213382
_cell_length_b 7.643011
_cell_length_c 14.522331
_cell_angle_alpha 68.488790
_cell_angle_beta 149.692578
_cell_angle_gamma 130.176900
_cell_volume 454.595910
_symmetry_space_group_name_H-M "P -1"
_symmetry_group_IT_number 2
_symmetry_cell_setting 'triclinic'
loop_
_space_group_symop_operation_xyz
x,y,z
-x,-y,-z
loop_
_atom_site_type_symbol
_atom_site_label
_atom_site_fract_x
_atom_site_fract_y
_atom_site_fract_z
Si Si1 0.739625 0.307624 0.597742
Si Si2 0.379457 0.090213 0.738611
Si Si3 0.322435 0.329270 0.199855
Si Si4 0.841159 0.833591 0.276667
Si Si5 0.799380 0.720528 0.074606
Si Si6 0.998612 0.339952 0.107112
O O1 0.598201 0.350093 0.406625
O O2 0.053549 0.397566 0.778827
O O3 0.789267 0.468573 0.691775
O O4 0.500000 0.000000 0.500000
O O5 0.529943 0.382844 0.773433
O O6 0.220873 0.011590 0.740196
O O7 0.644819 0.093517 0.928839
O O8 0.129962 0.898270 0.516313
O O9 0.130002 0.231186 0.174670
O O10 0.113180 0.152096 0.990662
O O11 0.906703 0.922122 0.198622
O O12 0.563793 0.518574 0.138986
O O13 0.000000 0.500000 0.000000
#
# Coordination Sequence:
#
# PCOD8001056 Si02
#       6
#     2   2   2   2   2   2
#     4  12  25  40  63  92 125 165 202 256 315 359
#     4   9  18  38  68  90 124 167 201 249 308 361
#     4  10  22  41  63  93 126 157 207 253 307 370
#     4   9  18  37  67  89 123 169 198 250 307 353
#     4  10  21  40  61  92 131 157 204 255 299 367
#     4  10  19  41  62  90 125 156 204 258 302 369
#
# _framework density 26.397069999999999
#
# number of rings (size 3 to 8) (size 9 to 14) (size 15 to 20)
#    0.000    2.000    5.000    0.500    4.667    0.667 
#    0.000    8.333    0.000    0.000    0.000    0.000 
#    0.000    0.000    0.000    0.000    0.000    0.000 
#
# Total GULP energy -148736.043570 kJ/mol
# GULP energy per Si atom -12394.670297 kJ/mol
# Density = 2.633699 g / cm^3
# Si number density = 26.397070 Si / 1000 Ang^3
#
#
#
# Elastic Constant Matrix: (Units=GPa)
#
#
# Indices 1 2 3 4 5 6 
#
# 1 201.5644 24.8699 101.4516 -1.4633 -33.7558 -13.1592
# 2 24.8699 30.8331 29.0576 2.0444 -3.1053 -19.5260
# 3 101.4516 29.0576 200.6961 -3.8995 -19.0027 -29.9336
# 4 -1.4633 2.0444 -3.8995 46.0210 -5.1622 -8.6910
# 5 -33.7558 -3.1053 -19.0027 -5.1622 53.8875 3.7138
# 6 -13.1592 -19.5260 -29.9336 -8.6910 3.7138 22.5085
#
#
#
# Elastic Compliance Matrix: (Units=1/GPa)
#
#
# Indices 1 2 3 4 5 6 
#
# 1 0.007814 -0.007065 -0.003695 -0.000734 0.003621 -0.007356
# 2 -0.007065 0.082273 0.002841 0.010289 -0.002898 0.075470
# 3 -0.003695 0.002841 0.008382 0.002855 0.000215 0.012518
# 4 -0.000734 0.010289 0.002855 0.025869 0.002106 0.021934
# 5 0.003621 -0.002898 0.000215 0.002106 0.021128 -0.002783
# 6 -0.007356 0.075470 0.012518 0.021934 -0.002783 0.131174
#
#
# Mechanical properties :
#
#
# Convention : Reuss Voigt Hill
#
# Bulk Modulus (GPa) = 12.10196 82.65019 47.37608
# Shear Modulus (GPa) = 15.62392 42.99770 29.31081
#
# Velocity S-wave (km/s) = 2.43550 4.04032 3.33585
# Velocity P-wave (km/s) = 3.53602 7.28999 5.72919
#
# Compressibility (1/GPa) = 0.08263124
#
# Stress axis : x y z
#
# Youngs Moduli (GPa) = 127.97964 12.15461 119.29839
#
# Poissons Ratio (x) = 0.08587 0.44087
# Poissons Ratio (y) = 0.90415 -0.33895
# Poissons Ratio (z) = 0.47295 -0.03453
#
# Static dielectric constant tensor:
#      x y z
#    x 5.749770 0.780530 -1.096750 
#    y 0.780530 3.142070 1.420780 
#    z -1.096750 1.420780 3.494380 
# 
# 
# High freq. dielectric constant tensor:
#      x y z
#    x 2.076890 -0.004400 -0.007260 
#    y -0.004400 2.029780 0.013920 
#    z -0.007260 0.013920 2.075590 
# 
# From -- ./inp_files/514388.got.cif
#   From: 2010.06.25/outbox.cif.g09.slc.cpg/sg2_258_cif.got.tgz:514388.got - 2010.06.27 13:26:56.
