data_PCOD8001628
_publ_section_title
;
Structure prediction by ZEFSAII (Michael W. Deem and Ramdas Pophale) SiO2 
 PCOD8001628
Probable space group: P -1
;
_chemical_formula_sum "Si O2"
_cell_formula_units_Z 16
_cell_length_a 17.420748
_cell_length_b 11.321307
_cell_length_c 24.150198
_cell_angle_alpha 31.822807
_cell_angle_beta 160.431900
_cell_angle_gamma 149.094603
_cell_volume 795.493975
_symmetry_space_group_name_H-M "P -1"
_symmetry_group_IT_number 2
_symmetry_cell_setting 'triclinic'
loop_
_space_group_symop_operation_xyz
x,y,z
-x,-y,-z
loop_
_atom_site_type_symbol
_atom_site_label
_atom_site_fract_x
_atom_site_fract_y
_atom_site_fract_z
Si Si1 0.215014 0.643757 0.934722
Si Si2 0.386066 0.145011 0.703927
Si Si3 0.696152 0.836556 0.231113
Si Si4 0.253075 0.589392 0.237879
Si Si5 0.479486 0.194137 0.562929
Si Si6 0.859206 0.291126 0.448462
Si Si7 0.699817 0.376860 0.193561
Si Si8 0.913974 0.528031 0.665065
O O1 0.034804 0.469376 0.926313
O O2 0.111447 0.580118 0.827913
O O3 0.246754 0.916377 0.860822
O O4 0.486428 0.632784 0.135193
O O5 0.393145 0.151388 0.771960
O O6 0.651159 0.315874 0.795549
O O7 0.177956 0.243666 0.497366
O O8 0.356907 0.882730 0.768075
O O9 0.945303 0.784263 0.423724
O O10 0.298314 0.345398 0.381153
O O11 0.398344 0.791829 0.299343
O O12 0.685588 0.295067 0.615984
O O13 0.322370 0.921155 0.554084
O O14 0.712670 0.378857 0.267697
O O15 0.000000 0.500000 0.500000
O O16 0.955050 0.529704 0.277392
O O17 0.500000 0.500000 0.000000
#
# Coordination Sequence:
#
# PCOD8001628 Si02
#       8
#     2   2   2   2   2   2   2   2
#     4  10  20  33  59  95 125 147 197 263 310 343
#     4  11  20  38  68  92 120 163 210 258 303 364
#     4  11  22  36  60  92 126 161 202 254 308 367
#     4   9  17  33  64  95 119 149 208 270 296 347
#     4   9  18  36  63  93 116 158 211 253 303 361
#     4  12  25  42  62  88 129 170 203 246 318 383
#     4  12  25  40  61  95 127 162 208 256 309 364
#     4  10  20  39  69  89 117 160 213 259 295 364
#
# _framework density 20.113289000000002
#
# number of rings (size 3 to 8) (size 9 to 14) (size 15 to 20)
#    0.000    1.500    5.000    1.875    1.750    0.500 
#    0.000    2.500    0.000    0.000    0.000    0.000 
#    0.000    0.000    0.000    0.000    0.000    0.000 
#
# Total GULP energy -198302.696772 kJ/mol
# GULP energy per Si atom -12393.918548 kJ/mol
# Density = 2.006751 g / cm^3
# Si number density = 20.113289 Si / 1000 Ang^3
#
#
#
# Elastic Constant Matrix: (Units=GPa)
#
#
# Indices 1 2 3 4 5 6 
#
# 1 84.5525 50.7476 21.1947 -7.9733 -1.4876 18.6388
# 2 50.7476 128.9874 36.9169 10.0146 -1.6754 11.7589
# 3 21.1947 36.9169 88.5780 -1.0209 -1.5549 7.5020
# 4 -7.9733 10.0146 -1.0209 22.3342 -2.0191 3.0393
# 5 -1.4876 -1.6754 -1.5549 -2.0191 28.2658 7.7357
# 6 18.6388 11.7589 7.5020 3.0393 7.7357 31.8776
#
#
#
# Elastic Compliance Matrix: (Units=1/GPa)
#
#
# Indices 1 2 3 4 5 6 
#
# 1 0.020369 -0.007785 -0.000450 0.012686 0.004571 -0.011251
# 2 -0.007785 0.012330 -0.003560 -0.008827 -0.001035 0.001934
# 3 -0.000450 -0.003560 0.013102 0.002421 0.001215 -0.002033
# 4 0.012686 -0.008827 0.002421 0.055664 0.007499 -0.011858
# 5 0.004571 -0.001035 0.001215 0.007499 0.039698 -0.012926
# 6 -0.011251 0.001934 -0.002033 -0.011858 -0.012926 0.041981
#
#
# Mechanical properties :
#
#
# Convention : Reuss Voigt Hill
#
# Bulk Modulus (GPa) = 45.02075 57.75956 51.39015
# Shear Modulus (GPa) = 23.34956 29.37944 26.36450
#
# Velocity S-wave (km/s) = 3.41090 3.82605 3.62443
# Velocity P-wave (km/s) = 6.15991 6.94966 6.56667
#
# Compressibility (1/GPa) = 0.02221198
#
# Stress axis : x y z
#
# Youngs Moduli (GPa) = 49.09374 81.10329 76.32326
#
# Poissons Ratio (x) = 0.63139 0.03434
# Poissons Ratio (y) = 0.38219 0.27169
# Poissons Ratio (z) = 0.02209 0.28870
#
# Static dielectric constant tensor:
#      x y z
#    x 3.694910 0.399390 0.064220 
#    y 0.399390 3.592670 0.180360 
#    z 0.064220 0.180360 3.791680 
# 
# 
# High freq. dielectric constant tensor:
#      x y z
#    x 1.779210 0.032980 -0.000630 
#    y 0.032980 1.773190 0.014200 
#    z -0.000630 0.014200 1.772070 
# 
# From -- ./inp_files/284960.got.cif
#   From: 2010.06.25/outbox.cif.g09.slc.cpg/sg2_143_cif.got.tgz:284960.got - 2010.06.27 13:26:56.
