data_PCOD8001162
_publ_section_title
;
Structure prediction by ZEFSAII (Michael W. Deem and Ramdas Pophale) SiO2 
 PCOD8001162
Probable space group: P -1
;
_chemical_formula_sum "Si O2"
_cell_formula_units_Z 16
_cell_length_a 11.215198
_cell_length_b 11.050208
_cell_length_c 12.156110
_cell_angle_alpha 141.070771
_cell_angle_beta 100.802124
_cell_angle_gamma 107.087717
_cell_volume 652.670604
_symmetry_space_group_name_H-M "P -1"
_symmetry_group_IT_number 2
_symmetry_cell_setting 'triclinic'
loop_
_space_group_symop_operation_xyz
x,y,z
-x,-y,-z
loop_
_atom_site_type_symbol
_atom_site_label
_atom_site_fract_x
_atom_site_fract_y
_atom_site_fract_z
Si Si1 0.851783 0.483804 0.188579
Si Si2 0.681594 0.791124 0.217665
Si Si3 0.809902 0.860463 0.523518
Si Si4 0.572381 0.491043 0.396197
Si Si5 0.234961 0.877524 0.892252
Si Si6 0.780546 0.299949 0.599816
Si Si7 0.135198 0.423404 0.400041
Si Si8 0.172031 0.410380 0.983205
O O1 0.853872 0.682626 0.400205
O O2 0.741224 0.202926 0.042071
O O3 0.782295 0.445824 0.026546
O O4 0.041478 0.615057 0.307314
O O5 0.789677 0.915376 0.436338
O O6 0.770787 0.750185 0.115028
O O7 0.651095 0.981138 0.314222
O O8 0.500000 0.500000 0.000000
O O9 0.634539 0.698719 0.452686
O O10 0.969245 0.171966 0.813952
O O11 0.500000 0.500000 0.500000
O O12 0.763922 0.626704 0.553066
O O13 0.421640 0.178901 0.106783
O O14 0.179338 0.674265 0.642182
O O15 0.073004 0.847510 0.842104
O O16 0.780996 0.470945 0.632228
O O17 0.732486 0.344994 0.739360
#
# Coordination Sequence:
#
# PCOD8001162 Si02
#       8
#     2   2   2   2   2   2   2   2
#     4  10  19  41  72  97 130 179 235 288 347 420
#     4  11  25  42  66 105 140 182 227 287 361 414
#     4  11  23  44  68  99 136 182 236 285 354 423
#     4  12  28  44  67 106 145 183 236 297 352 424
#     4  10  23  44  71  99 132 188 238 287 349 422
#     4  11  23  41  71 101 139 179 232 290 350 418
#     4  10  24  45  69 101 128 190 236 280 360 416
#     4  11  23  42  71 103 134 182 234 289 345 426
#
# _framework density 24.514664
#
# number of rings (size 3 to 8) (size 9 to 14) (size 15 to 20)
#    0.000    1.250    3.750    1.500    5.250    3.000 
#    0.000    0.000    0.000    0.000    0.000    0.000 
#    0.000    0.000    0.000    0.000    0.000    0.000 
#
# Total GULP energy -198209.207575 kJ/mol
# GULP energy per Si atom -12388.075473 kJ/mol
# Density = 2.445887 g / cm^3
# Si number density = 24.514664 Si / 1000 Ang^3
#
#
#
# Elastic Constant Matrix: (Units=GPa)
#
#
# Indices 1 2 3 4 5 6 
#
# 1 50.2064 17.3903 19.9628 -2.5479 -0.3420 15.2385
# 2 17.3903 89.3406 23.2454 5.4795 -2.1975 22.7751
# 3 19.9628 23.2454 74.1491 8.3984 -3.6906 9.0268
# 4 -2.5479 5.4795 8.3984 36.7531 10.4485 -1.9118
# 5 -0.3420 -2.1975 -3.6906 10.4485 34.4543 -9.0543
# 6 15.2385 22.7751 9.0268 -1.9118 -9.0543 33.6934
#
#
#
# Elastic Compliance Matrix: (Units=1/GPa)
#
#
# Indices 1 2 3 4 5 6 
#
# 1 0.026052 -0.001234 -0.006059 0.004094 -0.004412 -0.010278
# 2 -0.001234 0.014561 -0.003020 -0.001677 -0.001238 -0.008903
# 3 -0.006059 -0.003020 0.016635 -0.004625 0.003172 0.000915
# 4 0.004094 -0.001677 -0.004625 0.031702 -0.010293 -0.000446
# 5 -0.004412 -0.001238 0.003172 -0.010293 0.035217 0.010862
# 6 -0.010278 -0.008903 0.000915 -0.000446 0.010862 0.042995
#
#
# Mechanical properties :
#
#
# Convention : Reuss Voigt Hill
#
# Bulk Modulus (GPa) = 27.30672 37.21037 32.25854
# Shear Modulus (GPa) = 25.00063 31.18667 28.09365
#
# Velocity S-wave (km/s) = 3.19693 3.57061 3.38893
# Velocity P-wave (km/s) = 4.97898 5.67545 5.33859
#
# Compressibility (1/GPa) = 0.03662102
#
# Stress axis : x y z
#
# Youngs Moduli (GPa) = 38.38532 68.67518 60.11511
#
# Poissons Ratio (x) = 0.08474 0.36423
# Poissons Ratio (y) = 0.04737 0.18157
# Poissons Ratio (z) = 0.23257 0.20743
#
# Static dielectric constant tensor:
#      x y z
#    x 3.632270 0.271830 0.113240 
#    y 0.271830 4.764790 0.104320 
#    z 0.113240 0.104320 4.417180 
# 
# 
# High freq. dielectric constant tensor:
#      x y z
#    x 1.958230 0.011220 -0.001420 
#    y 0.011220 1.983770 -0.001150 
#    z -0.001420 -0.001150 1.961180 
# 
# From -- ./inp_files/429084.got.cif
#   From: 2010.06.25/outbox.cif.g09.slc.cpg/sg2_215_cif.got.tgz:429084.got - 2010.06.27 13:26:56.
