data_PCOD8001041
_publ_section_title
;
Structure prediction by ZEFSAII (Michael W. Deem and Ramdas Pophale) SiO2 
 PCOD8001041
Probable space group: P -1
;
_chemical_formula_sum "Si O2"
_cell_formula_units_Z 14
_cell_length_a 21.055164
_cell_length_b 8.559887
_cell_length_c 9.736873
_cell_angle_alpha 88.731422
_cell_angle_beta 47.147707
_cell_angle_gamma 127.283017
_cell_volume 683.684217
_symmetry_space_group_name_H-M "P -1"
_symmetry_group_IT_number 2
_symmetry_cell_setting 'triclinic'
loop_
_space_group_symop_operation_xyz
x,y,z
-x,-y,-z
loop_
_atom_site_type_symbol
_atom_site_label
_atom_site_fract_x
_atom_site_fract_y
_atom_site_fract_z
Si Si1 0.202487 0.303594 0.057651
Si Si2 0.814136 0.254943 0.629572
Si Si3 0.841066 0.353915 0.279420
Si Si4 0.450048 0.736904 0.182148
Si Si5 0.976041 0.211237 0.504622
Si Si6 0.490600 0.819824 0.821383
Si Si7 0.827289 0.681316 0.209007
O O1 0.050546 0.185649 0.307495
O O2 0.157439 0.063120 0.187402
O O3 0.366974 0.619374 0.880627
O O4 0.225669 0.331960 0.860326
O O5 0.848433 0.390169 0.431592
O O6 0.896442 0.211382 0.516595
O O7 0.879493 0.478942 0.637424
O O8 0.626567 0.934369 0.947706
O O9 0.836641 0.508048 0.198672
O O10 0.662999 0.998368 0.521666
O O11 0.000000 0.500000 0.000000
O O12 0.306579 0.445047 0.490360
O O13 0.454851 0.924593 0.216549
O O14 0.406065 0.628202 0.089552
O O15 0.000000 0.000000 0.000000
#
# Coordination Sequence:
#
# PCOD8001041 Si02
#       7
#     2   2   2   2   2   2   2
#     4  11  22  38  58  92 117 147 198 244 287 343
#     4  10  19  41  59  85 112 159 195 234 289 350
#     4  10  21  39  61  85 116 153 196 238 289 345
#     4   9  19  37  60  82 114 156 197 230 290 350
#     4  10  22  35  63  83 117 152 194 242 287 344
#     4   9  19  37  62  83 115 155 196 237 283 346
#     4  11  24  38  60  87 119 155 188 243 299 340
#
# _framework density 20.477291000000001
#
# number of rings (size 3 to 8) (size 9 to 14) (size 15 to 20)
#    0.000    2.000    1.429    2.571    4.000    2.286 
#    7.714    2.143    0.000    0.000    0.000    0.000 
#    0.000    0.000    0.000    0.000    0.000    0.000 
#
# Total GULP energy -173485.291440 kJ/mol
# GULP energy per Si atom -12391.806531 kJ/mol
# Density = 2.043068 g / cm^3
# Si number density = 20.477291 Si / 1000 Ang^3
#
#
#
# Elastic Constant Matrix: (Units=GPa)
#
#
# Indices 1 2 3 4 5 6 
#
# 1 81.5464 26.7864 28.0379 -3.9154 10.1248 25.0081
# 2 26.7864 54.3235 32.5872 -7.4227 1.3567 21.7587
# 3 28.0379 32.5872 146.7340 -4.9329 -1.5861 26.8188
# 4 -3.9154 -7.4227 -4.9329 19.0023 -0.3224 -1.5580
# 5 10.1248 1.3567 -1.5861 -0.3224 36.8878 -2.6947
# 6 25.0081 21.7587 26.8188 -1.5580 -2.6947 37.3264
#
#
#
# Elastic Compliance Matrix: (Units=1/GPa)
#
#
# Indices 1 2 3 4 5 6 
#
# 1 0.017371 -0.004271 -0.000763 0.000890 -0.005289 -0.008945
# 2 -0.004271 0.027887 -0.003121 0.008301 -0.000708 -0.010856
# 3 -0.000763 -0.003121 0.008335 0.000499 0.000424 -0.003606
# 4 0.000890 0.008301 0.000499 0.055890 -0.000294 -0.003481
# 5 -0.005289 -0.000708 0.000424 -0.000294 0.029022 0.005735
# 6 -0.008945 -0.010856 -0.003606 -0.003481 0.005735 0.041972
#
#
# Mechanical properties :
#
#
# Convention : Reuss Voigt Hill
#
# Bulk Modulus (GPa) = 26.82331 50.82520 38.82426
# Shear Modulus (GPa) = 23.89892 31.65614 27.77753
#
# Velocity S-wave (km/s) = 3.41998 3.93608 3.68707
# Velocity P-wave (km/s) = 5.35934 6.74767 6.09318
#
# Compressibility (1/GPa) = 0.03728101
#
# Stress axis : x y z
#
# Youngs Moduli (GPa) = 57.56747 35.85872 119.98300
#
# Poissons Ratio (x) = 0.15316 0.09155
# Poissons Ratio (y) = 0.24589 0.37453
# Poissons Ratio (z) = 0.04393 0.11193
#
# Static dielectric constant tensor:
#      x y z
#    x 3.916320 0.019610 0.069670 
#    y 0.019610 3.376880 -0.090090 
#    z 0.069670 -0.090090 4.274640 
# 
# 
# High freq. dielectric constant tensor:
#      x y z
#    x 1.801780 0.015470 -0.005190 
#    y 0.015470 1.771750 -0.009440 
#    z -0.005190 -0.009440 1.813180 
# 
# From -- ./inp_files/167425.got.cif
#   From: 2010.06.25/outbox.cif.g09.slc.cpg/sg2_84_cif.got.tgz:167425.got - 2010.06.27 13:26:56.
