data_PCOD8001891
_publ_section_title
;
Structure prediction by ZEFSAII (Michael W. Deem and Ramdas Pophale) SiO2 
 PCOD8001891
Probable space group: P -1
;
_chemical_formula_sum "Si O2"
_cell_formula_units_Z 16
_cell_length_a 10.009386
_cell_length_b 11.242601
_cell_length_c 11.469717
_cell_angle_alpha 57.579857
_cell_angle_beta 52.542309
_cell_angle_gamma 41.377518
_cell_volume 669.384039
_symmetry_space_group_name_H-M "P -1"
_symmetry_group_IT_number 2
_symmetry_cell_setting 'triclinic'
loop_
_space_group_symop_operation_xyz
x,y,z
-x,-y,-z
loop_
_atom_site_type_symbol
_atom_site_label
_atom_site_fract_x
_atom_site_fract_y
_atom_site_fract_z
Si Si1 0.610000 0.495797 0.189090
Si Si2 0.245428 0.003253 0.842539
Si Si3 0.820734 0.897730 0.604614
Si Si4 0.252632 0.811592 0.358075
Si Si5 0.985241 0.094656 0.147831
Si Si6 0.305957 0.325905 0.130108
Si Si7 0.774719 0.791841 0.449466
Si Si8 0.250789 0.489462 0.300418
O O1 0.477941 0.608691 0.317013
O O2 0.813841 0.282557 0.212196
O O3 0.437843 0.507767 0.190465
O O4 0.698761 0.593531 0.033535
O O5 0.316325 0.105350 0.680150
O O6 0.121753 0.979253 0.822847
O O7 0.448356 0.809290 0.882836
O O8 0.100722 0.123440 0.968468
O O9 0.799252 0.773972 0.768023
O O10 0.707689 0.925002 0.525421
O O11 0.077047 0.795928 0.511133
O O12 0.693926 0.097959 0.621331
O O13 0.160840 0.940457 0.225119
O O14 0.180838 0.488308 0.205976
O O15 0.672554 0.691657 0.576347
O O16 0.036172 0.659614 0.387144
#
# Coordination Sequence:
#
# PCOD8001891 Si02
#       8
#     2   2   2   2   2   2   2   2
#     4  12  22  40  65  94 128 166 206 261 317 370
#     4  11  21  37  61  98 132 157 206 263 321 378
#     4  10  23  42  66  88 125 178 209 254 311 368
#     4  11  23  46  68  86 128 173 216 252 305 375
#     4  11  23  38  65  98 124 165 211 258 316 376
#     4  11  23  37  64  96 129 165 202 264 322 370
#     4  10  20  37  62  90 131 164 201 260 321 369
#     4  10  20  34  58  94 125 160 203 254 324 377
#
# _framework density 23.902570999999998
#
# number of rings (size 3 to 8) (size 9 to 14) (size 15 to 20)
#    0.000    1.250    5.000    1.125    1.750    3.500 
#    0.000    3.125   11.000    0.000    0.000    0.000 
#    0.000    0.000    0.000    0.000    0.000    0.000 
#
# Total GULP energy -198337.443623 kJ/mol
# GULP energy per Si atom -12396.090226 kJ/mol
# Density = 2.384817 g / cm^3
# Si number density = 23.902571 Si / 1000 Ang^3
#
#
#
# Elastic Constant Matrix: (Units=GPa)
#
#
# Indices 1 2 3 4 5 6 
#
# 1 22.0235 22.7065 24.3410 6.4502 -11.1917 15.0714
# 2 22.7065 108.7331 32.3768 31.4346 6.7995 15.4280
# 3 24.3410 32.3768 115.7216 4.9934 -19.9094 10.6281
# 4 6.4502 31.4346 4.9934 41.9487 7.2183 4.7429
# 5 -11.1917 6.7995 -19.9094 7.2183 28.1257 -5.8318
# 6 15.0714 15.4280 10.6281 4.7429 -5.8318 31.8861
#
#
#
# Elastic Compliance Matrix: (Units=1/GPa)
#
#
# Indices 1 2 3 4 5 6 
#
# 1 0.123659 -0.017837 -0.010322 -0.007031 0.040138 -0.037991
# 2 -0.017837 0.016408 -0.002409 -0.007463 -0.010763 0.000436
# 3 -0.010322 -0.002409 0.012136 0.000673 0.005495 0.002904
# 4 -0.007031 -0.007463 0.000673 0.031870 -0.008614 0.000394
# 5 0.040138 -0.010763 0.005495 -0.008614 0.059518 -0.003429
# 6 -0.037991 0.000436 0.002904 0.000394 -0.003429 0.047454
#
#
# Mechanical properties :
#
#
# Convention : Reuss Voigt Hill
#
# Bulk Modulus (GPa) = 10.98084 45.03631 28.00857
# Shear Modulus (GPa) = 13.07072 31.52904 22.29988
#
# Velocity S-wave (km/s) = 2.34098 3.63583 3.05774
# Velocity P-wave (km/s) = 3.45122 6.04220 4.92032
#
# Compressibility (1/GPa) = 0.09106775
#
# Stress axis : x y z
#
# Youngs Moduli (GPa) = 8.08678 60.94769 82.39904
#
# Poissons Ratio (x) = 1.08711 0.85052
# Poissons Ratio (y) = 0.14424 0.19846
# Poissons Ratio (z) = 0.08347 0.14679
#
# Static dielectric constant tensor:
#      x y z
#    x 3.764820 0.222100 -0.184100 
#    y 0.222100 4.334220 0.221340 
#    z -0.184100 0.221340 4.732370 
# 
# 
# High freq. dielectric constant tensor:
#      x y z
#    x 1.904390 0.012000 -0.017360 
#    y 0.012000 1.948880 0.012680 
#    z -0.017360 0.012680 1.964420 
# 
# From -- ./inp_files/427714.got.cif
#   From: 2010.06.25/outbox.cif.g09.slc.cpg/sg2_214_cif.got.tgz:427714.got - 2010.06.27 13:26:56.
