data_PCOD8001602
_publ_section_title
;
Structure prediction by ZEFSAII (Michael W. Deem and Ramdas Pophale) SiO2 
 PCOD8001602
Probable space group: P -1
;
_chemical_formula_sum "Si O2"
_cell_formula_units_Z 16
_cell_length_a 11.539805
_cell_length_b 24.477886
_cell_length_c 16.161250
_cell_angle_alpha 157.798718
_cell_angle_beta 146.084478
_cell_angle_gamma 34.328717
_cell_volume 926.019966
_symmetry_space_group_name_H-M "P -1"
_symmetry_group_IT_number 2
_symmetry_cell_setting 'triclinic'
loop_
_space_group_symop_operation_xyz
x,y,z
-x,-y,-z
loop_
_atom_site_type_symbol
_atom_site_label
_atom_site_fract_x
_atom_site_fract_y
_atom_site_fract_z
Si Si1 0.340433 0.656444 0.844697
Si Si2 0.029924 0.206172 0.055960
Si Si3 0.633255 0.082451 0.082049
Si Si4 0.437528 0.312037 0.426731
Si Si5 0.680637 0.103548 0.406580
Si Si6 0.769701 0.114400 0.028638
Si Si7 0.136260 0.973799 0.423563
Si Si8 0.447525 0.098360 0.687777
O O1 0.445372 0.480350 0.651308
O O2 0.231959 0.725747 0.790254
O O3 0.153945 0.691865 0.852397
O O4 0.535797 0.733328 0.089185
O O5 0.191978 0.302911 0.260811
O O6 0.910808 0.164913 0.847449
O O7 0.159250 0.053642 0.964264
O O8 0.592869 0.207216 0.304353
O O9 0.681400 0.151359 0.120731
O O10 0.417414 0.027061 0.870318
O O11 0.531904 0.261055 0.503082
O O12 0.685924 0.100907 0.505711
O O13 0.922783 0.079830 0.485801
O O14 0.619953 0.034729 0.773998
O O15 0.000000 0.000000 0.000000
O O16 0.218594 0.086417 0.569809
O O17 0.500000 0.000000 0.500000
#
# Coordination Sequence:
#
# PCOD8001602 Si02
#       8
#     2   2   2   2   2   2   2   2
#     4  10  22  36  56  81 115 143 179 229 282 318
#     4  11  19  35  61  82 108 147 185 226 268 331
#     4  11  18  36  58  84 106 145 193 222 264 325
#     4  11  22  36  54  84 115 146 178 227 283 320
#     4  10  20  33  58  81 110 142 187 231 260 328
#     4  10  20  36  59  83 104 143 193 226 259 326
#     4  11  18  34  58  85 101 140 195 228 264 310
#     4  10  20  35  58  78 108 143 184 227 267 328
#
# _framework density 17.278244000000001
#
# number of rings (size 3 to 8) (size 9 to 14) (size 15 to 20)
#    0.750    0.750    6.250    1.125    0.000    0.500 
#    0.000    1.250    2.750    0.000    0.000    0.000 
#    0.000    0.000    0.000    0.000    0.000    0.000 
#
# Total GULP energy -198304.740067 kJ/mol
# GULP energy per Si atom -12394.046254 kJ/mol
# Density = 1.723892 g / cm^3
# Si number density = 17.278244 Si / 1000 Ang^3
#
#
#
# Elastic Constant Matrix: (Units=GPa)
#
#
# Indices 1 2 3 4 5 6 
#
# 1 93.6166 21.7243 32.9795 3.8086 4.2429 2.4700
# 2 21.7243 66.7101 41.4832 4.2209 -0.0766 8.4835
# 3 32.9795 41.4832 99.1385 7.0164 6.1537 10.2857
# 4 3.8086 4.2209 7.0164 30.4907 4.3256 2.1382
# 5 4.2429 -0.0766 6.1537 4.3256 28.4839 -6.1324
# 6 2.4700 8.4835 10.2857 2.1382 -6.1324 27.1391
#
#
#
# Elastic Compliance Matrix: (Units=1/GPa)
#
#
# Indices 1 2 3 4 5 6 
#
# 1 0.012338 -0.002069 -0.003206 -0.000418 -0.000968 0.000553
# 2 -0.002069 0.020953 -0.007804 -0.000855 0.001537 -0.002989
# 3 -0.003206 -0.007804 0.015099 -0.001254 -0.003403 -0.003661
# 4 -0.000418 -0.000855 -0.001254 0.034267 -0.005556 -0.003175
# 5 -0.000968 0.001537 -0.003403 -0.005556 0.039021 0.010152
# 6 0.000553 -0.002989 -0.003661 -0.003175 0.010152 0.041663
#
#
# Mechanical properties :
#
#
# Convention : Reuss Voigt Hill
#
# Bulk Modulus (GPa) = 44.98222 50.20434 47.59328
# Shear Modulus (GPa) = 25.39248 28.10796 26.75022
#
# Velocity S-wave (km/s) = 3.83772 4.03772 3.93899
# Velocity P-wave (km/s) = 6.76225 7.13141 6.94928
#
# Compressibility (1/GPa) = 0.02223101
#
# Stress axis : x y z
#
# Youngs Moduli (GPa) = 81.05173 47.72640 66.23043
#
# Poissons Ratio (x) = 0.09875 0.21235
# Poissons Ratio (y) = 0.16770 0.51686
# Poissons Ratio (z) = 0.25987 0.37245
#
# Static dielectric constant tensor:
#      x y z
#    x 4.260320 -0.150190 -0.100070 
#    y -0.150190 3.189830 -0.200780 
#    z -0.100070 -0.200780 3.134240 
# 
# 
# High freq. dielectric constant tensor:
#      x y z
#    x 1.684540 0.002180 0.004840 
#    y 0.002180 1.647530 -0.022430 
#    z 0.004840 -0.022430 1.649000 
# 
# From -- ./inp_files/319040.got.cif
#   From: 2010.06.25/outbox.cif.g09.slc.cpg/sg2_160_cif.got.tgz:319040.got - 2010.06.27 13:26:56.
