data_PCOD8001822
_publ_section_title
;
Structure prediction by ZEFSAII (Michael W. Deem and Ramdas Pophale) SiO2 
 PCOD8001822
Probable space group: P -1
;
_chemical_formula_sum "Si O2"
_cell_formula_units_Z 16
_cell_length_a 9.027497
_cell_length_b 18.966155
_cell_length_c 6.018922
_cell_angle_alpha 99.176891
_cell_angle_beta 130.530979
_cell_angle_gamma 76.940950
_cell_volume 762.899332
_symmetry_space_group_name_H-M "P -1"
_symmetry_group_IT_number 2
_symmetry_cell_setting 'triclinic'
loop_
_space_group_symop_operation_xyz
x,y,z
-x,-y,-z
loop_
_atom_site_type_symbol
_atom_site_label
_atom_site_fract_x
_atom_site_fract_y
_atom_site_fract_z
Si Si1 0.704357 0.975702 0.308194
Si Si2 0.061330 0.767218 0.485291
Si Si3 0.174256 0.648308 0.847774
Si Si4 0.174987 0.283906 0.156053
Si Si5 0.647773 0.469801 0.318189
Si Si6 0.822510 0.855011 0.669800
Si Si7 0.466816 0.391879 0.485460
Si Si8 0.058476 0.903163 0.304437
O O1 0.669905 0.922501 0.454216
O O2 0.864806 0.938041 0.270190
O O3 0.777168 0.045798 0.519169
O O4 0.500000 0.000000 0.000000
O O5 0.217327 0.713237 0.758004
O O6 0.160190 0.826344 0.473736
O O7 0.900904 0.810243 0.510514
O O8 0.952273 0.718686 0.190272
O O9 0.164001 0.577024 0.647469
O O10 0.963702 0.671090 0.770745
O O11 0.351887 0.633532 0.186353
O O12 0.264479 0.201411 0.280829
O O13 0.356073 0.324688 0.300850
O O14 0.550148 0.414304 0.345809
O O15 0.688301 0.538975 0.536161
O O16 0.500000 0.500000 0.000000
O O17 0.994470 0.888010 0.983394
#
# Coordination Sequence:
#
# PCOD8001822 Si02
#       8
#     2   2   2   2   2   2   2   2
#     4  10  20  34  57  84 110 144 187 228 272 328
#     4   9  19  36  56  81 113 148 188 231 278 329
#     4  10  20  37  59  83 112 147 189 235 282 338
#     4  10  21  37  59  84 112 148 190 235 282 334
#     4   9  20  38  57  82 115 147 185 232 283 340
#     4   9  19  37  55  79 115 148 184 230 278 329
#     4  10  21  38  58  82 114 149 186 234 285 335
#     4   9  19  37  55  77 114 150 180 227 278 324
#
# _framework density 20.972622000000001
#
# number of rings (size 3 to 8) (size 9 to 14) (size 15 to 20)
#    0.000    2.500    0.000    1.125    0.000    6.000 
#    0.000   22.500    0.000    0.000    0.000    0.000 
#    0.000    0.000    0.000    0.000    0.000    0.000 
#
# Total GULP energy -198236.016085 kJ/mol
# GULP energy per Si atom -12389.751005 kJ/mol
# Density = 2.092489 g / cm^3
# Si number density = 20.972622 Si / 1000 Ang^3
#
#
#
# Elastic Constant Matrix: (Units=GPa)
#
#
# Indices 1 2 3 4 5 6 
#
# 1 37.8939 29.2483 39.4973 -1.8393 -5.7118 12.8531
# 2 29.2483 121.5984 66.3250 -16.1010 3.1878 31.7445
# 3 39.4973 66.3250 94.1283 -15.3494 -12.5104 21.0789
# 4 -1.8393 -16.1010 -15.3494 48.5426 4.1906 -5.1076
# 5 -5.7118 3.1878 -12.5104 4.1906 29.4508 2.3796
# 6 12.8531 31.7445 21.0789 -5.1076 2.3796 29.4506
#
#
#
# Elastic Compliance Matrix: (Units=1/GPa)
#
#
# Indices 1 2 3 4 5 6 
#
# 1 0.049852 0.000305 -0.019568 -0.005416 0.002841 -0.009249
# 2 0.000305 0.016638 -0.010010 0.001764 -0.005424 -0.010158
# 3 -0.019568 -0.010010 0.027799 0.003926 0.008585 -0.000580
# 4 -0.005416 0.001764 0.003926 0.022668 -0.002946 0.001821
# 5 0.002841 -0.005424 0.008585 -0.002946 0.039583 -0.005248
# 6 -0.009249 -0.010158 -0.000580 0.001821 -0.005248 0.050096
#
#
# Mechanical properties :
#
#
# Convention : Reuss Voigt Hill
#
# Bulk Modulus (GPa) = 27.97652 58.19574 43.08613
# Shear Modulus (GPa) = 18.04420 29.39212 23.71816
#
# Velocity S-wave (km/s) = 2.93639 3.74766 3.36655
# Velocity P-wave (km/s) = 4.98648 6.82168 5.97496
#
# Compressibility (1/GPa) = 0.03574426
#
# Stress axis : x y z
#
# Youngs Moduli (GPa) = 20.05922 60.10323 35.97230
#
# Poissons Ratio (x) = -0.01834 0.70390
# Poissons Ratio (y) = -0.00612 0.36008
# Poissons Ratio (z) = 0.39252 0.60163
#
# Static dielectric constant tensor:
#      x y z
#    x 3.545560 -0.093110 -0.512960 
#    y -0.093110 4.684340 -0.121280 
#    z -0.512960 -0.121280 3.729300 
# 
# 
# High freq. dielectric constant tensor:
#      x y z
#    x 1.785200 -0.002550 -0.042500 
#    y -0.002550 1.851880 -0.007510 
#    z -0.042500 -0.007510 1.814220 
# 
# From -- ./inp_files/10858.got.cif
#   From: 2010.06.25/outbox.cif.g09.slc.cpg/sg2_6_cif.got.tgz:10858.got - 2010.06.27 13:26:56.
