data_PCOD8001435
_publ_section_title
;
Structure prediction by ZEFSAII (Michael W. Deem and Ramdas Pophale) SiO2 
 PCOD8001435
Probable space group: P -1
;
_chemical_formula_sum "Si O2"
_cell_formula_units_Z 14
_cell_length_a 17.200091
_cell_length_b 11.649895
_cell_length_c 14.523831
_cell_angle_alpha 136.654410
_cell_angle_beta 42.390204
_cell_angle_gamma 159.154613
_cell_volume 689.832245
_symmetry_space_group_name_H-M "P -1"
_symmetry_group_IT_number 2
_symmetry_cell_setting 'triclinic'
loop_
_space_group_symop_operation_xyz
x,y,z
-x,-y,-z
loop_
_atom_site_type_symbol
_atom_site_label
_atom_site_fract_x
_atom_site_fract_y
_atom_site_fract_z
Si Si1 0.367712 0.299187 0.621211
Si Si2 0.461751 0.726990 0.687224
Si Si3 0.075827 0.616026 0.278649
Si Si4 0.186849 0.168274 0.362605
Si Si5 0.283773 0.619171 0.440739
Si Si6 0.932303 0.534093 0.161391
Si Si7 0.957891 0.621337 0.658142
O O1 0.301521 0.375801 0.659065
O O2 0.409016 0.176567 0.460158
O O3 0.600799 0.647334 0.664780
O O4 0.164690 0.009719 0.699126
O O5 0.323301 0.720419 0.777827
O O6 0.660790 0.016727 0.754321
O O7 0.075863 0.446180 0.241782
O O8 0.944295 0.593724 0.438265
O O9 0.957239 0.458828 0.190601
O O10 0.299777 0.451715 0.366471
O O11 0.000000 0.000000 0.500000
O O12 0.084820 0.889801 0.231144
O O13 0.254869 0.570532 0.326075
O O14 0.500000 0.000000 0.500000
O O15 0.000000 0.500000 0.000000
O O16 0.000000 0.500000 0.500000
#
# Coordination Sequence:
#
# PCOD8001435 Si02
#       7
#     2   2   2   2   2   2   2
#     4  11  19  35  60  99 124 154 203 268 321 368
#     4  11  21  37  66  88 127 161 207 263 315 371
#     4  11  22  40  58  93 128 162 210 252 319 382
#     4  12  20  37  64  94 123 160 215 266 311 365
#     4  11  21  34  63 102 131 159 199 266 329 374
#     4  12  27  42  62  93 130 173 215 260 313 372
#     4  10  20  32  54  93 133 155 194 255 329 374
#
# _framework density 20.294789000000002
#
# number of rings (size 3 to 8) (size 9 to 14) (size 15 to 20)
#    0.000    0.857    7.143    2.571    2.000    0.571 
#    0.000    0.000    0.000    6.857    0.000    0.000 
#    0.000    0.000    0.000    0.000    0.000    0.000 
#
# Total GULP energy -173445.743994 kJ/mol
# GULP energy per Si atom -12388.981714 kJ/mol
# Density = 2.024860 g / cm^3
# Si number density = 20.294789 Si / 1000 Ang^3
#
#
#
# Elastic Constant Matrix: (Units=GPa)
#
#
# Indices 1 2 3 4 5 6 
#
# 1 166.8737 56.6343 45.2308 -5.1527 11.6605 -7.5688
# 2 56.6343 124.3864 25.5115 8.8752 -3.0182 -1.9109
# 3 45.2308 25.5115 80.4394 5.6887 6.0141 -0.4027
# 4 -5.1527 8.8752 5.6887 14.4611 -1.3262 -1.3120
# 5 11.6605 -3.0182 6.0141 -1.3262 15.7189 -2.0579
# 6 -7.5688 -1.9109 -0.4027 -1.3120 -2.0579 48.0851
#
#
#
# Elastic Compliance Matrix: (Units=1/GPa)
#
#
# Indices 1 2 3 4 5 6 
#
# 1 0.008997 -0.003884 -0.003910 0.006759 -0.005197 0.001191
# 2 -0.003884 0.010639 -0.001041 -0.007090 0.004699 -0.000190
# 3 -0.003910 -0.001041 0.015786 -0.007421 -0.004083 -0.000902
# 4 0.006759 -0.007090 -0.007421 0.079433 0.003563 0.003040
# 5 -0.005197 0.004699 -0.004083 0.003563 0.070559 0.002451
# 6 0.001191 -0.000190 -0.000902 0.003040 0.002451 0.021157
#
#
# Mechanical properties :
#
#
# Convention : Reuss Voigt Hill
#
# Bulk Modulus (GPa) = 56.33669 69.60585 62.97127
# Shear Modulus (GPa) = 21.72425 31.94122 26.83274
#
# Velocity S-wave (km/s) = 3.27530 3.97150 3.64008
# Velocity P-wave (km/s) = 6.49022 7.44327 6.98302
#
# Compressibility (1/GPa) = 0.01775042
#
# Stress axis : x y z
#
# Youngs Moduli (GPa) = 111.15274 93.99814 63.34683
#
# Poissons Ratio (x) = 0.36512 0.24771
# Poissons Ratio (y) = 0.43176 0.06593
# Poissons Ratio (z) = 0.43464 0.09783
#
# Static dielectric constant tensor:
#      x y z
#    x 3.468270 0.046080 0.266240 
#    y 0.046080 3.987360 0.124090 
#    z 0.266240 0.124090 2.972760 
# 
# 
# High freq. dielectric constant tensor:
#      x y z
#    x 1.829210 0.003480 0.000060 
#    y 0.003480 1.803870 0.011740 
#    z 0.000060 0.011740 1.699460 
# 
# From -- ./inp_files/261899.got.cif
#   From: 2010.06.25/outbox.cif.g09.slc.cpg/sg2_131_cif.got.tgz:261899.got - 2010.06.27 13:26:56.
