data_PCOD8001733
_publ_section_title
;
Structure prediction by ZEFSAII (Michael W. Deem and Ramdas Pophale) SiO2 
 PCOD8001733
Probable space group: P -1
;
_chemical_formula_sum "Si O2"
_cell_formula_units_Z 16
_cell_length_a 7.273309
_cell_length_b 14.021601
_cell_length_c 22.182980
_cell_angle_alpha 159.930387
_cell_angle_beta 97.048179
_cell_angle_gamma 86.341560
_cell_volume 761.626000
_symmetry_space_group_name_H-M "P -1"
_symmetry_group_IT_number 2
_symmetry_cell_setting 'triclinic'
loop_
_space_group_symop_operation_xyz
x,y,z
-x,-y,-z
loop_
_atom_site_type_symbol
_atom_site_label
_atom_site_fract_x
_atom_site_fract_y
_atom_site_fract_z
Si Si1 0.855855 0.049292 0.941645
Si Si2 0.833763 0.783464 0.042270
Si Si3 0.806405 0.455929 0.634407
Si Si4 0.990749 0.931686 0.661851
Si Si5 0.514218 0.110413 0.238349
Si Si6 0.573841 0.687044 0.522954
Si Si7 0.925018 0.200137 0.703699
Si Si8 0.909911 0.646967 0.322624
O O1 0.052716 0.136618 0.967097
O O2 0.865607 0.795847 0.838234
O O3 0.698586 0.948693 0.826634
O O4 0.803591 0.328452 0.139597
O O5 0.628573 0.867014 0.077299
O O6 0.798329 0.446400 0.851346
O O7 0.945452 0.946736 0.198849
O O8 0.581191 0.373773 0.572486
O O9 0.904233 0.332057 0.506638
O O10 0.882340 0.337977 0.629252
O O11 0.766968 0.841125 0.595623
O O12 0.033968 0.171136 0.753841
O O13 0.615400 0.402974 0.388294
O O14 0.510296 0.119880 0.316263
O O15 0.077360 0.290365 0.710844
O O16 0.811474 0.890227 0.495966
#
# Coordination Sequence:
#
# PCOD8001733 Si02
#       8
#     2   2   2   2   2   2   2   2
#     4  10  20  35  59  86 113 142 178 225 277 333
#     4  11  20  35  57  83 114 147 180 222 279 327
#     4  10  20  35  59  86 113 142 178 225 277 333
#     4  11  20  35  57  83 114 147 180 222 279 327
#     4  10  20  34  54  86 118 140 173 224 279 336
#     4  10  20  34  54  86 118 140 173 224 279 336
#     4   9  21  38  56  77 107 149 196 231 256 313
#     4   9  19  40  60  76 107 153 190 224 270 315
#
# _framework density 21.007684999999999
#
# number of rings (size 3 to 8) (size 9 to 14) (size 15 to 20)
#    0.000    2.000    2.500    1.500    0.000    1.000 
#    0.000   13.125    0.000   13.500    0.000    0.000 
#    0.000    0.000    0.000    0.000    0.000    0.000 
#
# Total GULP energy -198307.142512 kJ/mol
# GULP energy per Si atom -12394.196407 kJ/mol
# Density = 2.095987 g / cm^3
# Si number density = 21.007685 Si / 1000 Ang^3
#
#
#
# Elastic Constant Matrix: (Units=GPa)
#
#
# Indices 1 2 3 4 5 6 
#
# 1 70.2402 11.2213 19.9699 11.0124 -5.7720 -3.8195
# 2 11.2213 60.8281 2.2727 8.9389 7.8550 -0.3764
# 3 19.9699 2.2727 128.2254 20.3117 -15.9490 1.8391
# 4 11.0124 8.9389 20.3117 28.2826 -6.4739 -4.0372
# 5 -5.7720 7.8550 -15.9490 -6.4739 24.3891 -0.7275
# 6 -3.8195 -0.3764 1.8391 -4.0372 -0.7275 14.8663
#
#
#
# Elastic Compliance Matrix: (Units=1/GPa)
#
#
# Indices 1 2 3 4 5 6 
#
# 1 0.016065 -0.002820 -0.001666 -0.002982 0.002937 0.003596
# 2 -0.002820 0.019173 0.000242 -0.007533 -0.008766 -0.002744
# 3 -0.001666 0.000242 0.009521 -0.005739 0.004142 -0.002955
# 4 -0.002982 -0.007533 -0.005739 0.047405 0.010943 0.013162
# 5 0.002937 -0.008766 0.004142 0.010943 0.050297 0.005453
# 6 0.003596 -0.002744 -0.002955 0.013162 0.005453 0.072328
#
#
# Mechanical properties :
#
#
# Convention : Reuss Voigt Hill
#
# Bulk Modulus (GPa) = 27.57074 36.24683 31.90879
# Shear Modulus (GPa) = 21.24341 28.56291 24.90316
#
# Velocity S-wave (km/s) = 3.18342 3.69133 3.44674
# Velocity P-wave (km/s) = 5.16380 5.95478 5.57334
#
# Compressibility (1/GPa) = 0.03627033
#
# Stress axis : x y z
#
# Youngs Moduli (GPa) = 62.24529 52.15650 105.03501
#
# Poissons Ratio (x) = 0.14709 0.17499
# Poissons Ratio (y) = 0.17554 -0.02539
# Poissons Ratio (z) = 0.10370 -0.01261
#
# Static dielectric constant tensor:
#      x y z
#    x 3.340140 -0.086180 -0.163990 
#    y -0.086180 3.731470 0.067690 
#    z -0.163990 0.067690 4.231560 
# 
# 
# High freq. dielectric constant tensor:
#      x y z
#    x 1.778290 -0.009320 -0.011870 
#    y -0.009320 1.824840 -0.000850 
#    z -0.011870 -0.000850 1.839810 
# 
# From -- ./inp_files/71647.got.cif
#   From: 2010.06.25/outbox.cif.g09.slc.cpg/sg2_36_cif.got.tgz:71647.got - 2010.06.27 13:26:56.
