data_PCOD8001690
_publ_section_title
;
Structure prediction by ZEFSAII (Michael W. Deem and Ramdas Pophale) SiO2 
 PCOD8001690
Probable space group: P -1
;
_chemical_formula_sum "Si O2"
_cell_formula_units_Z 16
_cell_length_a 9.566864
_cell_length_b 10.098452
_cell_length_c 14.400908
_cell_angle_alpha 83.869388
_cell_angle_beta 103.156549
_cell_angle_gamma 40.557158
_cell_volume 790.240760
_symmetry_space_group_name_H-M "P -1"
_symmetry_group_IT_number 2
_symmetry_cell_setting 'triclinic'
loop_
_space_group_symop_operation_xyz
x,y,z
-x,-y,-z
loop_
_atom_site_type_symbol
_atom_site_label
_atom_site_fract_x
_atom_site_fract_y
_atom_site_fract_z
Si Si1 0.797470 0.000712 0.814721
Si Si2 0.437611 0.744421 0.716312
Si Si3 0.912472 0.168540 0.551375
Si Si4 0.740079 0.009071 0.011521
Si Si5 0.538735 0.414163 0.638443
Si Si6 0.241979 0.296432 0.955302
Si Si7 0.282857 0.227264 0.172577
Si Si8 0.693812 0.282249 0.112348
O O1 0.860172 0.962358 0.936474
O O2 0.606652 0.260747 0.741010
O O3 0.656908 0.968000 0.769785
O O4 0.064268 0.812795 0.819919
O O5 0.525860 0.577626 0.660793
O O6 0.623205 0.729931 0.746773
O O7 0.442187 0.654671 0.818067
O O8 0.173025 0.017394 0.644348
O O9 0.743026 0.237369 0.603121
O O10 0.736095 0.411137 0.456573
O O11 0.000000 0.000000 0.500000
O O12 0.450079 0.206694 0.930279
O O13 0.799506 0.071499 0.094028
O O14 0.842406 0.789569 0.079304
O O15 0.010382 0.563743 0.894647
O O16 0.372894 0.192823 0.084823
O O17 0.500000 0.500000 0.000000
#
# Coordination Sequence:
#
# PCOD8001690 Si02
#       8
#     2   2   2   2   2   2   2   2
#     4  11  23  37  56  89 124 158 200 253 303 342
#     4  11  22  38  64  91 118 161 204 241 296 366
#     4   9  20  42  68  89 115 148 200 253 306 361
#     4  10  20  34  53  80 119 165 210 241 283 341
#     4  10  21  40  66  93 113 150 202 256 303 357
#     4   9  19  35  53  75 117 173 206 237 274 350
#     4  10  21  36  55  81 124 163 200 237 296 351
#     4  12  23  34  54  87 127 162 204 251 290 344
#
# _framework density 20.246994000000001
#
# number of rings (size 3 to 8) (size 9 to 14) (size 15 to 20)
#    0.000    1.750    2.500    1.875    5.250    0.000 
#    0.000    0.625    0.000    6.750    0.000    0.000 
#    0.000    0.000    0.000    0.000    0.000    0.000 
#
# Total GULP energy -198217.068162 kJ/mol
# GULP energy per Si atom -12388.566760 kJ/mol
# Density = 2.020091 g / cm^3
# Si number density = 20.246994 Si / 1000 Ang^3
#
#
#
# Elastic Constant Matrix: (Units=GPa)
#
#
# Indices 1 2 3 4 5 6 
#
# 1 78.3268 31.5917 27.9428 -4.1435 4.1872 7.5255
# 2 31.5917 89.9281 25.2333 1.9386 1.9456 0.1625
# 3 27.9428 25.2333 64.8385 -9.2637 9.6957 4.0876
# 4 -4.1435 1.9386 -9.2637 40.1261 -8.4889 1.6859
# 5 4.1872 1.9456 9.6957 -8.4889 16.9502 3.7484
# 6 7.5255 0.1625 4.0876 1.6859 3.7484 30.2534
#
#
#
# Elastic Compliance Matrix: (Units=1/GPa)
#
#
# Indices 1 2 3 4 5 6 
#
# 1 0.016796 -0.004464 -0.005226 0.001035 0.000665 -0.003588
# 2 -0.004464 0.013815 -0.003900 -0.002017 0.000377 0.001629
# 3 -0.005226 -0.003900 0.020919 0.002645 -0.008778 -0.000565
# 4 0.001035 -0.002017 0.002645 0.028811 0.013758 -0.003914
# 5 0.000665 0.000377 -0.008778 0.013758 0.072634 -0.008747
# 6 -0.003588 0.001629 -0.000565 -0.003914 -0.008747 0.035316
#
#
# Mechanical properties :
#
#
# Convention : Reuss Voigt Hill
#
# Bulk Modulus (GPa) = 41.06905 44.73656 42.90280
# Shear Modulus (GPa) = 22.36246 27.35431 24.85839
#
# Velocity S-wave (km/s) = 3.32698 3.67962 3.50774
# Velocity P-wave (km/s) = 5.92338 6.34005 6.13525
#
# Compressibility (1/GPa) = 0.02434924
#
# Stress axis : x y z
#
# Youngs Moduli (GPa) = 59.53804 72.38562 47.80307
#
# Poissons Ratio (x) = 0.32314 0.24984
# Poissons Ratio (y) = 0.26578 0.18642
# Poissons Ratio (z) = 0.31117 0.28229
#
# Static dielectric constant tensor:
#      x y z
#    x 3.555130 -0.096560 0.063680 
#    y -0.096560 3.910310 -0.079110 
#    z 0.063680 -0.079110 3.726700 
# 
# 
# High freq. dielectric constant tensor:
#      x y z
#    x 1.774480 -0.012790 0.001340 
#    y -0.012790 1.804610 -0.002280 
#    z 0.001340 -0.002280 1.765780 
# 
# From -- ./inp_files/492781.got.cif
#   From: 2010.06.25/outbox.cif.g09.slc.cpg/sg2_247_cif.got.tgz:492781.got - 2010.06.27 13:26:56.
