data_PCOD8001404
_publ_section_title
;
Structure prediction by ZEFSAII (Michael W. Deem and Ramdas Pophale) SiO2 
 PCOD8001404
Probable space group: P -1
;
_chemical_formula_sum "Si O2"
_cell_formula_units_Z 16
_cell_length_a 20.433148
_cell_length_b 8.183886
_cell_length_c 17.457470
_cell_angle_alpha 114.073402
_cell_angle_beta 19.392843
_cell_angle_gamma 116.020593
_cell_volume 870.903543
_symmetry_space_group_name_H-M "P -1"
_symmetry_group_IT_number 2
_symmetry_cell_setting 'triclinic'
loop_
_space_group_symop_operation_xyz
x,y,z
-x,-y,-z
loop_
_atom_site_type_symbol
_atom_site_label
_atom_site_fract_x
_atom_site_fract_y
_atom_site_fract_z
Si Si1 0.178109 0.417800 0.951774
Si Si2 0.946520 0.711635 0.210886
Si Si3 0.768367 0.187883 0.421987
Si Si4 0.453105 0.519766 0.330822
Si Si5 0.858857 0.860195 0.182325
Si Si6 0.804044 0.028255 0.506829
Si Si7 0.181639 0.956753 0.339006
Si Si8 0.501076 0.786353 0.882783
O O1 0.347194 0.457029 0.835939
O O2 0.257718 0.304456 0.772506
O O3 0.127036 0.609726 0.016179
O O4 0.979774 0.296657 0.181400
O O5 0.731865 0.581425 0.434171
O O6 0.979340 0.767581 0.096176
O O7 0.953433 0.893472 0.288652
O O8 0.587573 0.284236 0.613375
O O9 0.716945 0.980781 0.405817
O O10 0.784571 0.181093 0.494998
O O11 0.490042 0.418515 0.191315
O O12 0.000000 0.000000 0.000000
O O13 0.579360 0.913246 0.746993
O O14 0.888219 0.117189 0.512459
O O15 0.346041 0.144325 0.202254
O O16 0.277478 0.805527 0.158163
O O17 0.000000 0.000000 0.500000
#
# Coordination Sequence:
#
# PCOD8001404 Si02
#       8
#     2   2   2   2   2   2   2   2
#     4  10  20  32  52  76  99 138 176 203 252 297
#     4   9  18  34  53  73 102 133 169 215 247 290
#     4   9  19  36  49  71 108 134 168 209 252 293
#     4  10  20  33  52  75 102 137 166 208 248 302
#     4   9  18  35  53  72 105 137 168 214 253 286
#     4   8  16  34  51  74 100 132 164 210 253 292
#     4   9  17  31  56  78  96 128 164 209 250 298
#     4   8  18  33  49  77 100 123 168 206 249 295
#
# _framework density 18.371724
#
# number of rings (size 3 to 8) (size 9 to 14) (size 15 to 20)
#    0.750    2.250    0.000    0.375    1.750    1.000 
#    2.250    8.125    0.000    1.500    0.000    0.000 
#    0.000    0.000    0.000    0.000    0.000    0.000 
#
# Total GULP energy -198222.543660 kJ/mol
# GULP energy per Si atom -12388.908979 kJ/mol
# Density = 1.832991 g / cm^3
# Si number density = 18.371724 Si / 1000 Ang^3
#
#
#
# Elastic Constant Matrix: (Units=GPa)
#
#
# Indices 1 2 3 4 5 6 
#
# 1 118.7216 52.9391 51.7711 23.8214 -0.6400 -12.4224
# 2 52.9391 80.1267 36.3246 28.4173 -6.4755 -13.8753
# 3 51.7711 36.3246 67.5871 24.8298 -9.7563 -1.7599
# 4 23.8214 28.4173 24.8298 22.9551 -3.3097 0.5694
# 5 -0.6400 -6.4755 -9.7563 -3.3097 34.5408 0.5279
# 6 -12.4224 -13.8753 -1.7599 0.5694 0.5279 31.2113
#
#
#
# Elastic Compliance Matrix: (Units=1/GPa)
#
#
# Indices 1 2 3 4 5 6 
#
# 1 0.015191 -0.006023 -0.009219 0.001102 -0.003390 0.002886
# 2 -0.006023 0.028999 0.000889 -0.030527 0.002482 0.011060
# 3 -0.009219 0.000889 0.031233 -0.024352 0.006503 -0.001178
# 4 0.001102 -0.030527 -0.024352 0.106654 -0.002111 -0.016416
# 5 -0.003390 0.002482 0.006503 -0.002111 0.030994 -0.000365
# 6 0.002886 0.011060 -0.001178 -0.016416 -0.000365 0.038344
#
#
# Mechanical properties :
#
#
# Convention : Reuss Voigt Hill
#
# Bulk Modulus (GPa) = 21.40454 60.94498 41.17476
# Shear Modulus (GPa) = 16.90948 26.10148 21.50548
#
# Velocity S-wave (km/s) = 3.03711 3.77336 3.42508
# Velocity P-wave (km/s) = 4.89641 7.22701 6.17270
#
# Compressibility (1/GPa) = 0.04671906
#
# Stress axis : x y z
#
# Youngs Moduli (GPa) = 65.82803 34.48445 32.01702
#
# Poissons Ratio (x) = 0.20769 0.29515
# Poissons Ratio (y) = 0.39646 -0.02847
# Poissons Ratio (z) = 0.60684 -0.03066
#
# Static dielectric constant tensor:
#      x y z
#    x 3.383240 0.060450 0.297500 
#    y 0.060450 3.426160 0.307690 
#    z 0.297500 0.307690 3.228020 
# 
# 
# High freq. dielectric constant tensor:
#      x y z
#    x 1.710330 -0.000380 0.019160 
#    y -0.000380 1.698790 0.024020 
#    z 0.019160 0.024020 1.691570 
# 
# From -- ./inp_files/318932.got.cif
#   From: 2010.06.25/outbox.cif.g09.slc.cpg/sg2_160_cif.got.tgz:318932.got - 2010.06.27 13:26:56.
