data_PCOD8001901
_publ_section_title
;
Structure prediction by ZEFSAII (Michael W. Deem and Ramdas Pophale) SiO2 
 PCOD8001901
Probable space group: P -1
;
_chemical_formula_sum "Si O2"
_cell_formula_units_Z 16
_cell_length_a 5.599633
_cell_length_b 25.793790
_cell_length_c 5.557542
_cell_angle_alpha 49.100451
_cell_angle_beta 72.968688
_cell_angle_gamma 72.396199
_cell_volume 573.283683
_symmetry_space_group_name_H-M "P -1"
_symmetry_group_IT_number 2
_symmetry_cell_setting 'triclinic'
loop_
_space_group_symop_operation_xyz
x,y,z
-x,-y,-z
loop_
_atom_site_type_symbol
_atom_site_label
_atom_site_fract_x
_atom_site_fract_y
_atom_site_fract_z
Si Si1 0.472273 0.281449 0.715308
Si Si2 0.941925 0.778604 0.691930
Si Si3 0.211064 0.048078 0.313534
Si Si4 0.102873 0.342405 0.222185
Si Si5 0.199051 0.834058 0.851129
Si Si6 0.784274 0.462060 0.783345
Si Si7 0.614340 0.920340 0.328050
Si Si8 0.516227 0.401301 0.628187
O O1 0.295187 0.315859 0.454429
O O2 0.628780 0.340639 0.591784
O O3 0.670871 0.209732 0.822164
O O4 0.305570 0.250792 0.057825
O O5 0.164323 0.776820 0.828906
O O6 0.034708 0.723387 0.618466
O O7 0.852509 0.859261 0.403969
O O8 0.360505 0.036687 0.559279
O O9 0.077600 0.128479 0.103804
O O10 0.385655 0.034350 0.060041
O O11 0.000000 0.000000 0.500000
O O12 0.258098 0.374948 0.869503
O O13 0.887008 0.411034 0.134454
O O14 0.352419 0.891181 0.521260
O O15 0.704986 0.408598 0.768713
O O16 0.550818 0.523914 0.719000
O O17 0.000000 0.500000 0.500000
#
# Coordination Sequence:
#
# PCOD8001901 Si02
#       8
#     2   2   2   2   2   2   2   2
#     4  10  21  38  58  93 124 163 223 274 332 412
#     4   9  21  39  59  90 129 169 214 273 333 404
#     4  11  25  47  71 104 143 183 234 286 341 415
#     4  10  20  34  59  86 119 163 216 272 329 402
#     4  10  23  43  67  98 136 185 216 288 351 398
#     4   9  18  35  56  79 116 168 207 268 337 396
#     4  10  24  43  70 103 140 179 237 284 340 421
#     4   9  19  37  55  81 123 160 215 269 330 405
#
# _framework density 27.909395
#
# number of rings (size 3 to 8) (size 9 to 14) (size 15 to 20)
#    0.000    2.250    0.000    1.125    5.250    4.500 
#    9.000    5.625    0.000    0.000    0.000    0.000 
#    0.000    0.000    0.000    0.000    0.000    0.000 
#
# Total GULP energy -198224.413869 kJ/mol
# GULP energy per Si atom -12389.025867 kJ/mol
# Density = 2.784587 g / cm^3
# Si number density = 27.909395 Si / 1000 Ang^3
#
#
#
# Elastic Constant Matrix: (Units=GPa)
#
#
# Indices 1 2 3 4 5 6 
#
# 1 98.5316 40.2081 48.6137 -15.8525 22.1825 30.3139
# 2 40.2081 156.8053 50.0722 -12.5211 27.0708 18.5100
# 3 48.6137 50.0722 162.2428 -3.4246 30.3245 4.4695
# 4 -15.8525 -12.5211 -3.4246 20.3492 -0.3440 0.0255
# 5 22.1825 27.0708 30.3245 -0.3440 65.1547 -17.2559
# 6 30.3139 18.5100 4.4695 0.0255 -17.2559 61.6001
#
#
#
# Elastic Compliance Matrix: (Units=1/GPa)
#
#
# Indices 1 2 3 4 5 6 
#
# 1 0.019781 0.000094 -0.003822 0.014703 -0.008026 -0.011740
# 2 0.000094 0.008310 -0.001732 0.004839 -0.003558 -0.003416
# 3 -0.003822 -0.001732 0.007995 -0.002722 -0.001331 0.001449
# 4 0.014703 0.004839 -0.002722 0.062989 -0.008288 -0.010840
# 5 -0.008026 -0.003558 -0.001331 -0.008288 0.023212 0.011621
# 6 -0.011740 -0.003416 0.001449 -0.010840 0.011621 0.026192
#
#
# Mechanical properties :
#
#
# Convention : Reuss Voigt Hill
#
# Bulk Modulus (GPa) = 39.73639 77.26309 58.49974
# Shear Modulus (GPa) = 29.79959 47.99985 38.89972
#
# Velocity S-wave (km/s) = 3.27115 4.15160 3.73739
# Velocity P-wave (km/s) = 5.34189 7.12213 6.29526
#
# Compressibility (1/GPa) = 0.02516585
#
# Stress axis : x y z
#
# Youngs Moduli (GPa) = 50.55423 120.33459 125.08525
#
# Poissons Ratio (x) = -0.01129 0.47808
# Poissons Ratio (y) = -0.00474 0.21659
# Poissons Ratio (z) = 0.19322 0.20836
#
# Static dielectric constant tensor:
#      x y z
#    x 5.079550 -0.422560 0.223840 
#    y -0.422560 5.861850 -0.644960 
#    z 0.223840 -0.644960 5.205520 
# 
# 
# High freq. dielectric constant tensor:
#      x y z
#    x 2.138730 -0.018320 0.000730 
#    y -0.018320 2.135780 -0.033700 
#    z 0.000730 -0.033700 2.143900 
# 
# From -- ./inp_files/10689.got.cif
#   From: 2010.06.25/outbox.cif.g09.slc.cpg/sg2_6_cif.got.tgz:10689.got - 2010.06.27 13:26:56.
