data_PCOD8001364
_publ_section_title
;
Structure prediction by ZEFSAII (Michael W. Deem and Ramdas Pophale) SiO2 
 PCOD8001364
Probable space group: P -1
;
_chemical_formula_sum "Si O2"
_cell_formula_units_Z 12
_cell_length_a 14.360262
_cell_length_b 5.236374
_cell_length_c 29.502531
_cell_angle_alpha 129.657278
_cell_angle_beta 20.832980
_cell_angle_gamma 131.526838
_cell_volume 589.232216
_symmetry_space_group_name_H-M "P -1"
_symmetry_group_IT_number 2
_symmetry_cell_setting 'triclinic'
loop_
_space_group_symop_operation_xyz
x,y,z
-x,-y,-z
loop_
_atom_site_type_symbol
_atom_site_label
_atom_site_fract_x
_atom_site_fract_y
_atom_site_fract_z
Si Si1 0.961939 0.600319 0.977621
Si Si2 0.737182 0.756331 0.887098
Si Si3 0.481306 0.617516 0.587581
Si Si4 0.553212 0.835020 0.883193
Si Si5 0.920614 0.770803 0.338836
Si Si6 0.246950 0.253016 0.738134
O O1 0.188465 0.481927 0.832027
O O2 0.657589 0.423175 0.080846
O O3 0.000000 0.500000 0.000000
O O4 0.000000 0.000000 0.000000
O O5 0.562662 0.689545 0.913035
O O6 0.907550 0.483468 0.785567
O O7 0.968972 0.116838 0.821017
O O8 0.545895 0.804601 0.023097
O O9 0.797222 0.713778 0.439205
O O10 0.330088 0.285668 0.588550
O O11 0.464135 0.498086 0.633961
O O12 0.365541 0.949577 0.670113
O O13 0.849739 0.874184 0.729667
#
# Coordination Sequence:
#
# PCOD8001364 Si02
#       6
#     2   2   2   2   2   2
#     4  11  25  42  63  84 109 152 199 244 286 332
#     4   9  19  32  56  88 117 149 180 235 300 338
#     4  10  21  33  58  88 124 155 179 226 282 355
#     4  10  20  35  57  84 119 147 188 242 287 341
#     4  10  20  31  55  87 126 150 187 218 290 356
#     4  10  20  39  58  85 119 149 190 234 287 340
#
# _framework density 20.365487000000002
#
# number of rings (size 3 to 8) (size 9 to 14) (size 15 to 20)
#    0.000    2.000    1.667    1.500    4.667    2.000 
#    0.000    0.000    0.000    6.000    0.000    0.000 
#    0.000    0.000    0.000    0.000    0.000    0.000 
#
# Total GULP energy -148694.940825 kJ/mol
# GULP energy per Si atom -12391.245069 kJ/mol
# Density = 2.031913 g / cm^3
# Si number density = 20.365487 Si / 1000 Ang^3
#
#
#
# Elastic Constant Matrix: (Units=GPa)
#
#
# Indices 1 2 3 4 5 6 
#
# 1 97.8725 43.6107 19.4644 -16.4198 19.2832 0.9774
# 2 43.6107 82.7154 42.7786 -4.7601 6.9374 8.3365
# 3 19.4644 42.7786 121.1546 -33.9646 25.6420 2.2612
# 4 -16.4198 -4.7601 -33.9646 28.9589 -7.9066 -2.8366
# 5 19.2832 6.9374 25.6420 -7.9066 36.7405 -4.0919
# 6 0.9774 8.3365 2.2612 -2.8366 -4.0919 29.6271
#
#
#
# Elastic Compliance Matrix: (Units=1/GPa)
#
#
# Indices 1 2 3 4 5 6 
#
# 1 0.018414 -0.012147 0.007362 0.014846 -0.009045 0.002421
# 2 -0.012147 0.024005 -0.012286 -0.016245 0.006241 -0.006110
# 3 0.007362 -0.012286 0.019997 0.023048 -0.010264 0.002477
# 4 0.014846 -0.016245 0.023048 0.066557 -0.005605 0.007921
# 5 -0.009045 0.006241 -0.010264 -0.005605 0.037181 0.003924
# 6 0.002421 -0.006110 0.002477 0.007921 0.003924 0.036503
#
#
# Mechanical properties :
#
#
# Convention : Reuss Voigt Hill
#
# Bulk Modulus (GPa) = 35.36771 57.04999 46.20885
# Shear Modulus (GPa) = 20.30666 32.12456 26.21561
#
# Velocity S-wave (km/s) = 3.16113 3.97596 3.59173
# Velocity P-wave (km/s) = 5.54327 7.01082 6.31979
#
# Compressibility (1/GPa) = 0.02827437
#
# Stress axis : x y z
#
# Youngs Moduli (GPa) = 54.30510 41.65721 50.00851
#
# Poissons Ratio (x) = 0.50602 -0.36815
# Poissons Ratio (y) = 0.65965 0.61439
# Poissons Ratio (z) = -0.39978 0.51178
#
# Static dielectric constant tensor:
#      x y z
#    x 3.363870 -0.022850 -0.029670 
#    y -0.022850 3.765330 -0.354480 
#    z -0.029670 -0.354480 4.293470 
# 
# 
# High freq. dielectric constant tensor:
#      x y z
#    x 1.766560 -0.024150 0.003590 
#    y -0.024150 1.778280 -0.012810 
#    z 0.003590 -0.012810 1.817310 
# 
# From -- ./inp_files/22166.got.cif
#   From: 2010.06.25/outbox.cif.g09.slc.cpg/sg2_12_cif.got.tgz:22166.got - 2010.06.27 13:26:56.
