data_PCOD8001670
_publ_section_title
;
Structure prediction by ZEFSAII (Michael W. Deem and Ramdas Pophale) SiO2 
 PCOD8001670
Probable space group: P -1
;
_chemical_formula_sum "Si O2"
_cell_formula_units_Z 12
_cell_length_a 11.029287
_cell_length_b 14.869531
_cell_length_c 14.817748
_cell_angle_alpha 19.375528
_cell_angle_beta 122.373402
_cell_angle_gamma 129.361583
_cell_volume 604.322443
_symmetry_space_group_name_H-M "P -1"
_symmetry_group_IT_number 2
_symmetry_cell_setting 'triclinic'
loop_
_space_group_symop_operation_xyz
x,y,z
-x,-y,-z
loop_
_atom_site_type_symbol
_atom_site_label
_atom_site_fract_x
_atom_site_fract_y
_atom_site_fract_z
Si Si1 0.742005 0.583197 0.970392
Si Si2 0.912465 0.189599 0.363863
Si Si3 0.550568 0.053537 0.715979
Si Si4 0.209128 0.789519 0.888034
Si Si5 0.530746 0.806229 0.269843
Si Si6 0.598520 0.570914 0.107628
O O1 0.570107 0.494706 0.942363
O O2 0.883062 0.890191 0.691646
O O3 0.788986 0.311199 0.235124
O O4 0.733853 0.639499 0.020680
O O5 0.095999 0.453753 0.200468
O O6 0.885574 0.111966 0.318520
O O7 0.592647 0.238417 0.653179
O O8 0.577857 0.281119 0.429820
O O9 0.362661 0.789205 0.897573
O O10 0.653485 0.870112 0.910866
O O11 0.283544 0.030329 0.772674
O O12 0.500000 0.500000 0.500000
O O13 0.500000 0.000000 0.000000
#
# Coordination Sequence:
#
# PCOD8001670 Si02
#       6
#     2   2   2   2   2   2
#     4  11  20  31  51  73 108 145 179 198 253 304
#     4  11  21  35  50  81 110 147 159 209 259 331
#     4  10  20  34  52  76 107 130 172 216 268 294
#     4   9  22  34  55  77 115 133 172 206 274 312
#     4  10  20  34  55  79 103 132 174 219 260 301
#     4  11  19  33  49  76 107 141 174 217 242 310
#
# _framework density 19.856950000000001
#
# number of rings (size 3 to 8) (size 9 to 14) (size 15 to 20)
#    1.000    0.667    3.333    2.000    0.000    9.333 
#    0.000    0.000    0.000    0.000    0.000   23.333 
#    0.000    0.000    0.000    0.000    0.000    0.000 
#
# Total GULP energy -148692.567735 kJ/mol
# GULP energy per Si atom -12391.047311 kJ/mol
# Density = 1.981175 g / cm^3
# Si number density = 19.856950 Si / 1000 Ang^3
#
#
#
# Elastic Constant Matrix: (Units=GPa)
#
#
# Indices 1 2 3 4 5 6 
#
# 1 59.7236 35.0120 37.7509 -1.6435 -11.1497 -28.4951
# 2 35.0120 111.5379 29.0455 -14.3408 -4.6571 -20.8477
# 3 37.7509 29.0455 82.2316 -1.1401 -1.6195 -12.1966
# 4 -1.6435 -14.3408 -1.1401 32.4334 -9.0503 1.7845
# 5 -11.1497 -4.6571 -1.6195 -9.0503 27.7622 0.0594
# 6 -28.4951 -20.8477 -12.1966 1.7845 0.0594 30.1104
#
#
#
# Elastic Compliance Matrix: (Units=1/GPa)
#
#
# Indices 1 2 3 4 5 6 
#
# 1 0.052134 -0.003171 -0.016382 0.004240 0.020746 0.040214
# 2 -0.003171 0.012104 -0.002070 0.005569 0.002442 0.004206
# 3 -0.016382 -0.002070 0.018896 -0.002419 -0.006593 -0.009126
# 4 0.004240 0.005569 -0.002419 0.037251 0.014629 0.004652
# 5 0.020746 0.002442 -0.006593 0.014629 0.049109 0.017690
# 6 0.040214 0.004206 -0.009126 0.004652 0.017690 0.070173
#
#
# Mechanical properties :
#
#
# Convention : Reuss Voigt Hill
#
# Bulk Modulus (GPa) = 25.07061 50.78996 37.93029
# Shear Modulus (GPa) = 16.88000 28.17352 22.52676
#
# Velocity S-wave (km/s) = 2.91878 3.77081 3.37182
# Velocity P-wave (km/s) = 4.90021 6.67774 5.85680
#
# Compressibility (1/GPa) = 0.03988733
#
# Stress axis : x y z
#
# Youngs Moduli (GPa) = 19.18130 82.61517 52.92234
#
# Poissons Ratio (x) = 0.26199 0.86696
# Poissons Ratio (y) = 0.06083 0.10957
# Poissons Ratio (z) = 0.31422 0.17105
#
# Static dielectric constant tensor:
#      x y z
#    x 3.643190 -0.414210 -0.053340 
#    y -0.414210 3.554500 0.018500 
#    z -0.053340 0.018500 3.495800 
# 
# 
# High freq. dielectric constant tensor:
#      x y z
#    x 1.764380 -0.036790 0.006180 
#    y -0.036790 1.742810 0.004250 
#    z 0.006180 0.004250 1.780780 
# 
# From -- ./inp_files/362939.got.cif
#   From: 2010.06.25/outbox.cif.g09.slc.cpg/sg2_182_cif.got.tgz:362939.got - 2010.06.27 13:26:56.
