data_PCOD8001626
_publ_section_title
;
Structure prediction by ZEFSAII (Michael W. Deem and Ramdas Pophale) SiO2 
 PCOD8001626
Probable space group: P -1
;
_chemical_formula_sum "Si O2"
_cell_formula_units_Z 16
_cell_length_a 11.963515
_cell_length_b 14.469123
_cell_length_c 8.790819
_cell_angle_alpha 41.375837
_cell_angle_beta 79.615592
_cell_angle_gamma 59.806240
_cell_volume 815.980513
_symmetry_space_group_name_H-M "P -1"
_symmetry_group_IT_number 2
_symmetry_cell_setting 'triclinic'
loop_
_space_group_symop_operation_xyz
x,y,z
-x,-y,-z
loop_
_atom_site_type_symbol
_atom_site_label
_atom_site_fract_x
_atom_site_fract_y
_atom_site_fract_z
Si Si1 0.917610 0.376898 0.911903
Si Si2 0.329006 0.015782 0.904689
Si Si3 0.848855 0.430548 0.518618
Si Si4 0.192273 0.120713 0.294522
Si Si5 0.140948 0.877937 0.705892
Si Si6 0.361802 0.182692 0.981197
Si Si7 0.847076 0.120341 0.945513
Si Si8 0.109957 0.303309 0.400289
O O1 0.892117 0.441622 0.665015
O O2 0.890594 0.529453 0.836006
O O3 0.821136 0.314215 0.072848
O O4 0.077123 0.216189 0.072211
O O5 0.337878 0.085277 0.977334
O O6 0.250400 0.169848 0.617088
O O7 0.480559 0.880183 0.968338
O O8 0.252415 0.921121 0.060840
O O9 0.728740 0.615976 0.264354
O O10 0.789736 0.314040 0.680298
O O11 0.978035 0.349099 0.474267
O O12 0.109976 0.226233 0.334795
O O13 0.242294 0.922846 0.546394
O O14 0.320763 0.130888 0.211453
O O15 0.140636 0.920901 0.828723
O O16 0.000000 0.000000 0.500000
O O17 0.000000 0.000000 0.000000
#
# Coordination Sequence:
#
# PCOD8001626 Si02
#       8
#     2   2   2   2   2   2   2   2
#     4  10  20  33  59  87 119 151 195 250 289 341
#     4  11  24  42  60  87 120 159 208 238 296 356
#     4  11  21  37  63  88 118 155 200 245 298 342
#     4  11  21  36  58  87 122 151 194 249 304 344
#     4   9  20  34  53  88 121 149 186 242 302 347
#     4  11  25  41  60  86 121 166 196 243 297 361
#     4  11  21  37  62  90 117 152 198 252 291 345
#     4  12  20  36  60  92 117 149 202 253 287 352
#
# _framework density 19.608311
#
# number of rings (size 3 to 8) (size 9 to 14) (size 15 to 20)
#    0.000    1.250    5.000    1.500    3.500    1.000 
#    0.000    0.000    0.000    0.750    0.000    0.000 
#    0.000    0.000    0.000    0.000    0.000    0.000 
#
# Total GULP energy -198295.556200 kJ/mol
# GULP energy per Si atom -12393.472263 kJ/mol
# Density = 1.956368 g / cm^3
# Si number density = 19.608311 Si / 1000 Ang^3
#
#
#
# Elastic Constant Matrix: (Units=GPa)
#
#
# Indices 1 2 3 4 5 6 
#
# 1 120.5581 37.0727 52.2776 -12.5183 -19.5407 -10.2009
# 2 37.0727 45.0100 31.7976 -6.8458 -7.6863 -11.9002
# 3 52.2776 31.7976 114.1996 -7.3769 -28.0451 -16.7797
# 4 -12.5183 -6.8458 -7.3769 18.1927 4.4382 -1.2752
# 5 -19.5407 -7.6863 -28.0451 4.4382 40.4935 -6.2125
# 6 -10.2009 -11.9002 -16.7797 -1.2752 -6.2125 29.5286
#
#
#
# Elastic Compliance Matrix: (Units=1/GPa)
#
#
# Indices 1 2 3 4 5 6 
#
# 1 0.012607 -0.007185 -0.002834 0.004281 0.002370 0.000533
# 2 -0.007185 0.034962 -0.004381 0.006900 0.000850 0.009595
# 3 -0.002834 -0.004381 0.014630 0.000661 0.009011 0.007493
# 4 0.004281 0.006900 0.000661 0.061718 -0.001871 0.006907
# 5 0.002370 0.000850 0.009011 -0.001871 0.034511 0.013462
# 6 0.000533 0.009595 0.007493 0.006907 0.013462 0.045305
#
#
# Mechanical properties :
#
#
# Convention : Reuss Voigt Hill
#
# Bulk Modulus (GPa) = 29.94096 58.00704 43.97400
# Shear Modulus (GPa) = 20.51985 28.21761 24.36873
#
# Velocity S-wave (km/s) = 3.23846 3.79761 3.52913
# Velocity P-wave (km/s) = 5.41167 6.99116 6.25150
#
# Compressibility (1/GPa) = 0.03339906
#
# Stress axis : x y z
#
# Youngs Moduli (GPa) = 79.32304 28.60247 68.35139
#
# Poissons Ratio (x) = 0.20551 0.19368
# Poissons Ratio (y) = 0.56994 0.29946
# Poissons Ratio (z) = 0.22477 0.12531
#
# Static dielectric constant tensor:
#      x y z
#    x 3.630000 0.182070 -0.311280 
#    y 0.182070 3.484820 0.000620 
#    z -0.311280 0.000620 3.868500 
# 
# 
# High freq. dielectric constant tensor:
#      x y z
#    x 1.751990 0.024900 -0.024220 
#    y 0.024900 1.744890 0.006490 
#    z -0.024220 0.006490 1.781470 
# 
# From -- ./inp_files/259426.got.cif
#   From: 2010.06.25/outbox.cif.g09.slc.cpg/sg2_130_cif.got.tgz:259426.got - 2010.06.27 13:26:56.
