data_PCOD8001350
_publ_section_title
;
Structure prediction by ZEFSAII (Michael W. Deem and Ramdas Pophale) SiO2 
 PCOD8001350
Probable space group: P -1
;
_chemical_formula_sum "Si O2"
_cell_formula_units_Z 16
_cell_length_a 15.800645
_cell_length_b 13.745630
_cell_length_c 10.639239
_cell_angle_alpha 32.907047
_cell_angle_beta 72.800801
_cell_angle_gamma 49.353345
_cell_volume 755.230238
_symmetry_space_group_name_H-M "P -1"
_symmetry_group_IT_number 2
_symmetry_cell_setting 'triclinic'
loop_
_space_group_symop_operation_xyz
x,y,z
-x,-y,-z
loop_
_atom_site_type_symbol
_atom_site_label
_atom_site_fract_x
_atom_site_fract_y
_atom_site_fract_z
Si Si1 0.467054 0.744038 0.594585
Si Si2 0.898415 0.010346 0.671127
Si Si3 0.810817 0.759597 0.925886
Si Si4 0.323969 0.286052 0.398754
Si Si5 0.186882 0.555894 0.917245
Si Si6 0.967802 0.286186 0.827047
Si Si7 0.025839 0.324230 0.503008
Si Si8 0.330565 0.879968 0.772058
O O1 0.543959 0.813043 0.500531
O O2 0.376090 0.828926 0.663540
O O3 0.358696 0.945514 0.307009
O O4 0.577476 0.413127 0.877049
O O5 0.785449 0.335912 0.319739
O O6 0.874815 0.856481 0.783035
O O7 0.052836 0.829104 0.758673
O O8 0.905605 0.994232 0.838034
O O9 0.835456 0.606426 0.954528
O O10 0.885227 0.535480 0.249992
O O11 0.184046 0.561566 0.239472
O O12 0.351199 0.031148 0.676299
O O13 0.313368 0.350921 0.184064
O O14 0.956656 0.511229 0.621628
O O15 0.006721 0.204264 0.751403
O O16 0.168194 0.065402 0.642046
#
# Coordination Sequence:
#
# PCOD8001350 Si02
#       8
#     2   2   2   2   2   2   2   2
#     4  11  24  34  54  88 121 150 186 222 293 344
#     4   9  20  33  54  83 114 139 184 240 279 326
#     4  11  22  34  56  84 116 143 185 239 281 330
#     4  10  20  37  57  80 118 152 185 230 279 345
#     4  10  20  31  53  84 112 146 182 229 289 327
#     4   8  17  38  61  84 107 152 196 233 277 332
#     4   9  19  37  64  83 109 150 197 234 280 328
#     4  10  22  37  57  84 113 155 185 232 279 339
#
# _framework density 21.185590999999999
#
# number of rings (size 3 to 8) (size 9 to 14) (size 15 to 20)
#    0.000    2.250    1.250    1.500    5.250    2.000 
#    0.000    3.125    0.000   12.000    0.000    0.000 
#    0.000    0.000    0.000    0.000    0.000    0.000 
#
# Total GULP energy -198266.215115 kJ/mol
# GULP energy per Si atom -12391.638445 kJ/mol
# Density = 2.113737 g / cm^3
# Si number density = 21.185591 Si / 1000 Ang^3
#
#
#
# Elastic Constant Matrix: (Units=GPa)
#
#
# Indices 1 2 3 4 5 6 
#
# 1 65.2666 28.2526 53.8324 11.0009 10.9232 -9.2434
# 2 28.2526 68.7089 39.9843 8.8339 10.1606 -12.2883
# 3 53.8324 39.9843 149.2016 4.2369 13.2871 -10.6213
# 4 11.0009 8.8339 4.2369 24.7081 1.5284 -2.8084
# 5 10.9232 10.1606 13.2871 1.5284 33.0352 -5.2472
# 6 -9.2434 -12.2883 -10.6213 -2.8084 -5.2472 12.0008
#
#
#
# Elastic Compliance Matrix: (Units=1/GPa)
#
#
# Indices 1 2 3 4 5 6 
#
# 1 0.025729 -0.003699 -0.007344 -0.007965 -0.003041 0.006337
# 2 -0.003699 0.021160 -0.003055 -0.003641 -0.001573 0.014574
# 3 -0.007344 -0.003055 0.010201 0.002722 -0.000775 0.000542
# 4 -0.007965 -0.003641 0.002722 0.045195 0.001143 0.003622
# 5 -0.003041 -0.001573 -0.000775 0.001143 0.033662 0.010347
# 6 0.006337 0.014574 0.000542 0.003622 0.010347 0.108983
#
#
# Mechanical properties :
#
#
# Convention : Reuss Voigt Hill
#
# Bulk Modulus (GPa) = 34.60839 58.59064 46.59951
# Shear Modulus (GPa) = 17.68296 24.68936 21.18616
#
# Velocity S-wave (km/s) = 2.89220 3.41748 3.16575
# Velocity P-wave (km/s) = 5.24637 6.57937 5.95031
#
# Compressibility (1/GPa) = 0.02889473
#
# Stress axis : x y z
#
# Youngs Moduli (GPa) = 38.86648 47.25819 98.02940
#
# Poissons Ratio (x) = 0.17481 0.71991
# Poissons Ratio (y) = 0.14377 0.29950
# Poissons Ratio (z) = 0.28543 0.14438
#
# Static dielectric constant tensor:
#      x y z
#    x 3.663030 -0.109710 0.033840 
#    y -0.109710 3.739860 0.155110 
#    z 0.033840 0.155110 4.372370 
# 
# 
# High freq. dielectric constant tensor:
#      x y z
#    x 1.822900 -0.002630 -0.003480 
#    y -0.002630 1.781180 -0.001380 
#    z -0.003480 -0.001380 1.843200 
# 
# From -- ./inp_files/455393.got.cif
#   From: 2010.06.25/outbox.cif.g09.slc.cpg/sg2_228_cif.got.tgz:455393.got - 2010.06.27 13:26:56.
