data_PCOD8001487
_publ_section_title
;
Structure prediction by ZEFSAII (Michael W. Deem and Ramdas Pophale) SiO2 
 PCOD8001487
Probable space group: P -1
;
_chemical_formula_sum "Si O2"
_cell_formula_units_Z 14
_cell_length_a 12.947444
_cell_length_b 6.423562
_cell_length_c 12.190618
_cell_angle_alpha 126.583230
_cell_angle_beta 71.312922
_cell_angle_gamma 114.104691
_cell_volume 739.032446
_symmetry_space_group_name_H-M "P -1"
_symmetry_group_IT_number 2
_symmetry_cell_setting 'triclinic'
loop_
_space_group_symop_operation_xyz
x,y,z
-x,-y,-z
loop_
_atom_site_type_symbol
_atom_site_label
_atom_site_fract_x
_atom_site_fract_y
_atom_site_fract_z
Si Si1 0.940756 0.098574 0.381328
Si Si2 0.987372 0.778376 0.843470
Si Si3 0.650878 0.130481 0.067127
Si Si4 0.732394 0.610438 0.812937
Si Si5 0.563873 0.275332 0.921165
Si Si6 0.828489 0.548616 0.543388
Si Si7 0.828060 0.504923 0.287631
O O1 0.882765 0.328099 0.509222
O O2 0.953504 0.074235 0.239179
O O3 0.066879 0.173146 0.417074
O O4 0.854035 0.821550 0.361052
O O5 0.856055 0.626022 0.822064
O O6 0.053164 0.564521 0.790876
O O7 0.000000 0.000000 0.000000
O O8 0.736305 0.336568 0.181550
O O9 0.530416 0.018051 0.137851
O O10 0.634005 0.299387 0.018846
O O11 0.697573 0.879295 0.939649
O O12 0.650584 0.334102 0.807139
O O13 0.732178 0.585679 0.672301
O O14 0.500000 0.500000 0.000000
O O15 0.776125 0.448344 0.410707
#
# Coordination Sequence:
#
# PCOD8001487 Si02
#       7
#     2   2   2   2   2   2   2
#     4   9  20  34  52  76 118 161 183 213 275 329
#     4  10  20  33  50  88 123 140 180 227 269 332
#     4  10  21  37  59  87 105 141 193 236 275 335
#     4  10  20  37  59  80 115 152 182 226 279 327
#     4   9  21  39  59  78 110 145 185 234 290 323
#     4   9  20  37  52  80 116 152 188 221 265 342
#     4  11  21  34  59  84 118 149 184 227 277 328
#
# _framework density 18.943688999999999
#
# number of rings (size 3 to 8) (size 9 to 14) (size 15 to 20)
#    0.000    2.286    1.429    1.286    2.000    5.143 
#    0.000    0.714    0.000    8.571    0.000    0.000 
#    0.000    0.000    0.000    0.000    0.000    0.000 
#
# Total GULP energy -173517.669281 kJ/mol
# GULP energy per Si atom -12394.119234 kJ/mol
# Density = 1.890057 g / cm^3
# Si number density = 18.943689 Si / 1000 Ang^3
#
#
#
# Elastic Constant Matrix: (Units=GPa)
#
#
# Indices 1 2 3 4 5 6 
#
# 1 96.9158 43.6125 42.6819 -7.8260 13.7296 4.0951
# 2 43.6125 97.9906 38.8776 -6.4682 -2.4613 10.4957
# 3 42.6819 38.8776 114.4496 -5.8626 2.0459 10.2822
# 4 -7.8260 -6.4682 -5.8626 24.0504 3.1829 -4.0890
# 5 13.7296 -2.4613 2.0459 3.1829 18.4526 -11.5797
# 6 4.0951 10.4957 10.2822 -4.0890 -11.5797 23.1667
#
#
#
# Elastic Compliance Matrix: (Units=1/GPa)
#
#
# Indices 1 2 3 4 5 6 
#
# 1 0.017993 -0.006006 -0.003367 0.004663 -0.019603 -0.007940
# 2 -0.006006 0.014193 -0.002555 0.000253 0.005788 -0.001296
# 3 -0.003367 -0.002555 0.011277 0.000508 -0.001688 -0.004006
# 4 0.004663 0.000253 0.000508 0.044922 -0.010193 0.001669
# 5 -0.019603 0.005788 -0.001688 -0.010193 0.103982 0.051767
# 6 -0.007940 -0.001296 -0.004006 0.001669 0.051767 0.073104
#
#
# Mechanical properties :
#
#
# Convention : Reuss Voigt Hill
#
# Bulk Modulus (GPa) = 51.00565 62.18889 56.59727
# Shear Modulus (GPa) = 16.89964 25.41287 21.15625
#
# Velocity S-wave (km/s) = 2.99004 3.66662 3.34548
# Velocity P-wave (km/s) = 6.23729 7.12916 6.69809
#
# Compressibility (1/GPa) = 0.01960567
#
# Stress axis : x y z
#
# Youngs Moduli (GPa) = 55.57686 70.45684 88.67306
#
# Poissons Ratio (x) = 0.42319 0.29859
# Poissons Ratio (y) = 0.33381 0.22659
# Poissons Ratio (z) = 0.18714 0.18004
#
# Static dielectric constant tensor:
#      x y z
#    x 3.581940 0.033320 0.000330 
#    y 0.033320 3.695480 -0.411610 
#    z 0.000330 -0.411610 3.970210 
# 
# 
# High freq. dielectric constant tensor:
#      x y z
#    x 1.725520 -0.004140 -0.000250 
#    y -0.004140 1.734510 -0.009890 
#    z -0.000250 -0.009890 1.731980 
# 
# From -- ./inp_files/60677.got.cif
#   From: 2010.06.25/outbox.cif.g09.slc.cpg/sg2_31_cif.got.tgz:60677.got - 2010.06.27 13:26:56.
