data_PCOD8001945
_publ_section_title
;
Structure prediction by ZEFSAII (Michael W. Deem and Ramdas Pophale) SiO2 
 PCOD8001945
Probable space group: P -1
;
_chemical_formula_sum "Si O2"
_cell_formula_units_Z 16
_cell_length_a 9.510393
_cell_length_b 9.524326
_cell_length_c 17.600068
_cell_angle_alpha 131.454465
_cell_angle_beta 127.075020
_cell_angle_gamma 44.048200
_cell_volume 805.664738
_symmetry_space_group_name_H-M "P -1"
_symmetry_group_IT_number 2
_symmetry_cell_setting 'triclinic'
loop_
_space_group_symop_operation_xyz
x,y,z
-x,-y,-z
loop_
_atom_site_type_symbol
_atom_site_label
_atom_site_fract_x
_atom_site_fract_y
_atom_site_fract_z
Si Si1 0.710820 0.872737 0.167873
Si Si2 0.996470 0.243914 0.509680
Si Si3 0.292620 0.041405 0.407133
Si Si4 0.292218 0.912055 0.609039
Si Si5 0.108095 0.574930 0.002417
Si Si6 0.744470 0.709600 0.662736
Si Si7 0.741952 0.741009 0.846563
Si Si8 0.840457 0.286631 0.784592
O O1 0.906842 0.876318 0.197814
O O2 0.710055 0.907643 0.270722
O O3 0.488970 0.069143 0.132679
O O4 0.730254 0.638524 0.072430
O O5 0.802479 0.214630 0.424870
O O6 0.930169 0.467895 0.611996
O O7 0.094812 0.239955 0.458902
O O8 0.172873 0.032100 0.537027
O O9 0.280591 0.822260 0.327980
O O10 0.500000 0.000000 0.500000
O O11 0.273753 0.109224 0.337411
O O12 0.526421 0.721900 0.595102
O O13 0.217400 0.665232 0.125933
O O14 0.000000 0.500000 0.000000
O O15 0.919913 0.761443 0.955470
O O16 0.784381 0.760716 0.778999
O O17 0.769644 0.504634 0.789087
#
# Coordination Sequence:
#
# PCOD8001945 Si02
#       8
#     2   2   2   2   2   2   2   2
#     4   9  16  32  57  90 113 137 189 238 287 326
#     4  11  21  37  59  78 116 155 197 236 283 330
#     4  12  25  42  55  81 127 158 189 236 290 340
#     4  10  20  34  60  89 109 148 193 246 276 341
#     4   8  17  32  58  86 116 142 183 244 286 333
#     4  11  23  37  58  87 114 153 192 236 288 342
#     4   9  19  35  63  88 111 143 194 239 279 348
#     4  10  21  38  56  84 116 154 189 234 287 337
#
# _framework density 19.859379000000001
#
# number of rings (size 3 to 8) (size 9 to 14) (size 15 to 20)
#    0.000    2.250    2.500    2.250    1.750    6.500 
#    2.250    0.625    0.000    3.000    0.000    0.000 
#    0.000    0.000    0.000    0.000    0.000    0.000 
#
# Total GULP energy -198259.169012 kJ/mol
# GULP energy per Si atom -12391.198063 kJ/mol
# Density = 1.981418 g / cm^3
# Si number density = 19.859379 Si / 1000 Ang^3
#
#
#
# Elastic Constant Matrix: (Units=GPa)
#
#
# Indices 1 2 3 4 5 6 
#
# 1 83.0058 30.3600 29.3495 -5.0488 -12.1232 -5.3351
# 2 30.3600 85.9527 26.1232 -12.7451 -5.3015 -9.7334
# 3 29.3495 26.1232 98.5829 -5.4316 -8.2196 -3.9427
# 4 -5.0488 -12.7451 -5.4316 28.0450 3.5272 -10.4753
# 5 -12.1232 -5.3015 -8.2196 3.5272 23.1943 -1.8788
# 6 -5.3351 -9.7334 -3.9427 -10.4753 -1.8788 27.8082
#
#
#
# Elastic Compliance Matrix: (Units=1/GPa)
#
#
# Indices 1 2 3 4 5 6 
#
# 1 0.015603 -0.003985 -0.002983 0.000265 0.006285 0.001700
# 2 -0.003985 0.015961 -0.002224 0.009059 0.000041 0.007922
# 3 -0.002983 -0.002224 0.011868 0.000775 0.002083 0.000765
# 4 0.000265 0.009059 0.000775 0.048332 -0.003139 0.021326
# 5 0.006285 0.000041 0.002083 -0.003139 0.047913 0.003570
# 6 0.001700 0.007922 0.000765 0.021326 0.003570 0.047443
#
#
# Mechanical properties :
#
#
# Convention : Reuss Voigt Hill
#
# Bulk Modulus (GPa) = 39.92235 48.80077 44.36156
# Shear Modulus (GPa) = 23.38070 27.92342 25.65206
#
# Velocity S-wave (km/s) = 3.43492 3.75381 3.59790
# Velocity P-wave (km/s) = 5.98980 6.58898 6.29652
#
# Compressibility (1/GPa) = 0.02504862
#
# Stress axis : x y z
#
# Youngs Moduli (GPa) = 64.09077 62.65380 84.26156
#
# Poissons Ratio (x) = 0.24970 0.25131
# Poissons Ratio (y) = 0.25542 0.18736
# Poissons Ratio (z) = 0.19115 0.13931
#
# Static dielectric constant tensor:
#      x y z
#    x 3.557900 -0.213590 -0.278150 
#    y -0.213590 3.568300 -0.123150 
#    z -0.278150 -0.123150 4.305870 
# 
# 
# High freq. dielectric constant tensor:
#      x y z
#    x 1.750910 -0.020000 -0.025960 
#    y -0.020000 1.763590 -0.011840 
#    z -0.025960 -0.011840 1.779090 
# 
# From -- ./inp_files/327981.got.cif
#   From: 2010.06.25/outbox.cif.g09.slc.cpg/sg2_164_cif.got.tgz:327981.got - 2010.06.27 13:26:56.
