data_PCOD8001062
_publ_section_title
;
Structure prediction by ZEFSAII (Michael W. Deem and Ramdas Pophale) SiO2 
 PCOD8001062
Probable space group: P -1
;
_chemical_formula_sum "Si O2"
_cell_formula_units_Z 16
_cell_length_a 10.661188
_cell_length_b 13.983442
_cell_length_c 7.429451
_cell_angle_alpha 89.241606
_cell_angle_beta 47.695077
_cell_angle_gamma 114.330562
_cell_volume 673.450844
_symmetry_space_group_name_H-M "P -1"
_symmetry_group_IT_number 2
_symmetry_cell_setting 'triclinic'
loop_
_space_group_symop_operation_xyz
x,y,z
-x,-y,-z
loop_
_atom_site_type_symbol
_atom_site_label
_atom_site_fract_x
_atom_site_fract_y
_atom_site_fract_z
Si Si1 0.605808 0.724677 0.288817
Si Si2 0.591811 0.657946 0.708495
Si Si3 0.386935 0.073793 0.803199
Si Si4 0.169645 0.619554 0.522995
Si Si5 0.463878 0.801862 0.987830
Si Si6 0.703446 0.158463 0.186585
Si Si7 0.230450 0.421390 0.942944
Si Si8 0.891231 0.605939 0.323455
O O1 0.606447 0.708857 0.498590
O O2 0.730437 0.864701 0.134184
O O3 0.377224 0.675032 0.437908
O O4 0.715502 0.673125 0.078634
O O5 0.378445 0.530061 0.927248
O O6 0.784176 0.648214 0.559626
O O7 0.595672 0.745086 0.847069
O O8 0.440397 0.094866 0.962923
O O9 0.602042 0.134138 0.481175
O O10 0.244191 0.936065 0.904409
O O11 0.232562 0.691863 0.272910
O O12 0.073362 0.481401 0.599289
O O13 0.005647 0.635029 0.777056
O O14 0.459632 0.855935 0.802880
O O15 0.906270 0.287316 0.969372
O O16 0.263851 0.461081 0.697414
#
# Coordination Sequence:
#
# PCOD8001062 Si02
#       8
#     2   2   2   2   2   2   2   2
#     4  10  19  41  63  94 130 167 213 266 317 380
#     4  11  21  38  62  96 135 174 203 264 331 379
#     4  10  23  44  71  91 122 176 218 267 329 370
#     4  11  22  37  63  97 128 171 210 258 324 384
#     4  11  24  41  66  99 129 164 220 266 319 391
#     4  11  23  44  71  91 126 169 221 273 317 378
#     4  11  21  36  66  97 135 173 212 261 319 392
#     4  11  21  38  63  98 132 170 220 259 321 391
#
# _framework density 23.758230000000001
#
# number of rings (size 3 to 8) (size 9 to 14) (size 15 to 20)
#    0.000    1.250    3.750    3.750    0.000    2.500 
#    4.500    3.125    5.500    0.000    0.000    0.000 
#    0.000    0.000    0.000    0.000    0.000    0.000 
#
# Total GULP energy -198332.491841 kJ/mol
# GULP energy per Si atom -12395.780740 kJ/mol
# Density = 2.370416 g / cm^3
# Si number density = 23.758230 Si / 1000 Ang^3
#
#
#
# Elastic Constant Matrix: (Units=GPa)
#
#
# Indices 1 2 3 4 5 6 
#
# 1 42.3217 16.9998 14.7549 10.8028 -5.3873 -16.8885
# 2 16.9998 128.0771 14.4988 19.3832 1.6938 -22.4023
# 3 14.7549 14.4988 69.9688 22.3116 -7.8607 -7.9942
# 4 10.8028 19.3832 22.3116 46.9091 -9.2509 0.2436
# 5 -5.3873 1.6938 -7.8607 -9.2509 26.1817 9.4399
# 6 -16.8885 -22.4023 -7.9942 0.2436 9.4399 40.3272
#
#
#
# Elastic Compliance Matrix: (Units=1/GPa)
#
#
# Indices 1 2 3 4 5 6 
#
# 1 0.031303 -0.000784 -0.003381 -0.005516 -0.000887 0.012245
# 2 -0.000784 0.009805 -0.000172 -0.004764 -0.004777 0.006232
# 3 -0.003381 -0.000172 0.017728 -0.007307 0.001440 0.001710
# 4 -0.005516 -0.004764 -0.007307 0.030242 0.010966 -0.009154
# 5 -0.000887 -0.004777 0.001440 0.010966 0.047662 -0.013963
# 6 0.012245 0.006232 0.001710 -0.009154 -0.013963 0.037050
#
#
# Mechanical properties :
#
#
# Convention : Reuss Voigt Hill
#
# Bulk Modulus (GPa) = 19.93496 36.98606 28.46051
# Shear Modulus (GPa) = 25.10223 35.62455 30.36339
#
# Velocity S-wave (km/s) = 3.25402 3.87649 3.57881
# Velocity P-wave (km/s) = 4.74628 5.96973 5.39281
#
# Compressibility (1/GPa) = 0.05016314
#
# Stress axis : x y z
#
# Youngs Moduli (GPa) = 31.94554 101.98372 56.40817
#
# Poissons Ratio (x) = 0.07996 0.19069
# Poissons Ratio (y) = 0.02505 0.00971
# Poissons Ratio (z) = 0.10799 0.01756
#
# Static dielectric constant tensor:
#      x y z
#    x 4.240000 -0.402190 0.162310 
#    y -0.402190 4.706600 0.156740 
#    z 0.162310 0.156740 4.037580 
# 
# 
# High freq. dielectric constant tensor:
#      x y z
#    x 1.930780 -0.015960 0.016690 
#    y -0.015960 1.952330 0.020680 
#    z 0.016690 0.020680 1.921010 
# 
# From -- ./inp_files/273063.got.cif
#   From: 2010.06.25/outbox.cif.g09.slc.cpg/sg2_137_cif.got.tgz:273063.got - 2010.06.27 13:26:56.
