data_PCOD8001032
_publ_section_title
;
Structure prediction by ZEFSAII (Michael W. Deem and Ramdas Pophale) SiO2 
 PCOD8001032
Probable space group: P -1
;
_chemical_formula_sum "Si O2"
_cell_formula_units_Z 14
_cell_length_a 9.601305
_cell_length_b 20.532692
_cell_length_c 8.327797
_cell_angle_alpha 53.645532
_cell_angle_beta 98.514391
_cell_angle_gamma 142.400870
_cell_volume 609.942660
_symmetry_space_group_name_H-M "P -1"
_symmetry_group_IT_number 2
_symmetry_cell_setting 'triclinic'
loop_
_space_group_symop_operation_xyz
x,y,z
-x,-y,-z
loop_
_atom_site_type_symbol
_atom_site_label
_atom_site_fract_x
_atom_site_fract_y
_atom_site_fract_z
Si Si1 0.832937 0.189476 0.720616
Si Si2 0.486282 0.223204 0.198263
Si Si3 0.735429 0.178985 0.357762
Si Si4 0.167910 0.518394 0.394127
Si Si5 0.660328 0.669981 0.431424
Si Si6 0.257122 0.374254 0.005208
Si Si7 0.869835 0.848320 0.541312
O O1 0.841761 0.196432 0.519637
O O2 0.935996 0.326804 0.612447
O O3 0.058816 0.231453 0.753803
O O4 0.500000 0.000000 0.000000
O O5 0.615949 0.207624 0.318281
O O6 0.398147 0.230286 0.328400
O O7 0.745248 0.398849 0.883065
O O8 0.190692 0.056714 0.281508
O O9 0.017841 0.324171 0.071249
O O10 0.500000 0.000000 0.500000
O O11 0.487983 0.649851 0.328142
O O12 0.000000 0.500000 0.500000
O O13 0.783111 0.774946 0.458464
O O14 0.420378 0.475673 0.715900
O O15 0.096085 0.205153 0.238799
O O16 0.500000 0.500000 0.000000
#
# Coordination Sequence:
#
# PCOD8001032 Si02
#       7
#     2   2   2   2   2   2   2
#     4  12  29  48  73 107 143 191 243 287 362 429
#     4  11  25  42  69 107 143 178 240 288 361 411
#     4  12  24  45  76 102 137 187 239 297 341 425
#     4  12  30  47  69 107 152 190 230 297 359 424
#     4  11  24  48  74  98 143 190 238 293 353 426
#     4  10  19  40  72  97 129 176 237 281 341 405
#     4  10  22  42  72 105 134 182 236 298 349 415
#
# _framework density 22.952977000000001
#
# number of rings (size 3 to 8) (size 9 to 14) (size 15 to 20)
#    0.000    0.857    4.286    2.143   10.000    3.429 
#    0.000    0.000    0.000    0.000    0.000    0.000 
#    0.000    0.000    0.000    0.000    0.000    0.000 
#
# Total GULP energy -173590.059363 kJ/mol
# GULP energy per Si atom -12399.289954 kJ/mol
# Density = 2.290073 g / cm^3
# Si number density = 22.952977 Si / 1000 Ang^3
#
#
#
# Elastic Constant Matrix: (Units=GPa)
#
#
# Indices 1 2 3 4 5 6 
#
# 1 185.4935 35.6016 42.1321 -14.0632 -17.8892 6.2882
# 2 35.6016 75.9543 9.5370 -15.6346 2.0198 -4.2238
# 3 42.1321 9.5370 106.7288 -23.4785 -15.6759 3.0366
# 4 -14.0632 -15.6346 -23.4785 25.6125 8.1706 9.8066
# 5 -17.8892 2.0198 -15.6759 8.1706 40.2484 -8.1596
# 6 6.2882 -4.2238 3.0366 9.8066 -8.1596 38.8235
#
#
#
# Elastic Compliance Matrix: (Units=1/GPa)
#
#
# Indices 1 2 3 4 5 6 
#
# 1 0.006662 -0.003094 -0.002157 -0.000721 0.002305 -0.000580
# 2 -0.003094 0.016967 0.001858 0.012492 -0.004421 -0.001883
# 3 -0.002157 0.001858 0.013163 0.013219 0.000645 -0.003682
# 4 -0.000721 0.012492 0.013219 0.070786 -0.014314 -0.020447
# 5 0.002305 -0.004421 0.000645 -0.014314 0.031125 0.009252
# 6 -0.000580 -0.001883 -0.003682 -0.020447 0.009252 0.033044
#
#
# Mechanical properties :
#
#
# Convention : Reuss Voigt Hill
#
# Bulk Modulus (GPa) = 33.32760 60.30199 46.81480
# Shear Modulus (GPa) = 26.52033 39.66395 33.09214
#
# Velocity S-wave (km/s) = 3.40283 4.16149 3.80114
# Velocity P-wave (km/s) = 5.47636 7.02992 6.30120
#
# Compressibility (1/GPa) = 0.03000516
#
# Stress axis : x y z
#
# Youngs Moduli (GPa) = 150.10402 58.93791 75.97327
#
# Poissons Ratio (x) = 0.18234 0.16387
# Poissons Ratio (y) = 0.46439 -0.14112
# Poissons Ratio (z) = 0.32377 -0.10948
#
# Static dielectric constant tensor:
#      x y z
#    x 5.342670 0.464320 0.246670 
#    y 0.464320 4.191290 -0.133860 
#    z 0.246670 -0.133860 4.684350 
# 
# 
# High freq. dielectric constant tensor:
#      x y z
#    x 1.925600 0.001580 -0.008480 
#    y 0.001580 1.903010 -0.013970 
#    z -0.008480 -0.013970 1.903880 
# 
# From -- ./inp_files/223012.got.cif
#   From: 2010.06.25/outbox.cif.g09.slc.cpg/sg2_112_cif.got.tgz:223012.got - 2010.06.27 13:26:56.
