data_PCOD8001262
_publ_section_title
;
Structure prediction by ZEFSAII (Michael W. Deem and Ramdas Pophale) SiO2 
 PCOD8001262
Probable space group: P -1
;
_chemical_formula_sum "Si O2"
_cell_formula_units_Z 16
_cell_length_a 7.008094
_cell_length_b 19.697148
_cell_length_c 8.551713
_cell_angle_alpha 55.951416
_cell_angle_beta 106.369599
_cell_angle_gamma 127.539092
_cell_volume 772.403119
_symmetry_space_group_name_H-M "P -1"
_symmetry_group_IT_number 2
_symmetry_cell_setting 'triclinic'
loop_
_space_group_symop_operation_xyz
x,y,z
-x,-y,-z
loop_
_atom_site_type_symbol
_atom_site_label
_atom_site_fract_x
_atom_site_fract_y
_atom_site_fract_z
Si Si1 0.303350 0.399553 0.000302
Si Si2 0.962531 0.854658 0.982951
Si Si3 0.221344 0.774701 0.329463
Si Si4 0.243168 0.062243 0.663532
Si Si5 0.137852 0.744311 0.698151
Si Si6 0.902002 0.102208 0.375947
Si Si7 0.459341 0.692575 0.010746
Si Si8 0.069331 0.596517 0.298236
O O1 0.445271 0.360161 0.999957
O O2 0.170014 0.421451 0.809264
O O3 0.500000 0.500000 0.000000
O O4 0.117442 0.326220 0.184552
O O5 0.988116 0.827592 0.844459
O O6 0.077594 0.973150 0.865889
O O7 0.098366 0.827517 0.168045
O O8 0.675450 0.786817 0.037593
O O9 0.503587 0.858848 0.303210
O O10 0.098561 0.723514 0.531611
O O11 0.191324 0.691711 0.315224
O O12 0.114347 0.116388 0.516582
O O13 0.271994 0.012670 0.575982
O O14 0.234866 0.859524 0.607525
O O15 0.344141 0.730816 0.816967
O O16 0.259409 0.614366 0.186725
O O17 0.000000 0.500000 0.500000
#
# Coordination Sequence:
#
# PCOD8001262 Si02
#       8
#     2   2   2   2   2   2   2   2
#     4  11  25  46  73  95 128 178 231 277 335 407
#     4  10  19  43  64  94 136 174 220 270 337 391
#     4  12  24  41  64 103 141 174 220 282 342 391
#     4   9  21  39  71  94 139 179 228 278 323 408
#     4  11  25  40  69 101 133 176 231 274 329 408
#     4   9  19  42  64  94 134 175 231 263 324 394
#     4  11  23  47  71  92 135 184 217 278 332 403
#     4  11  28  46  67 103 137 173 220 281 344 403
#
# _framework density 20.714573000000001
#
# number of rings (size 3 to 8) (size 9 to 14) (size 15 to 20)
#    0.750    0.750    2.500    1.875    3.500    4.000 
#    0.000    1.250    0.000    0.000    0.000    0.000 
#    0.000    0.000    0.000    0.000    0.000    0.000 
#
# Total GULP energy -198348.480849 kJ/mol
# GULP energy per Si atom -12396.780053 kJ/mol
# Density = 2.066743 g / cm^3
# Si number density = 20.714573 Si / 1000 Ang^3
#
#
#
# Elastic Constant Matrix: (Units=GPa)
#
#
# Indices 1 2 3 4 5 6 
#
# 1 137.8265 66.6380 73.5103 3.2105 18.5333 4.1861
# 2 66.6380 135.2709 51.2877 6.4150 12.5948 14.1083
# 3 73.5103 51.2877 159.2275 8.2402 26.2047 9.0039
# 4 3.2105 6.4150 8.2402 26.3143 5.1646 4.7886
# 5 18.5333 12.5948 26.2047 5.1646 25.3780 6.1518
# 6 4.1861 14.1083 9.0039 4.7886 6.1518 29.5889
#
#
#
# Elastic Compliance Matrix: (Units=1/GPa)
#
#
# Indices 1 2 3 4 5 6 
#
# 1 0.011621 -0.004312 -0.003596 0.001045 -0.003339 0.002031
# 2 -0.004312 0.010369 -0.001129 -0.001002 0.000317 -0.003894
# 3 -0.003596 -0.001129 0.009400 -0.000939 -0.006241 -0.000364
# 4 0.001045 -0.001002 -0.000939 0.040512 -0.006425 -0.004605
# 5 -0.003339 0.000317 -0.006241 -0.006425 0.051229 -0.007391
# 6 0.002031 -0.003894 -0.000364 -0.004605 -0.007391 0.037759
#
#
# Mechanical properties :
#
#
# Convention : Reuss Voigt Hill
#
# Bulk Modulus (GPa) = 75.09424 90.57742 82.83583
# Shear Modulus (GPa) = 27.26247 32.31549 29.78898
#
# Velocity S-wave (km/s) = 3.63175 3.95401 3.79630
# Velocity P-wave (km/s) = 7.34280 8.04158 7.70012
#
# Compressibility (1/GPa) = 0.01331660
#
# Stress axis : x y z
#
# Youngs Moduli (GPa) = 86.05099 96.44001 106.37989
#
# Poissons Ratio (x) = 0.41586 0.38249
# Poissons Ratio (y) = 0.37106 0.12013
# Poissons Ratio (z) = 0.30940 0.10891
#
# Static dielectric constant tensor:
#      x y z
#    x 3.645610 0.029970 0.054900 
#    y 0.029970 4.193170 -0.223230 
#    z 0.054900 -0.223230 3.933750 
# 
# 
# High freq. dielectric constant tensor:
#      x y z
#    x 1.806190 0.004280 0.010060 
#    y 0.004280 1.811250 -0.001050 
#    z 0.010060 -0.001050 1.819610 
# 
# From -- ./inp_files/141160.got.cif
#   From: 2010.06.25/outbox.cif.g09.slc.cpg/sg2_71_cif.got.tgz:141160.got - 2010.06.27 13:26:56.
