data_PCOD8001129
_publ_section_title
;
Structure prediction by ZEFSAII (Michael W. Deem and Ramdas Pophale) SiO2 
 PCOD8001129
Probable space group: P -1
;
_chemical_formula_sum "Si O2"
_cell_formula_units_Z 14
_cell_length_a 8.325116
_cell_length_b 14.063454
_cell_length_c 9.044073
_cell_angle_alpha 123.558609
_cell_angle_beta 87.674926
_cell_angle_gamma 126.773117
_cell_volume 636.428777
_symmetry_space_group_name_H-M "P -1"
_symmetry_group_IT_number 2
_symmetry_cell_setting 'triclinic'
loop_
_space_group_symop_operation_xyz
x,y,z
-x,-y,-z
loop_
_atom_site_type_symbol
_atom_site_label
_atom_site_fract_x
_atom_site_fract_y
_atom_site_fract_z
Si Si1 0.038779 0.635574 0.483304
Si Si2 0.950492 0.122438 0.459912
Si Si3 0.934206 0.198030 0.835679
Si Si4 0.443644 0.814267 0.174683
Si Si5 0.176570 0.540685 0.143795
Si Si6 0.351594 0.707754 0.752526
Si Si7 0.843440 0.949121 0.824195
O O1 0.996215 0.725558 0.467679
O O2 0.145656 0.585182 0.340248
O O3 0.217749 0.743671 0.702432
O O4 0.799085 0.479852 0.423005
O O5 0.000081 0.145729 0.653437
O O6 0.114306 0.115250 0.368276
O O7 0.699416 0.969936 0.296448
O O8 0.709011 0.151436 0.748504
O O9 0.887698 0.100122 0.898869
O O10 0.138149 0.385235 0.025680
O O11 0.410925 0.694416 0.191715
O O12 0.363465 0.740035 0.951873
O O13 0.000000 0.500000 0.000000
O O14 0.590731 0.806464 0.757914
O O15 0.000000 0.000000 0.000000
#
# Coordination Sequence:
#
# PCOD8001129 Si02
#       7
#     2   2   2   2   2   2   2
#     4  11  23  42  72 101 126 168 227 280 324 379
#     4  12  24  42  68  97 134 174 220 268 329 395
#     4  11  23  43  68  95 131 173 225 274 320 382
#     4  11  21  40  73 101 125 164 228 283 324 373
#     4  10  19  41  68  99 126 159 217 286 323 370
#     4  11  24  43  66 101 132 172 219 273 334 383
#     4  12  28  44  62  94 146 181 211 257 334 406
#
# _framework density 21.997748999999999
#
# number of rings (size 3 to 8) (size 9 to 14) (size 15 to 20)
#    0.000    0.857    7.143    1.714    4.000    1.714 
#    0.000    0.714    0.000    0.000    0.000    0.000 
#    0.000    0.000    0.000    0.000    0.000    0.000 
#
# Total GULP energy -173584.530035 kJ/mol
# GULP energy per Si atom -12398.895002 kJ/mol
# Density = 2.194768 g / cm^3
# Si number density = 21.997749 Si / 1000 Ang^3
#
#
#
# Elastic Constant Matrix: (Units=GPa)
#
#
# Indices 1 2 3 4 5 6 
#
# 1 56.2101 46.0446 37.3409 0.8091 -2.1289 15.2412
# 2 46.0446 150.4786 57.1366 -6.5229 10.9497 12.4345
# 3 37.3409 57.1366 61.1625 7.5257 -15.6662 -13.3640
# 4 0.8091 -6.5229 7.5257 22.5716 6.5911 3.4173
# 5 -2.1289 10.9497 -15.6662 6.5911 27.1872 -15.5556
# 6 15.2412 12.4345 -13.3640 3.4173 -15.5556 17.1455
#
#
#
# Elastic Compliance Matrix: (Units=1/GPa)
#
#
# Indices 1 2 3 4 5 6 
#
# 1 0.022149 -0.010915 0.004381 -0.011667 0.016702 0.009120
# 2 -0.010915 0.007628 0.003014 -0.001184 0.004081 0.010459
# 3 0.004381 0.003014 -0.000972 0.010505 -0.018899 -0.026079
# 4 -0.011667 -0.001184 0.010505 0.035303 0.008615 0.020198
# 5 0.016702 0.004081 -0.018899 0.008615 0.008043 -0.026957
# 6 0.009120 0.010459 -0.026079 0.020198 -0.026957 -0.006178
#
#
# Mechanical properties :
#
#
# Convention : Reuss Voigt Hill
#
# Bulk Modulus (GPa) = 45.94628 60.98837 53.46732
# Shear Modulus (GPa) = 62.29019 21.86946 42.07983
#
# Velocity S-wave (km/s) = 5.32711 3.15646 4.37843
# Velocity P-wave (km/s) = 7.66613 6.40854 7.06537
#
# Compressibility (1/GPa) = 0.02176455
#
# Stress axis : x y z
#
# Youngs Moduli (GPa) = 45.14850 131.08910 -1028.66224
#
# Poissons Ratio (x) = 1.43090 4.50640
# Poissons Ratio (y) = 0.49282 3.10059
# Poissons Ratio (z) = -0.19779 -0.39513
#
# Static dielectric constant tensor:
#      x y z
#    x 3.648390 -0.019290 -0.104610 
#    y -0.019290 4.922390 -0.010570 
#    z -0.104610 -0.010570 4.142050 
# 
# 
# High freq. dielectric constant tensor:
#      x y z
#    x 1.825390 0.000690 -0.002670 
#    y 0.000690 1.896990 -0.006990 
#    z -0.002670 -0.006990 1.872330 
# 
# From -- ./inp_files/203731.got.cif
#   From: 2010.06.25/outbox.cif.g09.slc.cpg/sg2_102_cif.got.tgz:203731.got - 2010.06.27 13:26:56.
