data_PCOD8001004
_publ_section_title
;
Structure prediction by ZEFSAII (Michael W. Deem and Ramdas Pophale) SiO2 
 PCOD8001004
Probable space group: P -1
;
_chemical_formula_sum "Si O2"
_cell_formula_units_Z 16
_cell_length_a 8.302892
_cell_length_b 17.633293
_cell_length_c 14.038141
_cell_angle_alpha 40.094180
_cell_angle_beta 38.613529
_cell_angle_gamma 31.950352
_cell_volume 645.571015
_symmetry_space_group_name_H-M "P -1"
_symmetry_group_IT_number 2
_symmetry_cell_setting 'triclinic'
loop_
_space_group_symop_operation_xyz
x,y,z
-x,-y,-z
loop_
_atom_site_type_symbol
_atom_site_label
_atom_site_fract_x
_atom_site_fract_y
_atom_site_fract_z
Si Si1 0.045299 0.792851 0.546088
Si Si2 0.620165 0.890994 0.957502
Si Si3 0.230603 0.485501 0.488198
Si Si4 0.871059 0.795320 0.412089
Si Si5 0.412104 0.909117 0.837570
Si Si6 0.998035 0.593565 0.156117
Si Si7 0.403140 0.693882 0.941561
Si Si8 0.807706 0.109599 0.325270
O O1 0.386407 0.651390 0.570769
O O2 0.948375 0.763758 0.518487
O O3 0.781294 0.833781 0.707578
O O4 0.058473 0.928871 0.390974
O O5 0.358037 0.959385 0.926141
O O6 0.964885 0.842994 0.798500
O O7 0.686820 0.737406 0.106227
O O8 0.500000 0.000000 0.000000
O O9 0.120868 0.471627 0.655312
O O10 0.000000 0.500000 0.500000
O O11 0.164998 0.644715 0.365586
O O12 0.521644 0.824852 0.523409
O O13 0.844567 0.937399 0.251752
O O14 0.371421 0.777618 0.973750
O O15 0.239302 0.464117 0.092677
O O16 0.151106 0.657460 0.086120
O O17 0.322801 0.825632 0.781882
#
# Coordination Sequence:
#
# PCOD8001004 Si02
#       8
#     2   2   2   2   2   2   2   2
#     4  11  22  40  71 102 140 176 231 296 346 408
#     4  11  26  42  65 101 145 186 232 288 349 419
#     4  12  27  41  67 103 143 181 230 288 354 416
#     4  11  22  42  71 103 140 181 228 297 347 411
#     4  11  23  42  75 107 133 184 243 282 351 421
#     4  10  23  43  68  95 142 188 222 284 353 408
#     4  10  19  42  72  98 132 184 233 279 337 429
#     4  10  19  40  69  94 136 177 225 279 353 406
#
# _framework density 24.784258999999999
#
# number of rings (size 3 to 8) (size 9 to 14) (size 15 to 20)
#    0.000    1.250    3.750    1.875    5.250    1.500 
#    0.000    6.250    0.000    0.000    0.000    0.000 
#    0.000    0.000    0.000    0.000    0.000    0.000 
#
# Total GULP energy -198242.168866 kJ/mol
# GULP energy per Si atom -12390.135554 kJ/mol
# Density = 2.472785 g / cm^3
# Si number density = 24.784259 Si / 1000 Ang^3
#
#
#
# Elastic Constant Matrix: (Units=GPa)
#
#
# Indices 1 2 3 4 5 6 
#
# 1 100.9147 44.2216 13.5766 -12.5349 17.5528 14.3295
# 2 44.2216 170.9605 31.9045 -30.8544 6.1146 -7.0217
# 3 13.5766 31.9045 46.0411 -15.2546 -4.0052 5.1724
# 4 -12.5349 -30.8544 -15.2546 32.4700 4.8753 -5.3802
# 5 17.5528 6.1146 -4.0052 4.8753 21.2250 -1.1950
# 6 14.3295 -7.0217 5.1724 -5.3802 -1.1950 42.7903
#
#
#
# Elastic Compliance Matrix: (Units=1/GPa)
#
#
# Indices 1 2 3 4 5 6 
#
# 1 0.014662 -0.002559 -0.001978 0.003393 -0.012823 -0.005022
# 2 -0.002559 0.008564 -0.003665 0.006344 -0.002306 0.003438
# 3 -0.001978 -0.003665 0.028176 0.007708 0.006113 -0.002205
# 4 0.003393 0.006344 0.007708 0.044426 -0.013147 0.004192
# 5 -0.012823 -0.002306 0.006113 -0.013147 0.062741 0.003276
# 6 -0.005022 0.003438 -0.002205 0.004192 0.003276 0.026501
#
#
# Mechanical properties :
#
#
# Convention : Reuss Voigt Hill
#
# Bulk Modulus (GPa) = 28.57208 55.25798 41.91503
# Shear Modulus (GPa) = 23.45904 34.51129 28.98517
#
# Velocity S-wave (km/s) = 3.07991 3.73563 3.42350
# Velocity P-wave (km/s) = 4.91947 6.39926 5.70753
#
# Compressibility (1/GPa) = 0.03499920
#
# Stress axis : x y z
#
# Youngs Moduli (GPa) = 68.20512 116.77129 35.49157
#
# Poissons Ratio (x) = 0.29879 0.07018
# Poissons Ratio (y) = 0.17452 0.13007
# Poissons Ratio (z) = 0.13488 0.42793
#
# Static dielectric constant tensor:
#      x y z
#    x 4.357060 -0.148110 -0.038910 
#    y -0.148110 4.687490 -0.235060 
#    z -0.038910 -0.235060 4.409620 
# 
# 
# High freq. dielectric constant tensor:
#      x y z
#    x 1.971730 -0.003710 -0.007540 
#    y -0.003710 1.995590 -0.014230 
#    z -0.007540 -0.014230 1.976840 
# 
# From -- ./inp_files/403642.got.cif
#   From: 2010.06.25/outbox.cif.g09.slc.cpg/sg2_202_cif.got.tgz:403642.got - 2010.06.27 13:26:56.
