data_PCOD8001611
_publ_section_title
;
Structure prediction by ZEFSAII (Michael W. Deem and Ramdas Pophale) SiO2 
 PCOD8001611
Probable space group: P -1
;
_chemical_formula_sum "Si O2"
_cell_formula_units_Z 16
_cell_length_a 16.026242
_cell_length_b 8.902149
_cell_length_c 8.774566
_cell_angle_alpha 38.559387
_cell_angle_beta 61.033242
_cell_angle_gamma 78.651879
_cell_volume 643.581729
_symmetry_space_group_name_H-M "P -1"
_symmetry_group_IT_number 2
_symmetry_cell_setting 'triclinic'
loop_
_space_group_symop_operation_xyz
x,y,z
-x,-y,-z
loop_
_atom_site_type_symbol
_atom_site_label
_atom_site_fract_x
_atom_site_fract_y
_atom_site_fract_z
Si Si1 0.085763 0.646908 0.185161
Si Si2 0.368960 0.546335 0.696367
Si Si3 0.781614 0.683342 0.729664
Si Si4 0.236870 0.158613 0.703811
Si Si5 0.410726 0.135098 0.769461
Si Si6 0.960393 0.156448 0.249689
Si Si7 0.081875 0.807714 0.417927
Si Si8 0.726607 0.314795 0.604749
O O1 0.133437 0.914647 0.030840
O O2 0.065917 0.724435 0.972348
O O3 0.176869 0.536099 0.193551
O O4 0.974675 0.406564 0.497161
O O5 0.393007 0.322818 0.763311
O O6 0.473113 0.775988 0.456126
O O7 0.293659 0.655348 0.579535
O O8 0.317713 0.440599 0.984644
O O9 0.750532 0.820341 0.504995
O O10 0.869805 0.890576 0.580286
O O11 0.340198 0.125830 0.694268
O O12 0.220572 0.408228 0.589591
O O13 0.380658 0.847796 0.093982
O O14 0.060748 0.074945 0.202088
O O15 0.966149 0.319097 0.272389
O O16 0.200941 0.853147 0.291642
#
# Coordination Sequence:
#
# PCOD8001611 Si02
#       8
#     2   2   2   2   2   2   2   2
#     4  10  20  37  56  83 122 158 195 240 286 345
#     4  10  22  39  66  92 113 150 199 247 299 352
#     4  10  20  38  61  88 119 156 197 240 293 350
#     4  10  23  40  58  83 124 162 195 240 290 350
#     4  10  22  42  62  88 121 151 193 250 299 348
#     4   9  19  34  55  89 123 151 193 245 291 347
#     4  10  20  33  58  88 118 156 197 240 291 347
#     4  11  22  39  61  88 121 158 196 241 295 349
#
# _framework density 24.860866999999999
#
# number of rings (size 3 to 8) (size 9 to 14) (size 15 to 20)
#    0.000    2.000    0.000    3.000    0.000    6.000 
#    0.000   11.250    0.000    0.000    0.000    0.000 
#    0.000    0.000    0.000    0.000    0.000    0.000 
#
# Total GULP energy -198372.718466 kJ/mol
# GULP energy per Si atom -12398.294904 kJ/mol
# Density = 2.480428 g / cm^3
# Si number density = 24.860867 Si / 1000 Ang^3
#
#
#
# Elastic Constant Matrix: (Units=GPa)
#
#
# Indices 1 2 3 4 5 6 
#
# 1 122.0304 47.4870 60.3908 5.0274 -9.8846 18.0506
# 2 47.4870 73.3618 36.0416 -5.8043 -20.0694 14.2446
# 3 60.3908 36.0416 166.4029 3.8042 -30.7470 8.3342
# 4 5.0274 -5.8043 3.8042 32.7566 3.1363 -5.7769
# 5 -9.8846 -20.0694 -30.7470 3.1363 43.3373 5.4980
# 6 18.0506 14.2446 8.3342 -5.7769 5.4980 29.1517
#
#
#
# Elastic Compliance Matrix: (Units=1/GPa)
#
#
# Indices 1 2 3 4 5 6 
#
# 1 0.013091 -0.006770 -0.003315 -0.003400 -0.001723 -0.004199
# 2 -0.006770 0.022532 -0.000340 0.002762 0.009458 -0.007957
# 3 -0.003315 -0.000340 0.008365 -0.001281 0.005295 -0.001425
# 4 -0.003400 0.002762 -0.001281 0.033564 -0.003914 0.008511
# 5 -0.001723 0.009458 0.005295 -0.003914 0.032624 -0.011997
# 6 -0.004199 -0.007957 -0.001425 0.008511 -0.011997 0.045148
#
#
# Mechanical properties :
#
#
# Convention : Reuss Voigt Hill
#
# Bulk Modulus (GPa) = 43.21972 72.18154 57.70063
# Shear Modulus (GPa) = 27.19047 35.57417 31.38232
#
# Velocity S-wave (km/s) = 3.31071 3.78687 3.55677
# Velocity P-wave (km/s) = 5.66010 6.94390 6.33461
#
# Compressibility (1/GPa) = 0.02313758
#
# Stress axis : x y z
#
# Youngs Moduli (GPa) = 76.38556 44.38205 119.54163
#
# Poissons Ratio (x) = 0.30048 0.39628
# Poissons Ratio (y) = 0.51716 0.04065
# Poissons Ratio (z) = 0.25322 0.01509
#
# Static dielectric constant tensor:
#      x y z
#    x 4.581610 0.429320 -0.007160 
#    y 0.429320 4.480420 -0.211270 
#    z -0.007160 -0.211270 4.880440 
# 
# 
# High freq. dielectric constant tensor:
#      x y z
#    x 1.994930 0.030860 0.011500 
#    y 0.030860 1.981110 -0.004020 
#    z 0.011500 -0.004020 2.021230 
# 
# From -- ./inp_files/328325.got.cif
#   From: 2010.06.25/outbox.cif.g09.slc.cpg/sg2_165_cif.got.tgz:328325.got - 2010.06.27 13:26:56.
