data_PCOD8001301
_publ_section_title
;
Structure prediction by ZEFSAII (Michael W. Deem and Ramdas Pophale) SiO2 
 PCOD8001301
Probable space group: P -1
;
_chemical_formula_sum "Si O2"
_cell_formula_units_Z 12
_cell_length_a 9.071292
_cell_length_b 9.052581
_cell_length_c 12.712872
_cell_angle_alpha 46.281382
_cell_angle_beta 129.717995
_cell_angle_gamma 100.746387
_cell_volume 515.627415
_symmetry_space_group_name_H-M "P -1"
_symmetry_group_IT_number 2
_symmetry_cell_setting 'triclinic'
loop_
_space_group_symop_operation_xyz
x,y,z
-x,-y,-z
loop_
_atom_site_type_symbol
_atom_site_label
_atom_site_fract_x
_atom_site_fract_y
_atom_site_fract_z
Si Si1 0.287389 0.742080 0.776072
Si Si2 0.285096 0.652809 0.042520
Si Si3 0.435338 0.146684 0.293843
Si Si4 0.969123 0.816936 0.006473
Si Si5 0.992613 0.555241 0.639152
Si Si6 0.658460 0.736925 0.222977
O O1 0.350733 0.905550 0.652175
O O2 0.085421 0.725733 0.638760
O O3 0.500000 0.500000 0.000000
O O4 0.230741 0.822628 0.831934
O O5 0.294959 0.413020 0.130116
O O6 0.517011 0.598982 0.224444
O O7 0.095094 0.785878 0.971049
O O8 0.500000 0.000000 0.500000
O O9 0.284224 0.079091 0.185978
O O10 0.058519 0.570906 0.225813
O O11 0.000000 0.000000 0.000000
O O12 0.163674 0.355746 0.741478
O O13 0.770843 0.705340 0.402881
O O14 0.500000 0.000000 0.000000
#
# Coordination Sequence:
#
# PCOD8001301 Si02
#       6
#     2   2   2   2   2   2
#     4  10  19  44  73  93 133 191 232 285 352 422
#     4  11  23  46  70  97 146 184 237 291 350 431
#     4  11  24  44  72 104 142 183 236 293 356 424
#     4  12  26  44  68 104 143 186 240 297 360 418
#     4  11  23  45  71  97 146 187 233 300 355 418
#     4  11  24  43  70 104 139 189 242 289 358 431
#
# _framework density 23.272618999999999
#
# number of rings (size 3 to 8) (size 9 to 14) (size 15 to 20)
#    0.000    1.000    6.667    1.500    2.333    2.000 
#    6.000    1.667    0.000    0.000    0.000    0.000 
#    0.000    0.000    0.000    0.000    0.000    0.000 
#
# Total GULP energy -148844.943032 kJ/mol
# GULP energy per Si atom -12403.745253 kJ/mol
# Density = 2.321965 g / cm^3
# Si number density = 23.272619 Si / 1000 Ang^3
#
#
#
# Elastic Constant Matrix: (Units=GPa)
#
#
# Indices 1 2 3 4 5 6 
#
# 1 173.1482 64.5254 64.1121 19.6909 -33.6145 -1.1436
# 2 64.5254 125.1406 49.3925 41.0097 -0.7229 21.0703
# 3 64.1121 49.3925 151.9549 40.6756 -16.4146 16.1287
# 4 19.6909 41.0097 40.6756 46.3766 2.2065 7.5279
# 5 -33.6145 -0.7229 -16.4146 2.2065 44.3971 6.2799
# 6 -1.1436 21.0703 16.1287 7.5279 6.2799 42.3834
#
#
#
# Elastic Compliance Matrix: (Units=1/GPa)
#
#
# Indices 1 2 3 4 5 6 
#
# 1 0.009433 -0.004845 -0.002546 0.001841 0.005682 0.002463
# 2 -0.004845 0.014578 0.000395 -0.010205 -0.002011 -0.005418
# 3 -0.002546 0.000395 0.010269 -0.007889 0.002716 -0.003174
# 4 0.001841 -0.010205 -0.007889 0.036549 -0.003816 0.002199
# 5 0.005682 -0.002011 0.002716 -0.003816 0.028471 -0.003421
# 6 0.002463 -0.005418 -0.003174 0.002199 -0.003421 0.027678
#
#
# Mechanical properties :
#
#
# Convention : Reuss Voigt Hill
#
# Bulk Modulus (GPa) = 49.28672 89.58929 69.43801
# Shear Modulus (GPa) = 33.84496 44.77902 39.31199
#
# Velocity S-wave (km/s) = 3.81764 4.39122 4.11444
# Velocity P-wave (km/s) = 6.37624 8.01808 7.24383
#
# Compressibility (1/GPa) = 0.02028944
#
# Stress axis : x y z
#
# Youngs Moduli (GPa) = 106.00589 68.59636 97.38372
#
# Poissons Ratio (x) = 0.33232 0.24793
# Poissons Ratio (y) = 0.51355 -0.03847
# Poissons Ratio (z) = 0.26988 -0.02710
#
# Static dielectric constant tensor:
#      x y z
#    x 4.757610 0.183640 -0.146720 
#    y 0.183640 4.363030 0.502510 
#    z -0.146720 0.502510 4.298600 
# 
# 
# High freq. dielectric constant tensor:
#      x y z
#    x 1.931010 0.005140 -0.006650 
#    y 0.005140 1.924840 0.023260 
#    z -0.006650 0.023260 1.914980 
# 
# From -- ./inp_files/183919.got.cif
#   From: 2010.06.25/outbox.cif.g09.slc.cpg/sg2_92_cif.got.tgz:183919.got - 2010.06.27 13:26:56.
