data_PCOD8001963
_publ_section_title
;
Structure prediction by ZEFSAII (Michael W. Deem and Ramdas Pophale) SiO2 
 PCOD8001963
Probable space group: P -1
;
_chemical_formula_sum "Si O2"
_cell_formula_units_Z 14
_cell_length_a 5.342571
_cell_length_b 9.001757
_cell_length_c 15.119998
_cell_angle_alpha 77.682119
_cell_angle_beta 114.014234
_cell_angle_gamma 84.762469
_cell_volume 635.873369
_symmetry_space_group_name_H-M "P -1"
_symmetry_group_IT_number 2
_symmetry_cell_setting 'triclinic'
loop_
_space_group_symop_operation_xyz
x,y,z
-x,-y,-z
loop_
_atom_site_type_symbol
_atom_site_label
_atom_site_fract_x
_atom_site_fract_y
_atom_site_fract_z
Si Si1 0.435602 0.752104 0.173259
Si Si2 0.270071 0.809126 0.489615
Si Si3 0.110248 0.853470 0.802707
Si Si4 0.917147 0.336179 0.002489
Si Si5 0.362199 0.072529 0.060186
Si Si6 0.930263 0.211513 0.724957
Si Si7 0.886292 0.822069 0.590893
O O1 0.297234 0.696517 0.249380
O O2 0.766978 0.743059 0.227951
O O3 0.265349 0.929909 0.112899
O O4 0.382399 0.649478 0.092034
O O5 0.180396 0.737177 0.395234
O O6 0.604024 0.752679 0.556724
O O7 0.099884 0.748868 0.553085
O O8 0.190555 0.994024 0.453184
O O9 0.048777 0.745125 0.887316
O O10 0.435223 0.859928 0.852242
O O11 0.042144 0.774131 0.712161
O O12 0.935673 0.028702 0.761904
O O13 0.120516 0.217936 0.981618
O O14 0.000000 0.500000 0.000000
O O15 0.500000 0.000000 0.000000
#
# Coordination Sequence:
#
# PCOD8001963 Si02
#       7
#     2   2   2   2   2   2   2
#     4  11  21  37  59  87 115 163 198 245 299 358
#     4   9  17  31  49  84 114 146 184 251 304 349
#     4  10  21  34  55  84 117 164 195 243 300 366
#     4  12  25  39  57  87 127 163 205 250 298 358
#     4  11  21  39  61  82 120 161 210 246 298 355
#     4  10  20  34  61  85 117 151 204 249 298 359
#     4   9  18  29  51  79 121 149 185 238 309 363
#
# _framework density 22.016964999999999
#
# number of rings (size 3 to 8) (size 9 to 14) (size 15 to 20)
#    0.000    1.714    2.857    3.000    2.000    4.000 
#    0.000    0.000    0.000    0.000    0.000    6.000 
#    0.000    0.000    0.000    0.000    0.000    0.000 
#
# Total GULP energy -173508.683296 kJ/mol
# GULP energy per Si atom -12393.477378 kJ/mol
# Density = 2.196685 g / cm^3
# Si number density = 22.016965 Si / 1000 Ang^3
#
#
#
# Elastic Constant Matrix: (Units=GPa)
#
#
# Indices 1 2 3 4 5 6 
#
# 1 155.7932 36.6523 84.5189 20.0112 -12.5155 14.5014
# 2 36.6523 57.4144 35.3736 14.6721 9.8821 22.9892
# 3 84.5189 35.3736 194.7329 31.7219 -3.9862 20.4011
# 4 20.0112 14.6721 31.7219 14.7988 8.6754 7.1558
# 5 -12.5155 9.8821 -3.9862 8.6754 39.7507 7.6755
# 6 14.5014 22.9892 20.4011 7.1558 7.6755 17.9366
#
#
#
# Elastic Compliance Matrix: (Units=1/GPa)
#
#
# Indices 1 2 3 4 5 6 
#
# 1 0.010069 -0.004131 -0.002183 -0.008465 0.005716 0.000568
# 2 -0.004131 0.041508 0.002155 -0.019170 0.001531 -0.045320
# 3 -0.002183 0.002155 0.009754 -0.020180 0.005384 -0.006343
# 4 -0.008465 -0.019170 -0.020180 0.159347 -0.035888 0.006154
# 5 0.005716 0.001531 0.005384 -0.035888 0.037757 -0.014547
# 6 0.000568 -0.045320 -0.006343 0.006154 -0.014547 0.124363
#
#
# Mechanical properties :
#
#
# Convention : Reuss Voigt Hill
#
# Bulk Modulus (GPa) = 18.86353 80.11446 49.48899
# Shear Modulus (GPa) = 12.23133 31.25692 21.74412
#
# Velocity S-wave (km/s) = 2.35955 3.77194 3.14603
# Velocity P-wave (km/s) = 4.00120 7.44558 5.97688
#
# Compressibility (1/GPa) = 0.05301234
#
# Stress axis : x y z
#
# Youngs Moduli (GPa) = 99.31903 24.09157 102.52694
#
# Poissons Ratio (x) = 0.09951 0.22384
# Poissons Ratio (y) = 0.41024 -0.22092
# Poissons Ratio (z) = 0.21683 -0.05191
#
# Static dielectric constant tensor:
#      x y z
#    x 4.066360 0.124250 0.056560 
#    y 0.124250 3.441410 0.043420 
#    z 0.056560 0.043420 4.467370 
# 
# 
# High freq. dielectric constant tensor:
#      x y z
#    x 1.874820 0.015190 -0.000480 
#    y 0.015190 1.798870 0.021040 
#    z -0.000480 0.021040 1.881580 
# 
# From -- ./inp_files/44662.got.cif
#   From: 2010.06.25/outbox.cif.g09.slc.cpg/sg2_23_cif.got.tgz:44662.got - 2010.06.27 13:26:56.
