data_PCOD8001147
_publ_section_title
;
Structure prediction by ZEFSAII (Michael W. Deem and Ramdas Pophale) SiO2 
 PCOD8001147
Probable space group: P -1
;
_chemical_formula_sum "Si O2"
_cell_formula_units_Z 16
_cell_length_a 8.371613
_cell_length_b 8.793546
_cell_length_c 22.186306
_cell_angle_alpha 148.450418
_cell_angle_beta 125.782555
_cell_angle_gamma 55.032609
_cell_volume 682.419301
_symmetry_space_group_name_H-M "P -1"
_symmetry_group_IT_number 2
_symmetry_cell_setting 'triclinic'
loop_
_space_group_symop_operation_xyz
x,y,z
-x,-y,-z
loop_
_atom_site_type_symbol
_atom_site_label
_atom_site_fract_x
_atom_site_fract_y
_atom_site_fract_z
Si Si1 0.665398 0.202068 0.593976
Si Si2 0.665887 0.857582 0.850882
Si Si3 0.341087 0.776862 0.539963
Si Si4 0.276727 0.202871 0.847465
Si Si5 0.043748 0.809484 0.591824
Si Si6 0.469414 0.321459 0.806198
Si Si7 0.139110 0.780774 0.078160
Si Si8 0.719301 0.052213 0.052601
O O1 0.612382 0.533264 0.719908
O O2 0.719970 0.227668 0.544598
O O3 0.500000 0.000000 0.500000
O O4 0.848745 0.049858 0.622325
O O5 0.452271 0.071609 0.888408
O O6 0.784091 0.957374 0.853524
O O7 0.791319 0.895172 0.951440
O O8 0.500000 0.500000 0.500000
O O9 0.149412 0.775917 0.538984
O O10 0.446023 0.055960 0.668040
O O11 0.391321 0.304262 0.850259
O O12 0.166925 0.936399 0.714161
O O13 0.132860 0.485207 0.938329
O O14 0.000000 0.500000 0.500000
O O15 0.711116 0.315867 0.864280
O O16 0.319055 0.594400 0.836081
O O17 0.907222 0.915503 0.092213
O O18 0.500000 0.000000 0.000000
#
# Coordination Sequence:
#
# PCOD8001147 Si02
#       8
#     2   2   2   2   2   2   2   2
#     4  12  26  44  68 103 135 185 236 284 345 412
#     4  11  22  43  71  95 131 175 227 281 339 414
#     4  11  24  46  69  97 139 180 231 289 345 408
#     4  10  19  41  70  97 127 172 224 281 333 411
#     4  11  24  44  68 101 137 182 232 286 349 414
#     4  10  22  43  67  96 134 168 226 281 338 410
#     4  11  21  42  71  96 128 180 221 273 347 414
#     4  12  26  40  63 103 136 170 221 281 346 406
#
# _framework density 23.445997999999999
#
# number of rings (size 3 to 8) (size 9 to 14) (size 15 to 20)
#    0.000    1.000    2.500    6.000    5.250    0.500 
#    4.500    0.000    0.000    0.000    0.000    0.000 
#    0.000    0.000    0.000    0.000    0.000    0.000 
#
# Total GULP energy -198307.827210 kJ/mol
# GULP energy per Si atom -12394.239201 kJ/mol
# Density = 2.339263 g / cm^3
# Si number density = 23.445998 Si / 1000 Ang^3
#
#
#
# Elastic Constant Matrix: (Units=GPa)
#
#
# Indices 1 2 3 4 5 6 
#
# 1 70.0703 20.3695 22.2942 10.2756 17.7186 -25.4136
# 2 20.3695 112.6048 38.0973 12.2356 -1.8464 -33.8611
# 3 22.2942 38.0973 123.7758 34.4754 5.4061 -3.2665
# 4 10.2756 12.2356 34.4754 40.2964 0.5670 -2.4557
# 5 17.7186 -1.8464 5.4061 0.5670 32.8674 0.8353
# 6 -25.4136 -33.8611 -3.2665 -2.4557 0.8353 45.6928
#
#
#
# Elastic Compliance Matrix: (Units=1/GPa)
#
#
# Indices 1 2 3 4 5 6 
#
# 1 0.023350 0.000893 -0.002793 -0.002838 -0.012373 0.013522
# 2 0.000893 0.013028 -0.003857 -0.000292 0.000640 0.009848
# 3 -0.002793 -0.003857 0.012111 -0.008716 -0.000451 -0.004006
# 4 -0.002838 -0.000292 -0.008716 0.033010 0.002395 -0.000688
# 5 -0.012373 0.000640 -0.000451 0.002395 0.037342 -0.006994
# 6 0.013522 0.009848 -0.004006 -0.000688 -0.006994 0.036508
#
#
# Mechanical properties :
#
#
# Convention : Reuss Voigt Hill
#
# Bulk Modulus (GPa) = 27.04625 51.99698 39.52162
# Shear Modulus (GPa) = 27.90370 38.81731 33.36051
#
# Velocity S-wave (km/s) = 3.45356 4.07333 3.77618
# Velocity P-wave (km/s) = 5.24055 6.65944 5.99214
#
# Compressibility (1/GPa) = 0.03697370
#
# Stress axis : x y z
#
# Youngs Moduli (GPa) = 42.82720 76.75978 82.56920
#
# Poissons Ratio (x) = -0.06853 0.23060
# Poissons Ratio (y) = -0.03824 0.31850
# Poissons Ratio (z) = 0.11961 0.29609
#
# Static dielectric constant tensor:
#      x y z
#    x 4.043550 -0.108050 0.098530 
#    y -0.108050 4.348690 -0.267170 
#    z 0.098530 -0.267170 4.140370 
# 
# 
# High freq. dielectric constant tensor:
#      x y z
#    x 1.914150 -0.011010 0.007320 
#    y -0.011010 1.943360 0.009610 
#    z 0.007320 0.009610 1.936850 
# 
# From -- ./inp_files/398119.got.cif
#   From: 2010.06.25/outbox.cif.g09.slc.cpg/sg2_200_cif.got.tgz:398119.got - 2010.06.27 13:26:56.
