data_PCOD8001140
_publ_section_title
;
Structure prediction by ZEFSAII (Michael W. Deem and Ramdas Pophale) SiO2 
 PCOD8001140
Probable space group: P -1
;
_chemical_formula_sum "Si O2"
_cell_formula_units_Z 16
_cell_length_a 7.700818
_cell_length_b 8.456228
_cell_length_c 20.803901
_cell_angle_alpha 122.921101
_cell_angle_beta 36.719686
_cell_angle_gamma 113.989233
_cell_volume 678.791670
_symmetry_space_group_name_H-M "P -1"
_symmetry_group_IT_number 2
_symmetry_cell_setting 'triclinic'
loop_
_space_group_symop_operation_xyz
x,y,z
-x,-y,-z
loop_
_atom_site_type_symbol
_atom_site_label
_atom_site_fract_x
_atom_site_fract_y
_atom_site_fract_z
Si Si1 0.836428 0.363133 0.699469
Si Si2 0.618294 0.506871 0.038394
Si Si3 0.525985 0.620282 0.455256
Si Si4 0.730429 0.310706 0.578932
Si Si5 0.696860 0.934042 0.655825
Si Si6 0.656342 0.024048 0.347863
Si Si7 0.711386 0.097673 0.909266
Si Si8 0.707168 0.912030 0.087153
O O1 0.623716 0.494083 0.834628
O O2 0.811896 0.427148 0.645177
O O3 0.779899 0.145536 0.666636
O O4 0.132255 0.375808 0.653578
O O5 0.791140 0.697980 0.040665
O O6 0.500000 0.500000 0.000000
O O7 0.797249 0.306966 0.953199
O O8 0.500000 0.500000 0.500000
O O9 0.381935 0.546435 0.414483
O O10 0.363849 0.829858 0.554890
O O11 0.460120 0.177930 0.642990
O O12 0.017611 0.195299 0.441945
O O13 0.445777 0.939939 0.785171
O O14 0.555470 0.866426 0.616839
O O15 0.981255 0.013558 0.219579
O O16 0.530135 0.114197 0.902079
O O17 0.500000 0.000000 0.000000
O O18 0.000000 0.000000 0.000000
#
# Coordination Sequence:
#
# PCOD8001140 Si02
#       8
#     2   2   2   2   2   2   2   2
#     4  10  21  43  67  98 136 172 230 284 341 418
#     4   9  22  42  70  93 139 186 232 284 346 414
#     4  12  26  39  66 101 138 173 222 290 358 408
#     4  11  22  42  71  99 127 183 228 280 352 422
#     4  10  19  41  69  96 130 171 228 287 340 415
#     4  11  22  42  68  97 130 177 231 282 342 422
#     4  11  24  41  65  99 133 182 237 283 344 414
#     4  10  21  41  66  96 133 184 231 286 351 412
#
# _framework density 23.571297000000001
#
# number of rings (size 3 to 8) (size 9 to 14) (size 15 to 20)
#    0.000    1.500    2.500    2.625    7.000    0.500 
#    0.000   10.000    0.000    0.000    0.000    0.000 
#    0.000    0.000    0.000    0.000    0.000    0.000 
#
# Total GULP energy -198211.959408 kJ/mol
# GULP energy per Si atom -12388.247463 kJ/mol
# Density = 2.351765 g / cm^3
# Si number density = 23.571297 Si / 1000 Ang^3
#
#
#
# Elastic Constant Matrix: (Units=GPa)
#
#
# Indices 1 2 3 4 5 6 
#
# 1 134.0277 7.2004 46.2880 3.5574 -1.5080 -22.6715
# 2 7.2004 56.6760 34.2330 -8.7661 -5.3381 -7.8887
# 3 46.2880 34.2330 94.6884 -25.5156 -1.9338 5.7585
# 4 3.5574 -8.7661 -25.5156 30.4571 5.3468 4.8341
# 5 -1.5080 -5.3381 -1.9338 5.3468 42.5084 -5.6446
# 6 -22.6715 -7.8887 5.7585 4.8341 -5.6446 31.4272
#
#
#
# Elastic Compliance Matrix: (Units=1/GPa)
#
#
# Indices 1 2 3 4 5 6 
#
# 1 0.018178 0.010119 -0.019308 -0.020297 0.006713 0.023520
# 2 0.010119 0.030911 -0.021478 -0.015347 0.008226 0.022833
# 3 -0.019308 -0.021478 0.039421 0.036380 -0.010687 -0.034058
# 4 -0.020297 -0.015347 0.036380 0.070013 -0.014926 -0.038611
# 5 0.006713 0.008226 -0.010687 -0.014926 0.028345 0.016253
# 6 0.023520 0.022833 -0.034058 -0.038611 0.016253 0.069617
#
#
# Mechanical properties :
#
#
# Convention : Reuss Voigt Hill
#
# Bulk Modulus (GPa) = 36.79578 51.20389 43.99984
# Shear Modulus (GPa) = 15.29627 34.05658 24.67642
#
# Velocity S-wave (km/s) = 2.55019 3.80522 3.23907
# Velocity P-wave (km/s) = 4.93108 6.40909 5.71804
#
# Compressibility (1/GPa) = 0.02717703
#
# Stress axis : x y z
#
# Youngs Moduli (GPa) = 55.01053 32.35125 25.36732
#
# Poissons Ratio (x) = -0.32737 0.48978
# Poissons Ratio (y) = -0.55666 0.54484
# Poissons Ratio (z) = 1.06212 0.69484
#
# Static dielectric constant tensor:
#      x y z
#    x 4.517190 -0.033160 0.585480 
#    y -0.033160 4.191490 0.098950 
#    z 0.585480 0.098950 4.328010 
# 
# 
# High freq. dielectric constant tensor:
#      x y z
#    x 1.942220 0.000350 0.011610 
#    y 0.000350 1.918720 -0.007560 
#    z 0.011610 -0.007560 1.938180 
# 
# From -- ./inp_files/606428.got.cif
#   From: 2010.06.25/outbox.cif.g09.slc.cpg/sg2_304_cif.got.tgz:606428.got - 2010.06.27 13:26:56.
