data_PCOD8001155
_publ_section_title
;
Structure prediction by ZEFSAII (Michael W. Deem and Ramdas Pophale) SiO2 
 PCOD8001155
Probable space group: P -1
;
_chemical_formula_sum "Si O2"
_cell_formula_units_Z 16
_cell_length_a 11.475072
_cell_length_b 9.648578
_cell_length_c 9.473329
_cell_angle_alpha 134.248412
_cell_angle_beta 77.294133
_cell_angle_gamma 92.270142
_cell_volume 723.133723
_symmetry_space_group_name_H-M "P -1"
_symmetry_group_IT_number 2
_symmetry_cell_setting 'triclinic'
loop_
_space_group_symop_operation_xyz
x,y,z
-x,-y,-z
loop_
_atom_site_type_symbol
_atom_site_label
_atom_site_fract_x
_atom_site_fract_y
_atom_site_fract_z
Si Si1 0.758761 0.286698 0.941121
Si Si2 0.323669 0.335717 0.314060
Si Si3 0.365293 0.909909 0.934371
Si Si4 0.008794 0.046234 0.800510
Si Si5 0.577010 0.280908 0.499251
Si Si6 0.762330 0.078160 0.517852
Si Si7 0.870397 0.838921 0.894231
Si Si8 0.690328 0.687424 0.371204
O O1 0.890065 0.163202 0.845007
O O2 0.731368 0.258799 0.763451
O O3 0.650737 0.214932 0.009634
O O4 0.762028 0.513581 0.133618
O O5 0.388827 0.503198 0.351478
O O6 0.196205 0.340486 0.267153
O O7 0.290842 0.369984 0.510628
O O8 0.410278 0.120528 0.109895
O O9 0.443844 0.779847 0.701479
O O10 0.229949 0.962821 0.941456
O O11 0.977706 0.867722 0.778155
O O12 0.098624 0.949580 0.586513
O O13 0.074956 0.191780 0.984483
O O14 0.675399 0.121508 0.436738
O O15 0.450451 0.285059 0.615012
O O16 0.743147 0.882478 0.464903
#
# Coordination Sequence:
#
# PCOD8001155 Si02
#       8
#     2   2   2   2   2   2   2   2
#     4  11  24  41  68  94 137 170 213 270 329 391
#     4  10  21  41  67 100 128 167 225 263 324 389
#     4   9  19  41  66  96 127 171 210 271 321 378
#     4  10  19  41  71  93 130 174 212 270 330 386
#     4  12  25  42  71  95 131 175 225 272 315 384
#     4  12  25  45  65  96 136 176 215 267 334 384
#     4   8  18  38  67  99 128 159 216 272 319 384
#     4  12  26  43  64  99 136 174 220 267 326 392
#
# _framework density 22.125921999999999
#
# number of rings (size 3 to 8) (size 9 to 14) (size 15 to 20)
#    0.750    0.750    3.750    1.125    0.000    4.500 
#    0.000    3.750    0.000    0.000    0.000    0.000 
#    0.000    0.000    0.000    0.000    0.000    0.000 
#
# Total GULP energy -198415.419483 kJ/mol
# GULP energy per Si atom -12400.963718 kJ/mol
# Density = 2.207556 g / cm^3
# Si number density = 22.125922 Si / 1000 Ang^3
#
#
#
# Elastic Constant Matrix: (Units=GPa)
#
#
# Indices 1 2 3 4 5 6 
#
# 1 42.0327 3.0486 33.7764 2.1963 10.5367 8.0513
# 2 3.0486 45.2614 22.2865 -5.7075 -1.5127 3.5993
# 3 33.7764 22.2865 135.0727 -10.5866 6.0655 8.4802
# 4 2.1963 -5.7075 -10.5866 28.9787 4.4045 3.9004
# 5 10.5367 -1.5127 6.0655 4.4045 37.2292 -0.6335
# 6 8.0513 3.5993 8.4802 3.9004 -0.6335 27.5629
#
#
#
# Elastic Compliance Matrix: (Units=1/GPa)
#
#
# Indices 1 2 3 4 5 6 
#
# 1 0.033758 0.001671 -0.008137 -0.003010 -0.007929 -0.007332
# 2 0.001671 0.024686 -0.004061 0.003538 0.000723 -0.002946
# 3 -0.008137 -0.004061 0.010456 0.003754 -0.000024 -0.000842
# 4 -0.003010 0.003538 0.003754 0.038293 -0.004253 -0.006254
# 5 -0.007929 0.000723 -0.000024 -0.004253 0.029701 0.003514
# 6 -0.007332 -0.002946 -0.000842 -0.006254 0.003514 0.040032
#
#
# Mechanical properties :
#
#
# Convention : Reuss Voigt Hill
#
# Bulk Modulus (GPa) = 20.90021 37.84330 29.37175
# Shear Modulus (GPa) = 23.37245 29.63786 26.50516
#
# Velocity S-wave (km/s) = 3.25366 3.66390 3.46486
# Velocity P-wave (km/s) = 4.85609 5.91943 5.41393
#
# Compressibility (1/GPa) = 0.04784642
#
# Stress axis : x y z
#
# Youngs Moduli (GPa) = 29.62291 40.50938 95.63613
#
# Poissons Ratio (x) = -0.06770 0.77817
# Poissons Ratio (y) = -0.04951 0.38839
# Poissons Ratio (z) = 0.24103 0.16451
#
# Static dielectric constant tensor:
#      x y z
#    x 4.044290 0.049900 0.048300 
#    y 0.049900 3.679280 -0.120990 
#    z 0.048300 -0.120990 3.882610 
# 
# 
# High freq. dielectric constant tensor:
#      x y z
#    x 1.886830 0.003390 0.005080 
#    y 0.003390 1.844290 -0.010360 
#    z 0.005080 -0.010360 1.869670 
# 
# From -- ./inp_files/296700.got.cif
#   From: 2010.06.25/outbox.cif.g09.slc.cpg/sg2_149_cif.got.tgz:296700.got - 2010.06.27 13:26:56.
