data_PCOD8001995
_publ_section_title
;
Structure prediction by ZEFSAII (Michael W. Deem and Ramdas Pophale) SiO2 
 PCOD8001995
Probable space group: P -1
;
_chemical_formula_sum "Si O2"
_cell_formula_units_Z 16
_cell_length_a 10.984674
_cell_length_b 7.773793
_cell_length_c 13.174137
_cell_angle_alpha 76.751952
_cell_angle_beta 61.579697
_cell_angle_gamma 44.409236
_cell_volume 681.037735
_symmetry_space_group_name_H-M "P -1"
_symmetry_group_IT_number 2
_symmetry_cell_setting 'triclinic'
loop_
_space_group_symop_operation_xyz
x,y,z
-x,-y,-z
loop_
_atom_site_type_symbol
_atom_site_label
_atom_site_fract_x
_atom_site_fract_y
_atom_site_fract_z
Si Si1 0.587228 0.748080 0.943798
Si Si2 0.976512 0.144521 0.190957
Si Si3 0.640755 0.603056 0.150705
Si Si4 0.216507 0.134491 0.943461
Si Si5 0.621398 0.181629 0.595435
Si Si6 0.767243 0.403152 0.436939
Si Si7 0.726929 0.807174 0.458965
Si Si8 0.997330 0.733121 0.195003
O O1 0.807397 0.564328 0.837980
O O2 0.436238 0.848676 0.897484
O O3 0.590099 0.599361 0.054323
O O4 0.500000 0.000000 0.000000
O O5 0.768339 0.333666 0.187805
O O6 0.943844 0.221538 0.311499
O O7 0.061169 0.871071 0.185491
O O8 0.120748 0.159248 0.084339
O O9 0.773479 0.661929 0.092739
O O10 0.440613 0.808994 0.266292
O O11 0.090663 0.174814 0.895396
O O12 0.749515 0.244842 0.534591
O O13 0.431759 0.378064 0.574208
O O14 0.753865 0.900543 0.537253
O O15 0.811765 0.531360 0.474967
O O16 0.831648 0.805271 0.323027
O O17 0.500000 0.000000 0.500000
#
# Coordination Sequence:
#
# PCOD8001995 Si02
#       8
#     2   2   2   2   2   2   2   2
#     4  10  25  41  63  95 127 174 219 270 326 387
#     4  11  21  36  63  95 133 169 212 271 323 393
#     4  10  21  39  63  91 131 170 214 271 324 387
#     4  11  23  40  64  92 129 170 218 259 331 385
#     4   9  17  35  55  91 130 160 216 273 313 389
#     4   9  18  31  56  93 126 166 211 268 320 380
#     4  10  20  34  62  98 127 167 222 262 325 395
#     4  12  23  41  64  99 134 168 219 272 326 391
#
# _framework density 23.493556999999999
#
# number of rings (size 3 to 8) (size 9 to 14) (size 15 to 20)
#    0.000    1.750    2.500    3.000    7.000    0.500 
#    0.000    0.000    0.000    7.500    0.000    0.000 
#    0.000    0.000    0.000    0.000    0.000    0.000 
#
# Total GULP energy -198304.312514 kJ/mol
# GULP energy per Si atom -12394.019532 kJ/mol
# Density = 2.344009 g / cm^3
# Si number density = 23.493557 Si / 1000 Ang^3
#
#
#
# Elastic Constant Matrix: (Units=GPa)
#
#
# Indices 1 2 3 4 5 6 
#
# 1 56.9665 40.0016 27.8545 7.6438 -11.1690 21.7915
# 2 40.0016 79.2829 24.4915 24.7647 -7.0057 7.7017
# 3 27.8545 24.4915 144.0000 18.7595 -33.8394 20.9167
# 4 7.6438 24.7647 18.7595 30.0192 9.6832 -8.2688
# 5 -11.1690 -7.0057 -33.8394 9.6832 27.1664 -0.8729
# 6 21.7915 7.7017 20.9167 -8.2688 -0.8729 51.6222
#
#
#
# Elastic Compliance Matrix: (Units=1/GPa)
#
#
# Indices 1 2 3 4 5 6 
#
# 1 0.036515 -0.011489 0.004746 -0.014978 0.022734 -0.017638
# 2 -0.011489 0.035204 0.014710 -0.052374 0.040895 -0.014061
# 3 0.004746 0.014710 0.029366 -0.058553 0.062410 -0.024421
# 4 -0.014978 -0.052374 -0.058553 0.185300 -0.156563 0.064895
# 5 0.022734 0.040895 0.062410 -0.156563 0.188227 -0.062881
# 6 -0.017638 -0.014061 -0.024421 0.064895 -0.062881 0.048141
#
#
# Mechanical properties :
#
#
# Convention : Reuss Voigt Hill
#
# Bulk Modulus (GPa) = 8.54551 51.66052 30.10301
# Shear Modulus (GPa) = 9.16044 34.28834 21.72439
#
# Velocity S-wave (km/s) = 1.97676 3.82446 3.04418
# Velocity P-wave (km/s) = 2.97580 6.44507 5.01968
#
# Compressibility (1/GPa) = 0.11702054
#
# Stress axis : x y z
#
# Youngs Moduli (GPa) = 27.38603 28.40549 34.05351
#
# Poissons Ratio (x) = 0.32635 -0.16163
# Poissons Ratio (y) = 0.31464 -0.50094
# Poissons Ratio (z) = -0.12998 -0.41785
#
# Static dielectric constant tensor:
#      x y z
#    x 4.142740 0.076940 0.060610 
#    y 0.076940 4.504550 0.161150 
#    z 0.060610 0.161150 4.432560 
# 
# 
# High freq. dielectric constant tensor:
#      x y z
#    x 1.897760 0.013500 -0.009700 
#    y 0.013500 1.919460 0.011880 
#    z -0.009700 0.011880 1.939160 
# 
# From -- ./inp_files/515522.got.cif
#   From: 2010.06.25/outbox.cif.g09.slc.cpg/sg2_258_cif.got.tgz:515522.got - 2010.06.27 13:26:56.
