data_PCOD8001645
_publ_section_title
;
Structure prediction by ZEFSAII (Michael W. Deem and Ramdas Pophale) SiO2 
 PCOD8001645
Probable space group: P -1
;
_chemical_formula_sum "Si O2"
_cell_formula_units_Z 16
_cell_length_a 12.840702
_cell_length_b 11.576348
_cell_length_c 7.326922
_cell_angle_alpha 71.670666
_cell_angle_beta 54.508993
_cell_angle_gamma 46.802000
_cell_volume 640.114859
_symmetry_space_group_name_H-M "P -1"
_symmetry_group_IT_number 2
_symmetry_cell_setting 'triclinic'
loop_
_space_group_symop_operation_xyz
x,y,z
-x,-y,-z
loop_
_atom_site_type_symbol
_atom_site_label
_atom_site_fract_x
_atom_site_fract_y
_atom_site_fract_z
Si Si1 0.128806 0.306230 0.274353
Si Si2 0.007720 0.021675 0.693700
Si Si3 0.620349 0.246587 0.562428
Si Si4 0.156967 0.621902 0.253739
Si Si5 0.664047 0.493664 0.518109
Si Si6 0.489871 0.134336 0.040069
Si Si7 0.182712 0.096140 0.015221
Si Si8 0.920622 0.426181 0.007491
O O1 0.158538 0.155565 0.223800
O O2 0.069128 0.434064 0.104593
O O3 0.992931 0.376875 0.535772
O O4 0.292050 0.266983 0.226125
O O5 0.201933 0.914938 0.611553
O O6 0.920717 0.959542 0.908169
O O7 0.000000 0.000000 0.500000
O O8 0.901378 0.203259 0.768773
O O9 0.645560 0.363212 0.563672
O O10 0.495417 0.330451 0.474689
O O11 0.541642 0.210210 0.814638
O O12 0.316559 0.503107 0.284280
O O13 0.200994 0.556639 0.034982
O O14 0.835468 0.438070 0.278898
O O15 0.615471 0.053881 0.129472
O O16 0.500000 0.000000 0.000000
O O17 0.107626 0.249543 0.887276
#
# Coordination Sequence:
#
# PCOD8001645 Si02
#       8
#     2   2   2   2   2   2   2   2
#     4  11  21  41  62  91 129 165 212 257 309 377
#     4  12  18  39  68  91 124 164 209 258 311 372
#     4  11  20  38  66  94 123 166 215 253 314 374
#     4  12  25  41  66  95 128 166 210 263 312 372
#     4  11  23  42  66  91 126 168 210 260 313 370
#     4  10  20  33  62  97 120 163 209 255 311 372
#     4  11  21  38  66  93 121 166 210 258 315 366
#     4  12  24  41  63  98 126 167 211 256 317 378
#
# _framework density 24.995514
#
# number of rings (size 3 to 8) (size 9 to 14) (size 15 to 20)
#    0.000    0.750    7.500    1.500    0.000    0.500 
#    0.000    4.375    0.000    0.000    0.000    0.000 
#    0.000    0.000    0.000    0.000    0.000    0.000 
#
# Total GULP energy -198365.862616 kJ/mol
# GULP energy per Si atom -12397.866414 kJ/mol
# Density = 2.493862 g / cm^3
# Si number density = 24.995514 Si / 1000 Ang^3
#
#
#
# Elastic Constant Matrix: (Units=GPa)
#
#
# Indices 1 2 3 4 5 6 
#
# 1 98.1979 36.4913 26.0417 -15.4730 -16.8693 -27.6434
# 2 36.4913 94.1148 19.4043 -34.9588 -12.7700 -31.6269
# 3 26.0417 19.4043 56.5536 -20.8753 -17.4768 0.8627
# 4 -15.4730 -34.9588 -20.8753 31.4179 1.3812 -4.8381
# 5 -16.8693 -12.7700 -17.4768 1.3812 49.8348 -5.4059
# 6 -27.6434 -31.6269 0.8627 -4.8381 -5.4059 63.5589
#
#
#
# Elastic Compliance Matrix: (Units=1/GPa)
#
#
# Indices 1 2 3 4 5 6 
#
# 1 0.014881 0.000877 -0.003106 0.007247 0.004830 0.007913
# 2 0.000877 0.037751 0.010095 0.052234 0.014694 0.024255
# 3 -0.003106 0.010095 0.030546 0.030484 0.012120 0.006609
# 4 0.007247 0.052234 0.030484 0.118739 0.027589 0.040115
# 5 0.004830 0.014694 0.012120 0.027589 0.030464 0.013939
# 6 0.007913 0.024255 0.006609 0.040115 0.013939 0.035394
#
#
# Mechanical properties :
#
#
# Convention : Reuss Voigt Hill
#
# Bulk Modulus (GPa) = 10.11026 45.86011 27.98519
# Shear Modulus (GPa) = 17.54311 40.09091 28.81701
#
# Velocity S-wave (km/s) = 2.65212 4.00925 3.39910
# Velocity P-wave (km/s) = 3.66496 6.31025 5.16000
#
# Compressibility (1/GPa) = 0.09890940
#
# Stress axis : x y z
#
# Youngs Moduli (GPa) = 67.20195 26.48938 32.73767
#
# Poissons Ratio (x) = -0.02323 0.10169
# Poissons Ratio (y) = -0.05894 -0.33050
# Poissons Ratio (z) = 0.20875 -0.26742
#
# Static dielectric constant tensor:
#      x y z
#    x 5.009610 -0.624990 -0.221240 
#    y -0.624990 4.893440 -0.184520 
#    z -0.221240 -0.184520 4.041440 
# 
# 
# High freq. dielectric constant tensor:
#      x y z
#    x 2.017470 -0.014720 -0.018320 
#    y -0.014720 2.005970 -0.036090 
#    z -0.018320 -0.036090 1.957950 
# 
# From -- ./inp_files/256698.got.cif
#   From: 2010.06.25/outbox.cif.g09.slc.cpg/sg2_129_cif.got.tgz:256698.got - 2010.06.27 13:26:56.
