data_PCOD8001277
_publ_section_title
;
Structure prediction by ZEFSAII (Michael W. Deem and Ramdas Pophale) SiO2 
 PCOD8001277
Probable space group: P -1
;
_chemical_formula_sum "Si O2"
_cell_formula_units_Z 16
_cell_length_a 14.368530
_cell_length_b 9.168165
_cell_length_c 12.769883
_cell_angle_alpha 68.982709
_cell_angle_beta 49.788865
_cell_angle_gamma 108.956237
_cell_volume 749.680561
_symmetry_space_group_name_H-M "P -1"
_symmetry_group_IT_number 2
_symmetry_cell_setting 'triclinic'
loop_
_space_group_symop_operation_xyz
x,y,z
-x,-y,-z
loop_
_atom_site_type_symbol
_atom_site_label
_atom_site_fract_x
_atom_site_fract_y
_atom_site_fract_z
Si Si1 0.157980 0.030064 0.102784
Si Si2 0.715653 0.301628 0.516712
Si Si3 0.718383 0.643555 0.499032
Si Si4 0.061037 0.576438 0.319788
Si Si5 0.336026 0.721476 0.940060
Si Si6 0.203108 0.115213 0.820511
Si Si7 0.045899 0.625895 0.040779
Si Si8 0.552226 0.521760 0.078724
O O1 0.128338 0.815639 0.175271
O O2 0.282307 0.200281 0.862704
O O3 0.268701 0.190142 0.087399
O O4 0.947889 0.901246 0.284968
O O5 0.660424 0.403296 0.594471
O O6 0.860109 0.333652 0.468849
O O7 0.523536 0.013424 0.705064
O O8 0.837083 0.469334 0.281472
O O9 0.659087 0.668636 0.424606
O O10 0.624872 0.621922 0.677010
O O11 0.000000 0.500000 0.500000
O O12 0.245632 0.648144 0.142306
O O13 0.158184 0.605688 0.029524
O O14 0.384955 0.592217 0.917812
O O15 0.178665 0.910906 0.856764
O O16 0.000000 0.000000 0.000000
O O17 0.000000 0.500000 0.000000
O O18 0.500000 0.500000 0.000000
#
# Coordination Sequence:
#
# PCOD8001277 Si02
#       8
#     2   2   2   2   2   2   2   2
#     4  10  22  46  69  96 133 174 234 275 333 408
#     4  10  22  44  67  97 130 175 228 270 333 406
#     4  10  23  43  72  97 132 179 229 276 334 407
#     4  10  22  42  72  94 121 179 225 281 334 392
#     4  11  26  44  62  99 137 170 226 277 341 401
#     4  10  19  43  71 100 127 175 228 274 332 409
#     4  11  24  43  68 102 141 172 218 282 348 404
#     4  12  30  44  63 102 140 181 227 283 338 396
#
# _framework density 21.342423
#
# number of rings (size 3 to 8) (size 9 to 14) (size 15 to 20)
#    0.000    1.500    5.000    0.750   10.500    3.000 
#    0.000    0.000    0.000    0.000    0.000    0.000 
#    0.000    0.000    0.000    0.000    0.000    0.000 
#
# Total GULP energy -198274.057005 kJ/mol
# GULP energy per Si atom -12392.128563 kJ/mol
# Density = 2.129385 g / cm^3
# Si number density = 21.342423 Si / 1000 Ang^3
#
#
#
# Elastic Constant Matrix: (Units=GPa)
#
#
# Indices 1 2 3 4 5 6 
#
# 1 75.5970 38.2102 27.2515 12.7506 3.5322 1.0295
# 2 38.2102 108.1522 31.2860 22.7073 -7.8672 2.8376
# 3 27.2515 31.2860 107.6389 24.4095 0.4954 0.7568
# 4 12.7506 22.7073 24.4095 35.8148 4.6137 -3.6499
# 5 3.5322 -7.8672 0.4954 4.6137 26.6677 9.3760
# 6 1.0295 2.8376 0.7568 -3.6499 9.3760 43.3216
#
#
#
# Elastic Compliance Matrix: (Units=1/GPa)
#
#
# Indices 1 2 3 4 5 6 
#
# 1 0.017240 -0.005617 -0.002695 -0.000108 -0.004189 0.000903
# 2 -0.005617 0.013590 -0.000909 -0.007194 0.007023 -0.002867
# 3 -0.002695 -0.000909 0.011770 -0.006760 0.001373 -0.000949
# 4 -0.000108 -0.007194 -0.006760 0.039179 -0.010964 0.006266
# 5 -0.004189 0.007023 0.001373 -0.010964 0.045953 -0.011254
# 6 0.000903 -0.002867 -0.000949 0.006266 -0.011254 0.026230
#
#
# Mechanical properties :
#
#
# Convention : Reuss Voigt Hill
#
# Bulk Modulus (GPa) = 41.39185 53.87595 47.63390
# Shear Modulus (GPa) = 27.70748 34.13684 30.92216
#
# Velocity S-wave (km/s) = 3.60701 4.00369 3.81052
# Velocity P-wave (km/s) = 6.06495 6.83163 6.45967
#
# Compressibility (1/GPa) = 0.02415934
#
# Stress axis : x y z
#
# Youngs Moduli (GPa) = 58.00358 73.58260 84.96195
#
# Poissons Ratio (x) = 0.41333 0.22895
# Poissons Ratio (y) = 0.32582 0.07720
# Poissons Ratio (z) = 0.15630 0.06686
#
# Static dielectric constant tensor:
#      x y z
#    x 3.958030 0.144840 0.328540 
#    y 0.144840 3.540810 -0.317220 
#    z 0.328540 -0.317220 2.964010 
# 
# 
# High freq. dielectric constant tensor:
#      x y z
#    x 1.837640 -0.001210 -0.003780 
#    y -0.001210 1.833230 0.010980 
#    z -0.003780 0.010980 1.842590 
# 
# From -- ./inp_files/447114.got.cif
#   From: 2010.06.25/outbox.cif.g09.slc.cpg/sg2_224_cif.got.tgz:447114.got - 2010.06.27 13:26:56.
