data_PCOD8001712
_publ_section_title
;
Structure prediction by ZEFSAII (Michael W. Deem and Ramdas Pophale) SiO2 
 PCOD8001712
Probable space group: P -1
;
_chemical_formula_sum "Si O2"
_cell_formula_units_Z 16
_cell_length_a 18.718782
_cell_length_b 11.011904
_cell_length_c 14.074366
_cell_angle_alpha 150.580675
_cell_angle_beta 144.671914
_cell_angle_gamma 47.680871
_cell_volume 816.866083
_symmetry_space_group_name_H-M "P -1"
_symmetry_group_IT_number 2
_symmetry_cell_setting 'triclinic'
loop_
_space_group_symop_operation_xyz
x,y,z
-x,-y,-z
loop_
_atom_site_type_symbol
_atom_site_label
_atom_site_fract_x
_atom_site_fract_y
_atom_site_fract_z
Si Si1 0.736783 0.054438 0.555573
Si Si2 0.446709 0.876005 0.453821
Si Si3 0.832209 0.373169 0.631661
Si Si4 0.195208 0.961735 0.809545
Si Si5 0.013748 0.825931 0.168306
Si Si6 0.647812 0.504543 0.657718
Si Si7 0.597153 0.563205 0.013699
Si Si8 0.624560 0.242540 0.997967
O O1 0.679252 0.013838 0.572236
O O2 0.886209 0.050654 0.716991
O O3 0.689284 0.313745 0.650238
O O4 0.680904 0.828459 0.271231
O O5 0.500000 0.000000 0.500000
O O6 0.417941 0.578566 0.201302
O O7 0.551868 0.963174 0.707180
O O8 0.828071 0.177620 0.410169
O O9 0.897150 0.287895 0.738396
O O10 0.692849 0.421907 0.545440
O O11 0.916836 0.631305 0.871591
O O12 0.255609 0.788908 0.831695
O O13 0.061476 0.988518 0.728352
O O14 0.280304 0.220820 0.055368
O O15 0.500000 0.500000 0.500000
O O16 0.662325 0.393421 0.044639
O O17 0.459560 0.594939 0.921003
#
# Coordination Sequence:
#
# PCOD8001712 Si02
#       8
#     2   2   2   2   2   2   2   2
#     4  10  20  34  54  80 107 138 179 221 264 318
#     4   9  18  34  57  79 103 139 177 217 267 316
#     4   9  20  37  56  76 106 149 182 210 262 319
#     4  11  21  35  57  79 108 146 179 216 263 313
#     4   9  20  37  52  76 110 141 182 223 254 311
#     4  10  21  35  51  82 117 135 167 222 268 318
#     4   9  18  34  55  76 105 139 173 218 269 316
#     4   9  19  34  53  81 106 134 179 220 260 316
#
# _framework density 19.587053999999998
#
# number of rings (size 3 to 8) (size 9 to 14) (size 15 to 20)
#    0.000    2.500    0.000    3.375    0.000    6.500 
#    0.000    0.625    0.000    3.750    0.000    0.000 
#    0.000    0.000    0.000    0.000    0.000    0.000 
#
# Total GULP energy -198238.731404 kJ/mol
# GULP energy per Si atom -12389.920713 kJ/mol
# Density = 1.954247 g / cm^3
# Si number density = 19.587054 Si / 1000 Ang^3
#
#
#
# Elastic Constant Matrix: (Units=GPa)
#
#
# Indices 1 2 3 4 5 6 
#
# 1 142.0062 18.5829 73.4777 1.6845 13.3857 -32.1514
# 2 18.5829 59.7335 28.3724 4.3018 6.8857 -12.0650
# 3 73.4777 28.3724 98.7653 8.6554 -8.2750 -21.0236
# 4 1.6845 4.3018 8.6554 21.1428 -13.0858 0.1310
# 5 13.3857 6.8857 -8.2750 -13.0858 42.6384 -1.3796
# 6 -32.1514 -12.0650 -21.0236 0.1310 -1.3796 27.4957
#
#
#
# Elastic Compliance Matrix: (Units=1/GPa)
#
#
# Indices 1 2 3 4 5 6 
#
# 1 0.015239 0.003524 -0.010437 -0.002559 -0.007808 0.011006
# 2 0.003524 0.022130 -0.007391 -0.006708 -0.007920 0.007814
# 3 -0.010437 -0.007391 0.021030 -0.001193 0.008219 0.001050
# 4 -0.002559 -0.006708 -0.001193 0.062088 0.020512 -0.006115
# 5 -0.007808 -0.007920 0.008219 0.020512 0.034923 -0.004666
# 6 0.011006 0.007814 0.001050 -0.006115 -0.004666 0.053266
#
#
# Mechanical properties :
#
#
# Convention : Reuss Voigt Hill
#
# Bulk Modulus (GPa) = 33.56785 60.15231 46.86008
# Shear Modulus (GPa) = 20.22533 30.26019 25.24276
#
# Velocity S-wave (km/s) = 3.21687 3.93480 3.59381
# Velocity P-wave (km/s) = 5.56531 7.17080 6.41845
#
# Compressibility (1/GPa) = 0.02979041
#
# Stress axis : x y z
#
# Youngs Moduli (GPa) = 65.61930 45.18771 47.55152
#
# Poissons Ratio (x) = -0.15924 0.49629
# Poissons Ratio (y) = -0.23123 0.35147
# Poissons Ratio (z) = 0.68487 0.33400
#
# Static dielectric constant tensor:
#      x y z
#    x 3.877570 -0.234950 0.085160 
#    y -0.234950 3.370630 0.245240 
#    z 0.085160 0.245240 3.834650 
# 
# 
# High freq. dielectric constant tensor:
#      x y z
#    x 1.769380 -0.018020 0.001060 
#    y -0.018020 1.732970 0.018680 
#    z 0.001060 0.018680 1.761110 
# 
# From -- ./inp_files/455142.got.cif
#   From: 2010.06.25/outbox.cif.g09.slc.cpg/sg2_228_cif.got.tgz:455142.got - 2010.06.27 13:26:56.
