data_PCOD8001034
_publ_section_title
;
Structure prediction by ZEFSAII (Michael W. Deem and Ramdas Pophale) SiO2 
 PCOD8001034
Probable space group: P -1
;
_chemical_formula_sum "Si O2"
_cell_formula_units_Z 14
_cell_length_a 13.195574
_cell_length_b 13.818811
_cell_length_c 7.658030
_cell_angle_alpha 108.111651
_cell_angle_beta 122.908116
_cell_angle_gamma 30.599825
_cell_volume 555.172593
_symmetry_space_group_name_H-M "P -1"
_symmetry_group_IT_number 2
_symmetry_cell_setting 'triclinic'
loop_
_space_group_symop_operation_xyz
x,y,z
-x,-y,-z
loop_
_atom_site_type_symbol
_atom_site_label
_atom_site_fract_x
_atom_site_fract_y
_atom_site_fract_z
Si Si1 0.165209 0.178350 0.758125
Si Si2 0.059759 0.344261 0.406079
Si Si3 0.880047 0.006121 0.266137
Si Si4 0.241304 0.270175 0.168789
Si Si5 0.218602 0.779214 0.162412
Si Si6 0.372484 0.388410 0.377361
Si Si7 0.616099 0.548434 0.973498
O O1 0.226764 0.168306 0.611466
O O2 0.881722 0.405704 0.651213
O O3 0.222922 0.016432 0.739696
O O4 0.676563 0.872292 0.980702
O O5 0.000000 0.500000 0.500000
O O6 0.202614 0.239964 0.298486
O O7 0.809707 0.466462 0.223421
O O8 0.651972 0.227430 0.078770
O O9 0.000000 0.000000 0.500000
O O10 0.091169 0.814411 0.226221
O O11 0.432016 0.223139 0.340787
O O12 0.000000 0.500000 0.000000
O O13 0.423162 0.707154 0.372203
O O14 0.334368 0.608748 0.050468
O O15 0.000000 0.000000 0.000000
O O16 0.372583 0.429391 0.205170
#
# Coordination Sequence:
#
# PCOD8001034 Si02
#       7
#     2   2   2   2   2   2   2
#     4  11  23  43  73 103 146 187 235 298 357 423
#     4  12  22  40  74 110 139 185 246 291 354 430
#     4  12  26  46  70 102 142 188 242 289 356 430
#     4  10  19  40  73 103 143 191 227 295 364 414
#     4  12  28  46  69 106 143 185 240 300 357 425
#     4  11  20  44  72  97 143 193 227 287 366 413
#     4  12  25  45  73 100 143 191 235 293 365 421
#
# _framework density 25.217383000000002
#
# number of rings (size 3 to 8) (size 9 to 14) (size 15 to 20)
#    0.000    0.571    8.571    1.286    4.000    0.571 
#    0.000    4.286    0.000    6.000    0.000    0.000 
#    0.000    0.000    0.000    0.000    0.000    0.000 
#
# Total GULP energy -173627.653031 kJ/mol
# GULP energy per Si atom -12401.975217 kJ/mol
# Density = 2.515999 g / cm^3
# Si number density = 25.217383 Si / 1000 Ang^3
#
#
#
# Elastic Constant Matrix: (Units=GPa)
#
#
# Indices 1 2 3 4 5 6 
#
# 1 75.6579 42.1426 32.1178 11.8946 13.5966 23.4072
# 2 42.1426 116.8166 50.4148 10.8086 15.0583 25.8349
# 3 32.1178 50.4148 146.7982 27.1456 23.8064 27.8064
# 4 11.8946 10.8086 27.1456 38.1390 9.0846 8.3608
# 5 13.5966 15.0583 23.8064 9.0846 43.2512 12.2816
# 6 23.4072 25.8349 27.8064 8.3608 12.2816 60.5607
#
#
#
# Elastic Compliance Matrix: (Units=1/GPa)
#
#
# Indices 1 2 3 4 5 6 
#
# 1 0.018209 -0.004891 -0.000811 -0.002401 -0.001979 -0.003846
# 2 -0.004891 0.011935 -0.002663 0.000635 -0.000741 -0.001915
# 3 -0.000811 -0.002663 0.009536 -0.004786 -0.002565 -0.001748
# 4 -0.002401 0.000635 -0.004786 0.031119 -0.003140 -0.000805
# 5 -0.001979 -0.000741 -0.002565 -0.003140 0.026854 -0.002754
# 6 -0.003846 -0.001915 -0.001748 -0.000805 -0.002754 0.020288
#
#
# Mechanical properties :
#
#
# Convention : Reuss Voigt Hill
#
# Bulk Modulus (GPa) = 43.57302 65.40257 54.48780
# Shear Modulus (GPa) = 35.13165 42.69670 38.91418
#
# Velocity S-wave (km/s) = 3.73654 4.11925 3.93255
# Velocity P-wave (km/s) = 5.99434 6.97252 6.50186
#
# Compressibility (1/GPa) = 0.02294998
#
# Stress axis : x y z
#
# Youngs Moduli (GPa) = 54.91734 83.78940 104.86513
#
# Poissons Ratio (x) = 0.40985 0.08501
# Poissons Ratio (y) = 0.26862 0.27925
# Poissons Ratio (z) = 0.04452 0.22313
#
# Static dielectric constant tensor:
#      x y z
#    x 6.171720 -1.253910 0.886270 
#    y -1.253910 6.170220 -0.679030 
#    z 0.886270 -0.679030 5.312260 
# 
# 
# High freq. dielectric constant tensor:
#      x y z
#    x 2.019690 -0.000260 0.007400 
#    y -0.000260 2.012060 0.007230 
#    z 0.007400 0.007230 2.009500 
# 
# From -- ./inp_files/315694.got.cif
#   From: 2010.06.25/outbox.cif.g09.slc.cpg/sg2_158_cif.got.tgz:315694.got - 2010.06.27 13:26:56.
