data_PCOD8001636
_publ_section_title
;
Structure prediction by ZEFSAII (Michael W. Deem and Ramdas Pophale) SiO2 
 PCOD8001636
Probable space group: P -1
;
_chemical_formula_sum "Si O2"
_cell_formula_units_Z 16
_cell_length_a 13.736714
_cell_length_b 10.538719
_cell_length_c 8.751732
_cell_angle_alpha 41.847981
_cell_angle_beta 89.098080
_cell_angle_gamma 68.029364
_cell_volume 709.556637
_symmetry_space_group_name_H-M "P -1"
_symmetry_group_IT_number 2
_symmetry_cell_setting 'triclinic'
loop_
_space_group_symop_operation_xyz
x,y,z
-x,-y,-z
loop_
_atom_site_type_symbol
_atom_site_label
_atom_site_fract_x
_atom_site_fract_y
_atom_site_fract_z
Si Si1 0.480038 0.705665 0.712293
Si Si2 0.026409 0.253137 0.717932
Si Si3 0.198679 0.558082 0.601529
Si Si4 0.268130 0.109381 0.830252
Si Si5 0.071752 0.196938 0.103848
Si Si6 0.875705 0.466174 0.068340
Si Si7 0.668662 0.813488 0.562609
Si Si8 0.317932 0.797014 0.369870
O O1 0.599554 0.690925 0.697907
O O2 0.432537 0.686591 0.567881
O O3 0.386710 0.948975 0.565143
O O4 0.500000 0.500000 0.000000
O O5 0.157806 0.098260 0.788101
O O6 0.000000 0.500000 0.500000
O O7 0.930381 0.241706 0.632450
O O8 0.021071 0.184887 0.953110
O O9 0.228749 0.317103 0.759571
O O10 0.294527 0.603338 0.495782
O O11 0.200636 0.573372 0.773407
O O12 0.333588 0.128383 0.668189
O O13 0.345151 0.890080 0.132562
O O14 0.069041 0.428451 0.919679
O O15 0.204059 0.983322 0.303962
O O16 0.978746 0.225897 0.208864
O O17 0.797332 0.639036 0.779742
#
# Coordination Sequence:
#
# PCOD8001636 Si02
#       8
#     2   2   2   2   2   2   2   2
#     4  11  25  46  68  92 121 161 214 265 311 368
#     4   9  16  34  54  87 125 166 200 240 301 364
#     4  11  21  35  63  90 131 172 201 254 308 372
#     4  10  22  40  62  92 123 164 210 256 308 375
#     4  10  20  33  61  90 128 164 201 253 301 372
#     4  11  19  36  63  94 124 164 204 250 313 363
#     4  11  24  43  70  91 123 167 207 260 316 368
#     4  11  23  43  62  93 129 165 212 257 312 367
#
# _framework density 22.549292999999999
#
# number of rings (size 3 to 8) (size 9 to 14) (size 15 to 20)
#    0.000    1.500    5.000    2.250    1.750    5.000 
#    0.000    3.750    0.000    0.000    0.000    0.000 
#    0.000    0.000    0.000    0.000    0.000    0.000 
#
# Total GULP energy -198278.558357 kJ/mol
# GULP energy per Si atom -12392.409897 kJ/mol
# Density = 2.249797 g / cm^3
# Si number density = 22.549293 Si / 1000 Ang^3
#
#
#
# Elastic Constant Matrix: (Units=GPa)
#
#
# Indices 1 2 3 4 5 6 
#
# 1 83.5471 15.4749 48.0404 12.7985 -5.8728 10.0486
# 2 15.4749 30.5811 14.2707 20.6295 -7.9791 -11.4247
# 3 48.0404 14.2707 127.5141 28.4317 -6.2701 13.6457
# 4 12.7985 20.6295 28.4317 32.0681 -2.8044 -4.6144
# 5 -5.8728 -7.9791 -6.2701 -2.8044 40.2709 5.1944
# 6 10.0486 -11.4247 13.6457 -4.6144 5.1944 26.8148
#
#
#
# Elastic Compliance Matrix: (Units=1/GPa)
#
#
# Indices 1 2 3 4 5 6 
#
# 1 0.017776 -0.012673 -0.005342 0.004606 0.000690 -0.008683
# 2 -0.012673 0.080360 0.003100 -0.044643 0.007808 0.028215
# 3 -0.005342 0.003100 0.012847 -0.011907 0.001728 -0.005599
# 4 0.004606 -0.044643 -0.011907 0.067888 -0.005038 -0.002029
# 5 0.000690 0.007808 0.001728 -0.005038 0.026900 -0.003889
# 6 -0.008683 0.028215 -0.005599 -0.002029 -0.003889 0.055821
#
#
# Mechanical properties :
#
#
# Convention : Reuss Voigt Hill
#
# Bulk Modulus (GPa) = 12.32258 44.13492 28.22875
# Shear Modulus (GPa) = 15.69987 30.75452 23.22720
#
# Velocity S-wave (km/s) = 2.64151 3.69708 3.21294
# Velocity P-wave (km/s) = 3.84448 6.15140 5.12931
#
# Compressibility (1/GPa) = 0.08115181
#
# Stress axis : x y z
#
# Youngs Moduli (GPa) = 56.25585 12.44401 77.83888
#
# Poissons Ratio (x) = 0.15770 0.41585
# Poissons Ratio (y) = 0.71291 -0.24127
# Poissons Ratio (z) = 0.30055 -0.03857
#
# Static dielectric constant tensor:
#      x y z
#    x 4.104010 0.052290 0.147760 
#    y 0.052290 3.892330 0.210360 
#    z 0.147760 0.210360 4.110350 
# 
# 
# High freq. dielectric constant tensor:
#      x y z
#    x 1.883350 0.006290 -0.003760 
#    y 0.006290 1.866240 0.010450 
#    z -0.003760 0.010450 1.892170 
# 
# From -- ./inp_files/306245.got.cif
#   From: 2010.06.25/outbox.cif.g09.slc.cpg/sg2_154_cif.got.tgz:306245.got - 2010.06.27 13:26:56.
