data_PCOD8001676
_publ_section_title
;
Structure prediction by ZEFSAII (Michael W. Deem and Ramdas Pophale) SiO2 
 PCOD8001676
Probable space group: P -1
;
_chemical_formula_sum "Si O2"
_cell_formula_units_Z 16
_cell_length_a 12.689802
_cell_length_b 8.783671
_cell_length_c 9.434241
_cell_angle_alpha 58.507621
_cell_angle_beta 110.550508
_cell_angle_gamma 123.853843
_cell_volume 741.980802
_symmetry_space_group_name_H-M "P -1"
_symmetry_group_IT_number 2
_symmetry_cell_setting 'triclinic'
loop_
_space_group_symop_operation_xyz
x,y,z
-x,-y,-z
loop_
_atom_site_type_symbol
_atom_site_label
_atom_site_fract_x
_atom_site_fract_y
_atom_site_fract_z
Si Si1 0.481350 0.709185 0.052292
Si Si2 0.675292 0.058313 0.159026
Si Si3 0.963709 0.287896 0.146020
Si Si4 0.994429 0.172139 0.504506
Si Si5 0.371840 0.258969 0.174924
Si Si6 0.117558 0.470422 0.630348
Si Si7 0.899193 0.791832 0.991913
Si Si8 0.728900 0.083269 0.493472
O O1 0.428142 0.472923 0.181221
O O2 0.588370 0.844378 0.148936
O O3 0.369026 0.772134 0.975951
O O4 0.535705 0.740524 0.904340
O O5 0.815557 0.135248 0.123715
O O6 0.669403 0.015863 0.343622
O O7 0.990736 0.323573 0.309460
O O8 0.000000 0.500000 0.000000
O O9 0.052868 0.210573 0.144904
O O10 0.863035 0.078332 0.575272
O O11 0.115153 0.296163 0.606674
O O12 0.000000 0.000000 0.500000
O O13 0.364787 0.081134 0.360220
O O14 0.237391 0.216429 0.066496
O O15 0.105226 0.391660 0.824429
O O16 0.245465 0.686134 0.573796
O O17 0.000000 0.500000 0.500000
O O18 0.000000 0.000000 0.000000
#
# Coordination Sequence:
#
# PCOD8001676 Si02
#       8
#     2   2   2   2   2   2   2   2
#     4  10  23  42  62  82 116 158 205 248 288 351
#     4  10  22  41  61  85 116 158 199 244 296 348
#     4  11  21  35  59  87 118 149 187 236 290 352
#     4  10  20  34  52  83 121 153 184 229 288 353
#     4  11  23  40  61  88 117 155 200 247 297 349
#     4  10  20  36  55  82 123 160 188 229 291 361
#     4  12  22  36  61  91 121 152 191 239 296 354
#     4  10  21  38  58  82 116 152 197 244 293 350
#
# _framework density 21.563901000000001
#
# number of rings (size 3 to 8) (size 9 to 14) (size 15 to 20)
#    0.000    1.500    0.000    7.500    0.000    3.000 
#    0.000    1.250    0.000    0.000    0.000    0.000 
#    0.000    0.000    0.000    0.000    0.000    0.000 
#
# Total GULP energy -198326.693458 kJ/mol
# GULP energy per Si atom -12395.418341 kJ/mol
# Density = 2.151482 g / cm^3
# Si number density = 21.563901 Si / 1000 Ang^3
#
#
#
# Elastic Constant Matrix: (Units=GPa)
#
#
# Indices 1 2 3 4 5 6 
#
# 1 45.6683 8.8559 2.3298 -0.5722 -6.3772 -1.3216
# 2 8.8559 160.7579 39.8743 -2.5064 -7.9731 1.2085
# 3 2.3298 39.8743 92.8558 -14.1082 -7.5373 17.0367
# 4 -0.5722 -2.5064 -14.1082 39.0388 1.7852 -1.4087
# 5 -6.3772 -7.9731 -7.5373 1.7852 25.9902 1.1354
# 6 -1.3216 1.2085 17.0367 -1.4087 1.1354 27.4863
#
#
#
# Elastic Compliance Matrix: (Units=1/GPa)
#
#
# Indices 1 2 3 4 5 6 
#
# 1 0.022855 -0.001043 0.000170 0.000117 0.005293 0.000827
# 2 -0.001043 0.007139 -0.003383 -0.000763 0.000933 0.001655
# 3 0.000170 -0.003383 0.014843 0.004672 0.003378 -0.008943
# 4 0.000117 -0.000763 0.004672 0.027235 -0.000658 -0.001434
# 5 0.005293 0.000933 0.003378 -0.000658 0.041244 -0.003618
# 6 0.000827 0.001655 -0.008943 -0.001434 -0.003618 0.041968
#
#
# Mechanical properties :
#
#
# Convention : Reuss Voigt Hill
#
# Bulk Modulus (GPa) = 27.52941 44.60024 36.06483
# Shear Modulus (GPa) = 28.42444 35.05120 31.73782
#
# Velocity S-wave (km/s) = 3.63457 4.03607 3.84057
# Velocity P-wave (km/s) = 5.51431 6.51518 6.03553
#
# Compressibility (1/GPa) = 0.03632479
#
# Stress axis : x y z
#
# Youngs Moduli (GPa) = 43.75381 140.07258 67.37204
#
# Poissons Ratio (x) = 0.14612 -0.01148
# Poissons Ratio (y) = 0.04564 0.22795
# Poissons Ratio (z) = -0.00745 0.47392
#
# Static dielectric constant tensor:
#      x y z
#    x 3.373570 0.193890 0.294140 
#    y 0.193890 3.781160 -0.447140 
#    z 0.294140 -0.447140 4.014530 
# 
# 
# High freq. dielectric constant tensor:
#      x y z
#    x 1.826830 -0.010610 0.002630 
#    y -0.010610 1.865520 -0.002720 
#    z 0.002630 -0.002720 1.852370 
# 
# From -- ./inp_files/237118.got.cif
#   From: 2010.06.25/outbox.cif.g09.slc.cpg/sg2_119_cif.got.tgz:237118.got - 2010.06.27 13:26:56.
