data_PCOD8001742
_publ_section_title
;
Structure prediction by ZEFSAII (Michael W. Deem and Ramdas Pophale) SiO2 
 PCOD8001742
Probable space group: P -1
;
_chemical_formula_sum "Si O2"
_cell_formula_units_Z 16
_cell_length_a 7.870445
_cell_length_b 8.896098
_cell_length_c 14.848491
_cell_angle_alpha 109.717862
_cell_angle_beta 100.992397
_cell_angle_gamma 55.586700
_cell_volume 807.391272
_symmetry_space_group_name_H-M "P -1"
_symmetry_group_IT_number 2
_symmetry_cell_setting 'triclinic'
loop_
_space_group_symop_operation_xyz
x,y,z
-x,-y,-z
loop_
_atom_site_type_symbol
_atom_site_label
_atom_site_fract_x
_atom_site_fract_y
_atom_site_fract_z
Si Si1 0.768813 0.433388 0.467659
Si Si2 0.231187 0.202201 0.467658
Si Si3 0.237916 0.944122 0.113026
Si Si4 0.391042 0.495648 0.346449
Si Si5 0.509807 0.112707 0.214993
Si Si6 0.391042 0.113309 0.653550
Si Si7 0.762085 0.182037 0.113026
Si Si8 0.490195 0.622514 0.214994
O O1 0.690095 0.654953 0.500000
O O2 0.629878 0.395091 0.381190
O O3 0.755300 0.384039 0.560770
O O4 1.000000 0.300221 0.428738
O O5 0.244704 0.139334 0.560769
O O6 0.370120 0.024971 0.381188
O O7 0.338576 0.760205 0.150101
O O8 0.360411 0.048748 0.151868
O O9 0.257073 0.871463 1.000000
O O10 0.000001 0.089818 0.145606
O O11 0.361020 0.327614 0.279588
O O12 0.346745 0.631254 0.284286
O O13 0.661427 0.098779 0.150101
O O14 0.653257 0.977998 0.284287
O O15 0.361019 0.311366 0.720411
O O16 0.639591 0.409158 0.151869
#
# Coordination Sequence:
#
# PCOD8001742 Si02
#       8
#     2   2   2   2   2   2   2   2
#     4  10  20  34  55  78 113 158 193 234 287 333
#     4  10  20  34  55  78 113 158 193 234 287 333
#     4  10  22  41  64  89 117 151 190 237 298 358
#     4  10  20  36  54  84 116 149 194 239 279 337
#     4  10  21  37  61  86 119 152 190 245 289 343
#     4  10  20  36  54  84 116 149 194 239 279 337
#     4  10  22  41  64  89 117 151 190 237 298 358
#     4  10  21  37  61  86 119 152 190 245 289 343
#
# _framework density 19.816908999999999
#
# number of rings (size 3 to 8) (size 9 to 14) (size 15 to 20)
#    0.000    2.000    2.500    0.750    0.000    6.000 
#    0.000    5.000    0.000   13.500    0.000    0.000 
#    0.000    0.000    0.000    0.000    0.000    0.000 
#
# Total GULP energy -198394.502133 kJ/mol
# GULP energy per Si atom -12399.656383 kJ/mol
# Density = 1.977181 g / cm^3
# Si number density = 19.816909 Si / 1000 Ang^3
#
#
#
# Elastic Constant Matrix: (Units=GPa)
#
#
# Indices 1 2 3 4 5 6 
#
# 1 98.8385 51.9753 39.4197 -0.8424 -2.0533 2.6215
# 2 51.9753 108.9400 43.1072 -4.9234 -3.2696 9.8378
# 3 39.4197 43.1072 87.9145 -8.9176 -5.1210 4.0093
# 4 -0.8424 -4.9234 -8.9176 25.3998 8.8171 -4.1317
# 5 -2.0533 -3.2696 -5.1210 8.8171 17.9234 -2.3134
# 6 2.6215 9.8378 4.0093 -4.1317 -2.3134 33.5809
#
#
#
# Elastic Compliance Matrix: (Units=1/GPa)
#
#
# Indices 1 2 3 4 5 6 
#
# 1 0.014608 -0.005506 -0.004061 -0.002111 0.000643 0.000742
# 2 -0.005506 0.013712 -0.004059 0.000538 0.000055 -0.003033
# 3 -0.004061 -0.004059 0.015672 0.004188 0.001242 0.000236
# 4 -0.002111 0.000538 0.004188 0.049423 -0.022741 0.004021
# 5 0.000643 0.000055 0.001242 -0.022741 0.067631 0.001647
# 6 0.000742 -0.003033 0.000236 0.004021 0.001647 0.031189
#
#
# Mechanical properties :
#
#
# Convention : Reuss Voigt Hill
#
# Bulk Modulus (GPa) = 59.73183 62.74414 61.23798
# Shear Modulus (GPa) = 22.21562 26.12688 24.17125
#
# Velocity S-wave (km/s) = 3.35183 3.63494 3.49625
# Velocity P-wave (km/s) = 6.72213 7.02479 6.87512
#
# Compressibility (1/GPa) = 0.01674149
#
# Stress axis : x y z
#
# Youngs Moduli (GPa) = 68.45532 72.92905 63.80781
#
# Poissons Ratio (x) = 0.40153 0.25912
# Poissons Ratio (y) = 0.37690 0.25897
# Poissons Ratio (z) = 0.27799 0.29599
#
# Static dielectric constant tensor:
#      x y z
#    x 3.446070 0.206880 -0.059930 
#    y 0.206880 3.612430 -0.108480 
#    z -0.059930 -0.108480 3.697160 
# 
# 
# High freq. dielectric constant tensor:
#      x y z
#    x 1.758250 0.016730 -0.002670 
#    y 0.016730 1.771470 -0.005990 
#    z -0.002670 -0.005990 1.785380 
# 
# From -- ./inp_files/208515.got.cif
#   From: 2010.06.25/outbox.cif.g09.slc.cpg/sg2_105_cif.got.tgz:208515.got - 2010.06.27 13:26:56.
