data_PCOD8001974
_publ_section_title
;
Structure prediction by ZEFSAII (Michael W. Deem and Ramdas Pophale) SiO2 
 PCOD8001974
Probable space group: P -1
;
_chemical_formula_sum "Si O2"
_cell_formula_units_Z 16
_cell_length_a 9.210340
_cell_length_b 14.146527
_cell_length_c 11.931611
_cell_angle_alpha 30.121790
_cell_angle_beta 110.675279
_cell_angle_gamma 98.035979
_cell_volume 683.018366
_symmetry_space_group_name_H-M "P -1"
_symmetry_group_IT_number 2
_symmetry_cell_setting 'triclinic'
loop_
_space_group_symop_operation_xyz
x,y,z
-x,-y,-z
loop_
_atom_site_type_symbol
_atom_site_label
_atom_site_fract_x
_atom_site_fract_y
_atom_site_fract_z
Si Si1 0.632618 0.324299 0.069023
Si Si2 0.680775 0.040737 0.744203
Si Si3 0.901736 0.567352 0.668910
Si Si4 0.159032 0.751161 0.574018
Si Si5 0.848636 0.145322 0.108521
Si Si6 0.322333 0.283025 0.350583
Si Si7 0.694198 0.944309 0.097276
Si Si8 0.359117 0.193136 0.212393
O O1 0.714086 0.304422 0.233096
O O2 0.446935 0.328532 0.033561
O O3 0.743845 0.157115 0.182847
O O4 0.611498 0.536262 0.791473
O O5 0.756023 0.865770 0.849055
O O6 0.747103 0.217900 0.544466
O O7 0.481476 0.091255 0.627402
O O8 0.744734 0.965153 0.961759
O O9 0.890945 0.346845 0.888405
O O10 0.833663 0.688250 0.642286
O O11 0.090760 0.568211 0.714331
O O12 0.790690 0.710557 0.394471
O O13 0.014242 0.955234 0.360734
O O14 0.745163 0.105326 0.017684
O O15 0.256578 0.292879 0.194223
O O16 0.500000 0.000000 0.000000
O O17 0.500000 0.000000 0.500000
#
# Coordination Sequence:
#
# PCOD8001974 Si02
#       8
#     2   2   2   2   2   2   2   2
#     4  11  21  39  62  95 126 164 203 261 313 367
#     4  11  23  41  61  97 120 167 209 257 312 364
#     4  10  24  44  64  94 125 164 211 257 308 374
#     4  11  24  40  64  89 133 166 202 252 319 373
#     4  10  25  42  62  94 129 164 212 251 307 381
#     4  10  21  39  63  91 127 154 210 263 305 372
#     4  11  22  43  71  89 125 163 211 264 307 355
#     4  10  20  34  61  90 129 154 202 259 314 362
#
# _framework density 23.425432000000001
#
# number of rings (size 3 to 8) (size 9 to 14) (size 15 to 20)
#    0.000    1.500    3.750    1.500    5.250    6.500 
#    2.250    1.250    0.000    0.000    0.000    0.000 
#    0.000    0.000    0.000    0.000    0.000    0.000 
#
# Total GULP energy -198326.629817 kJ/mol
# GULP energy per Si atom -12395.414364 kJ/mol
# Density = 2.337212 g / cm^3
# Si number density = 23.425432 Si / 1000 Ang^3
#
#
#
# Elastic Constant Matrix: (Units=GPa)
#
#
# Indices 1 2 3 4 5 6 
#
# 1 83.7047 16.4616 3.0873 14.6055 -24.3249 12.7103
# 2 16.4616 93.4782 17.9806 9.2506 -20.0057 -0.5928
# 3 3.0873 17.9806 62.1755 11.9210 -24.3418 0.6458
# 4 14.6055 9.2506 11.9210 37.5224 -3.8537 -10.8562
# 5 -24.3249 -20.0057 -24.3418 -3.8537 33.9604 2.0109
# 6 12.7103 -0.5928 0.6458 -10.8562 2.0109 39.1510
#
#
#
# Elastic Compliance Matrix: (Units=1/GPa)
#
#
# Indices 1 2 3 4 5 6 
#
# 1 0.022328 0.000174 0.010435 -0.013257 0.022797 -0.012265
# 2 0.000174 0.012481 -0.000389 -0.002576 0.006961 -0.000933
# 3 0.010435 -0.000389 0.028790 -0.012900 0.026940 -0.008829
# 4 -0.013257 -0.002576 -0.012900 0.039542 -0.016737 0.016302
# 5 0.022797 0.006961 0.026940 -0.016737 0.068226 -0.015885
# 6 -0.012265 -0.000933 -0.008829 0.016302 -0.015885 0.034992
#
#
# Mechanical properties :
#
#
# Convention : Reuss Voigt Hill
#
# Bulk Modulus (GPa) = 11.89941 34.93529 23.41735
# Shear Modulus (GPa) = 23.37194 35.58203 29.47698
#
# Velocity S-wave (km/s) = 3.16209 3.90160 3.55115
# Velocity P-wave (km/s) = 4.29214 5.93653 5.18000
#
# Compressibility (1/GPa) = 0.08403777
#
# Stress axis : x y z
#
# Youngs Moduli (GPa) = 44.78660 80.12428 34.73436
#
# Poissons Ratio (x) = -0.01392 -0.36246
# Poissons Ratio (y) = -0.00778 0.01352
# Poissons Ratio (z) = -0.46735 0.03119
#
# Static dielectric constant tensor:
#      x y z
#    x 4.521000 -0.102460 -0.224280 
#    y -0.102460 4.557020 -0.231340 
#    z -0.224280 -0.231340 4.304630 
# 
# 
# High freq. dielectric constant tensor:
#      x y z
#    x 1.937970 -0.001570 -0.013880 
#    y -0.001570 1.917800 -0.013660 
#    z -0.013880 -0.013660 1.926950 
# 
# From -- ./inp_files/273354.got.cif
#   From: 2010.06.25/outbox.cif.g09.slc.cpg/sg2_137_cif.got.tgz:273354.got - 2010.06.27 13:26:56.
