data_PCOD8001226
_publ_section_title
;
Structure prediction by ZEFSAII (Michael W. Deem and Ramdas Pophale) SiO2 
 PCOD8001226
Probable space group: P -1
;
_chemical_formula_sum "Si O2"
_cell_formula_units_Z 16
_cell_length_a 8.014718
_cell_length_b 12.198997
_cell_length_c 9.439877
_cell_angle_alpha 88.008150
_cell_angle_beta 111.081329
_cell_angle_gamma 123.120189
_cell_volume 705.635412
_symmetry_space_group_name_H-M "P -1"
_symmetry_group_IT_number 2
_symmetry_cell_setting 'triclinic'
loop_
_space_group_symop_operation_xyz
x,y,z
-x,-y,-z
loop_
_atom_site_type_symbol
_atom_site_label
_atom_site_fract_x
_atom_site_fract_y
_atom_site_fract_z
Si Si1 0.702752 0.456532 0.452908
Si Si2 0.512616 0.164572 0.368275
Si Si3 0.232341 0.042350 0.021209
Si Si4 0.218244 0.138611 0.531896
Si Si5 0.513045 0.254055 0.876051
Si Si6 0.663693 0.510561 0.756071
Si Si7 0.123621 0.767880 0.892358
Si Si8 0.945368 0.258983 0.447771
O O1 0.661666 0.324143 0.376853
O O2 0.694717 0.450281 0.623504
O O3 0.513615 0.461637 0.328035
O O4 0.934170 0.588430 0.466438
O O5 0.326343 0.131585 0.422921
O O6 0.719101 0.154020 0.473776
O O7 0.388889 0.072751 0.199817
O O8 0.341550 0.177330 0.954897
O O9 0.194874 0.918426 0.928352
O O10 0.000000 0.000000 0.000000
O O11 0.392591 0.172400 0.702005
O O12 0.141832 0.238847 0.500644
O O13 0.000000 0.000000 0.500000
O O14 0.589959 0.406406 0.868670
O O15 0.723370 0.253712 0.964266
O O16 0.877117 0.651929 0.865959
O O17 0.153314 0.754471 0.737050
#
# Coordination Sequence:
#
# PCOD8001226 Si02
#       8
#     2   2   2   2   2   2   2   2
#     4  10  19  42  69 102 137 177 230 283 361 411
#     4  12  24  44  71 101 135 187 235 276 350 428
#     4  12  26  46  69  99 142 192 228 283 360 426
#     4  12  26  45  70 101 142 180 234 294 345 407
#     4  12  23  45  70 107 135 178 242 291 344 410
#     4  10  20  41  74 100 136 187 229 289 353 415
#     4  11  24  44  71  99 143 186 230 281 360 422
#     4  11  23  44  73 101 134 188 232 277 352 427
#
# _framework density 22.674599000000001
#
# number of rings (size 3 to 8) (size 9 to 14) (size 15 to 20)
#    0.000    0.750    3.750    5.625    1.750    0.500 
#    2.250    2.500    0.000    0.000    0.000    0.000 
#    0.000    0.000    0.000    0.000    0.000    0.000 
#
# Total GULP energy -198242.715554 kJ/mol
# GULP energy per Si atom -12390.169722 kJ/mol
# Density = 2.262299 g / cm^3
# Si number density = 22.674599 Si / 1000 Ang^3
#
#
#
# Elastic Constant Matrix: (Units=GPa)
#
#
# Indices 1 2 3 4 5 6 
#
# 1 94.0906 50.3058 34.1593 3.6987 17.1324 27.9288
# 2 50.3058 110.9526 37.1703 14.6740 3.9722 27.1209
# 3 34.1593 37.1703 95.9670 17.2592 25.0553 2.1914
# 4 3.6987 14.6740 17.2592 43.2257 0.6399 2.3264
# 5 17.1324 3.9722 25.0553 0.6399 37.4024 7.0040
# 6 27.9288 27.1209 2.1914 2.3264 7.0040 41.8162
#
#
#
# Elastic Compliance Matrix: (Units=1/GPa)
#
#
# Indices 1 2 3 4 5 6 
#
# 1 0.017460 -0.004991 -0.003512 0.002073 -0.003702 -0.007736
# 2 -0.004991 0.014569 -0.004619 -0.002395 0.005109 -0.006597
# 3 -0.003512 -0.004619 0.016934 -0.005088 -0.010370 0.006474
# 4 0.002073 -0.002395 -0.005088 0.025841 0.002538 -0.001427
# 5 -0.003702 0.005109 -0.010370 0.002538 0.036004 -0.006469
# 6 -0.007736 -0.006597 0.006474 -0.001427 -0.006469 0.034183
#
#
# Mechanical properties :
#
#
# Convention : Reuss Voigt Hill
#
# Bulk Modulus (GPa) = 44.01331 60.47569 52.24450
# Shear Modulus (GPa) = 27.96304 36.44718 32.20511
#
# Velocity S-wave (km/s) = 3.51555 4.01359 3.77280
# Velocity P-wave (km/s) = 5.99431 6.94317 6.48611
#
# Compressibility (1/GPa) = 0.02272040
#
# Stress axis : x y z
#
# Youngs Moduli (GPa) = 57.27366 68.63691 59.05327
#
# Poissons Ratio (x) = 0.34255 0.20737
# Poissons Ratio (y) = 0.28584 0.27278
# Poissons Ratio (z) = 0.20112 0.31705
#
# Static dielectric constant tensor:
#      x y z
#    x 4.264180 0.553080 0.300120 
#    y 0.553080 3.887710 0.123080 
#    z 0.300120 0.123080 4.088810 
# 
# 
# High freq. dielectric constant tensor:
#      x y z
#    x 1.905730 0.015710 0.022120 
#    y 0.015710 1.907810 0.025040 
#    z 0.022120 0.025040 1.885100 
# 
# From -- ./inp_files/202116.got.cif
#   From: 2010.06.25/outbox.cif.g09.slc.cpg/sg2_102_cif.got.tgz:202116.got - 2010.06.27 13:26:56.
