data_PCOD8001495
_publ_section_title
;
Structure prediction by ZEFSAII (Michael W. Deem and Ramdas Pophale) SiO2 
 PCOD8001495
Probable space group: P -1
;
_chemical_formula_sum "Si O2"
_cell_formula_units_Z 16
_cell_length_a 17.823610
_cell_length_b 11.902953
_cell_length_c 11.888809
_cell_angle_alpha 31.564137
_cell_angle_beta 131.060874
_cell_angle_gamma 142.784627
_cell_volume 796.646527
_symmetry_space_group_name_H-M "P -1"
_symmetry_group_IT_number 2
_symmetry_cell_setting 'triclinic'
loop_
_space_group_symop_operation_xyz
x,y,z
-x,-y,-z
loop_
_atom_site_type_symbol
_atom_site_label
_atom_site_fract_x
_atom_site_fract_y
_atom_site_fract_z
Si Si1 0.942405 0.034284 0.095258
Si Si2 0.180750 0.701532 0.253253
Si Si3 0.887088 0.526316 0.381180
Si Si4 0.729456 0.667634 0.686414
Si Si5 0.640659 0.184835 0.861185
Si Si6 0.790102 0.450066 0.116083
Si Si7 0.996312 0.126419 0.500498
Si Si8 0.389516 0.087863 0.716518
O O1 0.945959 0.842027 0.174055
O O2 0.830740 0.057337 0.947423
O O3 0.922032 0.911106 0.303062
O O4 0.065627 0.337214 0.952341
O O5 0.191968 0.619796 0.459435
O O6 0.302438 0.814550 0.201776
O O7 0.061073 0.444280 0.289195
O O8 0.785463 0.403981 0.285147
O O9 0.000000 0.500000 0.500000
O O10 0.731639 0.466670 0.775947
O O11 0.855740 0.967318 0.542147
O O12 0.612787 0.664658 0.535388
O O13 0.718402 0.566350 0.891449
O O14 0.510479 0.128876 0.750815
O O15 0.616374 0.950312 0.120891
O O16 0.733557 0.168012 0.243551
O O17 0.000000 0.000000 0.500000
#
# Coordination Sequence:
#
# PCOD8001495 Si02
#       8
#     2   2   2   2   2   2   2   2
#     4  10  22  35  55  86 113 151 184 224 293 346
#     4  11  22  36  57  83 120 153 182 237 284 337
#     4  11  23  38  59  86 117 148 187 233 287 351
#     4  10  20  36  59  84 116 154 185 235 283 337
#     4  10  22  39  56  87 113 152 198 229 283 334
#     4  10  21  37  57  87 111 145 196 227 280 340
#     4  10  20  33  51  88 122 145 183 225 289 351
#     4  10  22  38  61  81 114 153 195 240 273 331
#
# _framework density 20.084188999999999
#
# number of rings (size 3 to 8) (size 9 to 14) (size 15 to 20)
#    0.000    1.750    2.500    1.500    5.250    0.500 
#    0.000    0.625    0.000    1.500    0.000    0.000 
#    0.000    0.000    0.000    0.000    0.000    0.000 
#
# Total GULP energy -198245.085098 kJ/mol
# GULP energy per Si atom -12390.317819 kJ/mol
# Density = 2.003848 g / cm^3
# Si number density = 20.084189 Si / 1000 Ang^3
#
#
#
# Elastic Constant Matrix: (Units=GPa)
#
#
# Indices 1 2 3 4 5 6 
#
# 1 112.9492 25.2585 64.4218 15.4283 -3.1028 -5.2369
# 2 25.2585 41.5037 23.1162 20.0471 1.5688 -9.4895
# 3 64.4218 23.1162 113.7913 28.9518 12.7445 -2.8552
# 4 15.4283 20.0471 28.9518 38.0656 -3.2472 -3.1297
# 5 -3.1028 1.5688 12.7445 -3.2472 30.9778 0.7064
# 6 -5.2369 -9.4895 -2.8552 -3.1297 0.7064 27.5536
#
#
#
# Elastic Compliance Matrix: (Units=1/GPa)
#
#
# Indices 1 2 3 4 5 6 
#
# 1 0.015015 -0.006649 -0.009057 0.004824 0.006072 0.000018
# 2 -0.006649 0.038810 0.001437 -0.018450 -0.005391 0.010294
# 3 -0.009057 0.001437 0.017522 -0.011248 -0.009357 -0.000449
# 4 0.004824 -0.018450 -0.011248 0.043333 0.010632 -0.001954
# 5 0.006072 -0.005391 -0.009357 0.010632 0.038160 -0.001443
# 6 0.000018 0.010294 -0.000449 -0.001954 -0.001443 0.039610
#
#
# Mechanical properties :
#
#
# Convention : Reuss Voigt Hill
#
# Bulk Modulus (GPa) = 23.35968 54.87078 39.11523
# Shear Modulus (GPa) = 21.25335 29.68257 25.46796
#
# Velocity S-wave (km/s) = 3.25655 3.84853 3.56485
# Velocity P-wave (km/s) = 5.07900 6.86498 6.03838
#
# Compressibility (1/GPa) = 0.04280880
#
# Stress axis : x y z
#
# Youngs Moduli (GPa) = 66.60162 25.76661 57.07106
#
# Poissons Ratio (x) = 0.17132 0.51687
# Poissons Ratio (y) = 0.44283 -0.08199
# Poissons Ratio (z) = 0.60318 -0.03702
#
# Static dielectric constant tensor:
#      x y z
#    x 3.302590 -0.076860 -0.017610 
#    y -0.076860 3.881640 0.067230 
#    z -0.017610 0.067230 4.052130 
# 
# 
# High freq. dielectric constant tensor:
#      x y z
#    x 1.748550 -0.011090 0.003210 
#    y -0.011090 1.769460 0.002960 
#    z 0.003210 0.002960 1.805140 
# 
# From -- ./inp_files/70665.got.cif
#   From: 2010.06.25/outbox.cif.g09.slc.cpg/sg2_36_cif.got.tgz:70665.got - 2010.06.27 13:26:56.
