data_PCOD8001154
_publ_section_title
;
Structure prediction by ZEFSAII (Michael W. Deem and Ramdas Pophale) SiO2 
 PCOD8001154
Probable space group: P -1
;
_chemical_formula_sum "Si O2"
_cell_formula_units_Z 16
_cell_length_a 12.498309
_cell_length_b 9.614582
_cell_length_c 13.058470
_cell_angle_alpha 49.277514
_cell_angle_beta 123.824331
_cell_angle_gamma 84.911850
_cell_volume 688.014011
_symmetry_space_group_name_H-M "P -1"
_symmetry_group_IT_number 2
_symmetry_cell_setting 'triclinic'
loop_
_space_group_symop_operation_xyz
x,y,z
-x,-y,-z
loop_
_atom_site_type_symbol
_atom_site_label
_atom_site_fract_x
_atom_site_fract_y
_atom_site_fract_z
Si Si1 0.239642 0.169034 0.715297
Si Si2 0.516797 0.786945 0.376593
Si Si3 0.006129 0.884563 0.954056
Si Si4 0.890745 0.285682 0.264849
Si Si5 0.117742 0.398452 0.329719
Si Si6 0.345118 0.243906 0.936059
Si Si7 0.621625 0.373880 0.474039
Si Si8 0.730753 0.256325 0.006728
O O1 0.170003 0.038641 0.774076
O O2 0.104308 0.395747 0.448835
O O3 0.237928 0.310598 0.741415
O O4 0.442643 0.926019 0.893068
O O5 0.667993 0.781399 0.499667
O O6 0.619481 0.549872 0.463973
O O7 0.439337 0.752386 0.445125
O O8 0.345818 0.063476 0.096700
O O9 0.192069 0.741345 0.060203
O O10 0.994572 0.683353 0.076635
O O11 0.833713 0.119983 0.676586
O O12 0.000000 0.000000 0.000000
O O13 0.758981 0.487683 0.189526
O O14 0.760536 0.367956 0.060528
O O15 0.037367 0.287039 0.300505
O O16 0.000000 0.000000 0.500000
O O17 0.490479 0.546114 0.223811
#
# Coordination Sequence:
#
# PCOD8001154 Si02
#       8
#     2   2   2   2   2   2   2   2
#     4  10  23  44  77 105 139 187 252 317 359 431
#     4  10  19  41  71 105 141 181 238 315 353 433
#     4  12  25  43  79 111 146 190 244 314 370 428
#     4  12  28  48  68 105 156 201 240 299 372 450
#     4  11  23  45  69 106 149 191 240 303 369 431
#     4  10  23  43  72 106 140 189 250 301 377 426
#     4  11  21  41  73 108 146 183 241 299 379 424
#     4  12  26  48  69 112 150 189 249 303 366 448
#
# _framework density 23.25534
#
# number of rings (size 3 to 8) (size 9 to 14) (size 15 to 20)
#    0.000    1.000    5.000    1.500    1.750    3.500 
#    4.500    1.250    0.000    0.000    0.000    0.000 
#    0.000    0.000    0.000    0.000    0.000    0.000 
#
# Total GULP energy -198382.111340 kJ/mol
# GULP energy per Si atom -12398.881959 kJ/mol
# Density = 2.320241 g / cm^3
# Si number density = 23.255340 Si / 1000 Ang^3
#
#
#
# Elastic Constant Matrix: (Units=GPa)
#
#
# Indices 1 2 3 4 5 6 
#
# 1 69.5652 33.0678 14.3296 -12.0724 -12.6265 10.9208
# 2 33.0678 110.0672 29.9442 -1.0394 5.6798 -0.3045
# 3 14.3296 29.9442 112.2009 -5.8807 -11.1316 -3.2017
# 4 -12.0724 -1.0394 -5.8807 41.3754 9.6751 -0.3128
# 5 -12.6265 5.6798 -11.1316 9.6751 37.6750 -1.4002
# 6 10.9208 -0.3045 -3.2017 -0.3128 -1.4002 37.0603
#
#
#
# Elastic Compliance Matrix: (Units=1/GPa)
#
#
# Indices 1 2 3 4 5 6 
#
# 1 0.020206 -0.006320 -0.000206 0.004173 0.006379 -0.005748
# 2 -0.006320 0.011983 -0.002838 -0.000888 -0.004478 0.001539
# 3 -0.000206 -0.002838 0.010075 0.000553 0.003232 0.001035
# 4 0.004173 -0.000888 0.000553 0.026648 -0.005191 -0.001160
# 5 0.006379 -0.004478 0.003232 -0.005191 0.031626 -0.000486
# 6 -0.005748 0.001539 0.001035 -0.001160 -0.000486 0.028751
#
#
# Mechanical properties :
#
#
# Convention : Reuss Voigt Hill
#
# Bulk Modulus (GPa) = 42.48794 49.61294 46.05044
# Shear Modulus (GPa) = 32.07965 37.52159 34.80062
#
# Velocity S-wave (km/s) = 3.71813 4.02115 3.87260
# Velocity P-wave (km/s) = 6.06156 6.55285 6.31199
#
# Compressibility (1/GPa) = 0.02353609
#
# Stress axis : x y z
#
# Youngs Moduli (GPa) = 49.49046 83.45103 99.25128
#
# Poissons Ratio (x) = 0.52741 0.02048
# Poissons Ratio (y) = 0.31278 0.28165
# Poissons Ratio (z) = 0.01021 0.23681
#
# Static dielectric constant tensor:
#      x y z
#    x 4.284180 0.261340 -0.100120 
#    y 0.261340 3.925100 0.132290 
#    z -0.100120 0.132290 4.561710 
# 
# 
# High freq. dielectric constant tensor:
#      x y z
#    x 1.925890 0.022680 -0.010950 
#    y 0.022680 1.883420 0.009880 
#    z -0.010950 0.009880 1.937610 
# 
# From -- ./inp_files/529407.got.cif
#   From: 2010.06.25/outbox.cif.g09.slc.cpg/sg2_265_cif.got.tgz:529407.got - 2010.06.27 13:26:56.
