data_PCOD8001796
_publ_section_title
;
Structure prediction by ZEFSAII (Michael W. Deem and Ramdas Pophale) SiO2 
 PCOD8001796
Probable space group: P -1
;
_chemical_formula_sum "Si O2"
_cell_formula_units_Z 16
_cell_length_a 5.147495
_cell_length_b 9.890172
_cell_length_c 16.289798
_cell_angle_alpha 108.218035
_cell_angle_beta 99.099444
_cell_angle_gamma 81.102032
_cell_volume 772.912478
_symmetry_space_group_name_H-M "P -1"
_symmetry_group_IT_number 2
_symmetry_cell_setting 'triclinic'
loop_
_space_group_symop_operation_xyz
x,y,z
-x,-y,-z
loop_
_atom_site_type_symbol
_atom_site_label
_atom_site_fract_x
_atom_site_fract_y
_atom_site_fract_z
Si Si1 0.836034 0.403313 0.524805
Si Si2 0.514208 0.920119 0.662466
Si Si3 0.528259 0.617054 0.646483
Si Si4 0.534847 0.786840 0.190279
Si Si5 0.991631 0.714567 0.084021
Si Si6 0.644850 0.480049 0.213825
Si Si7 0.032625 0.103248 0.447895
Si Si8 0.097196 0.410864 0.106265
O O1 0.762025 0.484926 0.623064
O O2 0.591728 0.369073 0.448930
O O3 0.015502 0.255461 0.522540
O O4 0.000000 0.500000 0.500000
O O5 0.617473 0.777242 0.695287
O O6 0.203243 0.911582 0.630668
O O7 0.685582 0.924567 0.588731
O O8 0.545923 0.066927 0.738062
O O9 0.341327 0.564625 0.698147
O O10 0.772830 0.812581 0.144836
O O11 0.613919 0.652710 0.231067
O O12 0.282720 0.759418 0.118205
O O13 0.971612 0.555165 0.084203
O O14 0.920831 0.718885 0.984040
O O15 0.913046 0.397202 0.174039
O O16 0.398041 0.412769 0.148627
O O17 0.000000 0.000000 0.500000
#
# Coordination Sequence:
#
# PCOD8001796 Si02
#       8
#     2   2   2   2   2   2   2   2
#     4  10  21  40  59  79 108 154 194 224 283 334
#     4  11  23  40  56  82 116 149 187 224 287 340
#     4  10  23  38  57  81 114 150 189 233 276 335
#     4  10  20  34  56  85 110 146 185 227 279 327
#     4   9  17  34  56  81 115 146 178 226 280 337
#     4  10  21  33  56  87 109 142 187 236 272 317
#     4  11  24  39  59  83 111 148 187 239 282 325
#     4   9  18  33  55  85 113 141 183 229 280 325
#
# _framework density 20.700921000000001
#
# number of rings (size 3 to 8) (size 9 to 14) (size 15 to 20)
#    0.000    2.000    1.250    1.875    3.500    4.000 
#    0.000    0.000    0.000    4.500    0.000    0.000 
#    0.000    0.000    0.000    0.000    0.000    0.000 
#
# Total GULP energy -198279.196587 kJ/mol
# GULP energy per Si atom -12392.449787 kJ/mol
# Density = 2.065380 g / cm^3
# Si number density = 20.700921 Si / 1000 Ang^3
#
#
#
# Elastic Constant Matrix: (Units=GPa)
#
#
# Indices 1 2 3 4 5 6 
#
# 1 65.9633 6.7875 2.9476 3.8781 -19.7312 9.2741
# 2 6.7875 105.6452 42.4250 15.7215 -17.2488 4.6999
# 3 2.9476 42.4250 76.5964 5.5968 -26.8402 -1.8437
# 4 3.8781 15.7215 5.5968 22.0591 3.2452 -7.0321
# 5 -19.7312 -17.2488 -26.8402 3.2452 38.6214 -1.1866
# 6 9.2741 4.6999 -1.8437 -7.0321 -1.1866 23.6481
#
#
#
# Elastic Compliance Matrix: (Units=1/GPa)
#
#
# Indices 1 2 3 4 5 6 
#
# 1 0.021718 0.001718 0.004237 -0.012003 0.015468 -0.011321
# 2 0.001718 0.014558 -0.006031 -0.012104 0.003977 -0.007437
# 3 0.004237 -0.006031 0.021781 -0.003912 0.014962 0.000822
# 4 -0.012003 -0.012104 -0.003912 0.068214 -0.019185 0.026129
# 5 0.015468 0.003977 0.014962 -0.019185 0.047304 -0.009022
# 6 -0.011321 -0.007437 0.000822 0.026129 -0.009022 0.055586
#
#
# Mechanical properties :
#
#
# Convention : Reuss Voigt Hill
#
# Bulk Modulus (GPa) = 17.26881 39.16948 28.21914
# Shear Modulus (GPa) = 20.11142 29.93536 25.02339
#
# Velocity S-wave (km/s) = 3.12031 3.80687 3.48056
# Velocity P-wave (km/s) = 4.61973 6.18755 5.46020
#
# Compressibility (1/GPa) = 0.05790787
#
# Stress axis : x y z
#
# Youngs Moduli (GPa) = 46.04457 68.68841 45.91097
#
# Poissons Ratio (x) = -0.11803 -0.19454
# Poissons Ratio (y) = -0.07912 0.27687
# Poissons Ratio (z) = -0.19510 0.41423
#
# Static dielectric constant tensor:
#      x y z
#    x 3.869690 -0.149130 -0.340570 
#    y -0.149130 3.850980 0.143000 
#    z -0.340570 0.143000 3.353020 
# 
# 
# High freq. dielectric constant tensor:
#      x y z
#    x 1.820050 0.008060 -0.015330 
#    y 0.008060 1.787080 0.013150 
#    z -0.015330 0.013150 1.802140 
# 
# From -- ./inp_files/47805.got.cif
#   From: 2010.06.25/outbox.cif.g09.slc.cpg/sg2_24_cif.got.tgz:47805.got - 2010.06.27 13:26:56.
