data_PCOD8001996
_publ_section_title
;
Structure prediction by ZEFSAII (Michael W. Deem and Ramdas Pophale) SiO2 
 PCOD8001996
Probable space group: P -1
;
_chemical_formula_sum "Si O2"
_cell_formula_units_Z 14
_cell_length_a 6.815762
_cell_length_b 11.094051
_cell_length_c 11.911032
_cell_angle_alpha 110.493178
_cell_angle_beta 124.257711
_cell_angle_gamma 61.238959
_cell_volume 648.648417
_symmetry_space_group_name_H-M "P -1"
_symmetry_group_IT_number 2
_symmetry_cell_setting 'triclinic'
loop_
_space_group_symop_operation_xyz
x,y,z
-x,-y,-z
loop_
_atom_site_type_symbol
_atom_site_label
_atom_site_fract_x
_atom_site_fract_y
_atom_site_fract_z
Si Si1 0.387830 0.700874 0.989012
Si Si2 0.593539 0.048117 0.434192
Si Si3 0.783154 0.784646 0.043078
Si Si4 0.703139 0.428703 0.879376
Si Si5 0.011870 0.171416 0.659472
Si Si6 0.709237 0.477090 0.654467
Si Si7 0.179557 0.243423 0.203967
O O1 0.599556 0.561548 0.966043
O O2 0.112155 0.735220 0.855250
O O3 0.510981 0.810575 0.024658
O O4 0.366109 0.690759 0.114387
O O5 0.347564 0.143413 0.319106
O O6 0.761752 0.138711 0.545009
O O7 0.500000 0.000000 0.500000
O O8 0.754166 0.914149 0.371070
O O9 0.916583 0.860997 0.195396
O O10 0.986637 0.625305 0.046401
O O11 0.733181 0.835180 0.914227
O O12 0.580834 0.458900 0.725805
O O13 0.949418 0.333901 0.663514
O O14 0.500000 0.500000 0.500000
O O15 0.797460 0.606791 0.734772
#
# Coordination Sequence:
#
# PCOD8001996 Si02
#       7
#     2   2   2   2   2   2   2
#     4  10  20  34  62  98 132 169 201 264 331 379
#     4  11  26  50  65  89 135 177 218 266 322 392
#     4  10  21  41  67  95 131 168 219 269 317 386
#     4   9  20  32  57  93 134 166 199 251 328 378
#     4  10  25  44  71  93 126 179 217 260 334 378
#     4  11  21  41  66  99 134 167 212 271 320 387
#     4  11  24  41  67 101 132 168 215 271 323 383
#
# _framework density 21.583344
#
# number of rings (size 3 to 8) (size 9 to 14) (size 15 to 20)
#    0.000    1.714    2.857    0.429   10.000    7.429 
#    0.000    2.857    0.000    0.000    0.000    0.000 
#    0.000    0.000    0.000    0.000    0.000    0.000 
#
# Total GULP energy -173449.851291 kJ/mol
# GULP energy per Si atom -12389.275092 kJ/mol
# Density = 2.153422 g / cm^3
# Si number density = 21.583344 Si / 1000 Ang^3
#
#
#
# Elastic Constant Matrix: (Units=GPa)
#
#
# Indices 1 2 3 4 5 6 
#
# 1 140.4484 38.9151 63.5421 -20.9516 -3.6685 -10.1144
# 2 38.9151 80.4331 45.3966 -16.6028 -18.4312 -11.5436
# 3 63.5421 45.3966 156.1280 -22.2624 -14.0836 -1.5430
# 4 -20.9516 -16.6028 -22.2624 26.5652 -0.7582 -7.6236
# 5 -3.6685 -18.4312 -14.0836 -0.7582 31.9915 -2.5204
# 6 -10.1144 -11.5436 -1.5430 -7.6236 -2.5204 17.5123
#
#
#
# Elastic Compliance Matrix: (Units=1/GPa)
#
#
# Indices 1 2 3 4 5 6 
#
# 1 0.010406 -0.000138 -0.002813 0.008512 0.000825 0.009496
# 2 -0.000138 0.027433 -0.002563 0.024254 0.017668 0.030879
# 3 -0.002813 -0.002563 0.009001 0.003603 0.002198 -0.000636
# 4 0.008512 0.024254 0.003603 0.080267 0.023125 0.059492
# 5 0.000825 0.017668 0.002198 0.023125 0.045325 0.028907
# 6 0.009496 0.030879 -0.000636 0.059492 0.028907 0.112944
#
#
# Mechanical properties :
#
#
# Convention : Reuss Voigt Hill
#
# Bulk Modulus (GPa) = 27.92394 74.74635 51.33515
# Shear Modulus (GPa) = 16.21581 30.49086 23.35333
#
# Velocity S-wave (km/s) = 2.74398 3.76267 3.29296
# Velocity P-wave (km/s) = 4.79636 7.32008 6.18824
#
# Compressibility (1/GPa) = 0.03581157
#
# Stress axis : x y z
#
# Youngs Moduli (GPa) = 96.09685 36.45272 111.10114
#
# Poissons Ratio (x) = 0.00504 0.31253
# Poissons Ratio (y) = 0.01328 0.28475
# Poissons Ratio (z) = 0.27032 0.09343
#
# Static dielectric constant tensor:
#      x y z
#    x 4.350710 -0.038470 -0.168400 
#    y -0.038470 3.753610 -0.011080 
#    z -0.168400 -0.011080 4.122330 
# 
# 
# High freq. dielectric constant tensor:
#      x y z
#    x 1.848080 -0.013650 -0.006280 
#    y -0.013650 1.830380 -0.003890 
#    z -0.006280 -0.003890 1.857310 
# 
# From -- ./inp_files/82992.got.cif
#   From: 2010.06.25/outbox.cif.g09.slc.cpg/sg2_42_cif.got.tgz:82992.got - 2010.06.27 13:26:56.
