data_PCOD8001013
_publ_section_title
;
Structure prediction by ZEFSAII (Michael W. Deem and Ramdas Pophale) SiO2 
 PCOD8001013
Probable space group: P -1
;
_chemical_formula_sum "Si O2"
_cell_formula_units_Z 16
_cell_length_a 9.103744
_cell_length_b 15.469798
_cell_length_c 9.052009
_cell_angle_alpha 102.644369
_cell_angle_beta 66.224753
_cell_angle_gamma 53.104159
_cell_volume 724.695603
_symmetry_space_group_name_H-M "P -1"
_symmetry_group_IT_number 2
_symmetry_cell_setting 'triclinic'
loop_
_space_group_symop_operation_xyz
x,y,z
-x,-y,-z
loop_
_atom_site_type_symbol
_atom_site_label
_atom_site_fract_x
_atom_site_fract_y
_atom_site_fract_z
Si Si1 0.697043 0.317757 0.246663
Si Si2 0.086853 0.036302 0.866623
Si Si3 0.955148 0.508362 0.846977
Si Si4 0.648982 0.490345 0.815995
Si Si5 0.034798 0.748421 0.618656
Si Si6 0.568070 0.746003 0.614437
Si Si7 0.325395 0.232321 0.105790
Si Si8 0.881706 0.009886 0.696695
O O1 0.527242 0.424109 0.222951
O O2 0.750835 0.359750 0.380509
O O3 0.578941 0.282343 0.358236
O O4 0.978510 0.177335 0.013659
O O5 0.393022 0.903631 0.690397
O O6 0.948132 0.066917 0.786994
O O7 0.000000 0.000000 0.000000
O O8 0.195134 0.357276 0.626697
O O9 0.721538 0.547818 0.899179
O O10 0.899562 0.629449 0.849576
O O11 0.000000 0.500000 0.000000
O O12 0.891730 0.334581 0.593207
O O13 0.500000 0.500000 0.000000
O O14 0.769773 0.822660 0.816609
O O15 0.012568 0.862461 0.637317
O O16 0.638408 0.721557 0.748493
O O17 0.580274 0.119569 0.862176
O O18 0.000000 0.000000 0.500000
#
# Coordination Sequence:
#
# PCOD8001013 Si02
#       8
#     2   2   2   2   2   2   2   2
#     4  11  22  44  73  98 133 183 234 278 342 415
#     4  10  19  40  70 100 125 179 233 274 330 421
#     4  12  28  44  68 101 142 186 229 288 353 401
#     4  12  28  44  66 104 145 179 230 296 345 404
#     4  12  26  44  71 107 138 182 236 283 348 417
#     4  11  20  43  72  95 130 183 234 278 335 416
#     4  12  24  47  72 100 139 184 236 287 338 419
#     4  12  26  43  71 106 139 181 227 293 355 407
#
# _framework density 22.078234999999999
#
# number of rings (size 3 to 8) (size 9 to 14) (size 15 to 20)
#    0.000    0.500    7.500    1.875    8.750    0.000 
#    0.000    0.000    0.000    3.000    0.000    0.000 
#    0.000    0.000    0.000    0.000    0.000    0.000 
#
# Total GULP energy -198215.002031 kJ/mol
# GULP energy per Si atom -12388.437627 kJ/mol
# Density = 2.202798 g / cm^3
# Si number density = 22.078235 Si / 1000 Ang^3
#
#
#
# Elastic Constant Matrix: (Units=GPa)
#
#
# Indices 1 2 3 4 5 6 
#
# 1 92.3138 30.4109 45.0284 -21.6154 11.7006 -13.3447
# 2 30.4109 69.1343 34.4205 -1.8375 -8.6431 -5.5611
# 3 45.0284 34.4205 136.7471 -14.4163 -10.2326 -3.8410
# 4 -21.6154 -1.8375 -14.4163 31.1425 -1.8763 -5.5520
# 5 11.7006 -8.6431 -10.2326 -1.8763 39.4715 0.3223
# 6 -13.3447 -5.5611 -3.8410 -5.5520 0.3223 31.4831
#
#
#
# Elastic Compliance Matrix: (Units=1/GPa)
#
#
# Indices 1 2 3 4 5 6 
#
# 1 0.020531 -0.006965 -0.003957 0.013196 -0.008087 0.009399
# 2 -0.006965 0.019358 -0.002698 -0.004752 0.005384 -0.000755
# 3 -0.003957 -0.002698 0.009686 0.001642 0.003177 -0.000715
# 4 0.013196 -0.004752 0.001642 0.043862 -0.002545 0.012715
# 5 -0.008087 0.005384 0.003177 -0.002545 0.029637 -0.002841
# 6 0.009399 -0.000755 -0.000715 0.012715 -0.002841 0.037798
#
#
# Mechanical properties :
#
#
# Convention : Reuss Voigt Hill
#
# Bulk Modulus (GPa) = 44.77640 57.54610 51.16125
# Shear Modulus (GPa) = 25.56797 32.97511 29.27154
#
# Velocity S-wave (km/s) = 3.40672 3.86885 3.64512
# Velocity P-wave (km/s) = 5.98324 6.78812 6.39835
#
# Compressibility (1/GPa) = 0.02233319
#
# Stress axis : x y z
#
# Youngs Moduli (GPa) = 48.70722 51.65833 103.24477
#
# Poissons Ratio (x) = 0.35981 0.40856
# Poissons Ratio (y) = 0.33925 0.27859
# Poissons Ratio (z) = 0.19275 0.13939
#
# Static dielectric constant tensor:
#      x y z
#    x 3.860010 0.279770 0.029870 
#    y 0.279770 3.086600 0.588490 
#    z 0.029870 0.588490 4.505040 
# 
# 
# High freq. dielectric constant tensor:
#      x y z
#    x 1.871340 -0.013300 0.008190 
#    y -0.013300 1.858140 0.012190 
#    z 0.008190 0.012190 1.873040 
# 
# From -- ./inp_files/207596.got.cif
#   From: 2010.06.25/outbox.cif.g09.slc.cpg/sg2_104_cif.got.tgz:207596.got - 2010.06.27 13:26:56.
