data_PCOD8001368
_publ_section_title
;
Structure prediction by ZEFSAII (Michael W. Deem and Ramdas Pophale) SiO2 
 PCOD8001368
Probable space group: P -1
;
_chemical_formula_sum "Si O2"
_cell_formula_units_Z 16
_cell_length_a 8.380670
_cell_length_b 19.801636
_cell_length_c 14.117322
_cell_angle_alpha 21.937251
_cell_angle_beta 100.148816
_cell_angle_gamma 89.097843
_cell_volume 752.347184
_symmetry_space_group_name_H-M "P -1"
_symmetry_group_IT_number 2
_symmetry_cell_setting 'triclinic'
loop_
_space_group_symop_operation_xyz
x,y,z
-x,-y,-z
loop_
_atom_site_type_symbol
_atom_site_label
_atom_site_fract_x
_atom_site_fract_y
_atom_site_fract_z
Si Si1 0.533412 0.550534 0.831643
Si Si2 0.568313 0.007642 0.781615
Si Si3 0.912639 0.766933 0.228988
Si Si4 0.131097 0.632958 0.246082
Si Si5 0.251819 0.549999 0.661519
Si Si6 0.562598 0.290342 0.892308
Si Si7 0.218658 0.865501 0.694631
Si Si8 0.212333 0.168493 0.159057
O O1 0.567022 0.748413 0.568909
O O2 0.347061 0.617277 0.664350
O O3 0.500000 0.500000 0.000000
O O4 0.713557 0.358566 0.054674
O O5 0.458781 0.878356 0.955555
O O6 0.688702 0.907769 0.831173
O O7 0.709866 0.973152 0.930425
O O8 0.857998 0.586613 0.453037
O O9 0.034976 0.768560 0.151705
O O10 0.042107 0.738256 0.371934
O O11 0.336251 0.606029 0.291188
O O12 0.008164 0.747094 0.991381
O O13 0.369161 0.476068 0.671154
O O14 0.240745 0.355263 0.957367
O O15 0.692596 0.155749 0.166878
O O16 0.296488 0.986198 0.481271
O O17 0.000000 0.000000 0.500000
#
# Coordination Sequence:
#
# PCOD8001368 Si02
#       8
#     2   2   2   2   2   2   2   2
#     4  11  23  38  59  85 123 156 196 243 293 350
#     4  10  21  36  57  86 118 155 194 238 296 345
#     4   9  19  35  58  84 117 152 194 242 288 353
#     4   9  16  32  57  88 115 145 197 246 284 335
#     4   9  21  35  57  89 111 154 201 241 282 350
#     4  10  20  31  58  91 117 151 199 242 291 344
#     4  11  21  36  60  85 119 159 195 247 289 348
#     4   9  17  34  58  84 113 151 199 236 288 344
#
# _framework density 21.266776
#
# number of rings (size 3 to 8) (size 9 to 14) (size 15 to 20)
#    0.000    2.250    2.500    2.250    1.750    4.000 
#    0.000    0.625    5.500    6.750    0.000    0.000 
#    0.000    0.000    0.000    0.000    0.000    0.000 
#
# Total GULP energy -198258.763135 kJ/mol
# GULP energy per Si atom -12391.172696 kJ/mol
# Density = 2.121837 g / cm^3
# Si number density = 21.266776 Si / 1000 Ang^3
#
#
#
# Elastic Constant Matrix: (Units=GPa)
#
#
# Indices 1 2 3 4 5 6 
#
# 1 105.6205 20.8836 27.8399 0.4712 -3.4624 6.4263
# 2 20.8836 57.2692 17.5334 0.9293 3.8502 11.3972
# 3 27.8399 17.5334 81.5650 2.9196 8.9341 -2.3300
# 4 0.4712 0.9293 2.9196 22.1820 0.2011 -1.0910
# 5 -3.4624 3.8502 8.9341 0.2011 34.7295 3.6102
# 6 6.4263 11.3972 -2.3300 -1.0910 3.6102 17.3195
#
#
#
# Elastic Compliance Matrix: (Units=1/GPa)
#
#
# Indices 1 2 3 4 5 6 
#
# 1 0.011237 -0.002420 -0.003723 0.000149 0.002723 -0.003636
# 2 -0.002420 0.022629 -0.004410 -0.001035 -0.000088 -0.014633
# 3 -0.003723 -0.004410 0.015230 -0.001346 -0.004540 0.007194
# 4 0.000149 -0.001035 -0.001346 0.045464 -0.000134 0.003337
# 5 0.002723 -0.000088 -0.004540 -0.000134 0.031081 -0.008050
# 6 -0.003636 -0.014633 0.007194 0.003337 -0.008050 0.071573
#
#
# Mechanical properties :
#
#
# Convention : Reuss Voigt Hill
#
# Bulk Modulus (GPa) = 35.72563 41.88539 38.80551
# Shear Modulus (GPa) = 21.96356 26.72605 24.34481
#
# Velocity S-wave (km/s) = 3.21715 3.54885 3.38706
# Velocity P-wave (km/s) = 5.53492 6.04404 5.79507
#
# Compressibility (1/GPa) = 0.02799111
#
# Stress axis : x y z
#
# Youngs Moduli (GPa) = 88.98782 44.19151 65.66097
#
# Poissons Ratio (x) = 0.10694 0.24445
# Poissons Ratio (y) = 0.21534 0.28954
# Poissons Ratio (z) = 0.33130 0.19487
#
# Static dielectric constant tensor:
#      x y z
#    x 4.009230 0.244590 0.030590 
#    y 0.244590 3.553110 0.292890 
#    z 0.030590 0.292890 4.097790 
# 
# 
# High freq. dielectric constant tensor:
#      x y z
#    x 1.827660 0.020080 -0.001020 
#    y 0.020080 1.799120 0.027720 
#    z -0.001020 0.027720 1.846030 
# 
# From -- ./inp_files/209000.got.cif
#   From: 2010.06.25/outbox.cif.g09.slc.cpg/sg2_105_cif.got.tgz:209000.got - 2010.06.27 13:26:56.
