data_PCOD8001322
_publ_section_title
;
Structure prediction by ZEFSAII (Michael W. Deem and Ramdas Pophale) SiO2 
 PCOD8001322
Probable space group: P -1
;
_chemical_formula_sum "Si O2"
_cell_formula_units_Z 16
_cell_length_a 14.365236
_cell_length_b 11.211168
_cell_length_c 14.279603
_cell_angle_alpha 149.472816
_cell_angle_beta 136.437194
_cell_angle_gamma 49.860908
_cell_volume 803.651908
_symmetry_space_group_name_H-M "P -1"
_symmetry_group_IT_number 2
_symmetry_cell_setting 'triclinic'
loop_
_space_group_symop_operation_xyz
x,y,z
-x,-y,-z
loop_
_atom_site_type_symbol
_atom_site_label
_atom_site_fract_x
_atom_site_fract_y
_atom_site_fract_z
Si Si1 0.208581 0.567956 0.538547
Si Si2 0.441478 0.896694 0.980496
Si Si3 0.898914 0.656815 0.372950
Si Si4 0.666299 0.840002 0.751118
Si Si5 0.510841 0.150199 0.708354
Si Si6 0.365353 0.389871 0.939116
Si Si7 0.234429 0.145495 0.413598
Si Si8 0.138893 0.866122 0.996629
O O1 0.302724 0.775472 0.775247
O O2 0.274314 0.429142 0.401519
O O3 0.197923 0.384641 0.491503
O O4 0.057025 0.678080 0.475981
O O5 0.554639 0.711335 0.980178
O O6 0.500000 0.000000 0.000000
O O7 0.412566 0.117073 0.179732
O O8 0.794726 0.675526 0.220197
O O9 0.851954 0.843730 0.545942
O O10 0.875936 0.399778 0.223692
O O11 0.578234 0.911754 0.642900
O O12 0.786124 0.021311 0.960555
O O13 0.424560 0.278343 0.813000
O O14 0.397692 0.095957 0.511494
O O15 0.619183 0.330415 0.870307
O O16 0.207885 0.911937 0.178429
O O17 0.000000 0.000000 0.000000
#
# Coordination Sequence:
#
# PCOD8001322 Si02
#       8
#     2   2   2   2   2   2   2   2
#     4  11  22  33  56  85 106 150 182 220 279 319
#     4  11  24  42  60  75 102 151 198 236 266 307
#     4  11  20  33  52  82 119 145 169 219 271 344
#     4  10  21  35  56  84 118 136 179 227 270 331
#     4   9  16  31  53  82 114 147 168 222 274 331
#     4   9  18  33  56  80 110 143 182 220 279 322
#     4  10  20  30  50  81 119 147 179 201 270 345
#     4  11  20  29  48  86 119 149 161 207 281 336
#
# _framework density 19.909116999999998
#
# number of rings (size 3 to 8) (size 9 to 14) (size 15 to 20)
#    0.000    1.750    5.000    1.125    1.750    3.500 
#    0.000    0.625    0.000    0.750    0.000    0.000 
#    0.000    0.000    0.000    0.000    0.000    0.000 
#
# Total GULP energy -198213.658024 kJ/mol
# GULP energy per Si atom -12388.353626 kJ/mol
# Density = 1.986380 g / cm^3
# Si number density = 19.909117 Si / 1000 Ang^3
#
#
#
# Elastic Constant Matrix: (Units=GPa)
#
#
# Indices 1 2 3 4 5 6 
#
# 1 99.2698 53.2233 38.1792 -14.1537 -12.3425 -10.6929
# 2 53.2233 76.8043 37.5090 -24.8946 8.8298 -24.1087
# 3 38.1792 37.5090 85.8196 -22.6173 1.6077 -4.1746
# 4 -14.1537 -24.8946 -22.6173 31.8465 -14.9579 2.7934
# 5 -12.3425 8.8298 1.6077 -14.9579 28.9790 -4.9688
# 6 -10.6929 -24.1087 -4.1746 2.7934 -4.9688 34.9185
#
#
#
# Elastic Compliance Matrix: (Units=1/GPa)
#
#
# Indices 1 2 3 4 5 6 
#
# 1 0.020940 -0.014626 -0.002433 0.003308 0.014853 -0.002128
# 2 -0.014626 0.036374 -0.004765 0.013745 -0.006869 0.017988
# 3 -0.002433 -0.004765 0.017112 0.009387 0.003938 -0.002180
# 4 0.003308 0.013745 0.009387 0.064223 0.031737 0.011004
# 5 0.014853 -0.006869 0.003938 0.031737 0.060170 0.006300
# 6 -0.002128 0.017988 -0.002180 0.011004 0.006300 0.040161
#
#
# Mechanical properties :
#
#
# Convention : Reuss Voigt Hill
#
# Bulk Modulus (GPa) = 32.49124 57.74631 45.11877
# Shear Modulus (GPa) = 17.07145 28.01428 22.54286
#
# Velocity S-wave (km/s) = 2.93143 3.75521 3.36860
# Velocity P-wave (km/s) = 5.27380 6.91882 6.15155
#
# Compressibility (1/GPa) = 0.03077753
#
# Stress axis : x y z
#
# Youngs Moduli (GPa) = 47.75528 27.49242 58.44014
#
# Poissons Ratio (x) = 0.40210 0.14220
# Poissons Ratio (y) = 0.69845 0.27846
# Poissons Ratio (z) = 0.11620 0.13100
#
# Static dielectric constant tensor:
#      x y z
#    x 3.608500 -0.660920 -0.091730 
#    y -0.660920 3.748460 -0.324270 
#    z -0.091730 -0.324270 3.706120 
# 
# 
# High freq. dielectric constant tensor:
#      x y z
#    x 1.756990 -0.059090 -0.024350 
#    y -0.059090 1.757360 -0.021560 
#    z -0.024350 -0.021560 1.787040 
# 
# From -- ./inp_files/519833.got.cif
#   From: 2010.06.25/outbox.cif.g09.slc.cpg/sg2_260_cif.got.tgz:519833.got - 2010.06.27 13:26:56.
