data_PCOD8001454
_publ_section_title
;
Structure prediction by ZEFSAII (Michael W. Deem and Ramdas Pophale) SiO2 
 PCOD8001454
Probable space group: P -1
;
_chemical_formula_sum "Si O2"
_cell_formula_units_Z 16
_cell_length_a 17.469463
_cell_length_b 14.459509
_cell_length_c 13.962083
_cell_angle_alpha 131.220484
_cell_angle_beta 142.200180
_cell_angle_gamma 21.928057
_cell_volume 763.840394
_symmetry_space_group_name_H-M "P -1"
_symmetry_group_IT_number 2
_symmetry_cell_setting 'triclinic'
loop_
_space_group_symop_operation_xyz
x,y,z
-x,-y,-z
loop_
_atom_site_type_symbol
_atom_site_label
_atom_site_fract_x
_atom_site_fract_y
_atom_site_fract_z
Si Si1 0.777672 0.360870 0.119801
Si Si2 0.668630 0.436783 0.698767
Si Si3 0.739996 0.663485 0.593090
Si Si4 0.578548 0.673367 0.612167
Si Si5 0.792687 0.095337 0.043008
Si Si6 0.750724 0.284619 0.402779
Si Si7 0.035701 0.750417 0.572138
Si Si8 0.217358 0.096667 0.249120
O O1 0.857033 0.148531 0.067192
O O2 0.810495 0.404801 0.282707
O O3 0.952336 0.270978 0.150375
O O4 0.469591 0.641429 0.975585
O O5 0.500000 0.500000 0.500000
O O6 0.684650 0.558875 0.748102
O O7 0.508678 0.577229 0.738500
O O8 0.964529 0.129596 0.796471
O O9 0.698882 0.687058 0.684324
O O10 0.838509 0.713648 0.702253
O O11 0.959644 0.378418 0.573783
O O12 0.459699 0.873611 0.409867
O O13 0.681637 0.472877 0.512313
O O14 0.262212 0.953737 0.495084
O O15 0.732176 0.020631 0.878377
O O16 0.817758 0.261358 0.343508
O O17 0.000000 0.000000 0.500000
#
# Coordination Sequence:
#
# PCOD8001454 Si02
#       8
#     2   2   2   2   2   2   2   2
#     4  11  23  39  63  92 131 165 194 255 321 376
#     4  10  21  39  61  87 124 165 202 250 305 370
#     4  10  23  39  67  90 124 165 215 255 296 367
#     4  10  20  37  59  91 122 157 206 256 297 357
#     4  11  25  40  60  94 130 160 202 254 318 375
#     4  10  20  32  57  93 123 154 199 251 302 365
#     4  11  20  36  61  93 124 159 206 251 307 363
#     4  11  23  43  60  93 127 167 207 255 309 361
#
# _framework density 20.946784999999998
#
# number of rings (size 3 to 8) (size 9 to 14) (size 15 to 20)
#    0.000    1.500    3.750    1.875    3.500    3.500 
#    0.000    0.625    0.000    1.500    0.000    0.000 
#    0.000    0.000    0.000    0.000    0.000    0.000 
#
# Total GULP energy -198271.308051 kJ/mol
# GULP energy per Si atom -12391.956753 kJ/mol
# Density = 2.089911 g / cm^3
# Si number density = 20.946785 Si / 1000 Ang^3
#
#
#
# Elastic Constant Matrix: (Units=GPa)
#
#
# Indices 1 2 3 4 5 6 
#
# 1 85.7635 41.2431 12.1881 -11.5894 10.3305 8.8772
# 2 41.2431 111.4355 41.2233 -22.3834 7.1929 8.8688
# 3 12.1881 41.2233 63.9589 -14.5990 7.2438 13.9370
# 4 -11.5894 -22.3834 -14.5990 40.9715 4.3443 0.0586
# 5 10.3305 7.1929 7.2438 4.3443 22.1121 -2.6161
# 6 8.8772 8.8688 13.9370 0.0586 -2.6161 28.2653
#
#
#
# Elastic Compliance Matrix: (Units=1/GPa)
#
#
# Indices 1 2 3 4 5 6 
#
# 1 0.015854 -0.005447 0.003499 0.003631 -0.008176 -0.005760
# 2 -0.005447 0.014501 -0.007624 0.003695 -0.000296 0.000885
# 3 0.003499 -0.007624 0.025264 0.006928 -0.010227 -0.012125
# 4 0.003631 0.003695 0.006928 0.031216 -0.012117 -0.006902
# 5 -0.008176 -0.000296 -0.010227 -0.012117 0.056403 0.012949
# 6 -0.005760 0.000885 -0.012125 -0.006902 0.012949 0.044102
#
#
# Mechanical properties :
#
#
# Convention : Reuss Voigt Hill
#
# Bulk Modulus (GPa) = 27.41583 50.05189 38.73386
# Shear Modulus (GPa) = 22.86856 29.37000 26.11928
#
# Velocity S-wave (km/s) = 3.30774 3.74856 3.53503
# Velocity P-wave (km/s) = 5.26355 6.53316 5.93242
#
# Compressibility (1/GPa) = 0.03647528
#
# Stress axis : x y z
#
# Youngs Moduli (GPa) = 63.07735 68.96136 39.58207
#
# Poissons Ratio (x) = 0.37560 -0.13851
# Poissons Ratio (y) = 0.34355 0.30178
# Poissons Ratio (z) = -0.22072 0.52578
#
# Static dielectric constant tensor:
#      x y z
#    x 4.995800 0.004200 -0.107950 
#    y 0.004200 3.906550 -0.143570 
#    z -0.107950 -0.143570 3.370050 
# 
# 
# High freq. dielectric constant tensor:
#      x y z
#    x 1.834720 -0.005280 -0.005760 
#    y -0.005280 1.831970 -0.018160 
#    z -0.005760 -0.018160 1.772820 
# 
# From -- ./inp_files/535464.got.cif
#   From: 2010.06.25/outbox.cif.g09.slc.cpg/sg2_268_cif.got.tgz:535464.got - 2010.06.27 13:26:56.
