data_PCOD8001552
_publ_section_title
;
Structure prediction by ZEFSAII (Michael W. Deem and Ramdas Pophale) SiO2 
 PCOD8001552
Probable space group: P -1
;
_chemical_formula_sum "Si O2"
_cell_formula_units_Z 14
_cell_length_a 11.803216
_cell_length_b 17.434145
_cell_length_c 6.809997
_cell_angle_alpha 92.744944
_cell_angle_beta 109.385641
_cell_angle_gamma 139.242964
_cell_volume 754.219606
_symmetry_space_group_name_H-M "P -1"
_symmetry_group_IT_number 2
_symmetry_cell_setting 'triclinic'
loop_
_space_group_symop_operation_xyz
x,y,z
-x,-y,-z
loop_
_atom_site_type_symbol
_atom_site_label
_atom_site_fract_x
_atom_site_fract_y
_atom_site_fract_z
Si Si1 0.856665 0.825129 0.228339
Si Si2 0.527715 0.128821 0.885155
Si Si3 0.234852 0.313806 0.470905
Si Si4 0.313520 0.044830 0.355950
Si Si5 0.514494 0.595499 0.741025
Si Si6 0.449081 0.223196 0.111918
Si Si7 0.212459 0.879403 0.946869
O O1 0.838745 0.792382 0.440919
O O2 0.760366 0.859842 0.139582
O O3 0.721644 0.692219 0.007747
O O4 0.096202 0.953350 0.319595
O O5 0.488874 0.125464 0.633698
O O6 0.579074 0.233915 0.047863
O O7 0.322132 0.979907 0.839453
O O8 0.730307 0.180545 0.030055
O O9 0.338730 0.439428 0.665048
O O10 0.410437 0.369819 0.437098
O O11 0.036877 0.242266 0.227973
O O12 0.382212 0.149448 0.267311
O O13 0.293076 0.956120 0.208501
O O14 0.418423 0.630306 0.737082
#
# Coordination Sequence:
#
# PCOD8001552 Si02
#       7
#     2   2   2   2   2   2   2
#     4  10  20  33  55  81 107 137 176 216 269 315
#     4  10  21  35  55  76 110 144 172 222 264 307
#     4  11  19  37  59  77 107 141 176 225 262 301
#     4  11  19  35  54  81 110 139 173 221 269 309
#     4   9  22  36  53  82 109 136 179 219 260 321
#     4   9  22  34  50  83 113 134 179 209 268 327
#     4  10  20  36  54  82 103 137 190 214 256 319
#
# _framework density 18.562232999999999
#
# number of rings (size 3 to 8) (size 9 to 14) (size 15 to 20)
#    0.857    1.143    2.857    1.286    2.000    0.571 
#    0.000    0.714    0.000    0.857    0.000    0.000 
#    0.000    0.000    0.000    0.000    0.000    0.000 
#
# Total GULP energy -173532.614021 kJ/mol
# GULP energy per Si atom -12395.186716 kJ/mol
# Density = 1.851998 g / cm^3
# Si number density = 18.562233 Si / 1000 Ang^3
#
#
#
# Elastic Constant Matrix: (Units=GPa)
#
#
# Indices 1 2 3 4 5 6 
#
# 1 101.7220 16.2128 27.7648 -12.3879 -4.1930 -24.7277
# 2 16.2128 35.1105 26.6848 -13.8123 0.6436 -8.1720
# 3 27.7648 26.6848 85.2513 -17.4339 -0.1935 -11.2717
# 4 -12.3879 -13.8123 -17.4339 32.2292 -3.5259 -3.9684
# 5 -4.1930 0.6436 -0.1935 -3.5259 24.3947 0.2943
# 6 -24.7277 -8.1720 -11.2717 -3.9684 0.2943 23.1075
#
#
#
# Elastic Compliance Matrix: (Units=1/GPa)
#
#
# Indices 1 2 3 4 5 6 
#
# 1 0.015473 0.001218 -0.001376 0.008298 0.003602 0.017697
# 2 0.001218 0.045055 -0.008927 0.017026 0.001220 0.015791
# 3 -0.001376 -0.008927 0.016631 0.005273 0.000840 0.004379
# 4 0.008298 0.017026 0.005273 0.048371 0.007700 0.025683
# 5 0.003602 0.001220 0.000840 0.007700 0.042633 0.005476
# 6 0.017697 0.015791 0.004379 0.025683 0.005476 0.074275
#
#
# Mechanical properties :
#
#
# Convention : Reuss Voigt Hill
#
# Bulk Modulus (GPa) = 16.95196 40.37874 28.66535
# Shear Modulus (GPa) = 17.83990 26.04106 21.94048
#
# Velocity S-wave (km/s) = 3.10350 3.74960 3.44175
# Velocity P-wave (km/s) = 4.68984 6.36761 5.59201
#
# Compressibility (1/GPa) = 0.05899022
#
# Stress axis : x y z
#
# Youngs Moduli (GPa) = 64.62843 22.19525 60.12697
#
# Poissons Ratio (x) = -0.02703 0.08270
# Poissons Ratio (y) = -0.07872 0.53675
# Poissons Ratio (z) = 0.08890 0.19814
#
# Static dielectric constant tensor:
#      x y z
#    x 3.372450 -0.127370 -0.124890 
#    y -0.127370 3.135920 -0.119170 
#    z -0.124890 -0.119170 3.337230 
# 
# 
# High freq. dielectric constant tensor:
#      x y z
#    x 1.716410 -0.012220 -0.012710 
#    y -0.012220 1.694070 -0.016860 
#    z -0.012710 -0.016860 1.719630 
# 
# From -- ./inp_files/70757.got.cif
#   From: 2010.06.25/outbox.cif.g09.slc.cpg/sg2_36_cif.got.tgz:70757.got - 2010.06.27 13:26:56.
