data_PCOD8001083
_publ_section_title
;
Structure prediction by ZEFSAII (Michael W. Deem and Ramdas Pophale) SiO2 
 PCOD8001083
Probable space group: P -1
;
_chemical_formula_sum "Si O2"
_cell_formula_units_Z 16
_cell_length_a 8.940354
_cell_length_b 22.277235
_cell_length_c 8.886242
_cell_angle_alpha 48.267863
_cell_angle_beta 129.393393
_cell_angle_gamma 148.631084
_cell_volume 677.438478
_symmetry_space_group_name_H-M "P -1"
_symmetry_group_IT_number 2
_symmetry_cell_setting 'triclinic'
loop_
_space_group_symop_operation_xyz
x,y,z
-x,-y,-z
loop_
_atom_site_type_symbol
_atom_site_label
_atom_site_fract_x
_atom_site_fract_y
_atom_site_fract_z
Si Si1 0.755608 0.022434 0.681020
Si Si2 0.333451 0.928180 0.165405
Si Si3 0.117228 0.614021 0.058645
Si Si4 0.402131 0.445310 0.190013
Si Si5 0.283936 0.090222 0.426257
Si Si6 0.373572 0.290631 0.611350
Si Si7 0.811674 0.658068 0.329329
Si Si8 0.217963 0.643781 0.734012
O O1 0.724728 0.011173 0.864203
O O2 0.065580 0.155229 0.612255
O O3 0.500000 0.000000 0.500000
O O4 0.759691 0.937201 0.738245
O O5 0.529017 0.928255 0.382151
O O6 0.027083 0.789003 0.166615
O O7 0.500000 0.000000 0.000000
O O8 0.377468 0.698174 0.208601
O O9 0.889595 0.474467 0.204620
O O10 0.254931 0.639083 0.942843
O O11 0.946543 0.645083 0.880469
O O12 0.455459 0.367439 0.386391
O O13 0.576400 0.556076 0.230603
O O14 0.500000 0.500000 0.000000
O O15 0.462050 0.228597 0.335208
O O16 0.000000 0.000000 0.500000
O O17 0.369220 0.355287 0.632887
O O18 0.984988 0.639131 0.549060
#
# Coordination Sequence:
#
# PCOD8001083 Si02
#       8
#     2   2   2   2   2   2   2   2
#     4   9  21  41  68  91 128 184 215 266 337 397
#     4   9  20  38  64  91 124 173 221 267 327 398
#     4  11  23  39  68  99 123 174 226 272 336 398
#     4  12  26  40  61  97 135 171 214 279 337 395
#     4  10  22  40  64  96 133 172 217 281 331 390
#     4  11  22  43  69  93 129 172 226 272 324 403
#     4  10  19  41  65  89 129 171 217 272 329 396
#     4  10  20  40  69  95 126 171 228 274 328 403
#
# _framework density 23.618380999999999
#
# number of rings (size 3 to 8) (size 9 to 14) (size 15 to 20)
#    0.000    1.750    2.500    2.625    0.000    6.500 
#    4.500    1.250    0.000    0.000    0.000    0.000 
#    0.000    0.000    0.000    0.000    0.000    0.000 
#
# Total GULP energy -198231.556916 kJ/mol
# GULP energy per Si atom -12389.472307 kJ/mol
# Density = 2.356462 g / cm^3
# Si number density = 23.618381 Si / 1000 Ang^3
#
#
#
# Elastic Constant Matrix: (Units=GPa)
#
#
# Indices 1 2 3 4 5 6 
#
# 1 51.8248 21.0735 9.0107 -0.0340 -15.2997 7.9874
# 2 21.0735 130.6962 39.0949 7.6584 -3.5014 20.3669
# 3 9.0107 39.0949 103.9396 8.0687 -5.8183 12.1811
# 4 -0.0340 7.6584 8.0687 39.9420 18.3177 -1.1515
# 5 -15.2997 -3.5014 -5.8183 18.3177 33.4815 -1.2093
# 6 7.9874 20.3669 12.1811 -1.1515 -1.2093 32.9696
#
#
#
# Elastic Compliance Matrix: (Units=1/GPa)
#
#
# Indices 1 2 3 4 5 6 
#
# 1 0.025368 -0.002852 0.000715 -0.006495 0.014815 -0.004332
# 2 -0.002852 0.009694 -0.002802 -0.001324 -0.000208 -0.004316
# 3 0.000715 -0.002802 0.011425 -0.003642 0.003916 -0.002647
# 4 -0.006495 -0.001324 -0.003642 0.037093 -0.023883 0.004157
# 5 0.014815 -0.000208 0.003916 -0.023883 0.050222 -0.003900
# 6 -0.004332 -0.004316 -0.002647 0.004157 -0.003900 0.035027
#
#
# Mechanical properties :
#
#
# Convention : Reuss Voigt Hill
#
# Bulk Modulus (GPa) = 27.31553 47.20209 37.25881
# Shear Modulus (GPa) = 26.19037 35.76407 30.97722
#
# Velocity S-wave (km/s) = 3.33362 3.89555 3.62549
# Velocity P-wave (km/s) = 5.13886 6.34527 5.77366
#
# Compressibility (1/GPa) = 0.03660921
#
# Stress axis : x y z
#
# Youngs Moduli (GPa) = 39.41948 103.15751 87.52656
#
# Poissons Ratio (x) = 0.29416 -0.06254
# Poissons Ratio (y) = 0.11241 0.24525
# Poissons Ratio (z) = -0.02817 0.28904
#
# Static dielectric constant tensor:
#      x y z
#    x 3.759270 -0.170450 0.276380 
#    y -0.170450 4.511040 0.251970 
#    z 0.276380 0.251970 4.020280 
# 
# 
# High freq. dielectric constant tensor:
#      x y z
#    x 1.909970 0.013340 -0.002480 
#    y 0.013340 1.945530 0.007600 
#    z -0.002480 0.007600 1.934300 
# 
# From -- ./inp_files/226210.got.cif
#   From: 2010.06.25/outbox.cif.g09.slc.cpg/sg2_114_cif.got.tgz:226210.got - 2010.06.27 13:26:56.
