data_PCOD8001957
_publ_section_title
;
Structure prediction by ZEFSAII (Michael W. Deem and Ramdas Pophale) SiO2 
 PCOD8001957
Probable space group: P -1
;
_chemical_formula_sum "Si O2"
_cell_formula_units_Z 16
_cell_length_a 11.911625
_cell_length_b 11.095383
_cell_length_c 8.297089
_cell_angle_alpha 47.735833
_cell_angle_beta 129.811800
_cell_angle_gamma 103.217967
_cell_volume 582.708899
_symmetry_space_group_name_H-M "P -1"
_symmetry_group_IT_number 2
_symmetry_cell_setting 'triclinic'
loop_
_space_group_symop_operation_xyz
x,y,z
-x,-y,-z
loop_
_atom_site_type_symbol
_atom_site_label
_atom_site_fract_x
_atom_site_fract_y
_atom_site_fract_z
Si Si1 0.550666 0.635690 0.015301
Si Si2 0.407959 0.063393 0.695042
Si Si3 0.685477 0.239474 0.083968
Si Si4 0.341038 0.939168 0.337497
Si Si5 0.867812 0.109501 0.063921
Si Si6 0.850303 0.670371 0.155104
Si Si7 0.088321 0.319819 0.147082
Si Si8 0.026767 0.700015 0.598364
O O1 0.496079 0.639222 0.150546
O O2 0.447145 0.822942 0.677758
O O3 0.734081 0.592333 0.209110
O O4 0.500000 0.500000 0.000000
O O5 0.542294 0.044188 0.707259
O O6 0.274325 0.253946 0.413696
O O7 0.298990 0.949471 0.664256
O O8 0.500000 0.000000 0.000000
O O9 0.729503 0.227982 0.947530
O O10 0.794177 0.315142 0.222598
O O11 0.245698 0.128100 0.157560
O O12 0.212127 0.865864 0.208625
O O13 0.010197 0.179918 0.142485
O O14 0.922314 0.905013 0.348910
O O15 0.915820 0.575002 0.125912
O O16 0.990416 0.644243 0.434302
O O17 0.007985 0.399987 0.178496
#
# Coordination Sequence:
#
# PCOD8001957 Si02
#       8
#     2   2   2   2   2   2   2   2
#     4  12  27  43  59  87 129 167 211 258 308 372
#     4  12  18  32  61  96 129 159 195 260 316 372
#     4  11  20  37  61  88 132 164 196 257 318 361
#     4  11  22  36  63  97 118 160 213 250 316 373
#     4  10  20  34  60  96 127 153 198 261 319 364
#     4  11  23  39  67  95 121 163 204 263 320 363
#     4  11  20  34  56  92 135 154 198 255 309 374
#     4  10  21  35  60 100 127 158 200 257 319 377
#
# _framework density 27.457965000000002
#
# number of rings (size 3 to 8) (size 9 to 14) (size 15 to 20)
#    0.000    1.000    6.250    2.625    1.750    1.000 
#    0.000    1.250    0.000    1.500    0.000    0.000 
#    0.000    0.000    0.000    0.000    0.000    0.000 
#
# Total GULP energy -198241.240755 kJ/mol
# GULP energy per Si atom -12390.077547 kJ/mol
# Density = 2.739547 g / cm^3
# Si number density = 27.457965 Si / 1000 Ang^3
#
#
#
# Elastic Constant Matrix: (Units=GPa)
#
#
# Indices 1 2 3 4 5 6 
#
# 1 165.7266 65.4898 48.6335 8.0207 12.5605 -21.5962
# 2 65.4898 134.7187 34.6110 29.2418 11.0736 -22.7861
# 3 48.6335 34.6110 115.5485 7.8177 5.0548 -1.2359
# 4 8.0207 29.2418 7.8177 38.0585 8.1897 4.4996
# 5 12.5605 11.0736 5.0548 8.1897 29.3142 -1.2481
# 6 -21.5962 -22.7861 -1.2359 4.4996 -1.2481 52.9112
#
#
#
# Elastic Compliance Matrix: (Units=1/GPa)
#
#
# Indices 1 2 3 4 5 6 
#
# 1 0.008406 -0.003284 -0.002541 0.001555 -0.002282 0.001771
# 2 -0.003284 0.012135 -0.001598 -0.008793 -0.000250 0.004590
# 3 -0.002541 -0.001598 0.010200 -0.000138 -0.000091 -0.001477
# 4 0.001555 -0.008793 -0.000138 0.035067 -0.007387 -0.006311
# 5 -0.002282 -0.000250 -0.000091 -0.007387 0.037285 0.000467
# 6 0.001771 0.004590 -0.001477 -0.006311 0.000467 0.022113
#
#
# Mechanical properties :
#
#
# Convention : Reuss Voigt Hill
#
# Bulk Modulus (GPa) = 62.90948 79.27358 71.09153
# Shear Modulus (GPa) = 34.40000 41.87409 38.13705
#
# Velocity S-wave (km/s) = 3.54337 3.90939 3.73087
# Velocity P-wave (km/s) = 6.30091 7.02221 6.67132
#
# Compressibility (1/GPa) = 0.01589586
#
# Stress axis : x y z
#
# Youngs Moduli (GPa) = 118.96483 82.40516 98.04051
#
# Poissons Ratio (x) = 0.27061 0.24910
# Poissons Ratio (y) = 0.39067 0.15665
# Poissons Ratio (z) = 0.30226 0.13167
#
# Static dielectric constant tensor:
#      x y z
#    x 5.548930 -0.308640 0.178480 
#    y -0.308640 5.638050 -0.101410 
#    z 0.178480 -0.101410 5.166030 
# 
# 
# High freq. dielectric constant tensor:
#      x y z
#    x 2.134920 -0.017190 0.002190 
#    y -0.017190 2.143210 -0.003360 
#    z 0.002190 -0.003360 2.100060 
# 
# From -- ./inp_files/262158.got.cif
#   From: 2010.06.25/outbox.cif.g09.slc.cpg/sg2_132_cif.got.tgz:262158.got - 2010.06.27 13:26:56.
