data_PCOD8001492
_publ_section_title
;
Structure prediction by ZEFSAII (Michael W. Deem and Ramdas Pophale) SiO2 
 PCOD8001492
Probable space group: P -1
;
_chemical_formula_sum "Si O2"
_cell_formula_units_Z 16
_cell_length_a 11.358450
_cell_length_b 16.627754
_cell_length_c 15.801977
_cell_angle_alpha 43.647045
_cell_angle_beta 133.219215
_cell_angle_gamma 157.843266
_cell_volume 775.650479
_symmetry_space_group_name_H-M "P -1"
_symmetry_group_IT_number 2
_symmetry_cell_setting 'triclinic'
loop_
_space_group_symop_operation_xyz
x,y,z
-x,-y,-z
loop_
_atom_site_type_symbol
_atom_site_label
_atom_site_fract_x
_atom_site_fract_y
_atom_site_fract_z
Si Si1 0.282766 0.788065 0.353287
Si Si2 0.552828 0.321708 0.039295
Si Si3 0.588399 0.302678 0.372191
Si Si4 0.745159 0.857160 0.143381
Si Si5 0.593757 0.004646 0.166708
Si Si6 0.837308 0.744709 0.832736
Si Si7 0.230958 0.670292 0.100823
Si Si8 0.747307 0.998894 0.717210
O O1 0.414503 0.757107 0.490960
O O2 0.517154 0.964414 0.258824
O O3 0.940802 0.550265 0.328850
O O4 0.264268 0.881859 0.339291
O O5 0.298143 0.143070 0.977004
O O6 0.643160 0.512810 0.943058
O O7 0.399730 0.191926 0.150690
O O8 0.859386 0.430614 0.089880
O O9 0.390289 0.298257 0.283545
O O10 0.442915 0.120667 0.372942
O O11 0.403964 0.654122 0.176775
O O12 0.975665 0.096454 0.113759
O O13 0.891923 0.818934 0.259293
O O14 0.312024 0.762539 0.165178
O O15 0.920511 0.138897 0.211152
O O16 0.619118 0.149233 0.031402
#
# Coordination Sequence:
#
# PCOD8001492 Si02
#       8
#     2   2   2   2   2   2   2   2
#     4  11  22  39  59  79 106 145 190 224 265 321
#     4  11  20  32  56  85 113 143 175 217 274 332
#     4  10  23  40  58  77 107 147 185 230 267 311
#     4  10  20  33  51  78 113 146 174 214 265 322
#     4   9  18  34  57  80 109 144 177 222 269 321
#     4   9  21  38  54  82 114 140 177 224 274 321
#     4   9  18  33  53  82 115 142 173 217 272 326
#     4  11  23  36  55  83 112 143 180 225 272 320
#
# _framework density 20.627846999999999
#
# number of rings (size 3 to 8) (size 9 to 14) (size 15 to 20)
#    0.000    2.000    0.000    4.125    0.000    5.500 
#    0.000    0.000    0.000    0.000    0.000   21.000 
#    0.000    0.000    0.000    0.000    0.000    0.000 
#
# Total GULP energy -198402.288687 kJ/mol
# GULP energy per Si atom -12400.143043 kJ/mol
# Density = 2.058090 g / cm^3
# Si number density = 20.627847 Si / 1000 Ang^3
#
#
#
# Elastic Constant Matrix: (Units=GPa)
#
#
# Indices 1 2 3 4 5 6 
#
# 1 85.0478 27.3864 33.2599 8.0811 8.5405 7.5462
# 2 27.3864 71.4770 35.4908 23.8627 6.7814 2.8976
# 3 33.2599 35.4908 71.5124 14.2574 7.3994 9.8848
# 4 8.0811 23.8627 14.2574 31.8738 1.0992 1.7967
# 5 8.5405 6.7814 7.3994 1.0992 31.3958 5.1453
# 6 7.5462 2.8976 9.8848 1.7967 5.1453 22.6851
#
#
#
# Elastic Compliance Matrix: (Units=1/GPa)
#
#
# Indices 1 2 3 4 5 6 
#
# 1 0.015101 -0.003380 -0.005102 0.001164 -0.001883 -0.002034
# 2 -0.003380 0.023730 -0.007673 -0.013566 -0.002425 0.003061
# 3 -0.005102 -0.007673 0.021580 -0.002226 -0.000924 -0.006340
# 4 0.001164 -0.013566 -0.002226 0.042247 0.001899 -0.001461
# 5 -0.001883 -0.002425 -0.000924 0.001899 0.034112 -0.006549
# 6 -0.002034 0.003061 -0.006340 -0.001461 -0.006549 0.048731
#
#
# Mechanical properties :
#
#
# Convention : Reuss Voigt Hill
#
# Bulk Modulus (GPa) = 35.58467 46.70125 41.14296
# Shear Modulus (GPa) = 22.00926 25.98430 23.99678
#
# Velocity S-wave (km/s) = 3.26999 3.55304 3.41445
# Velocity P-wave (km/s) = 5.61653 6.28658 5.96098
#
# Compressibility (1/GPa) = 0.02810199
#
# Stress axis : x y z
#
# Youngs Moduli (GPa) = 66.22247 42.14044 46.33925
#
# Poissons Ratio (x) = 0.14243 0.23642
# Poissons Ratio (y) = 0.22383 0.35554
# Poissons Ratio (z) = 0.33786 0.32333
#
# Static dielectric constant tensor:
#      x y z
#    x 3.893090 0.124020 0.119630 
#    y 0.124020 3.820080 0.324560 
#    z 0.119630 0.324560 3.447770 
# 
# 
# High freq. dielectric constant tensor:
#      x y z
#    x 1.821120 0.000970 0.003720 
#    y 0.000970 1.810070 0.028990 
#    z 0.003720 0.028990 1.774840 
# 
# From -- ./inp_files/475321.got.cif
#   From: 2010.06.25/outbox.cif.g09.slc.cpg/sg2_238_cif.got.tgz:475321.got - 2010.06.27 13:26:56.
