data_PCOD8001433
_publ_section_title
;
Structure prediction by ZEFSAII (Michael W. Deem and Ramdas Pophale) SiO2 
 PCOD8001433
Probable space group: P -1
;
_chemical_formula_sum "Si O2"
_cell_formula_units_Z 16
_cell_length_a 11.475579
_cell_length_b 13.945604
_cell_length_c 20.470408
_cell_angle_alpha 28.120886
_cell_angle_beta 29.559363
_cell_angle_gamma 47.629215
_cell_volume 697.805375
_symmetry_space_group_name_H-M "P -1"
_symmetry_group_IT_number 2
_symmetry_cell_setting 'triclinic'
loop_
_space_group_symop_operation_xyz
x,y,z
-x,-y,-z
loop_
_atom_site_type_symbol
_atom_site_label
_atom_site_fract_x
_atom_site_fract_y
_atom_site_fract_z
Si Si1 0.490471 0.017658 0.405746
Si Si2 0.322621 0.991441 0.030391
Si Si3 0.707261 0.143132 0.086232
Si Si4 0.717240 0.435688 0.570224
Si Si5 0.060587 0.873888 0.791623
Si Si6 0.723057 0.718397 0.285626
Si Si7 0.436947 0.529860 0.763663
Si Si8 0.724178 0.410315 0.797372
O O1 0.225195 0.023751 0.559956
O O2 0.469592 0.769474 0.579887
O O3 0.517704 0.083480 0.276902
O O4 0.737427 0.184142 0.226537
O O5 0.052763 0.983313 0.194904
O O6 0.274958 0.793536 0.123864
O O7 0.485919 0.227522 0.772058
O O8 0.500000 0.000000 0.000000
O O9 0.644508 0.926822 0.201032
O O10 0.656583 0.325255 0.956638
O O11 0.003879 0.225894 0.917984
O O12 0.771540 0.665522 0.368623
O O13 0.632045 0.452882 0.674949
O O14 0.984240 0.399338 0.462916
O O15 0.853792 0.642990 0.004093
O O16 0.500000 0.500000 0.500000
O O17 0.520899 0.508867 0.810730
#
# Coordination Sequence:
#
# PCOD8001433 Si02
#       8
#     2   2   2   2   2   2   2   2
#     4  11  23  42  62  86 121 162 205 240 286 359
#     4  11  21  35  60  90 123 146 196 252 298 351
#     4  10  23  36  58  85 120 158 194 243 299 354
#     4  10  20  32  54  88 114 156 185 241 300 346
#     4  10  24  39  61  90 117 161 202 249 289 345
#     4  10  20  35  53  85 122 155 195 241 299 353
#     4  11  21  37  62  85 119 153 202 241 294 350
#     4  11  22  37  56  93 121 150 187 249 310 350
#
# _framework density 22.929030000000001
#
# number of rings (size 3 to 8) (size 9 to 14) (size 15 to 20)
#    0.000    1.500    3.750    2.250    8.750    0.000 
#    0.000    0.625    0.000    3.000    0.000    0.000 
#    0.000    0.000    0.000    0.000    0.000    0.000 
#
# Total GULP energy -198290.661770 kJ/mol
# GULP energy per Si atom -12393.166361 kJ/mol
# Density = 2.287684 g / cm^3
# Si number density = 22.929030 Si / 1000 Ang^3
#
#
#
# Elastic Constant Matrix: (Units=GPa)
#
#
# Indices 1 2 3 4 5 6 
#
# 1 75.3341 14.0233 51.3706 16.4629 2.1398 1.9389
# 2 14.0233 34.7666 33.9116 13.9277 1.2083 -1.1177
# 3 51.3706 33.9116 136.7747 15.0683 -3.1993 2.7412
# 4 16.4629 13.9277 15.0683 25.4632 8.8856 1.5944
# 5 2.1398 1.2083 -3.1993 8.8856 47.3670 -0.0746
# 6 1.9389 -1.1177 2.7412 1.5944 -0.0746 24.7078
#
#
#
# Elastic Compliance Matrix: (Units=1/GPa)
#
#
# Indices 1 2 3 4 5 6 
#
# 1 0.019763 0.003051 -0.007013 -0.010481 0.000522 0.000043
# 2 0.003051 0.046600 -0.010267 -0.022432 0.002195 0.004462
# 3 -0.007013 -0.010267 0.012246 0.002679 0.000901 -0.001443
# 4 -0.010481 -0.022432 0.002679 0.060548 -0.010139 -0.004427
# 5 0.000522 0.002195 0.000901 -0.010139 0.022996 0.000682
# 6 0.000043 0.004462 -0.001443 -0.004427 0.000682 0.041119
#
#
# Mechanical properties :
#
#
# Convention : Reuss Voigt Hill
#
# Bulk Modulus (GPa) = 19.93962 49.49850 34.71906
# Shear Modulus (GPa) = 20.12505 29.34559 24.73532
#
# Velocity S-wave (km/s) = 2.96583 3.58137 3.28804
# Velocity P-wave (km/s) = 4.52143 6.22384 5.43965
#
# Compressibility (1/GPa) = 0.05015141
#
# Stress axis : x y z
#
# Youngs Moduli (GPa) = 50.59939 21.45920 81.66149
#
# Poissons Ratio (x) = -0.06548 0.57271
# Poissons Ratio (y) = -0.15439 0.83840
# Poissons Ratio (z) = 0.35486 0.22032
#
# Static dielectric constant tensor:
#      x y z
#    x 4.333890 -0.031650 0.198920 
#    y -0.031650 3.995200 -0.138540 
#    z 0.198920 -0.138540 5.054600 
# 
# 
# High freq. dielectric constant tensor:
#      x y z
#    x 1.902430 0.000620 -0.001210 
#    y 0.000620 1.873430 -0.008350 
#    z -0.001210 -0.008350 1.926410 
# 
# From -- ./inp_files/541009.got.cif
#   From: 2010.06.25/outbox.cif.g09.slc.cpg/sg2_271_cif.got.tgz:541009.got - 2010.06.27 13:26:56.
