data_PCOD8001172
_publ_section_title
;
Structure prediction by ZEFSAII (Michael W. Deem and Ramdas Pophale) SiO2 
 PCOD8001172
Probable space group: P -1
;
_chemical_formula_sum "Si O2"
_cell_formula_units_Z 16
_cell_length_a 10.093658
_cell_length_b 15.886600
_cell_length_c 8.542365
_cell_angle_alpha 89.465439
_cell_angle_beta 44.886589
_cell_angle_gamma 66.000180
_cell_volume 796.228742
_symmetry_space_group_name_H-M "P -1"
_symmetry_group_IT_number 2
_symmetry_cell_setting 'triclinic'
loop_
_space_group_symop_operation_xyz
x,y,z
-x,-y,-z
loop_
_atom_site_type_symbol
_atom_site_label
_atom_site_fract_x
_atom_site_fract_y
_atom_site_fract_z
Si Si1 0.313259 0.849348 0.653882
Si Si2 0.156996 0.040993 0.355373
Si Si3 0.589771 0.480212 0.176600
Si Si4 0.310015 0.661766 0.627388
Si Si5 0.848148 0.454978 0.649299
Si Si6 0.061803 0.241455 0.323680
Si Si7 0.208713 0.007684 0.975754
Si Si8 0.562352 0.891395 0.209110
O O1 0.368240 0.738959 0.642138
O O2 0.508370 0.830276 0.373488
O O3 0.329446 0.896504 0.801156
O O4 0.063846 0.930717 0.790942
O O5 0.018672 0.165404 0.458617
O O6 0.327776 0.998419 0.358315
O O7 0.300873 0.993017 0.075551
O O8 0.000000 0.000000 0.500000
O O9 0.509873 0.579895 0.345448
O O10 0.718865 0.386226 0.190990
O O11 0.372034 0.487866 0.281457
O O12 0.764394 0.468487 0.898617
O O13 0.080741 0.721317 0.718343
O O14 0.000000 0.500000 0.500000
O O15 0.005296 0.334456 0.480126
O O16 0.320198 0.178768 0.043237
O O17 0.283066 0.077292 0.831541
#
# Coordination Sequence:
#
# PCOD8001172 Si02
#       8
#     2   2   2   2   2   2   2   2
#     4  11  21  36  60  83 118 158 198 235 299 358
#     4  11  20  39  60  86 120 163 201 238 296 356
#     4   9  22  42  65  86 124 151 193 263 293 357
#     4  10  19  42  62  88 118 161 201 237 307 355
#     4  10  22  44  63  92 120 152 200 253 310 349
#     4  10  21  38  61  88 121 157 203 245 295 364
#     4  10  21  37  52  86 116 152 195 248 282 344
#     4  11  21  39  59  85 122 161 195 247 293 349
#
# _framework density 20.094729000000001
#
# number of rings (size 3 to 8) (size 9 to 14) (size 15 to 20)
#    0.000    1.750    3.750    1.875    1.750    1.000 
#    9.000    1.875    0.000    0.000    0.000    0.000 
#    0.000    0.000    0.000    0.000    0.000    0.000 
#
# Total GULP energy -198302.442114 kJ/mol
# GULP energy per Si atom -12393.902632 kJ/mol
# Density = 2.004899 g / cm^3
# Si number density = 20.094729 Si / 1000 Ang^3
#
#
#
# Elastic Constant Matrix: (Units=GPa)
#
#
# Indices 1 2 3 4 5 6 
#
# 1 53.3504 37.0300 31.1525 0.8084 5.3027 13.4942
# 2 37.0300 139.6544 61.3222 0.6725 7.0864 18.3769
# 3 31.1525 61.3222 110.1890 -7.6537 4.8516 23.6035
# 4 0.8084 0.6725 -7.6537 29.4892 7.9050 2.3342
# 5 5.3027 7.0864 4.8516 7.9050 32.7727 -0.6695
# 6 13.4942 18.3769 23.6035 2.3342 -0.6695 38.1054
#
#
#
# Elastic Compliance Matrix: (Units=1/GPa)
#
#
# Indices 1 2 3 4 5 6 
#
# 1 0.025351 -0.004371 -0.003666 -0.000487 -0.002591 -0.004614
# 2 -0.004371 0.010400 -0.004457 -0.001050 -0.000642 -0.000654
# 3 -0.003666 -0.004457 0.014228 0.004837 -0.001833 -0.005694
# 4 -0.000487 -0.001050 0.004837 0.038191 -0.009721 -0.004827
# 5 -0.002591 -0.000642 -0.001833 -0.009721 0.033760 0.003551
# 6 -0.004614 -0.000654 -0.005694 -0.004827 0.003551 0.032078
#
#
# Mechanical properties :
#
#
# Convention : Reuss Voigt Hill
#
# Bulk Modulus (GPa) = 40.01298 62.46701 51.24000
# Shear Modulus (GPa) = 26.69147 31.65274 29.17210
#
# Velocity S-wave (km/s) = 3.64851 3.97315 3.81429
# Velocity P-wave (km/s) = 6.14038 7.22507 6.70470
#
# Compressibility (1/GPa) = 0.02499189
#
# Stress axis : x y z
#
# Youngs Moduli (GPa) = 39.44695 96.15220 70.28206
#
# Poissons Ratio (x) = 0.42030 0.25764
# Poissons Ratio (y) = 0.17243 0.31322
# Poissons Ratio (z) = 0.14460 0.42852
#
# Static dielectric constant tensor:
#      x y z
#    x 3.649710 0.130410 0.007720 
#    y 0.130410 3.830330 -0.037710 
#    z 0.007720 -0.037710 3.736940 
# 
# 
# High freq. dielectric constant tensor:
#      x y z
#    x 1.774880 0.009430 0.004010 
#    y 0.009430 1.784050 -0.002760 
#    z 0.004010 -0.002760 1.783170 
# 
# From -- ./inp_files/270110.got.cif
#   From: 2010.06.25/outbox.cif.g09.slc.cpg/sg2_136_cif.got.tgz:270110.got - 2010.06.27 13:26:56.
