data_PCOD8001926
_publ_section_title
;
Structure prediction by ZEFSAII (Michael W. Deem and Ramdas Pophale) SiO2 
 PCOD8001926
Probable space group: P -1
;
_chemical_formula_sum "Si O2"
_cell_formula_units_Z 16
_cell_length_a 11.663742
_cell_length_b 11.769247
_cell_length_c 10.697038
_cell_angle_alpha 61.074123
_cell_angle_beta 94.834230
_cell_angle_gamma 45.016781
_cell_volume 659.349476
_symmetry_space_group_name_H-M "P -1"
_symmetry_group_IT_number 2
_symmetry_cell_setting 'triclinic'
loop_
_space_group_symop_operation_xyz
x,y,z
-x,-y,-z
loop_
_atom_site_type_symbol
_atom_site_label
_atom_site_fract_x
_atom_site_fract_y
_atom_site_fract_z
Si Si1 0.849465 0.661562 0.021133
Si Si2 0.270862 0.956412 0.300657
Si Si3 0.528429 0.166562 0.366628
Si Si4 0.708911 0.545977 0.440197
Si Si5 0.153229 0.724534 0.028918
Si Si6 0.218888 0.304078 0.438852
Si Si7 0.898955 0.933090 0.143526
Si Si8 0.479465 0.162118 0.970586
O O1 0.666092 0.721840 0.977279
O O2 0.970756 0.536345 0.234185
O O3 0.728155 0.916364 0.855907
O O4 0.000000 0.500000 0.000000
O O5 0.287861 0.964825 0.444985
O O6 0.503200 0.668734 0.425562
O O7 0.045608 0.091998 0.188974
O O8 0.379815 0.431800 0.160632
O O9 0.354039 0.238949 0.374246
O O10 0.672272 0.945581 0.394946
O O11 0.769579 0.626171 0.469310
O O12 0.657630 0.612175 0.255161
O O13 0.928836 0.243207 0.631087
O O14 0.052668 0.757748 0.128327
O O15 0.215333 0.815040 0.006417
O O16 0.713949 0.002009 0.107431
O O17 0.500000 0.000000 0.000000
#
# Coordination Sequence:
#
# PCOD8001926 Si02
#       8
#     2   2   2   2   2   2   2   2
#     4  12  23  40  66  99 132 171 218 271 335 399
#     4  11  19  36  60  95 128 168 216 267 323 381
#     4  10  20  34  59  97 132 166 217 276 320 385
#     4  11  22  40  61  99 135 172 216 266 339 386
#     4  11  21  38  63  93 133 177 230 262 315 393
#     4  10  20  36  60  98 135 163 217 274 332 387
#     4  11  24  40  61  93 134 181 222 269 321 392
#     4  12  25  42  65  97 139 171 211 279 340 391
#
# _framework density 24.266342000000002
#
# number of rings (size 3 to 8) (size 9 to 14) (size 15 to 20)
#    0.000    1.000    7.500    0.750    0.000    3.500 
#    0.000    0.000    0.000    1.500    0.000    0.000 
#    0.000    0.000    0.000    0.000    0.000    0.000 
#
# Total GULP energy -198287.332629 kJ/mol
# GULP energy per Si atom -12392.958289 kJ/mol
# Density = 2.421111 g / cm^3
# Si number density = 24.266342 Si / 1000 Ang^3
#
#
#
# Elastic Constant Matrix: (Units=GPa)
#
#
# Indices 1 2 3 4 5 6 
#
# 1 89.8095 18.6717 22.9654 -13.1374 12.5960 -0.9529
# 2 18.6717 46.9389 16.5793 -15.7580 -10.0079 -2.2053
# 3 22.9654 16.5793 133.0241 -21.8011 21.4768 7.5835
# 4 -13.1374 -15.7580 -21.8011 27.4443 6.8138 -5.4907
# 5 12.5960 -10.0079 21.4768 6.8138 30.8720 -1.3404
# 6 -0.9529 -2.2053 7.5835 -5.4907 -1.3404 26.7815
#
#
#
# Elastic Compliance Matrix: (Units=1/GPa)
#
#
# Indices 1 2 3 4 5 6 
#
# 1 0.014544 -0.005882 0.000935 0.006948 -0.009994 0.000693
# 2 -0.005882 0.031516 -0.003708 0.010302 0.013192 0.006208
# 3 0.000935 -0.003708 0.011487 0.009975 -0.011866 -0.002074
# 4 0.006948 0.010302 0.009975 0.060337 -0.019331 0.009674
# 5 -0.009994 0.013192 -0.011866 -0.019331 0.053389 0.002800
# 6 0.000693 0.006208 -0.002074 0.009674 0.002800 0.040586
#
#
# Mechanical properties :
#
#
# Convention : Reuss Voigt Hill
#
# Bulk Modulus (GPa) = 24.85217 42.91169 33.88193
# Shear Modulus (GPa) = 20.61172 31.12331 25.86751
#
# Velocity S-wave (km/s) = 2.91760 3.58519 3.26848
# Velocity P-wave (km/s) = 4.64903 5.90424 5.31383
#
# Compressibility (1/GPa) = 0.04023793
#
# Stress axis : x y z
#
# Youngs Moduli (GPa) = 68.75795 31.72948 87.05580
#
# Poissons Ratio (x) = 0.18662 -0.08139
# Poissons Ratio (y) = 0.40440 0.32280
# Poissons Ratio (z) = -0.06428 0.11765
#
# Static dielectric constant tensor:
#      x y z
#    x 4.228800 -0.087080 0.211860 
#    y -0.087080 4.235460 -0.253610 
#    z 0.211860 -0.253610 4.849400 
# 
# 
# High freq. dielectric constant tensor:
#      x y z
#    x 1.928250 0.004650 0.021920 
#    y 0.004650 1.928940 -0.011530 
#    z 0.021920 -0.011530 1.988740 
# 
# From -- ./inp_files/427833.got.cif
#   From: 2010.06.25/outbox.cif.g09.slc.cpg/sg2_214_cif.got.tgz:427833.got - 2010.06.27 13:26:56.
