data_PCOD8001783
_publ_section_title
;
Structure prediction by ZEFSAII (Michael W. Deem and Ramdas Pophale) SiO2 
 PCOD8001783
Probable space group: P -1
;
_chemical_formula_sum "Si O2"
_cell_formula_units_Z 16
_cell_length_a 15.290360
_cell_length_b 20.324525
_cell_length_c 11.339223
_cell_angle_alpha 150.677040
_cell_angle_beta 30.978622
_cell_angle_gamma 150.247046
_cell_volume 779.895826
_symmetry_space_group_name_H-M "P -1"
_symmetry_group_IT_number 2
_symmetry_cell_setting 'triclinic'
loop_
_space_group_symop_operation_xyz
x,y,z
-x,-y,-z
loop_
_atom_site_type_symbol
_atom_site_label
_atom_site_fract_x
_atom_site_fract_y
_atom_site_fract_z
Si Si1 0.408234 0.961117 0.171102
Si Si2 0.179423 0.909635 0.044433
Si Si3 0.524616 0.849148 0.241300
Si Si4 0.102213 0.356011 0.189122
Si Si5 0.139761 0.119315 0.255640
Si Si6 0.759852 0.869453 0.232771
Si Si7 0.032845 0.726745 0.165218
Si Si8 0.137573 0.546286 0.233664
O O1 0.233097 0.784205 0.099456
O O2 0.329130 0.079455 0.476940
O O3 0.500000 0.000000 0.000000
O O4 0.588895 0.994075 0.097117
O O5 0.101374 0.850191 0.172147
O O6 0.095144 0.019148 0.270326
O O7 0.104044 0.769324 0.820390
O O8 0.624965 0.837403 0.226218
O O9 0.312565 0.707998 0.248653
O O10 0.500000 0.000000 0.500000
O O11 0.651797 0.835269 0.967017
O O12 0.210969 0.471655 0.135090
O O13 0.049386 0.440061 0.485192
O O14 0.232547 0.284733 0.979192
O O15 0.120867 0.264805 0.552476
O O16 0.974705 0.012736 0.184607
O O17 0.937169 0.556284 0.958750
#
# Coordination Sequence:
#
# PCOD8001783 Si02
#       8
#     2   2   2   2   2   2   2   2
#     4   9  17  30  55  85 112 138 177 229 277 327
#     4   9  16  33  58  84 108 142 188 231 275 319
#     4  12  24  38  58  81 110 150 192 230 273 334
#     4   9  19  37  60  83 111 144 184 235 281 322
#     4  10  20  34  56  81 110 144 184 230 274 332
#     4  10  20  37  59  84 108 141 190 235 276 322
#     4   9  19  34  54  80 114 147 181 227 279 330
#     4  10  21  37  56  82 115 149 182 226 284 332
#
# _framework density 20.515561000000002
#
# number of rings (size 3 to 8) (size 9 to 14) (size 15 to 20)
#    0.000    2.250    0.000    3.750    0.000    5.000 
#    0.000    1.250    0.000   10.500    0.000    0.000 
#    0.000    0.000    0.000    0.000    0.000    0.000 
#
# Total GULP energy -198215.602155 kJ/mol
# GULP energy per Si atom -12388.475135 kJ/mol
# Density = 2.046887 g / cm^3
# Si number density = 20.515561 Si / 1000 Ang^3
#
#
#
# Elastic Constant Matrix: (Units=GPa)
#
#
# Indices 1 2 3 4 5 6 
#
# 1 71.6394 29.0483 35.5468 8.6742 -10.3135 10.7209
# 2 29.0483 108.4886 45.8962 7.9798 2.2196 16.3259
# 3 35.5468 45.8962 130.6743 3.9011 7.9158 6.8036
# 4 8.6742 7.9798 3.9011 31.2030 -0.4765 1.5823
# 5 -10.3135 2.2196 7.9158 -0.4765 24.7218 -0.7797
# 6 10.7209 16.3259 6.8036 1.5823 -0.7797 23.1684
#
#
#
# Elastic Compliance Matrix: (Units=1/GPa)
#
#
# Indices 1 2 3 4 5 6 
#
# 1 0.020045 -0.002414 -0.004795 -0.003923 0.009864 -0.005567
# 2 -0.002414 0.012371 -0.003212 -0.001778 -0.001331 -0.006581
# 3 -0.004795 -0.003212 0.010299 0.000728 -0.004957 0.001242
# 4 -0.003923 -0.001778 0.000728 0.033459 -0.001048 0.000534
# 5 0.009864 -0.001331 -0.004957 -0.001048 0.046234 -0.000543
# 6 -0.005567 -0.006581 0.001242 0.000534 -0.000543 0.049956
#
#
# Mechanical properties :
#
#
# Convention : Reuss Voigt Hill
#
# Bulk Modulus (GPa) = 45.72014 59.08721 52.40368
# Shear Modulus (GPa) = 24.93782 29.17269 27.05526
#
# Velocity S-wave (km/s) = 3.49027 3.77500 3.63542
# Velocity P-wave (km/s) = 6.21100 6.91842 6.57424
#
# Compressibility (1/GPa) = 0.02187220
#
# Stress axis : x y z
#
# Youngs Moduli (GPa) = 49.88750 80.83392 97.09549
#
# Poissons Ratio (x) = 0.19513 0.46562
# Poissons Ratio (y) = 0.12043 0.31187
# Poissons Ratio (z) = 0.23924 0.25964
#
# Static dielectric constant tensor:
#      x y z
#    x 4.204910 0.470890 -0.131620 
#    y 0.470890 3.778720 -0.095880 
#    z -0.131620 -0.095880 3.747970 
# 
# 
# High freq. dielectric constant tensor:
#      x y z
#    x 1.795100 0.017690 0.009300 
#    y 0.017690 1.780510 -0.007230 
#    z 0.009300 -0.007230 1.807850 
# 
# From -- ./inp_files/457530.got.cif
#   From: 2010.06.25/outbox.cif.g09.slc.cpg/sg2_229_cif.got.tgz:457530.got - 2010.06.27 13:26:56.
