data_PCOD8001486
_publ_section_title
;
Structure prediction by ZEFSAII (Michael W. Deem and Ramdas Pophale) SiO2 
 PCOD8001486
Probable space group: P -1
;
_chemical_formula_sum "Si O2"
_cell_formula_units_Z 16
_cell_length_a 14.857086
_cell_length_b 8.477204
_cell_length_c 8.589532
_cell_angle_alpha 57.503707
_cell_angle_beta 98.113405
_cell_angle_gamma 107.185729
_cell_volume 871.490323
_symmetry_space_group_name_H-M "P -1"
_symmetry_group_IT_number 2
_symmetry_cell_setting 'triclinic'
loop_
_space_group_symop_operation_xyz
x,y,z
-x,-y,-z
loop_
_atom_site_type_symbol
_atom_site_label
_atom_site_fract_x
_atom_site_fract_y
_atom_site_fract_z
Si Si1 0.498585 0.289926 0.292721
Si Si2 0.000885 0.970535 0.694995
Si Si3 0.641093 0.129719 0.997342
Si Si4 0.000432 0.786620 0.171979
Si Si5 0.855135 0.225132 0.021886
Si Si6 0.856869 0.615791 0.993080
Si Si7 0.488738 0.911479 0.293342
Si Si8 0.642273 0.512496 0.979797
O O1 0.511520 0.265677 0.494744
O O2 0.400813 0.344158 0.209793
O O3 0.494660 0.095381 0.303583
O O4 0.585635 0.459174 0.156964
O O5 0.908580 0.802160 0.806441
O O6 0.999063 0.181306 0.658711
O O7 0.095895 0.911595 0.794462
O O8 0.000000 0.000000 0.500000
O O9 0.747083 0.110074 0.029579
O O10 0.605826 0.132707 0.809617
O O11 0.635511 0.325781 0.973206
O O12 0.577359 0.948709 0.175983
O O13 0.092950 0.731085 0.157039
O O14 0.907668 0.629667 0.167520
O O15 0.000000 0.000000 0.000000
O O16 0.865552 0.424222 0.009780
O O17 0.749491 0.618998 0.991495
#
# Coordination Sequence:
#
# PCOD8001486 Si02
#       8
#     2   2   2   2   2   2   2   2
#     4   9  18  32  49  71  99 130 166 204 240 285
#     4  10  20  33  50  75 100 121 159 207 245 289
#     4   9  18  32  50  72  97 130 165 199 245 290
#     4   8  16  31  50  69  93 124 158 191 236 290
#     4   9  17  33  52  69  96 132 163 195 241 296
#     4   9  17  33  52  69  96 133 164 193 242 297
#     4   9  18  32  49  71  99 130 165 203 242 287
#     4   9  18  32  50  72  98 130 164 201 245 289
#
# _framework density 18.359355000000001
#
# number of rings (size 3 to 8) (size 9 to 14) (size 15 to 20)
#    0.000    3.250    0.000    1.500    0.000    4.500 
#    0.000    8.750    0.000    0.000    0.000    0.000 
#    0.000    0.000    0.000    0.000    0.000    0.000 
#
# Total GULP energy -198273.727454 kJ/mol
# GULP energy per Si atom -12392.107966 kJ/mol
# Density = 1.831757 g / cm^3
# Si number density = 18.359355 Si / 1000 Ang^3
#
#
#
# Elastic Constant Matrix: (Units=GPa)
#
#
# Indices 1 2 3 4 5 6 
#
# 1 157.1449 44.3339 57.6901 11.9544 5.7298 18.2408
# 2 44.3339 69.9757 34.6420 21.4537 -5.0091 9.4697
# 3 57.6901 34.6420 128.7935 23.4471 0.8509 9.3152
# 4 11.9544 21.4537 23.4471 27.9429 -3.5255 0.0442
# 5 5.7298 -5.0091 0.8509 -3.5255 13.9751 -0.0589
# 6 18.2408 9.4697 9.3152 0.0442 -0.0589 31.5312
#
#
#
# Elastic Compliance Matrix: (Units=1/GPa)
#
#
# Indices 1 2 3 4 5 6 
#
# 1 0.009185 -0.004828 -0.002845 0.001545 -0.004946 -0.003035
# 2 -0.004828 0.023244 -0.001358 -0.013764 0.006906 -0.003754
# 3 -0.002845 -0.001358 0.010770 -0.006996 -0.001746 -0.001122
# 4 0.001545 -0.013764 -0.006996 0.052584 0.008146 0.005248
# 5 -0.004946 0.006906 -0.001746 0.008146 0.078226 0.001438
# 6 -0.003035 -0.003754 -0.001122 0.005248 0.001438 0.034924
#
#
# Mechanical properties :
#
#
# Convention : Reuss Voigt Hill
#
# Bulk Modulus (GPa) = 39.78015 69.91623 54.84819
# Shear Modulus (GPa) = 21.24274 29.30638 25.27456
#
# Velocity S-wave (km/s) = 3.40524 3.99966 3.71436
# Velocity P-wave (km/s) = 6.09716 7.71327 6.95233
#
# Compressibility (1/GPa) = 0.02513817
#
# Stress axis : x y z
#
# Youngs Moduli (GPa) = 108.87265 43.02180 92.84914
#
# Poissons Ratio (x) = 0.20771 0.26413
# Poissons Ratio (y) = 0.52565 0.12606
# Poissons Ratio (z) = 0.30971 0.05841
#
# Static dielectric constant tensor:
#      x y z
#    x 3.575410 -0.100260 -0.184910 
#    y -0.100260 3.793050 0.377500 
#    z -0.184910 0.377500 3.483350 
# 
# 
# High freq. dielectric constant tensor:
#      x y z
#    x 1.714830 -0.002480 -0.002290 
#    y -0.002480 1.716160 0.014210 
#    z -0.002290 0.014210 1.686630 
# 
# From -- ./inp_files/291886.got.cif
#   From: 2010.06.25/outbox.cif.g09.slc.cpg/sg2_146_cif.got.tgz:291886.got - 2010.06.27 13:26:56.
