data_PCOD8001503
_publ_section_title
;
Structure prediction by ZEFSAII (Michael W. Deem and Ramdas Pophale) SiO2 
 PCOD8001503
Probable space group: P -1
;
_chemical_formula_sum "Si O2"
_cell_formula_units_Z 16
_cell_length_a 11.819245
_cell_length_b 28.850469
_cell_length_c 5.257356
_cell_angle_alpha 107.527247
_cell_angle_beta 62.775664
_cell_angle_gamma 149.971629
_cell_volume 779.385044
_symmetry_space_group_name_H-M "P -1"
_symmetry_group_IT_number 2
_symmetry_cell_setting 'triclinic'
loop_
_space_group_symop_operation_xyz
x,y,z
-x,-y,-z
loop_
_atom_site_type_symbol
_atom_site_label
_atom_site_fract_x
_atom_site_fract_y
_atom_site_fract_z
Si Si1 0.475794 0.426362 0.592321
Si Si2 0.492004 0.058705 0.851994
Si Si3 0.900281 0.128429 0.376312
Si Si4 0.729863 0.674245 0.854589
Si Si5 0.887099 0.631168 0.406964
Si Si6 0.263377 0.110557 0.629184
Si Si7 0.911303 0.047633 0.564171
Si Si8 0.447900 0.812570 0.058952
O O1 0.458715 0.386413 0.293004
O O2 0.747672 0.539350 0.524701
O O3 0.270997 0.402863 0.735112
O O4 0.422641 0.375998 0.809705
O O5 0.761941 0.121855 0.696318
O O6 0.523309 0.121245 0.789788
O O7 0.304155 0.962776 0.739255
O O8 0.370715 0.027484 0.203544
O O9 0.035649 0.130759 0.405504
O O10 0.099984 0.221977 0.154046
O O11 0.896906 0.679739 0.675704
O O12 0.159956 0.703489 0.167841
O O13 0.414125 0.172109 0.832276
O O14 0.071335 0.091538 0.731845
O O15 0.101307 0.007885 0.665077
O O16 0.443064 0.164460 0.289791
#
# Coordination Sequence:
#
# PCOD8001503 Si02
#       8
#     2   2   2   2   2   2   2   2
#     4   9  20  34  53  81 115 145 175 223 281 342
#     4  10  21  34  53  81 118 142 187 218 284 332
#     4  11  21  34  54  82 113 157 175 226 276 339
#     4  10  20  33  52  81 115 142 182 213 276 343
#     4   9  20  33  59  78 118 140 180 225 284 332
#     4  10  24  37  58  77 110 151 200 230 269 307
#     4  10  22  38  55  73 113 155 193 233 264 321
#     4  11  21  37  56  86 109 148 182 237 273 328
#
# _framework density 20.529007
#
# number of rings (size 3 to 8) (size 9 to 14) (size 15 to 20)
#    0.750    1.250    2.500    0.750    5.250    1.500 
#    2.250    0.000    0.000    0.000    0.000    5.250 
#    0.000    0.000    0.000    0.000    0.000    0.000 
#
# Total GULP energy -198298.411582 kJ/mol
# GULP energy per Si atom -12393.650724 kJ/mol
# Density = 2.048228 g / cm^3
# Si number density = 20.529007 Si / 1000 Ang^3
#
#
#
# Elastic Constant Matrix: (Units=GPa)
#
#
# Indices 1 2 3 4 5 6 
#
# 1 78.8205 34.3011 28.3699 -15.1197 22.2937 -11.3236
# 2 34.3011 101.2037 29.6294 -32.7961 16.1877 -10.4827
# 3 28.3699 29.6294 72.7619 -14.0818 24.6453 -10.8854
# 4 -15.1197 -32.7961 -14.0818 30.8238 -3.6601 7.3228
# 5 22.2937 16.1877 24.6453 -3.6601 28.2883 -4.3564
# 6 -11.3236 -10.4827 -10.8854 7.3228 -4.3564 25.1903
#
#
#
# Elastic Compliance Matrix: (Units=1/GPa)
#
#
# Indices 1 2 3 4 5 6 
#
# 1 0.018631 -0.002647 -0.001164 0.003566 -0.011105 0.003813
# 2 -0.002647 0.016923 -0.001358 0.015570 -0.004404 -0.000022
# 3 -0.001164 -0.001358 0.021748 0.005055 -0.015971 0.004078
# 4 0.003566 0.015570 0.005055 0.053526 -0.010288 -0.007072
# 5 -0.011105 -0.004404 -0.015971 -0.010288 0.059127 -0.000510
# 6 0.003813 -0.000022 0.004078 -0.007072 -0.000510 0.045133
#
#
# Mechanical properties :
#
#
# Convention : Reuss Voigt Hill
#
# Bulk Modulus (GPa) = 21.29241 48.59857 34.94549
# Shear Modulus (GPa) = 20.73998 27.55953 24.14975
#
# Velocity S-wave (km/s) = 3.18193 3.66795 3.43355
# Velocity P-wave (km/s) = 4.88815 6.45468 5.72525
#
# Compressibility (1/GPa) = 0.04696510
#
# Stress axis : x y z
#
# Youngs Moduli (GPa) = 53.67446 59.08956 45.98110
#
# Poissons Ratio (x) = 0.15640 0.05354
# Poissons Ratio (y) = 0.14206 0.06242
# Poissons Ratio (z) = 0.06249 0.08022
#
# Static dielectric constant tensor:
#      x y z
#    x 3.679420 -0.064870 -0.033370 
#    y -0.064870 3.467430 -0.118380 
#    z -0.033370 -0.118380 3.605370 
# 
# 
# High freq. dielectric constant tensor:
#      x y z
#    x 1.774850 -0.005950 0.015770 
#    y -0.005950 1.779410 -0.008070 
#    z 0.015770 -0.008070 1.795230 
# 
# From -- ./inp_files/85249.got.cif
#   From: 2010.06.25/outbox.cif.g09.slc.cpg/sg2_43_cif.got.tgz:85249.got - 2010.06.27 13:26:56.
