data_PCOD8001745
_publ_section_title
;
Structure prediction by ZEFSAII (Michael W. Deem and Ramdas Pophale) SiO2 
 PCOD8001745
Probable space group: P -1
;
_chemical_formula_sum "Si O2"
_cell_formula_units_Z 16
_cell_length_a 14.691437
_cell_length_b 14.908993
_cell_length_c 6.912909
_cell_angle_alpha 67.128359
_cell_angle_beta 88.536590
_cell_angle_gamma 139.307199
_cell_volume 769.608881
_symmetry_space_group_name_H-M "P -1"
_symmetry_group_IT_number 2
_symmetry_cell_setting 'triclinic'
loop_
_space_group_symop_operation_xyz
x,y,z
-x,-y,-z
loop_
_atom_site_type_symbol
_atom_site_label
_atom_site_fract_x
_atom_site_fract_y
_atom_site_fract_z
Si Si1 0.600588 0.513148 0.356028
Si Si2 0.381231 0.774636 0.226663
Si Si3 0.359625 0.128216 0.757048
Si Si4 0.582428 0.034475 0.661639
Si Si5 0.177620 0.399702 0.459299
Si Si6 0.137574 0.025497 0.577485
Si Si7 0.772943 0.700055 0.798850
Si Si8 0.192496 0.941629 0.301753
O O1 0.500000 0.500000 0.500000
O O2 0.490160 0.320257 0.509321
O O3 0.770346 0.633484 0.354245
O O4 0.635499 0.578404 0.078254
O O5 0.550267 0.895459 0.231627
O O6 0.307869 0.786956 0.374798
O O7 0.266226 0.581166 0.344498
O O8 0.428140 0.865964 0.945000
O O9 0.198706 0.996580 0.744795
O O10 0.305495 0.094652 0.008421
O O11 0.708106 0.056845 0.598029
O O12 0.500000 0.000000 0.500000
O O13 0.229706 0.401978 0.242748
O O14 0.983785 0.251818 0.608808
O O15 0.243442 0.221276 0.412258
O O16 0.154421 0.998619 0.387283
O O17 0.945267 0.870892 0.759771
#
# Coordination Sequence:
#
# PCOD8001745 Si02
#       8
#     2   2   2   2   2   2   2   2
#     4  11  22  35  55  82 112 150 192 234 280 326
#     4   9  21  37  56  85 113 142 185 230 279 339
#     4  10  20  34  55  79 108 146 184 230 279 329
#     4  10  20  38  61  84 111 144 183 230 284 339
#     4  10  22  39  56  82 116 149 188 232 278 333
#     4  10  20  36  55  79 112 152 193 230 275 329
#     4  10  22  36  54  81 115 152 190 233 278 329
#     4  10  21  37  59  82 110 149 189 231 281 334
#
# _framework density 20.789781999999999
#
# number of rings (size 3 to 8) (size 9 to 14) (size 15 to 20)
#    0.000    2.000    0.000    3.000    0.000    7.500 
#    0.000    5.625    0.000    0.000    0.000    0.000 
#    0.000    0.000    0.000    0.000    0.000    0.000 
#
# Total GULP energy -198225.396798 kJ/mol
# GULP energy per Si atom -12389.087300 kJ/mol
# Density = 2.074246 g / cm^3
# Si number density = 20.789782 Si / 1000 Ang^3
#
#
#
# Elastic Constant Matrix: (Units=GPa)
#
#
# Indices 1 2 3 4 5 6 
#
# 1 79.9058 27.4551 32.6590 -1.1699 7.4892 8.6845
# 2 27.4551 72.3578 21.8742 -1.4342 10.1200 -11.7229
# 3 32.6590 21.8742 94.0424 1.0936 10.2784 -2.2465
# 4 -1.1699 -1.4342 1.0936 20.0218 2.9601 6.2533
# 5 7.4892 10.1200 10.2784 2.9601 34.3854 9.4315
# 6 8.6845 -11.7229 -2.2465 6.2533 9.4315 42.4676
#
#
#
# Elastic Compliance Matrix: (Units=1/GPa)
#
#
# Indices 1 2 3 4 5 6 
#
# 1 0.017200 -0.006128 -0.004825 0.002581 0.000938 -0.006053
# 2 -0.006128 0.018606 -0.001377 -0.000491 -0.005792 0.007675
# 3 -0.004825 -0.001377 0.013013 -0.001329 -0.002905 0.002136
# 4 0.002581 -0.000491 -0.001329 0.052987 -0.002386 -0.008006
# 5 0.000938 -0.005792 -0.002905 -0.002386 0.034175 -0.009183
# 6 -0.006053 0.007675 0.002136 -0.008006 -0.009183 0.030235
#
#
# Mechanical properties :
#
#
# Convention : Reuss Voigt Hill
#
# Bulk Modulus (GPa) = 41.39371 45.58695 43.49033
# Shear Modulus (GPa) = 25.13444 30.32948 27.73196
#
# Velocity S-wave (km/s) = 3.48081 3.82365 3.65625
# Velocity P-wave (km/s) = 6.00904 6.43964 6.22806
#
# Compressibility (1/GPa) = 0.02415826
#
# Stress axis : x y z
#
# Youngs Moduli (GPa) = 58.13902 53.74701 76.84356
#
# Poissons Ratio (x) = 0.32938 0.37076
# Poissons Ratio (y) = 0.35629 0.10584
# Poissons Ratio (z) = 0.28052 0.07403
#
# Static dielectric constant tensor:
#      x y z
#    x 4.214460 0.129260 0.261010 
#    y 0.129260 3.765090 -0.035930 
#    z 0.261010 -0.035930 3.912750 
# 
# 
# High freq. dielectric constant tensor:
#      x y z
#    x 1.825760 0.003440 0.005560 
#    y 0.003440 1.805170 0.007260 
#    z 0.005560 0.007260 1.805430 
# 
# From -- ./inp_files/37411.got.cif
#   From: 2010.06.25/outbox.cif.g09.slc.cpg/sg2_19_cif.got.tgz:37411.got - 2010.06.27 13:26:56.
