data_PCOD8001564
_publ_section_title
;
Structure prediction by ZEFSAII (Michael W. Deem and Ramdas Pophale) SiO2 
 PCOD8001564
Probable space group: P -1
;
_chemical_formula_sum "Si O2"
_cell_formula_units_Z 16
_cell_length_a 15.069672
_cell_length_b 9.509582
_cell_length_c 6.297243
_cell_angle_alpha 94.747894
_cell_angle_beta 103.293649
_cell_angle_gamma 69.725531
_cell_volume 823.834899
_symmetry_space_group_name_H-M "P -1"
_symmetry_group_IT_number 2
_symmetry_cell_setting 'triclinic'
loop_
_space_group_symop_operation_xyz
x,y,z
-x,-y,-z
loop_
_atom_site_type_symbol
_atom_site_label
_atom_site_fract_x
_atom_site_fract_y
_atom_site_fract_z
Si Si1 0.385770 0.558629 0.440128
Si Si2 0.736953 0.181130 0.875377
Si Si3 0.253638 0.595017 0.750343
Si Si4 0.105845 0.532540 0.361911
Si Si5 0.080805 0.045579 0.173271
Si Si6 0.218568 0.124423 0.977836
Si Si7 0.734743 0.596294 0.884580
Si Si8 0.915688 0.744653 0.444488
O O1 0.500000 0.500000 0.500000
O O2 0.351270 0.707665 0.292834
O O3 0.346625 0.592479 0.662269
O O4 0.348404 0.429513 0.309246
O O5 0.827952 0.108491 0.756397
O O6 0.774068 0.265872 0.088856
O O7 0.710004 0.047444 0.964010
O O8 0.162581 0.608686 0.556855
O O9 0.278048 0.444359 0.884830
O O10 0.158574 0.506161 0.158001
O O11 0.107114 0.372352 0.426566
O O12 0.997482 0.652562 0.308204
O O13 0.048153 0.136362 0.387293
O O14 0.118765 0.151795 0.055833
O O15 0.000000 0.000000 0.000000
O O16 0.183926 0.163698 0.720359
O O17 0.276600 0.229589 0.108301
#
# Coordination Sequence:
#
# PCOD8001564 Si02
#       8
#     2   2   2   2   2   2   2   2
#     4  10  23  42  68  93 113 148 196 251 310 377
#     4   9  22  37  59  88 124 156 197 244 302 354
#     4  10  20  38  64  83 119 155 191 246 310 355
#     4  10  20  33  55  88 116 161 209 248 283 340
#     4  10  22  37  55  84 126 166 207 243 288 345
#     4  10  22  37  56  86 119 163 199 248 297 350
#     4  10  20  40  60  87 122 154 202 252 303 353
#     4  11  21  33  57  83 123 165 211 243 288 337
#
# _framework density 19.421365999999999
#
# number of rings (size 3 to 8) (size 9 to 14) (size 15 to 20)
#    0.750    1.250    2.500    0.750    1.750    7.000 
#    0.000    0.625    0.000    1.500    0.000    0.000 
#    0.000    0.000    0.000    0.000    0.000    0.000 
#
# Total GULP energy -198257.795120 kJ/mol
# GULP energy per Si atom -12391.112195 kJ/mol
# Density = 1.937716 g / cm^3
# Si number density = 19.421366 Si / 1000 Ang^3
#
#
#
# Elastic Constant Matrix: (Units=GPa)
#
#
# Indices 1 2 3 4 5 6 
#
# 1 86.1069 50.1846 30.8162 -2.2651 7.4382 0.4388
# 2 50.1846 139.3439 48.9560 -0.9042 14.1172 11.7182
# 3 30.8162 48.9560 80.1912 -0.8623 2.1791 0.5214
# 4 -2.2651 -0.9042 -0.8623 27.9741 1.5162 6.1595
# 5 7.4382 14.1172 2.1791 1.5162 21.3979 -1.4148
# 6 0.4388 11.7182 0.5214 6.1595 -1.4148 27.6745
#
#
#
# Elastic Compliance Matrix: (Units=1/GPa)
#
#
# Indices 1 2 3 4 5 6 
#
# 1 0.015504 -0.004328 -0.003257 0.000835 -0.002172 0.001351
# 2 -0.004328 0.011656 -0.005237 0.001382 -0.006106 -0.005388
# 3 -0.003257 -0.005237 0.016815 -0.000573 0.003063 0.002236
# 4 0.000835 0.001382 -0.000573 0.038132 -0.004461 -0.009303
# 5 -0.002172 -0.006106 0.003063 -0.004461 0.051932 0.006210
# 6 0.001351 -0.005388 0.002236 -0.009303 0.006210 0.040740
#
#
# Mechanical properties :
#
#
# Convention : Reuss Voigt Hill
#
# Bulk Modulus (GPa) = 54.54917 62.83952 58.69434
# Shear Modulus (GPa) = 24.20935 27.12164 25.66550
#
# Velocity S-wave (km/s) = 3.53446 3.74101 3.63920
# Velocity P-wave (km/s) = 6.69363 7.14747 6.92427
#
# Compressibility (1/GPa) = 0.01833209
#
# Stress axis : x y z
#
# Youngs Moduli (GPa) = 64.49963 85.79524 59.47151
#
# Poissons Ratio (x) = 0.37129 0.19368
# Poissons Ratio (y) = 0.27913 0.31144
# Poissons Ratio (z) = 0.21006 0.44929
#
# Static dielectric constant tensor:
#      x y z
#    x 3.256260 0.262390 -0.155570 
#    y 0.262390 3.545630 0.072640 
#    z -0.155570 0.072640 3.536560 
# 
# 
# High freq. dielectric constant tensor:
#      x y z
#    x 1.719900 0.024570 -0.004520 
#    y 0.024570 1.755790 0.007340 
#    z -0.004520 0.007340 1.758260 
# 
# From -- ./inp_files/90779.got.cif
#   From: 2010.06.25/outbox.cif.g09.slc.cpg/sg2_46_cif.got.tgz:90779.got - 2010.06.27 13:26:56.
