data_PCOD8001716
_publ_section_title
;
Structure prediction by ZEFSAII (Michael W. Deem and Ramdas Pophale) SiO2 
 PCOD8001716
Probable space group: P -1
;
_chemical_formula_sum "Si O2"
_cell_formula_units_Z 16
_cell_length_a 13.624005
_cell_length_b 13.154086
_cell_length_c 16.818821
_cell_angle_alpha 54.922620
_cell_angle_beta 157.891220
_cell_angle_gamma 134.291744
_cell_volume 782.231320
_symmetry_space_group_name_H-M "P -1"
_symmetry_group_IT_number 2
_symmetry_cell_setting 'triclinic'
loop_
_space_group_symop_operation_xyz
x,y,z
-x,-y,-z
loop_
_atom_site_type_symbol
_atom_site_label
_atom_site_fract_x
_atom_site_fract_y
_atom_site_fract_z
Si Si1 0.076123 0.032327 0.916392
Si Si2 0.363972 0.703872 0.183119
Si Si3 0.085260 0.335507 0.419363
Si Si4 0.783293 0.527768 0.378840
Si Si5 0.611168 0.793779 0.778383
Si Si6 0.344996 0.969755 0.698571
Si Si7 0.042337 0.822740 0.382650
Si Si8 0.840535 0.531557 0.746532
O O1 0.039192 0.105222 0.779231
O O2 0.153890 0.140063 0.001165
O O3 0.331387 0.996422 0.105850
O O4 0.761626 0.879371 0.770566
O O5 0.578714 0.645198 0.340153
O O6 0.206820 0.621747 0.186812
O O7 0.590536 0.879553 0.282938
O O8 0.084523 0.661642 0.930987
O O9 0.062182 0.415049 0.444396
O O10 0.022264 0.413978 0.263453
O O11 0.811257 0.161646 0.294539
O O12 0.462393 0.371072 0.215612
O O13 0.000000 0.500000 0.500000
O O14 0.749667 0.656540 0.256546
O O15 0.319802 0.804497 0.573738
O O16 0.118297 0.922327 0.473618
O O17 0.500000 0.500000 0.500000
#
# Coordination Sequence:
#
# PCOD8001716 Si02
#       8
#     2   2   2   2   2   2   2   2
#     4  10  20  34  54  80 113 149 190 238 283 333
#     4  10  21  39  60  84 115 150 187 233 286 336
#     4  10  21  38  59  84 115 150 190 235 282 337
#     4   9  19  37  58  81 113 147 186 237 284 333
#     4   9  19  35  53  79 110 145 192 239 285 337
#     4  10  22  36  54  84 116 147 190 234 276 338
#     4   9  19  36  55  79 111 147 188 237 285 334
#     4   9  21  39  59  84 114 146 188 235 279 336
#
# _framework density 20.454307
#
# number of rings (size 3 to 8) (size 9 to 14) (size 15 to 20)
#    0.000    2.500    0.000    1.500    0.000    9.000 
#    0.000    5.000    0.000    0.000    0.000    0.000 
#    0.000    0.000    0.000    0.000    0.000    0.000 
#
# Total GULP energy -198259.070596 kJ/mol
# GULP energy per Si atom -12391.191912 kJ/mol
# Density = 2.040775 g / cm^3
# Si number density = 20.454307 Si / 1000 Ang^3
#
#
#
# Elastic Constant Matrix: (Units=GPa)
#
#
# Indices 1 2 3 4 5 6 
#
# 1 119.5394 60.9655 40.1319 5.7163 -21.5072 33.6489
# 2 60.9655 143.5763 42.6152 24.8644 -19.4170 21.0117
# 3 40.1319 42.6152 77.0290 14.7097 -15.8377 14.7936
# 4 5.7163 24.8644 14.7097 32.8730 11.6109 7.6713
# 5 -21.5072 -19.4170 -15.8377 11.6109 30.0699 -4.2728
# 6 33.6489 21.0117 14.7936 7.6713 -4.2728 51.9120
#
#
#
# Elastic Compliance Matrix: (Units=1/GPa)
#
#
# Indices 1 2 3 4 5 6 
#
# 1 0.013879 -0.003737 -0.003516 0.002108 0.003928 -0.006470
# 2 -0.003737 0.011899 -0.000654 -0.011307 0.009062 0.000209
# 3 -0.003516 -0.000654 0.020088 -0.012130 0.012273 -0.000378
# 4 0.002108 -0.011307 -0.012130 0.057519 -0.035063 -0.004719
# 5 0.003928 0.009062 0.012273 -0.035063 0.062002 0.000573
# 6 -0.006470 0.000209 -0.000378 -0.004719 0.000573 0.024225
#
#
# Mechanical properties :
#
#
# Convention : Reuss Voigt Hill
#
# Bulk Modulus (GPa) = 33.27448 69.73000 51.50224
# Shear Modulus (GPa) = 23.20818 36.06648 29.63733
#
# Velocity S-wave (km/s) = 3.37209 4.20369 3.81064
# Velocity P-wave (km/s) = 5.60931 7.59776 6.67796
#
# Compressibility (1/GPa) = 0.03005306
#
# Stress axis : x y z
#
# Youngs Moduli (GPa) = 72.05301 84.04235 49.78107
#
# Poissons Ratio (x) = 0.31404 0.17502
# Poissons Ratio (y) = 0.26924 0.03254
# Poissons Ratio (z) = 0.25333 0.05493
#
# Static dielectric constant tensor:
#      x y z
#    x 3.882700 0.371480 -0.098410 
#    y 0.371480 4.055430 0.239240 
#    z -0.098410 0.239240 3.604170 
# 
# 
# High freq. dielectric constant tensor:
#      x y z
#    x 1.802700 0.025660 -0.003050 
#    y 0.025660 1.805320 0.015110 
#    z -0.003050 0.015110 1.778490 
# 
# From -- ./inp_files/101249.got.cif
#   From: 2010.06.25/outbox.cif.g09.slc.cpg/sg2_51_cif.got.tgz:101249.got - 2010.06.27 13:26:56.
