data_PCOD8001683
_publ_section_title
;
Structure prediction by ZEFSAII (Michael W. Deem and Ramdas Pophale) SiO2 
 PCOD8001683
Probable space group: P -1
;
_chemical_formula_sum "Si O2"
_cell_formula_units_Z 16
_cell_length_a 8.967552
_cell_length_b 19.946385
_cell_length_c 17.701264
_cell_angle_alpha 20.377135
_cell_angle_beta 129.954241
_cell_angle_gamma 129.322442
_cell_volume 839.130837
_symmetry_space_group_name_H-M "P -1"
_symmetry_group_IT_number 2
_symmetry_cell_setting 'triclinic'
loop_
_space_group_symop_operation_xyz
x,y,z
-x,-y,-z
loop_
_atom_site_type_symbol
_atom_site_label
_atom_site_fract_x
_atom_site_fract_y
_atom_site_fract_z
Si Si1 0.527167 0.799820 0.805457
Si Si2 0.223376 0.465543 0.105982
Si Si3 0.210046 0.585217 0.317722
Si Si4 0.764619 0.488308 0.250870
Si Si5 0.391084 0.897037 0.145456
Si Si6 0.428590 0.298435 0.782319
Si Si7 0.468283 0.221988 0.346553
Si Si8 0.505426 0.403364 0.390067
O O1 0.575518 0.799952 0.732540
O O2 0.511338 0.010805 0.612712
O O3 0.324177 0.669467 0.892747
O O4 0.701484 0.705228 0.003993
O O5 0.276894 0.292604 0.250484
O O6 0.300646 0.415003 0.267915
O O7 0.000000 0.500000 0.000000
O O8 0.208284 0.748197 0.211778
O O9 0.300265 0.398069 0.574741
O O10 0.343439 0.678497 0.194119
O O11 0.996650 0.506706 0.301066
O O12 0.661340 0.374601 0.265024
O O13 0.678397 0.370626 0.421554
O O14 0.523834 0.767415 0.376302
O O15 0.500000 0.000000 0.000000
O O16 0.335623 0.072174 0.995014
O O17 0.423464 0.390275 0.765995
#
# Coordination Sequence:
#
# PCOD8001683 Si02
#       8
#     2   2   2   2   2   2   2   2
#     4   9  19  37  56  76 106 146 184 219 264 319
#     4  10  21  36  56  83 114 141 174 224 274 319
#     4   9  19  34  52  76 100 134 178 217 263 319
#     4  10  20  34  53  78 109 136 175 226 269 314
#     4   9  18  35  53  72 103 138 173 216 261 309
#     4   9  18  34  53  71 103 139 172 217 263 312
#     4   9  19  37  57  77 107 145 182 220 266 322
#     4   9  20  34  52  77 104 139 175 212 267 320
#
# _framework density 19.067350000000001
#
# number of rings (size 3 to 8) (size 9 to 14) (size 15 to 20)
#    0.000    3.000    0.000    2.250    0.000    9.500 
#    0.000    6.250    0.000    0.000    0.000    0.000 
#    0.000    0.000    0.000    0.000    0.000    0.000 
#
# Total GULP energy -198240.062274 kJ/mol
# GULP energy per Si atom -12390.003892 kJ/mol
# Density = 1.902395 g / cm^3
# Si number density = 19.067350 Si / 1000 Ang^3
#
#
#
# Elastic Constant Matrix: (Units=GPa)
#
#
# Indices 1 2 3 4 5 6 
#
# 1 68.3468 32.5562 26.3177 5.7933 16.3886 15.3118
# 2 32.5562 61.4707 25.6127 -4.4876 17.9722 1.7635
# 3 26.3177 25.6127 114.1169 -13.3334 9.6666 -3.7825
# 4 5.7933 -4.4876 -13.3334 31.6601 -9.8626 7.0747
# 5 16.3886 17.9722 9.6666 -9.8626 25.9748 5.6661
# 6 15.3118 1.7635 -3.7825 7.0747 5.6661 33.8660
#
#
#
# Elastic Compliance Matrix: (Units=1/GPa)
#
#
# Indices 1 2 3 4 5 6 
#
# 1 0.025691 -0.009369 -0.004322 -0.009104 -0.009816 -0.008066
# 2 -0.009369 0.025636 -0.002469 -0.000545 -0.012156 0.004773
# 3 -0.004322 -0.002469 0.010815 0.005191 0.001971 0.001876
# 4 -0.009104 -0.000545 0.005191 0.044348 0.022853 -0.008364
# 5 -0.009816 -0.012156 0.001971 0.022853 0.063242 -0.010064
# 6 -0.008066 0.004773 0.001876 -0.008364 -0.010064 0.036567
#
#
# Mechanical properties :
#
#
# Convention : Reuss Voigt Hill
#
# Bulk Modulus (GPa) = 33.53128 45.87861 39.70495
# Shear Modulus (GPa) = 20.11596 28.93001 24.52299
#
# Velocity S-wave (km/s) = 3.25159 3.89942 3.59015
# Velocity P-wave (km/s) = 5.63214 6.66240 6.16882
#
# Compressibility (1/GPa) = 0.02982290
#
# Stress axis : x y z
#
# Youngs Moduli (GPa) = 38.92477 39.00781 92.46102
#
# Poissons Ratio (x) = 0.36546 0.39958
# Poissons Ratio (y) = 0.36469 0.22828
# Poissons Ratio (z) = 0.16822 0.09631
#
# Static dielectric constant tensor:
#      x y z
#    x 3.276680 -0.273710 0.069390 
#    y -0.273710 3.522160 -0.217030 
#    z 0.069390 -0.217030 3.759580 
# 
# 
# High freq. dielectric constant tensor:
#      x y z
#    x 1.714300 -0.023050 0.001880 
#    y -0.023050 1.735280 -0.004830 
#    z 0.001880 -0.004830 1.750240 
# 
# From -- ./inp_files/562886.got.cif
#   From: 2010.06.25/outbox.cif.g09.slc.cpg/sg2_282_cif.got.tgz:562886.got - 2010.06.27 13:26:56.
