data_PCOD8001201
_publ_section_title
;
Structure prediction by ZEFSAII (Michael W. Deem and Ramdas Pophale) SiO2 
 PCOD8001201
Probable space group: P -1
;
_chemical_formula_sum "Si O2"
_cell_formula_units_Z 12
_cell_length_a 10.834298
_cell_length_b 12.870437
_cell_length_c 11.780276
_cell_angle_alpha 145.540138
_cell_angle_beta 37.664491
_cell_angle_gamma 146.775758
_cell_volume 480.998668
_symmetry_space_group_name_H-M "P -1"
_symmetry_group_IT_number 2
_symmetry_cell_setting 'triclinic'
loop_
_space_group_symop_operation_xyz
x,y,z
-x,-y,-z
loop_
_atom_site_type_symbol
_atom_site_label
_atom_site_fract_x
_atom_site_fract_y
_atom_site_fract_z
Si Si1 0.534975 0.782189 0.502988
Si Si2 0.720741 0.808009 0.813893
Si Si3 0.072258 0.703543 0.857935
Si Si4 0.012491 0.828582 0.415778
Si Si5 0.216525 0.487111 0.888191
Si Si6 0.307486 0.470717 0.204227
O O1 0.325633 0.725355 0.693317
O O2 0.657279 0.651461 0.331384
O O3 0.417198 0.706685 0.395530
O O4 0.725571 0.042009 0.600186
O O5 0.442775 0.732302 0.924711
O O6 0.738838 0.704134 0.823453
O O7 0.813478 0.732241 0.571690
O O8 0.892546 0.065691 0.930859
O O9 0.943303 0.610976 0.747638
O O10 0.906385 0.532435 0.919715
O O11 0.978801 0.627114 0.177896
O O12 0.000000 0.000000 0.500000
O O13 0.500000 0.500000 0.000000
#
# Coordination Sequence:
#
# PCOD8001201 Si02
#       6
#     2   2   2   2   2   2
#     4  10  22  39  66  94 123 165 205 259 307 363
#     4  11  21  40  68  91 122 170 205 249 317 366
#     4  12  22  41  65  96 124 163 208 258 308 366
#     4  10  19  42  66  89 126 167 204 251 313 365
#     4  10  22  43  65  89 130 165 204 256 309 367
#     4  11  21  43  66  87 129 165 204 256 311 367
#
# _framework density 24.948096
#
# number of rings (size 3 to 8) (size 9 to 14) (size 15 to 20)
#    0.000    1.333    6.667    1.500    0.000    0.667 
#    6.000    2.500    0.000    0.000    0.000    0.000 
#    0.000    0.000    0.000    0.000    0.000    0.000 
#
# Total GULP energy -148784.133034 kJ/mol
# GULP energy per Si atom -12398.677753 kJ/mol
# Density = 2.489131 g / cm^3
# Si number density = 24.948096 Si / 1000 Ang^3
#
#
#
# Elastic Constant Matrix: (Units=GPa)
#
#
# Indices 1 2 3 4 5 6 
#
# 1 99.3727 47.7165 19.1587 1.8884 20.8767 14.4970
# 2 47.7165 146.3056 47.6179 -14.0383 24.3727 32.3381
# 3 19.1587 47.6179 125.0794 -15.6423 32.2343 4.4524
# 4 1.8884 -14.0383 -15.6423 61.4312 9.6678 13.3383
# 5 20.8767 24.3727 32.2343 9.6678 36.9956 1.4368
# 6 14.4970 32.3381 4.4524 13.3383 1.4368 53.8326
#
#
#
# Elastic Compliance Matrix: (Units=1/GPa)
#
#
# Indices 1 2 3 4 5 6 
#
# 1 0.012871 -0.003069 0.000867 0.000431 -0.006046 -0.001640
# 2 -0.003069 0.011127 -0.001669 0.004459 -0.005050 -0.006690
# 3 0.000867 -0.001669 0.011927 0.004581 -0.010938 -0.001061
# 4 0.000431 0.004459 0.004581 0.022257 -0.012664 -0.008350
# 5 -0.006046 -0.005050 -0.010938 -0.012664 0.046318 0.007468
# 6 -0.001640 -0.006690 -0.001061 -0.008350 0.007468 0.024994
#
#
# Mechanical properties :
#
#
# Convention : Reuss Voigt Hill
#
# Bulk Modulus (GPa) = 35.48144 66.63821 51.05983
# Shear Modulus (GPa) = 34.09984 47.53618 40.81801
#
# Velocity S-wave (km/s) = 3.70108 4.36983 4.04928
# Velocity P-wave (km/s) = 5.70236 7.22698 6.50946
#
# Compressibility (1/GPa) = 0.02818375
#
# Stress axis : x y z
#
# Youngs Moduli (GPa) = 77.69563 89.87262 83.84575
#
# Poissons Ratio (x) = 0.27582 -0.07272
# Poissons Ratio (y) = 0.23845 0.13990
# Poissons Ratio (z) = -0.06739 0.14996
#
# Static dielectric constant tensor:
#      x y z
#    x 4.965000 0.835140 0.251400 
#    y 0.835140 5.919390 0.473460 
#    z 0.251400 0.473460 4.806120 
# 
# 
# High freq. dielectric constant tensor:
#      x y z
#    x 1.986810 0.024740 0.005900 
#    y 0.024740 2.010160 -0.001140 
#    z 0.005900 -0.001140 2.015890 
# 
# From -- ./inp_files/365371.got.cif
#   From: 2010.06.25/outbox.cif.g09.slc.cpg/sg2_183_cif.got.tgz:365371.got - 2010.06.27 13:26:56.
