data_PCOD8001343
_publ_section_title
;
Structure prediction by ZEFSAII (Michael W. Deem and Ramdas Pophale) SiO2 
 PCOD8001343
Probable space group: P -1
;
_chemical_formula_sum "Si O2"
_cell_formula_units_Z 16
_cell_length_a 15.291700
_cell_length_b 19.342515
_cell_length_c 15.089195
_cell_angle_alpha 142.116340
_cell_angle_beta 19.351560
_cell_angle_gamma 145.238556
_cell_volume 840.847388
_symmetry_space_group_name_H-M "P -1"
_symmetry_group_IT_number 2
_symmetry_cell_setting 'triclinic'
loop_
_space_group_symop_operation_xyz
x,y,z
-x,-y,-z
loop_
_atom_site_type_symbol
_atom_site_label
_atom_site_fract_x
_atom_site_fract_y
_atom_site_fract_z
Si Si1 0.001707 0.366475 0.358649
Si Si2 0.660746 0.201772 0.985544
Si Si3 0.859256 0.862841 0.463135
Si Si4 0.759677 0.578247 0.631793
Si Si5 0.698967 0.322100 0.896208
Si Si6 0.549798 0.676591 0.242959
Si Si7 0.181386 0.100031 0.663304
Si Si8 0.455814 0.053383 0.868721
O O1 0.082443 0.336232 0.349074
O O2 0.000000 0.500000 0.500000
O O3 0.679212 0.283265 0.552398
O O4 0.242993 0.360951 0.056201
O O5 0.453174 0.203010 0.264213
O O6 0.708174 0.314877 0.987622
O O7 0.525215 0.075266 0.930254
O O8 0.958552 0.213444 0.754585
O O9 0.835623 0.851860 0.369502
O O10 0.000000 0.000000 0.500000
O O11 0.625547 0.436546 0.641497
O O12 0.989116 0.596275 0.353706
O O13 0.514371 0.616933 0.868452
O O14 0.592897 0.183503 0.819245
O O15 0.742688 0.788130 0.230022
O O16 0.415750 0.040521 0.386906
O O17 0.881113 0.999277 0.877754
#
# Coordination Sequence:
#
# PCOD8001343 Si02
#       8
#     2   2   2   2   2   2   2   2
#     4  10  20  38  60  84 109 137 186 235 272 323
#     4  10  20  31  51  81 107 137 188 236 255 302
#     4  12  17  32  53  80 109 144 193 224 265 311
#     4  11  19  36  63  80 104 139 189 232 265 335
#     4  10  20  34  57  85 105 142 192 234 258 310
#     4  11  23  37  56  90 115 140 172 229 303 320
#     4  12  22  34  57  81 122 146 173 231 283 345
#     4  10  20  35  52  83 107 153 179 225 273 308
#
# _framework density 19.028423
#
# number of rings (size 3 to 8) (size 9 to 14) (size 15 to 20)
#    0.750    0.500    2.500    7.125    0.000    0.000 
#    0.000    0.000    0.000   19.500    0.000    0.000 
#    0.000    0.000    0.000    0.000    0.000    0.000 
#
# Total GULP energy -198355.557681 kJ/mol
# GULP energy per Si atom -12397.222355 kJ/mol
# Density = 1.898511 g / cm^3
# Si number density = 19.028423 Si / 1000 Ang^3
#
#
#
# Elastic Constant Matrix: (Units=GPa)
#
#
# Indices 1 2 3 4 5 6 
#
# 1 8.8258 -18.1867 -0.8856 2.2165 -10.1768 0.9677
# 2 -18.1867 27.1705 1.0017 -6.2096 3.1975 2.1770
# 3 -0.8856 1.0017 125.7774 -11.7406 -15.5983 -8.9257
# 4 2.2165 -6.2096 -11.7406 24.2283 -7.1342 -1.9998
# 5 -10.1768 3.1975 -15.5983 -7.1342 30.5631 6.3930
# 6 0.9677 2.1770 -8.9257 -1.9998 6.3930 28.6873
#
#
#
# Elastic Compliance Matrix: (Units=1/GPa)
#
#
# Indices 1 2 3 4 5 6 
#
# 1 -0.141944 -0.096861 -0.008094 -0.029540 -0.052170 0.019188
# 2 -0.096861 -0.026785 -0.005231 -0.010484 -0.036903 0.011166
# 3 -0.008094 -0.005231 0.008974 0.004865 0.002908 0.003153
# 4 -0.029540 -0.010484 0.004865 0.045020 0.003046 0.005765
# 5 -0.052170 -0.036903 0.002908 0.003046 0.021205 0.000952
# 6 0.019188 0.011166 0.003153 0.005765 0.000952 0.034535
#
#
# Mechanical properties :
#
#
# Convention : Reuss Voigt Hill
#
# Bulk Modulus (GPa) = -2.63069 13.95917 5.66424
# Shear Modulus (GPa) = 144.22574 28.68537 86.45556
#
# Velocity S-wave (km/s) = 8.71547 3.88687 6.74786
# Velocity P-wave (km/s) = 9.99469 5.24362 7.98089
#
# Compressibility (1/GPa) = -0.38012826
#
# Stress axis : x y z
#
# Youngs Moduli (GPa) = -7.04503 -37.33464 111.43631
#
# Poissons Ratio (x) = -3.61629 0.90193
# Poissons Ratio (y) = -0.68239 0.58297
# Poissons Ratio (z) = -0.05702 -0.19531
#
# Static dielectric constant tensor:
#      x y z
#    x 3.688050 -0.047850 -0.268670 
#    y -0.047850 3.160660 -0.090190 
#    z -0.268670 -0.090190 3.553940 
# 
# 
# High freq. dielectric constant tensor:
#      x y z
#    x 1.732900 -0.012610 -0.013490 
#    y -0.012610 1.705180 -0.011990 
#    z -0.013490 -0.011990 1.760560 
# 
# From -- ./inp_files/535096.got.cif
#   From: 2010.06.25/outbox.cif.g09.slc.cpg/sg2_268_cif.got.tgz:535096.got - 2010.06.27 13:26:56.
