data_PCOD8001203
_publ_section_title
;
Structure prediction by ZEFSAII (Michael W. Deem and Ramdas Pophale) SiO2 
 PCOD8001203
Probable space group: P -1
;
_chemical_formula_sum "Si O2"
_cell_formula_units_Z 16
_cell_length_a 11.865721
_cell_length_b 9.374762
_cell_length_c 16.058413
_cell_angle_alpha 128.373653
_cell_angle_beta 128.985516
_cell_angle_gamma 35.147017
_cell_volume 776.420809
_symmetry_space_group_name_H-M "P -1"
_symmetry_group_IT_number 2
_symmetry_cell_setting 'triclinic'
loop_
_space_group_symop_operation_xyz
x,y,z
-x,-y,-z
loop_
_atom_site_type_symbol
_atom_site_label
_atom_site_fract_x
_atom_site_fract_y
_atom_site_fract_z
Si Si1 0.829530 0.648730 0.247646
Si Si2 0.245800 0.431569 0.406787
Si Si3 0.574173 0.507716 0.343175
Si Si4 0.231023 0.033608 0.810166
Si Si5 0.757166 0.449880 0.738997
Si Si6 0.789861 0.761973 0.965208
Si Si7 0.906142 0.884812 0.908326
Si Si8 0.528637 0.125623 0.713284
O O1 0.730343 0.885446 0.226237
O O2 0.655714 0.728516 0.255297
O O3 0.011630 0.575712 0.360228
O O4 0.919822 0.406667 0.146300
O O5 0.287693 0.549386 0.536467
O O6 0.285264 0.474902 0.349555
O O7 0.402872 0.128500 0.383465
O O8 0.353353 0.639318 0.320282
O O9 0.551937 0.688221 0.333401
O O10 0.680688 0.244245 0.254337
O O11 0.992407 0.218910 0.783099
O O12 0.328648 0.049635 0.942041
O O13 0.668956 0.699902 0.842750
O O14 0.823953 0.892552 0.961958
O O15 0.000000 0.500000 0.000000
O O16 0.719021 0.057365 0.819893
O O17 0.000000 0.000000 0.000000
#
# Coordination Sequence:
#
# PCOD8001203 Si02
#       8
#     2   2   2   2   2   2   2   2
#     4  10  22  44  65  90 130 168 208 258 320 373
#     4  10  22  46  65  88 127 172 209 266 320 354
#     4  12  26  37  65 100 124 164 220 260 305 385
#     4  10  23  39  64  95 124 163 213 260 313 370
#     4  10  21  42  66  91 125 166 212 264 314 366
#     4  10  19  42  66  91 124 167 206 255 322 365
#     4  11  24  42  66  92 131 170 204 260 314 379
#     4  11  25  42  61  95 129 168 209 253 325 377
#
# _framework density 20.607382999999999
#
# number of rings (size 3 to 8) (size 9 to 14) (size 15 to 20)
#    0.000    1.500    5.000    1.500    5.250    5.500 
#    0.000    0.000    0.000    0.000    0.000    0.000 
#    0.000    0.000    0.000    0.000    0.000    0.000 
#
# Total GULP energy -198431.302326 kJ/mol
# GULP energy per Si atom -12401.956395 kJ/mol
# Density = 2.056048 g / cm^3
# Si number density = 20.607383 Si / 1000 Ang^3
#
#
#
# Elastic Constant Matrix: (Units=GPa)
#
#
# Indices 1 2 3 4 5 6 
#
# 1 82.7975 11.9275 13.8034 -0.2059 7.1564 -1.7458
# 2 11.9275 62.7840 4.6898 2.5535 -14.4041 0.0620
# 3 13.8034 4.6898 89.3786 -3.9943 -8.2237 -11.4154
# 4 -0.2059 2.5535 -3.9943 24.0352 2.5275 -1.8014
# 5 7.1564 -14.4041 -8.2237 2.5275 30.4907 -3.5992
# 6 -1.7458 0.0620 -11.4154 -1.8014 -3.5992 23.1487
#
#
#
# Elastic Compliance Matrix: (Units=1/GPa)
#
#
# Indices 1 2 3 4 5 6 
#
# 1 0.013518 -0.003733 -0.002535 0.000620 -0.005798 -0.001074
# 2 -0.003733 0.019114 0.000576 -0.002967 0.010466 0.001348
# 3 -0.002535 0.000576 0.013025 0.002088 0.005054 0.007179
# 4 0.000620 -0.002967 0.002088 0.042988 -0.004100 0.003792
# 5 -0.005798 0.010466 0.005054 -0.004100 0.041774 0.008203
# 6 -0.001074 0.001348 0.007179 0.003792 0.008203 0.048225
#
#
# Mechanical properties :
#
#
# Convention : Reuss Voigt Hill
#
# Bulk Modulus (GPa) = 29.17680 32.86683 31.02181
# Shear Modulus (GPa) = 24.81974 29.17087 26.99531
#
# Velocity S-wave (km/s) = 3.47423 3.76647 3.62329
# Velocity P-wave (km/s) = 5.50298 5.90751 5.70883
#
# Compressibility (1/GPa) = 0.03427381
#
# Stress axis : x y z
#
# Youngs Moduli (GPa) = 73.97495 52.31656 76.77662
#
# Poissons Ratio (x) = 0.19531 0.19461
# Poissons Ratio (y) = 0.27616 -0.04424
# Poissons Ratio (z) = 0.18751 -0.03014
#
# Static dielectric constant tensor:
#      x y z
#    x 3.770280 0.045440 -0.143220 
#    y 0.045440 3.766410 -0.142640 
#    z -0.143220 -0.142640 4.392380 
# 
# 
# High freq. dielectric constant tensor:
#      x y z
#    x 1.808310 -0.000890 0.000320 
#    y -0.000890 1.807750 -0.004760 
#    z 0.000320 -0.004760 1.813970 
# 
# From -- ./inp_files/305960.got.cif
#   From: 2010.06.25/outbox.cif.g09.slc.cpg/sg2_153_cif.got.tgz:305960.got - 2010.06.27 13:26:56.
