data_PCOD8001841
_publ_section_title
;
Structure prediction by ZEFSAII (Michael W. Deem and Ramdas Pophale) SiO2 
 PCOD8001841
Probable space group: P -1
;
_chemical_formula_sum "Si O2"
_cell_formula_units_Z 16
_cell_length_a 22.204652
_cell_length_b 10.939547
_cell_length_c 14.045990
_cell_angle_alpha 48.889430
_cell_angle_beta 30.439538
_cell_angle_gamma 29.754776
_cell_volume 799.736919
_symmetry_space_group_name_H-M "P -1"
_symmetry_group_IT_number 2
_symmetry_cell_setting 'triclinic'
loop_
_space_group_symop_operation_xyz
x,y,z
-x,-y,-z
loop_
_atom_site_type_symbol
_atom_site_label
_atom_site_fract_x
_atom_site_fract_y
_atom_site_fract_z
Si Si1 0.069156 0.222874 0.271458
Si Si2 0.987816 0.962982 0.715713
Si Si3 0.245488 0.195669 0.580030
Si Si4 0.639255 0.580725 0.876467
Si Si5 0.201065 0.242287 0.406438
Si Si6 0.131256 0.209845 0.928780
Si Si7 0.711965 0.111741 0.677124
Si Si8 0.586245 0.040144 0.172456
O O1 0.066027 0.059727 0.300178
O O2 0.853303 0.523784 0.409849
O O3 0.123782 0.136066 0.350103
O O4 0.219395 0.192534 0.037288
O O5 0.205844 0.799512 0.509224
O O6 0.838435 0.271475 0.773150
O O7 0.978575 0.839952 0.875121
O O8 0.171444 0.207472 0.573157
O O9 0.182357 0.151705 0.776772
O O10 0.474997 0.988851 0.366472
O O11 0.665179 0.742010 0.785444
O O12 0.546249 0.682083 0.844402
O O13 0.493017 0.651957 0.112561
O O14 0.000000 0.500000 0.500000
O O15 0.310318 0.981702 0.335064
O O16 0.339850 0.978516 0.816022
O O17 0.000000 0.500000 0.000000
#
# Coordination Sequence:
#
# PCOD8001841 Si02
#       8
#     2   2   2   2   2   2   2   2
#     4  10  20  34  57  87 122 147 188 241 297 348
#     4  11  22  37  57  89 124 149 197 241 298 354
#     4  11  20  38  59  86 117 156 199 240 281 349
#     4  10  22  38  61  94 119 145 197 245 301 346
#     4  11  20  38  65  86 117 155 199 241 294 350
#     4  11  22  40  57  84 123 161 198 231 291 358
#     4  11  21  37  59  88 118 155 189 246 296 339
#     4   9  20  35  58  85 116 150 192 237 291 347
#
# _framework density 20.006578999999999
#
# number of rings (size 3 to 8) (size 9 to 14) (size 15 to 20)
#    0.000    1.500    5.000    1.875    0.000    6.500 
#    2.250    0.625    0.000    0.750    0.000    0.000 
#    0.000    0.000    0.000    0.000    0.000    0.000 
#
# Total GULP energy -198281.872893 kJ/mol
# GULP energy per Si atom -12392.617056 kJ/mol
# Density = 1.996104 g / cm^3
# Si number density = 20.006579 Si / 1000 Ang^3
#
#
#
# Elastic Constant Matrix: (Units=GPa)
#
#
# Indices 1 2 3 4 5 6 
#
# 1 109.7806 27.2000 59.6954 -18.4280 15.3420 -1.9315
# 2 27.2000 44.4970 27.4360 -9.9712 5.1449 1.4388
# 3 59.6954 27.4360 134.1020 -15.7632 6.2863 -2.8223
# 4 -18.4280 -9.9712 -15.7632 28.1429 -6.6237 3.9557
# 5 15.3420 5.1449 6.2863 -6.6237 35.6501 -2.8652
# 6 -1.9315 1.4388 -2.8223 3.9557 -2.8652 21.9688
#
#
#
# Elastic Compliance Matrix: (Units=1/GPa)
#
#
# Indices 1 2 3 4 5 6 
#
# 1 0.013925 -0.004251 -0.004670 0.004147 -0.003812 -0.000341
# 2 -0.004251 0.028661 -0.003323 0.005828 -0.000947 -0.003851
# 3 -0.004670 -0.003323 0.010386 0.001693 0.001051 0.000974
# 4 0.004147 0.005828 0.001693 0.043319 0.004562 -0.007005
# 5 -0.003812 -0.000947 0.001051 0.004562 0.030735 0.003049
# 6 -0.000341 -0.003851 0.000974 -0.007005 0.003049 0.047525
#
#
# Mechanical properties :
#
#
# Convention : Reuss Voigt Hill
#
# Bulk Modulus (GPa) = 35.10824 57.44916 46.27870
# Shear Modulus (GPa) = 23.97693 28.75556 26.36625
#
# Velocity S-wave (km/s) = 3.46562 3.79529 3.63420
# Velocity P-wave (km/s) = 5.79659 6.92699 6.38685
#
# Compressibility (1/GPa) = 0.02848334
#
# Stress axis : x y z
#
# Youngs Moduli (GPa) = 71.81556 34.89050 96.28572
#
# Poissons Ratio (x) = 0.14834 0.44963
# Poissons Ratio (y) = 0.30532 0.31994
# Poissons Ratio (z) = 0.33536 0.11593
#
# Static dielectric constant tensor:
#      x y z
#    x 3.737280 -0.201020 0.062120 
#    y -0.201020 3.428890 -0.073870 
#    z 0.062120 -0.073870 3.975340 
# 
# 
# High freq. dielectric constant tensor:
#      x y z
#    x 1.766030 -0.013610 0.003590 
#    y -0.013610 1.741760 0.001170 
#    z 0.003590 0.001170 1.803830 
# 
# From -- ./inp_files/477706.got.cif
#   From: 2010.06.25/outbox.cif.g09.slc.cpg/sg2_239_cif.got.tgz:477706.got - 2010.06.27 13:26:56.
