data_PCOD8001958
_publ_section_title
;
Structure prediction by ZEFSAII (Michael W. Deem and Ramdas Pophale) SiO2 
 PCOD8001958
Probable space group: P -1
;
_chemical_formula_sum "Si O2"
_cell_formula_units_Z 16
_cell_length_a 10.732002
_cell_length_b 13.494756
_cell_length_c 11.147168
_cell_angle_alpha 30.759434
_cell_angle_beta 106.632823
_cell_angle_gamma 94.753253
_cell_volume 746.004215
_symmetry_space_group_name_H-M "P -1"
_symmetry_group_IT_number 2
_symmetry_cell_setting 'triclinic'
loop_
_space_group_symop_operation_xyz
x,y,z
-x,-y,-z
loop_
_atom_site_type_symbol
_atom_site_label
_atom_site_fract_x
_atom_site_fract_y
_atom_site_fract_z
Si Si1 0.175612 0.916736 0.300521
Si Si2 0.994197 0.680107 0.040439
Si Si3 0.004374 0.656587 0.444165
Si Si4 0.193082 0.762655 0.716136
Si Si5 0.115053 0.164710 0.401387
Si Si6 0.264349 0.439881 0.259848
Si Si7 0.704934 0.925290 0.040175
Si Si8 0.469972 0.299510 0.666101
O O1 0.117167 0.774034 0.346148
O O2 0.251390 0.791686 0.570153
O O3 0.050872 0.121617 0.092059
O O4 0.284908 0.993629 0.176651
O O5 0.915884 0.713406 0.858683
O O6 0.956035 0.487775 0.279343
O O7 0.158886 0.616014 0.131001
O O8 0.000000 0.500000 0.500000
O O9 0.856894 0.832813 0.233491
O O10 0.029385 0.810846 0.598614
O O11 0.205455 0.929788 0.642632
O O12 0.278254 0.542325 0.027912
O O13 0.203806 0.256311 0.415601
O O14 0.407043 0.337194 0.474941
O O15 0.632150 0.749477 0.212779
O O16 0.614094 0.114148 0.899322
O O17 0.500000 0.500000 0.500000
#
# Coordination Sequence:
#
# PCOD8001958 Si02
#       8
#     2   2   2   2   2   2   2   2
#     4  11  23  38  63  94 133 153 199 260 327 378
#     4  10  20  34  60  96 127 161 195 259 320 371
#     4  12  23  36  63  98 126 164 198 253 328 376
#     4   9  19  34  59  96 122 162 189 255 317 371
#     4   9  18  34  56  93 132 153 198 250 314 370
#     4  11  20  37  63  88 124 162 212 248 304 364
#     4  11  26  44  60  89 124 163 214 255 305 365
#     4  11  28  46  65  84 120 175 219 258 292 359
#
# _framework density 21.447599
#
# number of rings (size 3 to 8) (size 9 to 14) (size 15 to 20)
#    0.000    1.500    2.500    4.125    3.500    2.000 
#    0.000    0.625    0.000    3.750    0.000    0.000 
#    0.000    0.000    0.000    0.000    0.000    0.000 
#
# Total GULP energy -198305.670700 kJ/mol
# GULP energy per Si atom -12394.104419 kJ/mol
# Density = 2.139878 g / cm^3
# Si number density = 21.447599 Si / 1000 Ang^3
#
#
#
# Elastic Constant Matrix: (Units=GPa)
#
#
# Indices 1 2 3 4 5 6 
#
# 1 81.2764 37.2856 47.5421 3.7772 -23.9022 1.0621
# 2 37.2856 88.7515 27.1962 -8.7034 -11.7222 14.2368
# 3 47.5421 27.1962 106.1290 2.3074 -26.4577 6.3895
# 4 3.7772 -8.7034 2.3074 27.9112 -7.2106 -6.8190
# 5 -23.9022 -11.7222 -26.4577 -7.2106 44.7563 4.0766
# 6 1.0621 14.2368 6.3895 -6.8190 4.0766 26.7622
#
#
#
# Elastic Compliance Matrix: (Units=1/GPa)
#
#
# Indices 1 2 3 4 5 6 
#
# 1 0.020677 -0.006793 -0.006456 -0.002416 0.004785 0.002990
# 2 -0.006793 0.016077 -0.000281 0.004642 0.001831 -0.007312
# 3 -0.006456 -0.000281 0.013854 0.000042 0.005008 -0.003654
# 4 -0.002416 0.004642 0.000042 0.040861 0.005884 0.007131
# 5 0.004785 0.001831 0.005008 0.005884 0.029778 -0.005396
# 6 0.002990 -0.007312 -0.003654 0.007131 -0.005396 0.044649
#
#
# Mechanical properties :
#
#
# Convention : Reuss Voigt Hill
#
# Bulk Modulus (GPa) = 42.46690 55.57830 49.02260
# Shear Modulus (GPa) = 24.89953 30.82814 27.86383
#
# Velocity S-wave (km/s) = 3.41096 3.79538 3.60829
# Velocity P-wave (km/s) = 5.94611 6.72133 6.34557
#
# Compressibility (1/GPa) = 0.02354775
#
# Stress axis : x y z
#
# Youngs Moduli (GPa) = 48.36304 62.19942 72.17941
#
# Poissons Ratio (x) = 0.42250 0.46602
# Poissons Ratio (y) = 0.32852 0.02031
# Poissons Ratio (z) = 0.31225 0.01750
#
# Static dielectric constant tensor:
#      x y z
#    x 3.648540 -0.124600 -0.334510 
#    y -0.124600 3.759000 -0.035630 
#    z -0.334510 -0.035630 4.346960 
# 
# 
# High freq. dielectric constant tensor:
#      x y z
#    x 1.797940 -0.002860 -0.032360 
#    y -0.002860 1.830890 -0.004110 
#    z -0.032360 -0.004110 1.865890 
# 
# From -- ./inp_files/398199.got.cif
#   From: 2010.06.25/outbox.cif.g09.slc.cpg/sg2_200_cif.got.tgz:398199.got - 2010.06.27 13:26:56.
