data_PCOD8001982
_publ_section_title
;
Structure prediction by ZEFSAII (Michael W. Deem and Ramdas Pophale) SiO2 
 PCOD8001982
Probable space group: P -1
;
_chemical_formula_sum "Si O2"
_cell_formula_units_Z 16
_cell_length_a 8.914189
_cell_length_b 25.263779
_cell_length_c 9.191993
_cell_angle_alpha 122.183074
_cell_angle_beta 89.223600
_cell_angle_gamma 138.941568
_cell_volume 823.973280
_symmetry_space_group_name_H-M "P -1"
_symmetry_group_IT_number 2
_symmetry_cell_setting 'triclinic'
loop_
_space_group_symop_operation_xyz
x,y,z
-x,-y,-z
loop_
_atom_site_type_symbol
_atom_site_label
_atom_site_fract_x
_atom_site_fract_y
_atom_site_fract_z
Si Si1 0.868639 0.827676 0.325810
Si Si2 0.732443 0.252744 0.913176
Si Si3 0.190618 0.012266 0.340909
Si Si4 0.248695 0.043069 0.834426
Si Si5 0.743281 0.638564 0.028984
Si Si6 0.507346 0.930873 0.852811
Si Si7 0.059838 0.350701 0.661447
Si Si8 0.216763 0.636759 0.151430
O O1 0.834282 0.743622 0.162464
O O2 0.576063 0.744371 0.304782
O O3 0.907656 0.879451 0.249046
O O4 0.179195 0.955488 0.608955
O O5 0.565289 0.193645 0.986071
O O6 0.862754 0.367717 0.019127
O O7 0.032185 0.316695 0.019039
O O8 0.483890 0.140234 0.625842
O O9 0.049720 0.019845 0.268017
O O10 0.318679 0.009462 0.218111
O O11 0.296956 0.039529 0.992916
O O12 0.813607 0.644030 0.199811
O O13 0.371457 0.490839 0.777185
O O14 0.148769 0.771237 0.616837
O O15 0.500000 0.000000 0.000000
O O16 0.838749 0.327304 0.680793
O O17 0.000000 0.500000 0.000000
#
# Coordination Sequence:
#
# PCOD8001982 Si02
#       8
#     2   2   2   2   2   2   2   2
#     4  11  20  34  63  95 110 147 204 248 295 342
#     4  10  20  38  60  93 117 148 198 249 295 340
#     4  11  21  39  60  84 122 149 199 251 287 345
#     4  11  22  37  63  85 121 158 190 242 305 348
#     4  10  20  34  62  84 120 148 194 247 298 333
#     4  12  25  40  59  86 122 161 196 236 296 360
#     4  10  21  39  56  89 121 153 195 246 291 348
#     4  11  18  34  62  91 118 145 191 251 290 342
#
# _framework density 19.418106000000002
#
# number of rings (size 3 to 8) (size 9 to 14) (size 15 to 20)
#    0.000    1.250    6.250    1.875    1.750    1.000 
#    0.000    0.625    0.000    1.500    0.000    0.000 
#    0.000    0.000    0.000    0.000    0.000    0.000 
#
# Total GULP energy -198326.217176 kJ/mol
# GULP energy per Si atom -12395.388574 kJ/mol
# Density = 1.937391 g / cm^3
# Si number density = 19.418106 Si / 1000 Ang^3
#
#
#
# Elastic Constant Matrix: (Units=GPa)
#
#
# Indices 1 2 3 4 5 6 
#
# 1 75.2464 32.6385 21.3482 12.0603 -5.0979 -4.9543
# 2 32.6385 101.2267 29.9173 14.6255 -1.7374 -0.0645
# 3 21.3482 29.9173 71.7440 9.8154 -5.7881 -11.2679
# 4 12.0603 14.6255 9.8154 31.8673 -4.7422 -2.3698
# 5 -5.0979 -1.7374 -5.7881 -4.7422 28.8455 8.3880
# 6 -4.9543 -0.0645 -11.2679 -2.3698 8.3880 33.5821
#
#
#
# Elastic Compliance Matrix: (Units=1/GPa)
#
#
# Indices 1 2 3 4 5 6 
#
# 1 0.016446 -0.004068 -0.002476 -0.003322 0.001321 0.001023
# 2 -0.004068 0.012865 -0.004066 -0.003370 -0.000734 -0.001994
# 3 -0.002476 -0.004066 0.017538 -0.002069 0.001010 0.005113
# 4 -0.003322 -0.003370 -0.002069 0.035516 0.004584 0.000171
# 5 0.001321 -0.000734 0.001010 0.004584 0.038350 -0.008723
# 6 0.001023 -0.001994 0.005113 0.000171 -0.008723 0.033831
#
#
# Mechanical properties :
#
#
# Convention : Reuss Voigt Hill
#
# Bulk Modulus (GPa) = 39.01539 46.22502 42.62020
# Shear Modulus (GPa) = 27.12860 29.81318 28.47089
#
# Velocity S-wave (km/s) = 3.74181 3.92258 3.83326
# Velocity P-wave (km/s) = 6.22929 6.66125 6.44889
#
# Compressibility (1/GPa) = 0.02563091
#
# Stress axis : x y z
#
# Youngs Moduli (GPa) = 60.80623 77.73022 57.01898
#
# Poissons Ratio (x) = 0.31618 0.14116
# Poissons Ratio (y) = 0.24734 0.23182
# Poissons Ratio (z) = 0.15053 0.31602
#
# Static dielectric constant tensor:
#      x y z
#    x 3.654850 -0.055780 -0.016710 
#    y -0.055780 3.848210 0.290860 
#    z -0.016710 0.290860 3.300180 
# 
# 
# High freq. dielectric constant tensor:
#      x y z
#    x 1.764540 0.003290 -0.001310 
#    y 0.003290 1.765650 0.024380 
#    z -0.001310 0.024380 1.713310 
# 
# From -- ./inp_files/175118.got.cif
#   From: 2010.06.25/outbox.cif.g09.slc.cpg/sg2_88_cif.got.tgz:175118.got - 2010.06.27 13:26:56.
