data_PCOD8001360
_publ_section_title
;
Structure prediction by ZEFSAII (Michael W. Deem and Ramdas Pophale) SiO2 
 PCOD8001360
Probable space group: P -1
;
_chemical_formula_sum "Si O2"
_cell_formula_units_Z 16
_cell_length_a 11.269298
_cell_length_b 16.224242
_cell_length_c 12.077825
_cell_angle_alpha 128.254655
_cell_angle_beta 39.821270
_cell_angle_gamma 145.300605
_cell_volume 804.581083
_symmetry_space_group_name_H-M "P -1"
_symmetry_group_IT_number 2
_symmetry_cell_setting 'triclinic'
loop_
_space_group_symop_operation_xyz
x,y,z
-x,-y,-z
loop_
_atom_site_type_symbol
_atom_site_label
_atom_site_fract_x
_atom_site_fract_y
_atom_site_fract_z
Si Si1 0.674923 0.997490 0.254285
Si Si2 0.117403 0.844167 0.552265
Si Si3 0.343882 0.425607 0.240154
Si Si4 0.244979 0.792710 0.802997
Si Si5 0.803632 0.947892 0.501839
Si Si6 0.604445 0.745490 0.078866
Si Si7 0.105814 0.486372 0.305567
Si Si8 0.809325 0.750828 0.170610
O O1 0.379265 0.881425 0.406684
O O2 0.718697 0.901503 0.086230
O O3 0.877334 0.079948 0.279006
O O4 0.729744 0.118411 0.242028
O O5 0.876843 0.668701 0.584967
O O6 0.101068 0.909555 0.509449
O O7 0.246954 0.436155 0.202731
O O8 0.588408 0.587110 0.240643
O O9 0.409565 0.332613 0.083884
O O10 0.531013 0.865639 0.689513
O O11 0.105387 0.631244 0.729800
O O12 0.079789 0.790300 0.014139
O O13 0.801401 0.849977 0.336249
O O14 0.000000 0.000000 0.500000
O O15 0.307838 0.645136 0.240756
O O16 0.763502 0.764678 0.086996
O O17 0.000000 0.500000 0.500000
#
# Coordination Sequence:
#
# PCOD8001360 Si02
#       8
#     2   2   2   2   2   2   2   2
#     4  10  20  31  54  90 119 152 180 228 295 356
#     4  10  20  36  55  81 121 149 188 238 290 344
#     4  11  20  33  54  90 121 148 182 225 297 368
#     4  11  21  39  59  89 119 149 192 237 289 356
#     4  11  26  43  61  82 109 157 210 246 283 328
#     4  11  19  31  52  92 126 147 179 220 296 368
#     4  11  19  30  52  84 127 157 177 220 284 362
#     4  11  21  38  60  85 119 157 189 236 290 341
#
# _framework density 19.886125
#
# number of rings (size 3 to 8) (size 9 to 14) (size 15 to 20)
#    0.000    1.250    5.000    3.000    3.500    1.500 
#    0.000    0.625    0.000    0.750    0.000    0.000 
#    0.000    0.000    0.000    0.000    0.000    0.000 
#
# Total GULP energy -198227.238931 kJ/mol
# GULP energy per Si atom -12389.202433 kJ/mol
# Density = 1.984086 g / cm^3
# Si number density = 19.886125 Si / 1000 Ang^3
#
#
#
# Elastic Constant Matrix: (Units=GPa)
#
#
# Indices 1 2 3 4 5 6 
#
# 1 68.9392 26.4721 1.7208 -8.3359 -7.5241 11.9299
# 2 26.4721 71.6245 19.8511 -7.4948 -10.7540 5.6659
# 3 1.7208 19.8511 68.5321 -10.7164 -19.6289 11.5910
# 4 -8.3359 -7.4948 -10.7164 38.9779 2.8690 -10.7878
# 5 -7.5241 -10.7540 -19.6289 2.8690 19.8872 -2.9388
# 6 11.9299 5.6659 11.5910 -10.7878 -2.9388 17.3622
#
#
#
# Elastic Compliance Matrix: (Units=1/GPa)
#
#
# Indices 1 2 3 4 5 6 
#
# 1 0.020401 -0.006911 0.006253 0.000155 0.007989 -0.014488
# 2 -0.006911 0.018115 -0.004554 0.001441 0.002962 0.003274
# 3 0.006253 -0.004554 0.024768 0.001606 0.021956 -0.014631
# 4 0.000155 0.001441 0.001606 0.031323 0.000550 0.017906
# 5 0.007989 0.002962 0.021956 0.000550 0.075314 -0.008024
# 6 -0.014488 0.003274 -0.014631 0.017906 -0.008024 0.086018
#
#
# Mechanical properties :
#
#
# Convention : Reuss Voigt Hill
#
# Bulk Modulus (GPa) = 18.91800 33.90932 26.41366
# Shear Modulus (GPa) = 17.60669 25.98226 21.79447
#
# Velocity S-wave (km/s) = 2.97875 3.61855 3.31413
# Velocity P-wave (km/s) = 4.62217 5.87769 5.28733
#
# Compressibility (1/GPa) = 0.05285972
#
# Stress axis : x y z
#
# Youngs Moduli (GPa) = 49.01662 55.20383 40.37458
#
# Poissons Ratio (x) = 0.38153 -0.25245
# Poissons Ratio (y) = 0.33877 0.18385
# Poissons Ratio (z) = -0.30649 0.25137
#
# Static dielectric constant tensor:
#      x y z
#    x 3.077970 -0.064190 -0.305710 
#    y -0.064190 3.904360 -0.341830 
#    z -0.305710 -0.341830 3.790570 
# 
# 
# High freq. dielectric constant tensor:
#      x y z
#    x 1.703320 -0.017340 -0.036630 
#    y -0.017340 1.796610 -0.014180 
#    z -0.036630 -0.014180 1.787510 
# 
# From -- ./inp_files/175010.got.cif
#   From: 2010.06.25/outbox.cif.g09.slc.cpg/sg2_88_cif.got.tgz:175010.got - 2010.06.27 13:26:56.
