data_PCOD8001179
_publ_section_title
;
Structure prediction by ZEFSAII (Michael W. Deem and Ramdas Pophale) SiO2 
 PCOD8001179
Probable space group: P -1
;
_chemical_formula_sum "Si O2"
_cell_formula_units_Z 16
_cell_length_a 8.837204
_cell_length_b 18.272175
_cell_length_c 7.535662
_cell_angle_alpha 45.701796
_cell_angle_beta 72.923511
_cell_angle_gamma 59.373882
_cell_volume 745.590945
_symmetry_space_group_name_H-M "P -1"
_symmetry_group_IT_number 2
_symmetry_cell_setting 'triclinic'
loop_
_space_group_symop_operation_xyz
x,y,z
-x,-y,-z
loop_
_atom_site_type_symbol
_atom_site_label
_atom_site_fract_x
_atom_site_fract_y
_atom_site_fract_z
Si Si1 0.509514 0.740774 0.171300
Si Si2 0.576041 0.298669 0.117356
Si Si3 0.197487 0.943812 0.594341
Si Si4 0.274378 0.385014 0.354158
Si Si5 0.940178 0.740155 0.302326
Si Si6 0.867276 0.125735 0.890425
Si Si7 0.766438 0.841223 0.852833
Si Si8 0.113566 0.635995 0.081116
O O1 0.477811 0.680029 0.109801
O O2 0.329952 0.813703 0.227834
O O3 0.590884 0.823212 0.925942
O O4 0.641950 0.649603 0.418621
O O5 0.662044 0.164981 0.379093
O O6 0.407319 0.368644 0.177619
O O7 0.712656 0.347741 0.038357
O O8 0.188153 0.878939 0.882310
O O9 0.268307 0.038877 0.429185
O O10 0.000000 0.000000 0.500000
O O11 0.169366 0.311734 0.461038
O O12 0.138285 0.517897 0.186981
O O13 0.079126 0.639234 0.300151
O O14 0.809077 0.844496 0.042991
O O15 0.038331 0.791866 0.310335
O O16 0.000000 0.000000 0.000000
O O17 0.938556 0.737634 0.878421
#
# Coordination Sequence:
#
# PCOD8001179 Si02
#       8
#     2   2   2   2   2   2   2   2
#     4  10  23  41  56  97 123 155 209 261 299 363
#     4  11  23  40  61  92 127 153 213 256 304 365
#     4  11  18  38  61  80 115 168 190 249 312 352
#     4  11  24  38  69  89 122 168 208 249 310 359
#     4   9  19  40  59  88 123 161 198 251 306 361
#     4  11  23  37  60  89 128 156 206 254 305 377
#     4   9  19  35  67  84 115 166 206 237 312 366
#     4  10  19  42  63  88 124 169 204 249 306 373
#
# _framework density 21.459489000000001
#
# number of rings (size 3 to 8) (size 9 to 14) (size 15 to 20)
#    0.750    1.000    5.000    0.750    1.750    4.500 
#    0.000    3.125    0.000    0.000    0.000    0.000 
#    0.000    0.000    0.000    0.000    0.000    0.000 
#
# Total GULP energy -198218.810444 kJ/mol
# GULP energy per Si atom -12388.675653 kJ/mol
# Density = 2.141065 g / cm^3
# Si number density = 21.459489 Si / 1000 Ang^3
#
#
#
# Elastic Constant Matrix: (Units=GPa)
#
#
# Indices 1 2 3 4 5 6 
#
# 1 111.1609 26.3067 23.6556 -8.7273 -36.4763 -3.1270
# 2 26.3067 94.7005 13.7837 -11.2367 -8.6720 -10.9238
# 3 23.6556 13.7837 58.6375 -12.1129 -14.6901 1.8223
# 4 -8.7273 -11.2367 -12.1129 32.5106 -2.2949 -4.5641
# 5 -36.4763 -8.6720 -14.6901 -2.2949 33.8686 1.1864
# 6 -3.1270 -10.9238 1.8223 -4.5641 1.1864 24.4504
#
#
#
# Elastic Compliance Matrix: (Units=1/GPa)
#
#
# Indices 1 2 3 4 5 6 
#
# 1 0.015185 -0.002006 -0.000856 0.004336 0.015723 0.001156
# 2 -0.002006 0.012581 -0.001330 0.004227 0.000552 0.006226
# 3 -0.000856 -0.001330 0.021519 0.007759 0.008642 -0.001278
# 4 0.004336 0.004227 0.007759 0.038268 0.011415 0.008454
# 5 0.015723 0.000552 0.008642 0.011415 0.051078 0.001266
# 6 0.001156 0.006226 -0.001278 0.008454 0.001266 0.045440
#
#
# Mechanical properties :
#
#
# Convention : Reuss Voigt Hill
#
# Bulk Modulus (GPa) = 24.44870 43.55453 34.00162
# Shear Modulus (GPa) = 24.26140 31.54946 27.90543
#
# Velocity S-wave (km/s) = 3.36604 3.83846 3.60999
# Velocity P-wave (km/s) = 5.15021 6.32339 5.76671
#
# Compressibility (1/GPa) = 0.04090197
#
# Stress axis : x y z
#
# Youngs Moduli (GPa) = 65.85430 79.48669 46.46986
#
# Poissons Ratio (x) = 0.15945 0.03976
# Poissons Ratio (y) = 0.13210 0.06180
# Poissons Ratio (z) = 0.05635 0.10571
#
# Static dielectric constant tensor:
#      x y z
#    x 3.648960 -0.172950 -0.404700 
#    y -0.172950 3.904410 -0.026040 
#    z -0.404700 -0.026040 3.558560 
# 
# 
# High freq. dielectric constant tensor:
#      x y z
#    x 1.847780 -0.016750 -0.019260 
#    y -0.016750 1.825810 -0.010170 
#    z -0.019260 -0.010170 1.822590 
# 
# From -- ./inp_files/214379.got.cif
#   From: 2010.06.25/outbox.cif.g09.slc.cpg/sg2_108_cif.got.tgz:214379.got - 2010.06.27 13:26:56.
