data_PCOD8001136
_publ_section_title
;
Structure prediction by ZEFSAII (Michael W. Deem and Ramdas Pophale) SiO2 
 PCOD8001136
Probable space group: P -1
;
_chemical_formula_sum "Si O2"
_cell_formula_units_Z 16
_cell_length_a 13.173088
_cell_length_b 9.936337
_cell_length_c 19.042701
_cell_angle_alpha 135.329473
_cell_angle_beta 27.668476
_cell_angle_gamma 131.963627
_cell_volume 807.929140
_symmetry_space_group_name_H-M "P -1"
_symmetry_group_IT_number 2
_symmetry_cell_setting 'triclinic'
loop_
_space_group_symop_operation_xyz
x,y,z
-x,-y,-z
loop_
_atom_site_type_symbol
_atom_site_label
_atom_site_fract_x
_atom_site_fract_y
_atom_site_fract_z
Si Si1 0.947812 0.567582 0.227038
Si Si2 0.703682 0.879306 0.828984
Si Si3 0.404653 0.505358 0.868694
Si Si4 0.886129 0.049927 0.301687
Si Si5 0.274001 0.747063 0.649879
Si Si6 0.044582 0.015539 0.559770
Si Si7 0.579167 0.114425 0.638899
Si Si8 0.320361 0.375601 0.720664
O O1 0.862362 0.389990 0.262482
O O2 0.831878 0.536409 0.210808
O O3 0.895597 0.766828 0.367762
O O4 0.207948 0.574190 0.060164
O O5 0.621679 0.654054 0.803808
O O6 0.870043 0.945953 0.815015
O O7 0.827090 0.913235 0.692181
O O8 0.500000 0.000000 0.000000
O O9 0.453322 0.300492 0.792839
O O10 0.343923 0.507996 0.824323
O O11 0.897597 0.175252 0.270483
O O12 0.717979 0.135117 0.489553
O O13 0.788908 0.832401 0.263182
O O14 0.441722 0.629719 0.461604
O O15 0.403231 0.925660 0.678273
O O16 0.000000 0.000000 0.500000
O O17 0.252601 0.900665 0.405603
#
# Coordination Sequence:
#
# PCOD8001136 Si02
#       8
#     2   2   2   2   2   2   2   2
#     4  12  25  40  63 101 136 162 214 277 318 378
#     4  11  23  44  65  91 132 173 216 267 319 381
#     4  12  24  40  68  97 128 169 219 263 324 380
#     4  10  19  41  69  90 129 173 219 259 312 389
#     4  11  21  39  68  95 131 167 215 266 327 370
#     4  11  25  43  65  93 131 173 218 264 321 386
#     4  10  21  42  66  93 128 168 219 266 308 395
#     4  11  20  42  69  94 124 175 218 258 315 392
#
# _framework density 19.803716999999999
#
# number of rings (size 3 to 8) (size 9 to 14) (size 15 to 20)
#    0.000    1.000    7.500    1.500    1.750    3.500 
#    2.250    1.250    0.000    0.000    0.000    0.000 
#    0.000    0.000    0.000    0.000    0.000    0.000 
#
# Total GULP energy -198467.705067 kJ/mol
# GULP energy per Si atom -12404.231567 kJ/mol
# Density = 1.975864 g / cm^3
# Si number density = 19.803717 Si / 1000 Ang^3
#
#
#
# Elastic Constant Matrix: (Units=GPa)
#
#
# Indices 1 2 3 4 5 6 
#
# 1 103.9292 23.4721 36.0888 -6.9772 -8.8346 -14.6734
# 2 23.4721 86.4801 25.8771 -18.8732 4.2342 -13.0038
# 3 36.0888 25.8771 72.5160 -7.3854 -13.7356 -3.8124
# 4 -6.9772 -18.8732 -7.3854 29.8139 0.7732 -0.0926
# 5 -8.8346 4.2342 -13.7356 0.7732 24.6136 1.3200
# 6 -14.6734 -13.0038 -3.8124 -0.0926 1.3200 38.3506
#
#
#
# Elastic Compliance Matrix: (Units=1/GPa)
#
#
# Indices 1 2 3 4 5 6 
#
# 1 0.012404 -0.001123 -0.005196 0.000877 0.001514 0.003798
# 2 -0.001123 0.016551 -0.005464 0.009053 -0.006847 0.004896
# 3 -0.005196 -0.005464 0.020197 0.000050 0.010462 -0.002193
# 4 0.000877 0.009053 0.000050 0.039570 -0.002651 0.003597
# 5 0.001514 -0.006847 0.010462 -0.002651 0.048398 -0.002374
# 6 0.003798 0.004896 -0.002193 0.003597 -0.002374 0.029061
#
#
# Mechanical properties :
#
#
# Convention : Reuss Voigt Hill
#
# Bulk Modulus (GPa) = 39.08700 48.20015 43.64358
# Shear Modulus (GPa) = 25.21717 30.38810 27.80264
#
# Velocity S-wave (km/s) = 3.57228 3.92147 3.75094
# Velocity P-wave (km/s) = 6.06589 6.70043 6.39104
#
# Compressibility (1/GPa) = 0.02558395
#
# Stress axis : x y z
#
# Youngs Moduli (GPa) = 80.61964 60.42075 49.51110
#
# Poissons Ratio (x) = 0.06787 0.25728
# Poissons Ratio (y) = 0.09056 0.27055
# Poissons Ratio (z) = 0.41892 0.33016
#
# Static dielectric constant tensor:
#      x y z
#    x 3.683110 0.020610 -0.186920 
#    y 0.020610 3.666150 -0.056810 
#    z -0.186920 -0.056810 3.493710 
# 
# 
# High freq. dielectric constant tensor:
#      x y z
#    x 1.775500 -0.003800 -0.016670 
#    y -0.003800 1.774650 -0.000570 
#    z -0.016670 -0.000570 1.762230 
# 
# From -- ./inp_files/222889.got.cif
#   From: 2010.06.25/outbox.cif.g09.slc.cpg/sg2_112_cif.got.tgz:222889.got - 2010.06.27 13:26:56.
