data_PCOD8001665
_publ_section_title
;
Structure prediction by ZEFSAII (Michael W. Deem and Ramdas Pophale) SiO2 
 PCOD8001665
Probable space group: P -1
;
_chemical_formula_sum "Si O2"
_cell_formula_units_Z 14
_cell_length_a 25.618738
_cell_length_b 25.121294
_cell_length_c 10.727987
_cell_angle_alpha 150.404877
_cell_angle_beta 149.473063
_cell_angle_gamma 11.039989
_cell_volume 650.647790
_symmetry_space_group_name_H-M "P -1"
_symmetry_group_IT_number 2
_symmetry_cell_setting 'triclinic'
loop_
_space_group_symop_operation_xyz
x,y,z
-x,-y,-z
loop_
_atom_site_type_symbol
_atom_site_label
_atom_site_fract_x
_atom_site_fract_y
_atom_site_fract_z
Si Si1 0.435551 0.687188 0.254448
Si Si2 0.343479 0.127968 0.312515
Si Si3 0.990120 0.235652 0.576462
Si Si4 0.798856 0.530736 0.020666
Si Si5 0.797964 0.958703 0.730607
Si Si6 0.230665 0.191450 0.827689
Si Si7 0.689378 0.600651 0.218755
O O1 0.278485 0.875556 0.189117
O O2 0.719299 0.478093 0.428263
O O3 0.212700 0.922437 0.386507
O O4 0.500000 0.500000 0.000000
O O5 0.290538 0.294448 0.477504
O O6 0.051624 0.363047 0.222470
O O7 0.500000 0.000000 0.500000
O O8 0.542930 0.848362 0.082339
O O9 0.168377 0.165467 0.755872
O O10 0.884551 0.353361 0.739924
O O11 0.723140 0.551830 0.040679
O O12 0.608259 0.153601 0.858454
O O13 0.767314 0.870562 0.426453
O O14 0.102114 0.674752 0.832595
O O15 0.000000 0.500000 0.000000
O O16 0.500000 0.000000 0.000000
#
# Coordination Sequence:
#
# PCOD8001665 Si02
#       7
#     2   2   2   2   2   2   2
#     4  11  24  47  71  89 114 155 214 277 322 374
#     4  10  20  34  51  82 122 178 218 223 272 347
#     4  11  24  41  64  95 121 160 215 250 319 376
#     4  11  22  37  58  87 128 168 206 250 290 360
#     4  11  23  38  59  90 118 158 215 245 313 368
#     4  11  23  37  54  84 127 168 194 246 298 352
#     4  11  21  36  57  87 127 166 205 247 288 361
#
# _framework density 21.517018
#
# number of rings (size 3 to 8) (size 9 to 14) (size 15 to 20)
#    0.000    1.143    0.000    9.857    6.000    0.000 
#    0.000    0.000    0.000    5.143    0.000    0.000 
#    0.000    0.000    0.000    0.000    0.000    0.000 
#
# Total GULP energy -173491.154363 kJ/mol
# GULP energy per Si atom -12392.225312 kJ/mol
# Density = 2.146804 g / cm^3
# Si number density = 21.517018 Si / 1000 Ang^3
#
#
#
# Elastic Constant Matrix: (Units=GPa)
#
#
# Indices 1 2 3 4 5 6 
#
# 1 92.7447 43.9706 49.3761 20.1590 -12.3339 -3.5610
# 2 43.9706 139.4796 38.6606 24.3044 -0.3702 -2.7477
# 3 49.3761 38.6606 81.6010 31.1595 -2.5148 1.7700
# 4 20.1590 24.3044 31.1595 43.5095 -4.3031 -3.1419
# 5 -12.3339 -0.3702 -2.5148 -4.3031 25.9532 10.8599
# 6 -3.5610 -2.7477 1.7700 -3.1419 10.8599 41.0490
#
#
#
# Elastic Compliance Matrix: (Units=1/GPa)
#
#
# Indices 1 2 3 4 5 6 
#
# 1 0.018305 -0.003252 -0.009682 0.001041 0.007991 -0.000247
# 2 -0.003252 0.009062 -0.001363 -0.002753 -0.002336 0.000790
# 3 -0.009682 -0.001363 0.023225 -0.011873 -0.003542 -0.001904
# 4 0.001041 -0.002753 -0.011873 0.033073 0.003997 0.001892
# 5 0.007991 -0.002336 -0.003542 0.003997 0.047451 -0.011558
# 6 -0.000247 0.000790 -0.001904 0.001892 -0.011558 0.027677
#
#
# Mechanical properties :
#
#
# Convention : Reuss Voigt Hill
#
# Bulk Modulus (GPa) = 45.45999 64.20443 54.83221
# Shear Modulus (GPa) = 25.67778 34.22354 29.95066
#
# Velocity S-wave (km/s) = 3.45827 3.99248 3.73494
# Velocity P-wave (km/s) = 6.09258 7.15240 6.64366
#
# Compressibility (1/GPa) = 0.02199736
#
# Stress axis : x y z
#
# Youngs Moduli (GPa) = 54.62847 110.35487 43.05728
#
# Poissons Ratio (x) = 0.35891 0.41687
# Poissons Ratio (y) = 0.17767 0.05870
# Poissons Ratio (z) = 0.52890 0.15045
#
# Static dielectric constant tensor:
#      x y z
#    x 3.689150 -0.149600 -0.240020 
#    y -0.149600 4.592350 0.475210 
#    z -0.240020 0.475210 3.921470 
# 
# 
# High freq. dielectric constant tensor:
#      x y z
#    x 1.826770 -0.011330 -0.020350 
#    y -0.011330 1.882020 0.012580 
#    z -0.020350 0.012580 1.804110 
# 
# From -- ./inp_files/477237.got.cif
#   From: 2010.06.25/outbox.cif.g09.slc.cpg/sg2_239_cif.got.tgz:477237.got - 2010.06.27 13:26:56.
