data_PCOD8001587
_publ_section_title
;
Structure prediction by ZEFSAII (Michael W. Deem and Ramdas Pophale) SiO2 
 PCOD8001587
Probable space group: P -1
;
_chemical_formula_sum "Si O2"
_cell_formula_units_Z 16
_cell_length_a 8.247151
_cell_length_b 16.397485
_cell_length_c 20.831667
_cell_angle_alpha 25.455695
_cell_angle_beta 82.431108
_cell_angle_gamma 64.268552
_cell_volume 807.529123
_symmetry_space_group_name_H-M "P -1"
_symmetry_group_IT_number 2
_symmetry_cell_setting 'triclinic'
loop_
_space_group_symop_operation_xyz
x,y,z
-x,-y,-z
loop_
_atom_site_type_symbol
_atom_site_label
_atom_site_fract_x
_atom_site_fract_y
_atom_site_fract_z
Si Si1 0.283175 0.100444 0.689993
Si Si2 0.116469 0.287535 0.950680
Si Si3 0.658185 0.319067 0.183153
Si Si4 0.394255 0.325759 0.607084
Si Si5 0.834703 0.573073 0.015817
Si Si6 0.259159 0.708066 0.452640
Si Si7 0.806613 0.236974 0.040546
Si Si8 0.990249 0.299904 0.436610
O O1 0.219446 0.327418 0.579595
O O2 0.109986 0.266068 0.520454
O O3 0.252889 0.931846 0.852947
O O4 0.559087 0.885724 0.801843
O O5 0.055840 0.443717 0.910543
O O6 0.091920 0.454959 0.775392
O O7 0.930485 0.271019 0.957842
O O8 0.387335 0.972407 0.157273
O O9 0.826127 0.351232 0.173125
O O10 0.824525 0.991924 0.403763
O O11 0.500000 0.500000 0.000000
O O12 0.449190 0.446494 0.154496
O O13 0.236731 0.575408 0.489424
O O14 0.499296 0.377296 0.509773
O O15 0.000000 0.500000 0.000000
O O16 0.251766 0.610575 0.591653
O O17 0.013027 0.049904 0.219825
#
# Coordination Sequence:
#
# PCOD8001587 Si02
#       8
#     2   2   2   2   2   2   2   2
#     4   9  19  34  56  79 102 141 186 217 260 322
#     4  10  22  36  52  82 113 139 179 224 274 313
#     4  11  18  34  54  77 108 142 182 218 258 323
#     4   9  19  37  59  82 104 139 189 220 257 328
#     4  10  20  33  57  76 103 148 184 217 260 319
#     4   9  18  35  61  79 104 144 182 221 266 315
#     4   9  18  34  53  74 107 145 177 216 256 320
#     4  11  22  34  54  83 112 142 173 226 278 311
#
# _framework density 19.813526
#
# number of rings (size 3 to 8) (size 9 to 14) (size 15 to 20)
#    0.000    2.250    3.750    0.750    3.500    3.500 
#    0.000    3.750    0.000    7.500    0.000    0.000 
#    0.000    0.000    0.000    0.000    0.000    0.000 
#
# Total GULP energy -198210.543977 kJ/mol
# GULP energy per Si atom -12388.158999 kJ/mol
# Density = 1.976843 g / cm^3
# Si number density = 19.813526 Si / 1000 Ang^3
#
#
#
# Elastic Constant Matrix: (Units=GPa)
#
#
# Indices 1 2 3 4 5 6 
#
# 1 79.2110 40.5179 29.7931 1.3223 -15.7407 -1.8967
# 2 40.5179 68.7486 42.5819 1.1641 -10.7824 -13.5377
# 3 29.7931 42.5819 88.4908 10.8103 -20.1856 -12.1432
# 4 1.3223 1.1641 10.8103 25.4451 -8.2419 -8.0457
# 5 -15.7407 -10.7824 -20.1856 -8.2419 24.6617 -0.3907
# 6 -1.8967 -13.5377 -12.1432 -8.0457 -0.3907 38.2651
#
#
#
# Elastic Compliance Matrix: (Units=1/GPa)
#
#
# Indices 1 2 3 4 5 6 
#
# 1 0.019734 -0.010807 -0.000078 0.001378 0.008228 -0.002496
# 2 -0.010807 0.028248 -0.009720 0.005623 -0.000504 0.007551
# 3 -0.000078 -0.009720 0.019015 -0.003780 0.010031 0.001899
# 4 0.001378 0.005623 -0.003780 0.049731 0.017046 0.011489
# 5 0.008228 -0.000504 0.010031 0.017046 0.059607 0.007605
# 6 -0.002496 0.007551 0.001899 0.011489 0.007605 0.031777
#
#
# Mechanical properties :
#
#
# Convention : Reuss Voigt Hill
#
# Bulk Modulus (GPa) = 38.77954 51.35960 45.06957
# Shear Modulus (GPa) = 19.38605 25.91157 22.64881
#
# Velocity S-wave (km/s) = 3.13137 3.62024 3.38464
# Velocity P-wave (km/s) = 5.71741 6.59186 6.17014
#
# Compressibility (1/GPa) = 0.02578680
#
# Stress axis : x y z
#
# Youngs Moduli (GPa) = 50.67444 35.40078 52.59058
#
# Poissons Ratio (x) = 0.38256 0.00409
# Poissons Ratio (y) = 0.54762 0.51120
# Poissons Ratio (z) = 0.00395 0.34411
#
# Static dielectric constant tensor:
#      x y z
#    x 3.999310 -0.133860 -0.221530 
#    y -0.133860 3.703740 -0.363260 
#    z -0.221530 -0.363260 3.364670 
# 
# 
# High freq. dielectric constant tensor:
#      x y z
#    x 1.788860 -0.017850 -0.017320 
#    y -0.017850 1.757100 -0.032610 
#    z -0.017320 -0.032610 1.738820 
# 
# From -- ./inp_files/196943.got.cif
#   From: 2010.06.25/outbox.cif.g09.slc.cpg/sg2_99_cif.got.tgz:196943.got - 2010.06.27 13:26:56.
