data_PCOD8001191
_publ_section_title
;
Structure prediction by ZEFSAII (Michael W. Deem and Ramdas Pophale) SiO2 
 PCOD8001191
Probable space group: P -1
;
_chemical_formula_sum "Si O2"
_cell_formula_units_Z 16
_cell_length_a 9.386073
_cell_length_b 17.804072
_cell_length_c 9.064867
_cell_angle_alpha 142.454342
_cell_angle_beta 108.127730
_cell_angle_gamma 61.232772
_cell_volume 802.133734
_symmetry_space_group_name_H-M "P -1"
_symmetry_group_IT_number 2
_symmetry_cell_setting 'triclinic'
loop_
_space_group_symop_operation_xyz
x,y,z
-x,-y,-z
loop_
_atom_site_type_symbol
_atom_site_label
_atom_site_fract_x
_atom_site_fract_y
_atom_site_fract_z
Si Si1 0.482852 0.443753 0.063911
Si Si2 0.775487 0.388641 0.291929
Si Si3 0.118864 0.183881 0.991279
Si Si4 0.049620 0.966005 0.797127
Si Si5 0.627732 0.697599 0.778486
Si Si6 0.226768 0.056886 0.521191
Si Si7 0.553428 0.802832 0.246952
Si Si8 0.694875 0.298768 0.427771
O O1 0.651405 0.390535 0.126549
O O2 0.340202 0.557771 0.287309
O O3 0.500000 0.500000 0.000000
O O4 0.428366 0.320058 0.830289
O O5 0.741094 0.538007 0.570871
O O6 0.762312 0.297901 0.283013
O O7 0.955994 0.318152 0.173181
O O8 0.120989 0.135866 0.749416
O O9 0.131640 0.063062 0.914821
O O10 0.272603 0.221516 0.131944
O O11 0.180061 0.811893 0.595770
O O12 0.888869 0.985895 0.684623
O O13 0.000000 0.000000 0.000000
O O14 0.471551 0.725890 0.668610
O O15 0.561765 0.752442 0.003864
O O16 0.297912 0.151566 0.602781
O O17 0.380082 0.923987 0.415575
#
# Coordination Sequence:
#
# PCOD8001191 Si02
#       8
#     2   2   2   2   2   2   2   2
#     4  11  23  37  64  93 120 163 207 253 301 357
#     4  11  20  42  65  90 124 163 205 243 308 368
#     4  11  24  39  65  91 124 160 202 259 301 363
#     4  12  24  41  59  92 125 158 204 249 310 365
#     4  10  20  41  65  91 115 166 211 244 299 360
#     4  10  24  40  65  90 120 165 203 254 307 362
#     4  10  19  42  65  87 123 162 207 249 307 362
#     4  11  22  40  65  87 126 167 200 246 301 375
#
# _framework density 19.946798000000001
#
# number of rings (size 3 to 8) (size 9 to 14) (size 15 to 20)
#    0.000    1.250    3.750    3.000    3.500    0.500 
#    4.500    0.625    0.000    0.000    0.000    0.000 
#    0.000    0.000    0.000    0.000    0.000    0.000 
#
# Total GULP energy -198441.164129 kJ/mol
# GULP energy per Si atom -12402.572758 kJ/mol
# Density = 1.990140 g / cm^3
# Si number density = 19.946798 Si / 1000 Ang^3
#
#
#
# Elastic Constant Matrix: (Units=GPa)
#
#
# Indices 1 2 3 4 5 6 
#
# 1 110.5734 41.1267 42.1543 9.3633 0.2117 17.6356
# 2 41.1267 83.7093 12.6263 13.0290 9.4213 20.9429
# 3 42.1543 12.6263 81.6628 10.8123 0.8686 10.0656
# 4 9.3633 13.0290 10.8123 31.8878 7.6422 1.0278
# 5 0.2117 9.4213 0.8686 7.6422 42.9534 11.8703
# 6 17.6356 20.9429 10.0656 1.0278 11.8703 30.1759
#
#
#
# Elastic Compliance Matrix: (Units=1/GPa)
#
#
# Indices 1 2 3 4 5 6 
#
# 1 0.013789 -0.005259 -0.005880 -0.000321 0.002171 -0.003291
# 2 -0.005259 0.017554 0.001959 -0.005942 -0.000185 -0.009488
# 3 -0.005880 0.001959 0.016017 -0.004650 0.001079 -0.003532
# 4 -0.000321 -0.005942 -0.004650 0.036952 -0.007234 0.007449
# 5 0.002171 -0.000185 0.001079 -0.007234 0.027962 -0.012253
# 6 -0.003291 -0.009488 -0.003532 0.007449 -0.012253 0.047391
#
#
# Mechanical properties :
#
#
# Convention : Reuss Voigt Hill
#
# Bulk Modulus (GPa) = 34.48279 51.97336 43.22807
# Shear Modulus (GPa) = 26.63924 33.00597 29.82261
#
# Velocity S-wave (km/s) = 3.65843 4.07221 3.87086
# Velocity P-wave (km/s) = 5.93047 6.94429 6.45730
#
# Compressibility (1/GPa) = 0.02899998
#
# Stress axis : x y z
#
# Youngs Moduli (GPa) = 72.52034 56.96795 62.43250
#
# Poissons Ratio (x) = 0.29959 0.36710
# Poissons Ratio (y) = 0.38138 -0.12229
# Poissons Ratio (z) = 0.42641 -0.11159
#
# Static dielectric constant tensor:
#      x y z
#    x 3.780760 0.054910 -0.011670 
#    y 0.054910 3.733230 0.258490 
#    z -0.011670 0.258490 3.905420 
# 
# 
# High freq. dielectric constant tensor:
#      x y z
#    x 1.783970 0.009940 -0.006970 
#    y 0.009940 1.758060 0.015610 
#    z -0.006970 0.015610 1.796430 
# 
# From -- ./inp_files/176117.got.cif
#   From: 2010.06.25/outbox.cif.g09.slc.cpg/sg2_89_cif.got.tgz:176117.got - 2010.06.27 13:26:56.
