data_PCOD8001448
_publ_section_title
;
Structure prediction by ZEFSAII (Michael W. Deem and Ramdas Pophale) SiO2 
 PCOD8001448
Probable space group: P -1
;
_chemical_formula_sum "Si O2"
_cell_formula_units_Z 14
_cell_length_a 12.007954
_cell_length_b 15.414034
_cell_length_c 13.179805
_cell_angle_alpha 141.659026
_cell_angle_beta 74.530015
_cell_angle_gamma 136.690143
_cell_volume 726.353445
_symmetry_space_group_name_H-M "P -1"
_symmetry_group_IT_number 2
_symmetry_cell_setting 'triclinic'
loop_
_space_group_symop_operation_xyz
x,y,z
-x,-y,-z
loop_
_atom_site_type_symbol
_atom_site_label
_atom_site_fract_x
_atom_site_fract_y
_atom_site_fract_z
Si Si1 0.625791 0.664043 0.724698
Si Si2 0.672630 0.756650 0.116107
Si Si3 0.724930 0.069850 0.507777
Si Si4 0.916751 0.125635 0.684738
Si Si5 0.689985 0.586678 0.268228
Si Si6 0.138076 0.261976 0.095867
Si Si7 0.798730 0.452130 0.816247
O O1 0.500000 0.500000 0.500000
O O2 0.433365 0.564153 0.731062
O O3 0.685037 0.594478 0.723295
O O4 0.873980 0.998004 0.955328
O O5 0.819455 0.032136 0.389378
O O6 0.500000 0.500000 0.000000
O O7 0.516882 0.666820 0.989055
O O8 0.847931 0.832649 0.089018
O O9 0.756586 0.077176 0.628217
O O10 0.858733 0.350256 0.697365
O O11 0.452247 0.797123 0.299808
O O12 0.107249 0.304705 0.713069
O O13 0.774033 0.835172 0.469149
O O14 0.015299 0.278672 0.908605
O O15 0.201342 0.479214 0.232746
#
# Coordination Sequence:
#
# PCOD8001448 Si02
#       7
#     2   2   2   2   2   2   2
#     4  10  21  35  55  84 104 142 185 233 267 319
#     4  11  17  35  56  86 111 140 180 229 271 327
#     4  11  22  33  55  84 118 146 177 216 281 330
#     4  11  20  34  56  87 113 144 176 227 276 328
#     4  10  20  32  57  86 111 135 184 233 276 311
#     4  10  21  36  57  79 111 142 184 226 274 315
#     4  11  22  37  53  85 117 146 175 224 275 336
#
# _framework density 19.274363999999998
#
# number of rings (size 3 to 8) (size 9 to 14) (size 15 to 20)
#    0.000    1.429    4.286    2.143    4.000    0.000 
#    0.000    0.000    0.000    8.571    0.000    0.000 
#    0.000    0.000    0.000    0.000    0.000    0.000 
#
# Total GULP energy -173437.371437 kJ/mol
# GULP energy per Si atom -12388.383674 kJ/mol
# Density = 1.923050 g / cm^3
# Si number density = 19.274364 Si / 1000 Ang^3
#
#
#
# Elastic Constant Matrix: (Units=GPa)
#
#
# Indices 1 2 3 4 5 6 
#
# 1 56.7008 14.0754 31.9223 -7.4648 -13.4675 -17.9849
# 2 14.0754 102.9357 18.9277 -8.2669 -6.1961 3.9216
# 3 31.9223 18.9277 74.9322 -10.8903 4.9873 -16.7434
# 4 -7.4648 -8.2669 -10.8903 24.7771 -5.9965 9.4733
# 5 -13.4675 -6.1961 4.9873 -5.9965 34.6248 2.9574
# 6 -17.9849 3.9216 -16.7434 9.4733 2.9574 34.4016
#
#
#
# Elastic Compliance Matrix: (Units=1/GPa)
#
#
# Indices 1 2 3 4 5 6 
#
# 1 0.030558 -0.001370 -0.011084 0.003789 0.013162 0.008562
# 2 -0.001370 0.011185 -0.002872 0.004706 0.003120 -0.004953
# 3 -0.011084 -0.002872 0.020574 0.000884 -0.008062 0.004996
# 4 0.003789 0.004706 0.000884 0.051539 0.012256 -0.013371
# 5 0.013162 0.003120 -0.008062 0.012256 0.038189 -0.004057
# 6 0.008562 -0.004953 0.004996 -0.013371 -0.004057 0.040572
#
#
# Mechanical properties :
#
#
# Convention : Reuss Voigt Hill
#
# Bulk Modulus (GPa) = 31.58142 40.49105 36.03624
# Shear Modulus (GPa) = 21.38365 30.07026 25.72695
#
# Velocity S-wave (km/s) = 3.33443 3.95412 3.65742
# Velocity P-wave (km/s) = 5.58975 6.47302 6.04754
#
# Compressibility (1/GPa) = 0.03166419
#
# Stress axis : x y z
#
# Youngs Moduli (GPa) = 32.72497 89.40787 48.60416
#
# Poissons Ratio (x) = 0.12248 0.53874
# Poissons Ratio (y) = 0.04483 0.13960
# Poissons Ratio (z) = 0.36273 0.25680
#
# Static dielectric constant tensor:
#      x y z
#    x 3.590440 0.002260 0.189820 
#    y 0.002260 3.552000 -0.021670 
#    z 0.189820 -0.021670 3.552570 
# 
# 
# High freq. dielectric constant tensor:
#      x y z
#    x 1.737920 -0.003810 0.029870 
#    y -0.003810 1.735780 -0.005660 
#    z 0.029870 -0.005660 1.744590 
# 
# From -- ./inp_files/251289.got.cif
#   From: 2010.06.25/outbox.cif.g09.slc.cpg/sg2_126_cif.got.tgz:251289.got - 2010.06.27 13:26:56.
