data_PCOD8001527
_publ_section_title
;
Structure prediction by ZEFSAII (Michael W. Deem and Ramdas Pophale) SiO2 
 PCOD8001527
Probable space group: P -1
;
_chemical_formula_sum "Si O2"
_cell_formula_units_Z 16
_cell_length_a 17.377670
_cell_length_b 11.581984
_cell_length_c 13.478315
_cell_angle_alpha 158.680457
_cell_angle_beta 57.936329
_cell_angle_gamma 119.894813
_cell_volume 835.759112
_symmetry_space_group_name_H-M "P -1"
_symmetry_group_IT_number 2
_symmetry_cell_setting 'triclinic'
loop_
_space_group_symop_operation_xyz
x,y,z
-x,-y,-z
loop_
_atom_site_type_symbol
_atom_site_label
_atom_site_fract_x
_atom_site_fract_y
_atom_site_fract_z
Si Si1 0.813329 0.252244 0.394657
Si Si2 0.926493 0.818217 0.085662
Si Si3 0.195423 0.088862 0.276902
Si Si4 0.609570 0.848566 0.755608
Si Si5 0.062495 0.711937 0.192065
Si Si6 0.041175 0.415748 0.552041
Si Si7 0.269320 0.113459 0.026346
Si Si8 0.441298 0.853123 0.772208
O O1 0.909574 0.444274 0.467763
O O2 0.742796 0.513426 0.690606
O O3 0.832444 0.986462 0.252061
O O4 0.777020 0.103022 0.198355
O O5 0.902095 0.508615 0.919320
O O6 0.992988 0.072878 0.296829
O O7 0.973254 0.686789 0.849392
O O8 0.150427 0.800062 0.137046
O O9 0.282406 0.190792 0.366367
O O10 0.119923 0.364779 0.541227
O O11 0.225668 0.010453 0.080017
O O12 0.550062 0.944708 0.774656
O O13 0.570873 0.507120 0.544319
O O14 0.593761 0.109799 0.060480
O O15 0.000000 0.000000 0.500000
O O16 0.000000 0.500000 0.000000
O O17 0.378764 0.067677 0.915657
#
# Coordination Sequence:
#
# PCOD8001527 Si02
#       8
#     2   2   2   2   2   2   2   2
#     4  11  22  33  52  75  99 132 173 209 259 297
#     4  12  22  37  49  72  97 138 174 216 245 294
#     4  10  20  35  52  76 102 135 175 199 261 294
#     4   9  18  28  50  74 105 131 158 204 241 329
#     4  12  24  38  53  70 101 141 178 214 248 292
#     4  11  20  33  52  70 102 127 171 215 258 292
#     4  10  20  33  54  76 104 132 161 214 254 316
#     4   9  16  31  47  77 105 129 156 194 270 300
#
# _framework density 19.144272999999998
#
# number of rings (size 3 to 8) (size 9 to 14) (size 15 to 20)
#    0.000    1.500    2.500    5.250    0.000    3.000 
#    0.000    0.000    0.000    0.000    0.000    1.750 
#    0.000    0.000    0.000    0.750    0.000    0.000 
#
# Total GULP energy -198208.831201 kJ/mol
# GULP energy per Si atom -12388.051950 kJ/mol
# Density = 1.910070 g / cm^3
# Si number density = 19.144273 Si / 1000 Ang^3
#
#
#
# Elastic Constant Matrix: (Units=GPa)
#
#
# Indices 1 2 3 4 5 6 
#
# 1 101.5999 14.3135 30.3074 15.4608 -10.7718 1.7257
# 2 14.3135 31.4699 6.1603 17.0448 -3.6329 -6.2656
# 3 30.3074 6.1603 109.2069 4.6480 -7.3308 -4.6453
# 4 15.4608 17.0448 4.6480 22.3390 -7.2037 -3.6598
# 5 -10.7718 -3.6329 -7.3308 -7.2037 39.3238 6.4471
# 6 1.7257 -6.2656 -4.6453 -3.6598 6.4471 17.2440
#
#
#
# Elastic Compliance Matrix: (Units=1/GPa)
#
#
# Indices 1 2 3 4 5 6 
#
# 1 0.012379 -0.002445 -0.003099 -0.006155 0.002301 -0.005129
# 2 -0.002445 0.057801 -0.000563 -0.041701 -0.005414 0.014268
# 3 -0.003099 -0.000563 0.010169 0.001161 0.000746 0.002812
# 4 -0.006155 -0.041701 0.001161 0.083815 0.010064 -0.000197
# 5 0.002301 -0.005414 0.000746 0.010064 0.029317 -0.010821
# 6 -0.005129 0.014268 0.002812 -0.000197 -0.010821 0.068450
#
#
# Mechanical properties :
#
#
# Convention : Reuss Voigt Hill
#
# Bulk Modulus (GPa) = 14.67717 38.20435 26.44076
# Shear Modulus (GPa) = 16.84301 28.54773 22.69537
#
# Velocity S-wave (km/s) = 2.96935 3.86578 3.44683
# Velocity P-wave (km/s) = 4.40900 6.31863 5.44813
#
# Compressibility (1/GPa) = 0.06813304
#
# Stress axis : x y z
#
# Youngs Moduli (GPa) = 80.78009 17.30070 98.33635
#
# Poissons Ratio (x) = 0.04231 0.30478
# Poissons Ratio (y) = 0.19754 0.05541
# Poissons Ratio (z) = 0.25037 0.00975
#
# Static dielectric constant tensor:
#      x y z
#    x 4.005010 0.004210 -0.236130 
#    y 0.004210 2.930560 -0.045790 
#    z -0.236130 -0.045790 3.624210 
# 
# 
# High freq. dielectric constant tensor:
#      x y z
#    x 1.764130 -0.008900 -0.007230 
#    y -0.008900 1.662760 -0.003260 
#    z -0.007230 -0.003260 1.765130 
# 
# From -- ./inp_files/538123.got.cif
#   From: 2010.06.25/outbox.cif.g09.slc.cpg/sg2_270_cif.got.tgz:538123.got - 2010.06.27 13:26:56.
