data_PCOD8001450
_publ_section_title
;
Structure prediction by ZEFSAII (Michael W. Deem and Ramdas Pophale) SiO2 
 PCOD8001450
Probable space group: P -1
;
_chemical_formula_sum "Si O2"
_cell_formula_units_Z 16
_cell_length_a 9.339244
_cell_length_b 8.400984
_cell_length_c 16.144324
_cell_angle_alpha 68.253440
_cell_angle_beta 48.033102
_cell_angle_gamma 75.755366
_cell_volume 874.775804
_symmetry_space_group_name_H-M "P -1"
_symmetry_group_IT_number 2
_symmetry_cell_setting 'triclinic'
loop_
_space_group_symop_operation_xyz
x,y,z
-x,-y,-z
loop_
_atom_site_type_symbol
_atom_site_label
_atom_site_fract_x
_atom_site_fract_y
_atom_site_fract_z
Si Si1 0.531713 0.918742 0.376607
Si Si2 0.790161 0.058073 0.378946
Si Si3 0.808149 0.690368 0.396225
Si Si4 0.534292 0.810522 0.051613
Si Si5 0.809726 0.784417 0.810716
Si Si6 0.781525 0.457546 0.773810
Si Si7 0.401261 0.898106 0.254280
Si Si8 0.777691 0.455113 0.593425
O O1 0.319075 0.896123 0.502380
O O2 0.655046 0.742382 0.373860
O O3 0.518713 0.965338 0.275737
O O4 0.641292 0.071393 0.355623
O O5 0.961616 0.192851 0.274763
O O6 0.872416 0.863197 0.387796
O O7 0.692676 0.565408 0.528884
O O8 0.997264 0.605026 0.300356
O O9 0.354669 0.695620 0.111576
O O10 0.549048 0.815822 0.145327
O O11 0.728800 0.750783 0.941425
O O12 0.500000 0.000000 0.000000
O O13 0.757979 0.618716 0.810181
O O14 0.718768 0.949038 0.769238
O O15 0.702091 0.509202 0.703190
O O16 0.258812 0.746625 0.369311
O O17 0.000000 0.500000 0.500000
#
# Coordination Sequence:
#
# PCOD8001450 Si02
#       8
#     2   2   2   2   2   2   2   2
#     4   9  21  36  56  79 115 147 185 216 274 331
#     4   9  20  37  53  80 112 149 177 221 271 326
#     4   9  18  36  52  75 120 144 176 217 279 327
#     4   9  19  38  58  81 108 139 183 238 271 312
#     4  11  21  34  61  80 109 142 187 233 270 317
#     4  10  20  32  57  88 107 140 183 228 274 321
#     4  10  21  36  56  81 108 146 189 220 279 321
#     4   9  18  31  49  82 111 140 177 224 267 321
#
# _framework density 18.290402
#
# number of rings (size 3 to 8) (size 9 to 14) (size 15 to 20)
#    0.750    1.750    0.000    3.375    5.250    1.000 
#    0.000    0.625    0.000    0.750    0.000    0.000 
#    0.000    0.000    0.000    0.000    0.000    0.000 
#
# Total GULP energy -198210.379699 kJ/mol
# GULP energy per Si atom -12388.148731 kJ/mol
# Density = 1.824877 g / cm^3
# Si number density = 18.290402 Si / 1000 Ang^3
#
#
#
# Elastic Constant Matrix: (Units=GPa)
#
#
# Indices 1 2 3 4 5 6 
#
# 1 74.4259 17.9907 48.5382 6.5052 8.0043 10.2797
# 2 17.9907 76.3213 42.2224 -0.3813 -2.7151 18.6690
# 3 48.5382 42.2224 118.5930 4.8922 -5.6443 12.5305
# 4 6.5052 -0.3813 4.8922 34.2247 4.2059 -1.2521
# 5 8.0043 -2.7151 -5.6443 4.2059 23.5901 2.9197
# 6 10.2797 18.6690 12.5305 -1.2521 2.9197 27.9404
#
#
#
# Elastic Compliance Matrix: (Units=1/GPa)
#
#
# Indices 1 2 3 4 5 6 
#
# 1 0.020310 0.000340 -0.008416 -0.001766 -0.008161 -0.003152
# 2 0.000340 0.018732 -0.005644 0.000340 0.001903 -0.010294
# 3 -0.008416 -0.005644 0.014235 -0.001224 0.005853 -0.000183
# 4 -0.001766 0.000340 -0.001224 0.030510 -0.005454 0.002908
# 5 -0.008161 0.001903 0.005853 -0.005454 0.048520 -0.006209
# 6 -0.003152 -0.010294 -0.000183 0.002908 -0.006209 0.044689
#
#
# Mechanical properties :
#
#
# Convention : Reuss Voigt Hill
#
# Bulk Modulus (GPa) = 38.70507 54.09364 46.39935
# Shear Modulus (GPa) = 23.46887 27.85699 25.66293
#
# Velocity S-wave (km/s) = 3.58596 3.90685 3.74984
# Velocity P-wave (km/s) = 6.19297 7.07039 6.64617
#
# Compressibility (1/GPa) = 0.02583641
#
# Stress axis : x y z
#
# Youngs Moduli (GPa) = 49.23659 53.38410 70.25095
#
# Poissons Ratio (x) = -0.01816 0.59125
# Poissons Ratio (y) = -0.01675 0.39651
# Poissons Ratio (z) = 0.41439 0.30131
#
# Static dielectric constant tensor:
#      x y z
#    x 3.188430 0.017120 0.223960 
#    y 0.017120 3.370850 -0.060780 
#    z 0.223960 -0.060780 3.991910 
# 
# 
# High freq. dielectric constant tensor:
#      x y z
#    x 1.680990 0.014400 0.000890 
#    y 0.014400 1.704670 0.001560 
#    z 0.000890 0.001560 1.709490 
# 
# From -- ./inp_files/494598.got.cif
#   From: 2010.06.25/outbox.cif.g09.slc.cpg/sg2_248_cif.got.tgz:494598.got - 2010.06.27 13:26:56.
