data_PCOD8001873
_publ_section_title
;
Structure prediction by ZEFSAII (Michael W. Deem and Ramdas Pophale) SiO2 
 PCOD8001873
Probable space group: P -1
;
_chemical_formula_sum "Si O2"
_cell_formula_units_Z 16
_cell_length_a 15.420622
_cell_length_b 11.087657
_cell_length_c 10.314896
_cell_angle_alpha 38.159080
_cell_angle_beta 135.414833
_cell_angle_gamma 128.338636
_cell_volume 757.471960
_symmetry_space_group_name_H-M "P -1"
_symmetry_group_IT_number 2
_symmetry_cell_setting 'triclinic'
loop_
_space_group_symop_operation_xyz
x,y,z
-x,-y,-z
loop_
_atom_site_type_symbol
_atom_site_label
_atom_site_fract_x
_atom_site_fract_y
_atom_site_fract_z
Si Si1 0.727767 0.031953 0.083340
Si Si2 0.391416 0.866949 0.637461
Si Si3 0.022224 0.949158 0.795544
Si Si4 0.198372 0.837714 0.682323
Si Si5 0.860031 0.680133 0.252085
Si Si6 0.393582 0.342863 0.857304
Si Si7 0.039320 0.445883 0.790883
Si Si8 0.595075 0.220202 0.560016
O O1 0.647408 0.817040 0.163647
O O2 0.874808 0.020182 0.234285
O O3 0.707465 0.111691 0.139131
O O4 0.687644 0.179722 0.807556
O O5 0.272693 0.830764 0.633734
O O6 0.344791 0.835641 0.465890
O O7 0.460871 0.087991 0.546428
O O8 0.483994 0.706245 0.897684
O O9 0.890147 0.993072 0.563805
O O10 0.068142 0.100840 0.832023
O O11 0.009094 0.724397 0.016818
O O12 0.117790 0.625444 0.800170
O O13 0.714610 0.663700 0.144931
O O14 0.871287 0.636300 0.149828
O O15 0.919026 0.518378 0.535913
O O16 0.424532 0.553096 0.644114
#
# Coordination Sequence:
#
# PCOD8001873 Si02
#       8
#     2   2   2   2   2   2   2   2
#     4  10  23  40  58  84 115 149 189 233 280 336
#     4  10  23  39  58  87 114 144 190 239 279 328
#     4  10  21  36  58  82 112 152 190 228 280 338
#     4  11  24  39  55  84 122 149 185 235 279 333
#     4   9  19  35  56  89 118 142 186 239 281 328
#     4  10  20  37  61  82 113 152 187 230 283 334
#     4  10  20  34  58  86 116 150 185 231 285 333
#     4  10  21  39  63  84 109 148 192 233 279 336
#
# _framework density 21.122895
#
# number of rings (size 3 to 8) (size 9 to 14) (size 15 to 20)
#    0.000    2.000    0.000    2.625    0.000   10.500 
#    0.000    1.250    0.000    0.000    0.000    0.000 
#    0.000    0.000    0.000    0.000    0.000    0.000 
#
# Total GULP energy -198473.692613 kJ/mol
# GULP energy per Si atom -12404.605788 kJ/mol
# Density = 2.107482 g / cm^3
# Si number density = 21.122895 Si / 1000 Ang^3
#
#
#
# Elastic Constant Matrix: (Units=GPa)
#
#
# Indices 1 2 3 4 5 6 
#
# 1 41.0028 2.7007 18.8070 -1.2613 -0.0558 6.4285
# 2 2.7007 77.8520 43.0270 -20.8733 -6.8771 -0.3442
# 3 18.8070 43.0270 94.5652 -15.3100 -2.2320 6.1850
# 4 -1.2613 -20.8733 -15.3100 44.5127 -4.0892 -2.1441
# 5 -0.0558 -6.8771 -2.2320 -4.0892 23.7294 6.9444
# 6 6.4285 -0.3442 6.1850 -2.1441 6.9444 25.3546
#
#
#
# Elastic Compliance Matrix: (Units=1/GPa)
#
#
# Indices 1 2 3 4 5 6 
#
# 1 0.028092 0.002623 -0.006381 -0.000282 0.001960 -0.006091
# 2 0.002623 0.019747 -0.008257 0.007073 0.006004 0.000571
# 3 -0.006381 -0.008257 0.015964 0.001327 -0.000012 -0.002273
# 4 -0.000282 0.007073 0.001327 0.026862 0.006723 0.000274
# 5 0.001960 0.006004 -0.000012 0.006723 0.048919 -0.013242
# 6 -0.006091 0.000571 -0.002273 0.000274 -0.013242 0.045197
#
#
# Mechanical properties :
#
#
# Convention : Reuss Voigt Hill
#
# Bulk Modulus (GPa) = 25.14349 38.05440 31.59894
# Shear Modulus (GPa) = 22.51560 28.64501 25.58031
#
# Velocity S-wave (km/s) = 3.26841 3.68654 3.48375
# Velocity P-wave (km/s) = 5.11591 6.01461 5.58337
#
# Compressibility (1/GPa) = 0.03977172
#
# Stress axis : x y z
#
# Youngs Moduli (GPa) = 35.59768 50.64165 62.64140
#
# Poissons Ratio (x) = -0.13282 0.39973
# Poissons Ratio (y) = -0.09337 0.51721
# Poissons Ratio (z) = 0.22716 0.41814
#
# Static dielectric constant tensor:
#      x y z
#    x 3.609140 -0.045050 0.107360 
#    y -0.045050 3.919490 -0.114990 
#    z 0.107360 -0.114990 3.689770 
# 
# 
# High freq. dielectric constant tensor:
#      x y z
#    x 1.812770 0.001940 0.008770 
#    y 0.001940 1.837240 -0.007910 
#    z 0.008770 -0.007910 1.820370 
# 
# From -- ./inp_files/306366.got.cif
#   From: 2010.06.25/outbox.cif.g09.slc.cpg/sg2_154_cif.got.tgz:306366.got - 2010.06.27 13:26:56.
