data_PCOD8001174
_publ_section_title
;
Structure prediction by ZEFSAII (Michael W. Deem and Ramdas Pophale) SiO2 
 PCOD8001174
Probable space group: P -1
;
_chemical_formula_sum "Si O2"
_cell_formula_units_Z 16
_cell_length_a 15.631306
_cell_length_b 15.969904
_cell_length_c 12.025510
_cell_angle_alpha 33.804629
_cell_angle_beta 34.908171
_cell_angle_gamma 26.177606
_cell_volume 702.173864
_symmetry_space_group_name_H-M "P -1"
_symmetry_group_IT_number 2
_symmetry_cell_setting 'triclinic'
loop_
_space_group_symop_operation_xyz
x,y,z
-x,-y,-z
loop_
_atom_site_type_symbol
_atom_site_label
_atom_site_fract_x
_atom_site_fract_y
_atom_site_fract_z
Si Si1 0.887206 0.466553 0.074120
Si Si2 0.679347 0.383990 0.521091
Si Si3 0.479155 0.370706 0.063219
Si Si4 0.954500 0.269639 0.813759
Si Si5 0.820423 0.739685 0.215396
Si Si6 0.568551 0.628428 0.587775
Si Si7 0.204481 0.939522 0.755545
Si Si8 0.473083 0.801280 0.030472
O O1 0.874242 0.317149 0.321652
O O2 0.659404 0.682341 0.050885
O O3 0.000000 0.500000 0.000000
O O4 0.005066 0.360972 0.951046
O O5 0.500000 0.500000 0.500000
O O6 0.607251 0.549527 0.509604
O O7 0.706097 0.196017 0.746393
O O8 0.265388 0.502817 0.211468
O O9 0.652609 0.167006 0.169825
O O10 0.546712 0.500118 0.836279
O O11 0.437764 0.318862 0.047921
O O12 0.101009 0.263036 0.745372
O O13 0.931779 0.115982 0.057905
O O14 0.055414 0.182219 0.678002
O O15 0.752324 0.613517 0.440850
O O16 0.626209 0.968091 0.129844
O O17 0.349658 0.866191 0.573875
#
# Coordination Sequence:
#
# PCOD8001174 Si02
#       8
#     2   2   2   2   2   2   2   2
#     4  11  22  42  64  88 122 156 195 253 302 347
#     4   9  20  40  64  86 116 160 202 243 296 354
#     4  10  19  42  63  84 119 164 201 241 293 355
#     4  10  20  36  62  87 117 157 202 241 291 352
#     4  12  23  39  61  92 125 155 193 253 305 349
#     4  10  21  37  60  89 124 155 195 251 301 345
#     4  10  21  39  63  88 117 164 204 241 290 358
#     4  10  22  40  64  87 120 159 199 242 298 361
#
# _framework density 22.786377999999999
#
# number of rings (size 3 to 8) (size 9 to 14) (size 15 to 20)
#    0.000    1.750    3.750    1.500    1.750    1.500 
#    0.000   10.000    0.000    0.000    0.000    0.000 
#    0.000    0.000    0.000    0.000    0.000    0.000 
#
# Total GULP energy -198283.060383 kJ/mol
# GULP energy per Si atom -12392.691274 kJ/mol
# Density = 2.273452 g / cm^3
# Si number density = 22.786378 Si / 1000 Ang^3
#
#
#
# Elastic Constant Matrix: (Units=GPa)
#
#
# Indices 1 2 3 4 5 6 
#
# 1 115.0462 4.8733 24.1036 -5.5511 -28.0167 -1.0930
# 2 4.8733 77.6505 35.0706 11.4988 -7.0994 -3.9702
# 3 24.1036 35.0706 87.9817 15.3115 -12.9609 3.9154
# 4 -5.5511 11.4988 15.3115 29.8908 -1.2844 5.3607
# 5 -28.0167 -7.0994 -12.9609 -1.2844 28.6470 1.8033
# 6 -1.0930 -3.9702 3.9154 5.3607 1.8033 30.4968
#
#
#
# Elastic Compliance Matrix: (Units=1/GPa)
#
#
# Indices 1 2 3 4 5 6 
#
# 1 0.012081 0.000870 -0.002681 0.003834 0.011017 -0.000435
# 2 0.000870 0.016433 -0.006050 -0.003607 0.001806 0.003474
# 3 -0.002681 -0.006050 0.016077 -0.005902 0.003019 -0.002089
# 4 0.003834 -0.003607 -0.005902 0.039887 0.002397 -0.006728
# 5 0.011017 0.001806 0.003019 0.002397 0.047792 -0.003005
# 6 -0.000435 0.003474 -0.002089 -0.006728 -0.003005 0.034855
#
#
# Mechanical properties :
#
#
# Convention : Reuss Voigt Hill
#
# Bulk Modulus (GPa) = 34.63975 45.41927 40.02951
# Shear Modulus (GPa) = 25.97813 32.24900 29.11356
#
# Velocity S-wave (km/s) = 3.38016 3.76610 3.57833
# Velocity P-wave (km/s) = 5.51987 6.23596 5.88881
#
# Compressibility (1/GPa) = 0.02886857
#
# Stress axis : x y z
#
# Youngs Moduli (GPa) = 82.77588 60.85425 62.20142
#
# Poissons Ratio (x) = -0.05295 0.16679
# Poissons Ratio (y) = -0.07203 0.37629
# Poissons Ratio (z) = 0.22196 0.36814
#
# Static dielectric constant tensor:
#      x y z
#    x 4.021530 0.177130 -0.186040 
#    y 0.177130 4.171370 0.274360 
#    z -0.186040 0.274360 4.712130 
# 
# 
# High freq. dielectric constant tensor:
#      x y z
#    x 1.909740 0.013020 -0.013160 
#    y 0.013020 1.890530 0.022650 
#    z -0.013160 0.022650 1.884370 
# 
# From -- ./inp_files/454508.got.cif
#   From: 2010.06.25/outbox.cif.g09.slc.cpg/sg2_228_cif.got.tgz:454508.got - 2010.06.27 13:26:56.
