data_PCOD8001543
_publ_section_title
;
Structure prediction by ZEFSAII (Michael W. Deem and Ramdas Pophale) SiO2 
 PCOD8001543
Probable space group: P -1
;
_chemical_formula_sum "Si O2"
_cell_formula_units_Z 16
_cell_length_a 11.877412
_cell_length_b 11.763359
_cell_length_c 14.860428
_cell_angle_alpha 40.572749
_cell_angle_beta 57.666288
_cell_angle_gamma 87.913471
_cell_volume 843.974656
_symmetry_space_group_name_H-M "P -1"
_symmetry_group_IT_number 2
_symmetry_cell_setting 'triclinic'
loop_
_space_group_symop_operation_xyz
x,y,z
-x,-y,-z
loop_
_atom_site_type_symbol
_atom_site_label
_atom_site_fract_x
_atom_site_fract_y
_atom_site_fract_z
Si Si1 0.173263 0.539229 0.637643
Si Si2 0.928284 0.085760 0.913902
Si Si3 0.651481 0.941993 0.386002
Si Si4 0.843024 0.748885 0.823542
Si Si5 0.178549 0.925476 0.464741
Si Si6 0.532824 0.227242 0.247675
Si Si7 0.056628 0.188857 0.059107
Si Si8 0.547543 0.737293 0.362413
O O1 0.117321 0.687256 0.592665
O O2 0.383719 0.717462 0.413974
O O3 0.052612 0.365731 0.709210
O O4 0.149439 0.396900 0.821537
O O5 0.944470 0.016025 0.849675
O O6 0.724050 0.958387 0.101318
O O7 0.000000 0.000000 0.000000
O O8 0.542733 0.789955 0.611885
O O9 0.577221 0.767882 0.438297
O O10 0.632782 0.130675 0.262500
O O11 0.858706 0.082275 0.228449
O O12 0.828713 0.703506 0.963468
O O13 0.036561 0.853199 0.644938
O O14 0.820161 0.932949 0.701026
O O15 0.681880 0.502310 0.991629
O O16 0.375855 0.086080 0.326424
O O17 0.500000 0.500000 0.500000
#
# Coordination Sequence:
#
# PCOD8001543 Si02
#       8
#     2   2   2   2   2   2   2   2
#     4  11  21  36  62  86 117 148 193 243 284 337
#     4  10  20  33  54  88 117 148 186 234 291 339
#     4  11  21  34  59  93 116 146 192 243 290 338
#     4  11  25  40  60  82 119 159 190 236 292 346
#     4  11  24  42  59  85 114 158 198 231 290 349
#     4  11  23  38  58  87 120 147 195 242 288 343
#     4  11  20  38  59  89 119 148 190 240 291 341
#     4  12  19  33  56  89 121 148 183 238 294 338
#
# _framework density 18.957915
#
# number of rings (size 3 to 8) (size 9 to 14) (size 15 to 20)
#    0.000    1.000    7.500    1.875    1.750    1.000 
#    0.000    0.625    0.000    0.750    0.000    0.000 
#    0.000    0.000    0.000    0.000    0.000    0.000 
#
# Total GULP energy -198424.870088 kJ/mol
# GULP energy per Si atom -12401.554381 kJ/mol
# Density = 1.891477 g / cm^3
# Si number density = 18.957915 Si / 1000 Ang^3
#
#
#
# Elastic Constant Matrix: (Units=GPa)
#
#
# Indices 1 2 3 4 5 6 
#
# 1 64.8429 43.5153 45.6944 -4.8031 -12.5272 -12.2818
# 2 43.5153 107.6369 30.8374 -13.1759 -5.7916 -11.6122
# 3 45.6944 30.8374 80.9128 -10.1739 -15.0813 -2.7158
# 4 -4.8031 -13.1759 -10.1739 32.4870 -0.5713 -4.9136
# 5 -12.5272 -5.7916 -15.0813 -0.5713 25.5631 -10.1163
# 6 -12.2818 -11.6122 -2.7158 -4.9136 -10.1163 15.6423
#
#
#
# Elastic Compliance Matrix: (Units=1/GPa)
#
#
# Indices 1 2 3 4 5 6 
#
# 1 0.049324 -0.006041 -0.015501 0.009481 0.037005 0.058462
# 2 -0.006041 0.013871 0.000152 0.006463 0.004607 0.010590
# 3 -0.015501 0.000152 0.022133 0.004095 0.003824 -0.004456
# 4 0.009481 0.006463 0.004095 0.043198 0.026862 0.043895
# 5 0.037005 0.004607 0.003824 0.026862 0.104301 0.109032
# 6 0.058462 0.010590 -0.004456 0.043895 0.109032 0.201222
#
#
# Mechanical properties :
#
#
# Convention : Reuss Voigt Hill
#
# Bulk Modulus (GPa) = 23.50302 54.83187 39.16745
# Shear Modulus (GPa) = 10.18307 23.62817 16.90562
#
# Velocity S-wave (km/s) = 2.32014 3.53420 2.98945
# Velocity P-wave (km/s) = 4.42739 6.75572 5.71146
#
# Compressibility (1/GPa) = 0.04254773
#
# Stress axis : x y z
#
# Youngs Moduli (GPa) = 20.27418 72.09472 45.18134
#
# Poissons Ratio (x) = 0.43552 0.70035
# Poissons Ratio (y) = 0.12247 -0.00687
# Poissons Ratio (z) = 0.31427 -0.01095
#
# Static dielectric constant tensor:
#      x y z
#    x 3.422920 -0.134950 -0.349180 
#    y -0.134950 3.983640 0.005540 
#    z -0.349180 0.005540 3.515620 
# 
# 
# High freq. dielectric constant tensor:
#      x y z
#    x 1.718510 -0.007350 -0.035820 
#    y -0.007350 1.752790 -0.007500 
#    z -0.035820 -0.007500 1.727010 
# 
# From -- ./inp_files/255908.got.cif
#   From: 2010.06.25/outbox.cif.g09.slc.cpg/sg2_128_cif.got.tgz:255908.got - 2010.06.27 13:26:56.
