data_PCOD8001021
_publ_section_title
;
Structure prediction by ZEFSAII (Michael W. Deem and Ramdas Pophale) SiO2 
 PCOD8001021
Probable space group: P -1
;
_chemical_formula_sum "Si O2"
_cell_formula_units_Z 16
_cell_length_a 9.635421
_cell_length_b 10.475775
_cell_length_c 9.346488
_cell_angle_alpha 111.910638
_cell_angle_beta 52.673121
_cell_angle_gamma 113.140183
_cell_volume 678.005272
_symmetry_space_group_name_H-M "P -1"
_symmetry_group_IT_number 2
_symmetry_cell_setting 'triclinic'
loop_
_space_group_symop_operation_xyz
x,y,z
-x,-y,-z
loop_
_atom_site_type_symbol
_atom_site_label
_atom_site_fract_x
_atom_site_fract_y
_atom_site_fract_z
Si Si1 0.191996 0.001177 0.812735
Si Si2 0.746262 0.494116 0.957896
Si Si3 0.673981 0.431571 0.536553
Si Si4 0.785745 0.201439 0.550984
Si Si5 0.643511 0.655839 0.859998
Si Si6 0.955273 0.651089 0.334129
Si Si7 0.539363 0.931449 0.095081
Si Si8 0.707072 0.713195 0.297221
O O1 0.324542 0.964572 0.837760
O O2 0.282663 0.156707 0.761072
O O3 0.185367 0.892070 0.641694
O O4 0.000000 0.000000 0.000000
O O5 0.794435 0.613244 0.851894
O O6 0.866636 0.380838 0.860128
O O7 0.558074 0.402377 0.981901
O O8 0.743504 0.575323 0.140657
O O9 0.721958 0.340392 0.599105
O O10 0.653973 0.587003 0.669198
O O11 0.836925 0.488173 0.350761
O O12 0.495107 0.338773 0.534484
O O13 0.645487 0.119884 0.722062
O O14 0.982988 0.258812 0.522130
O O15 0.659333 0.822539 0.924558
O O16 0.856324 0.750176 0.343126
O O17 0.500000 0.000000 0.000000
#
# Coordination Sequence:
#
# PCOD8001021 Si02
#       8
#     2   2   2   2   2   2   2   2
#     4  12  30  49  73 101 150 207 240 298 370 438
#     4  10  19  40  70  99 137 182 229 300 361 426
#     4  11  24  44  74 104 143 190 233 305 376 432
#     4  12  26  50  73 106 149 194 247 302 363 440
#     4  10  19  41  71  99 136 181 231 288 374 417
#     4  12  25  40  75 112 138 185 249 307 359 437
#     4  12  26  49  77 106 143 194 253 296 360 442
#     4  11  25  46  67 104 154 185 241 301 373 427
#
# _framework density 23.598635999999999
#
# number of rings (size 3 to 8) (size 9 to 14) (size 15 to 20)
#    0.000    0.750    5.000    2.250    5.250    1.500 
#    4.500    0.000    0.000    0.000    0.000    0.000 
#    0.000    0.000    0.000    0.000    0.000    0.000 
#
# Total GULP energy -198221.144655 kJ/mol
# GULP energy per Si atom -12388.821541 kJ/mol
# Density = 2.354492 g / cm^3
# Si number density = 23.598636 Si / 1000 Ang^3
#
#
#
# Elastic Constant Matrix: (Units=GPa)
#
#
# Indices 1 2 3 4 5 6 
#
# 1 167.9856 32.5007 31.1143 -0.9858 19.8988 11.5913
# 2 32.5007 80.7697 38.6616 6.4366 6.8523 10.3484
# 3 31.1143 38.6616 84.3699 11.0765 5.3273 0.5905
# 4 -0.9858 6.4366 11.0765 41.2836 2.7172 2.4415
# 5 19.8988 6.8523 5.3273 2.7172 31.3177 -4.9077
# 6 11.5913 10.3484 0.5905 2.4415 -4.9077 36.6935
#
#
#
# Elastic Compliance Matrix: (Units=1/GPa)
#
#
# Indices 1 2 3 4 5 6 
#
# 1 0.007304 -0.001415 -0.001920 0.001360 -0.004526 -0.002573
# 2 -0.001415 0.017170 -0.007118 -0.000378 -0.002330 -0.004567
# 3 -0.001920 -0.007118 0.016215 -0.003494 0.000743 0.002685
# 4 0.001360 -0.000378 -0.003494 0.025572 -0.002773 -0.002339
# 5 -0.004526 -0.002330 0.000743 -0.002773 0.036551 0.007148
# 6 -0.002573 -0.004567 0.002685 -0.002339 0.007148 0.030422
#
#
# Mechanical properties :
#
#
# Convention : Reuss Voigt Hill
#
# Bulk Modulus (GPa) = 50.54456 59.74203 55.14329
# Shear Modulus (GPa) = 31.10726 37.24887 34.17807
#
# Velocity S-wave (km/s) = 3.63461 3.97726 3.80979
# Velocity P-wave (km/s) = 6.25131 6.81633 6.53992
#
# Compressibility (1/GPa) = 0.01978452
#
# Stress axis : x y z
#
# Youngs Moduli (GPa) = 136.91350 58.24101 61.67014
#
# Poissons Ratio (x) = 0.08239 0.11841
# Poissons Ratio (y) = 0.19368 0.43894
# Poissons Ratio (z) = 0.26289 0.41454
#
# Static dielectric constant tensor:
#      x y z
#    x 4.328640 0.175630 -0.114270 
#    y 0.175630 4.287130 0.056470 
#    z -0.114270 0.056470 4.153900 
# 
# 
# High freq. dielectric constant tensor:
#      x y z
#    x 1.941820 0.012680 -0.004830 
#    y 0.012680 1.921250 0.005760 
#    z -0.004830 0.005760 1.928950 
# 
# From -- ./inp_files/189028.got.cif
#   From: 2010.06.25/outbox.cif.g09.slc.cpg/sg2_95_cif.got.tgz:189028.got - 2010.06.27 13:26:56.
