data_PCOD8001265
_publ_section_title
;
Structure prediction by ZEFSAII (Michael W. Deem and Ramdas Pophale) SiO2 
 PCOD8001265
Probable space group: P -1
;
_chemical_formula_sum "Si O2"
_cell_formula_units_Z 14
_cell_length_a 17.046996
_cell_length_b 8.850800
_cell_length_c 9.303025
_cell_angle_alpha 115.534688
_cell_angle_beta 102.996229
_cell_angle_gamma 33.313899
_cell_volume 669.172730
_symmetry_space_group_name_H-M "P -1"
_symmetry_group_IT_number 2
_symmetry_cell_setting 'triclinic'
loop_
_space_group_symop_operation_xyz
x,y,z
-x,-y,-z
loop_
_atom_site_type_symbol
_atom_site_label
_atom_site_fract_x
_atom_site_fract_y
_atom_site_fract_z
Si Si1 0.795736 0.718378 0.846873
Si Si2 0.267579 0.814888 0.907126
Si Si3 0.942299 0.632237 0.371990
Si Si4 0.651490 0.321978 0.444393
Si Si5 0.933246 0.359204 0.040509
Si Si6 0.601284 0.738596 0.754629
Si Si7 0.676511 0.577507 0.038486
O O1 0.686638 0.762909 0.770141
O O2 0.940036 0.456809 0.698719
O O3 0.841062 0.621928 0.991618
O O4 0.718473 0.035614 0.937497
O O5 0.333196 0.719460 0.736874
O O6 0.358400 0.519884 0.915397
O O7 0.098523 0.044911 0.920840
O O8 0.930769 0.469955 0.230073
O O9 0.000000 0.500000 0.500000
O O10 0.784875 0.001234 0.454718
O O11 0.500000 0.500000 0.500000
O O12 0.645686 0.528441 0.565791
O O13 0.849888 0.328230 0.020733
O O14 0.426009 0.086488 0.817920
O O15 0.639940 0.591750 0.865237
#
# Coordination Sequence:
#
# PCOD8001265 Si02
#       7
#     2   2   2   2   2   2   2
#     4  10  21  43  67  90 128 171 205 262 317 386
#     4  11  22  40  68  92 122 170 219 251 322 380
#     4  11  23  39  66 100 131 163 216 268 318 369
#     4  12  26  43  65  95 130 174 209 267 322 379
#     4  10  19  43  66  92 127 169 207 258 320 385
#     4  10  25  42  63  93 133 161 213 263 323 370
#     4  10  23  41  66  94 125 168 212 264 311 390
#
# _framework density 20.921354999999998
#
# number of rings (size 3 to 8) (size 9 to 14) (size 15 to 20)
#    0.000    1.429    2.857    2.143    8.000    4.000 
#    0.000    0.000    0.000    0.000    0.000    0.000 
#    0.000    0.000    0.000    0.000    0.000    0.000 
#
# Total GULP energy -173640.710092 kJ/mol
# GULP energy per Si atom -12402.907864 kJ/mol
# Density = 2.087374 g / cm^3
# Si number density = 20.921355 Si / 1000 Ang^3
#
#
#
# Elastic Constant Matrix: (Units=GPa)
#
#
# Indices 1 2 3 4 5 6 
#
# 1 128.8484 60.6129 58.4261 -3.3143 -6.7288 -1.6301
# 2 60.6129 82.1115 42.1329 5.0701 -8.0496 -0.5317
# 3 58.4261 42.1329 106.5801 12.1318 -1.3466 -6.2034
# 4 -3.3143 5.0701 12.1318 29.2838 -0.7314 -4.8925
# 5 -6.7288 -8.0496 -1.3466 -0.7314 29.4010 2.7913
# 6 -1.6301 -0.5317 -6.2034 -4.8925 2.7913 34.2602
#
#
#
# Elastic Compliance Matrix: (Units=1/GPa)
#
#
# Indices 1 2 3 4 5 6 
#
# 1 0.013984 -0.007942 -0.005083 0.005133 0.000894 0.000282
# 2 -0.007942 0.020303 -0.003348 -0.003173 0.003643 -0.001419
# 3 -0.005083 -0.003348 0.014208 -0.005656 -0.001723 0.001612
# 4 0.005133 -0.003173 -0.005656 0.038406 0.000565 0.004609
# 5 0.000894 0.003643 -0.001723 0.000565 0.035436 -0.003019
# 6 0.000282 -0.001419 0.001612 0.004609 -0.003019 0.030376
#
#
# Mechanical properties :
#
#
# Convention : Reuss Voigt Hill
#
# Bulk Modulus (GPa) = 63.49224 71.09820 67.29522
# Shear Modulus (GPa) = 26.21783 29.01354 27.61568
#
# Velocity S-wave (km/s) = 3.54384 3.72800 3.63709
# Velocity P-wave (km/s) = 6.86724 7.25176 7.06212
#
# Compressibility (1/GPa) = 0.01574996
#
# Stress axis : x y z
#
# Youngs Moduli (GPa) = 71.50811 49.25369 70.38184
#
# Poissons Ratio (x) = 0.39119 0.35775
# Poissons Ratio (y) = 0.56794 0.23561
# Poissons Ratio (z) = 0.36347 0.16488
#
# Static dielectric constant tensor:
#      x y z
#    x 3.955940 -0.056040 -0.105500 
#    y -0.056040 3.801120 0.078540 
#    z -0.105500 0.078540 3.638520 
# 
# 
# High freq. dielectric constant tensor:
#      x y z
#    x 1.829040 -0.003360 -0.005470 
#    y -0.003360 1.822280 0.005740 
#    z -0.005470 0.005740 1.808680 
# 
# From -- ./inp_files/179858.got.cif
#   From: 2010.06.25/outbox.cif.g09.slc.cpg/sg2_90_cif.got.tgz:179858.got - 2010.06.27 13:26:56.
