data_PCOD8001249
_publ_section_title
;
Structure prediction by ZEFSAII (Michael W. Deem and Ramdas Pophale) SiO2 
 PCOD8001249
Probable space group: P -1
;
_chemical_formula_sum "Si O2"
_cell_formula_units_Z 16
_cell_length_a 9.640643
_cell_length_b 15.883850
_cell_length_c 9.359300
_cell_angle_alpha 76.717124
_cell_angle_beta 66.106219
_cell_angle_gamma 33.506739
_cell_volume 706.622277
_symmetry_space_group_name_H-M "P -1"
_symmetry_group_IT_number 2
_symmetry_cell_setting 'triclinic'
loop_
_space_group_symop_operation_xyz
x,y,z
-x,-y,-z
loop_
_atom_site_type_symbol
_atom_site_label
_atom_site_fract_x
_atom_site_fract_y
_atom_site_fract_z
Si Si1 0.500384 0.615853 0.676797
Si Si2 0.289377 0.815816 0.074475
Si Si3 0.861205 0.055604 0.385765
Si Si4 0.968202 0.406785 0.337621
Si Si5 0.500502 0.091895 0.396152
Si Si6 0.926132 0.318130 0.109066
Si Si7 0.843137 0.942142 0.040866
Si Si8 0.826513 0.508180 0.862973
O O1 0.242929 0.803333 0.687621
O O2 0.377156 0.579994 0.782631
O O3 0.701457 0.548901 0.744795
O O4 0.678635 0.528642 0.490224
O O5 0.147180 0.837172 0.988106
O O6 0.591915 0.634069 0.033111
O O7 0.101516 0.895073 0.259094
O O8 0.347838 0.889436 0.997256
O O9 0.607675 0.109690 0.462928
O O10 0.000000 0.000000 0.500000
O O11 0.209360 0.268265 0.400546
O O12 0.980706 0.499677 0.237248
O O13 0.006688 0.325931 0.218245
O O14 0.500000 0.000000 0.500000
O O15 0.708713 0.973483 0.228699
O O16 0.970497 0.357629 0.934344
O O17 0.138871 0.139815 0.055561
#
# Coordination Sequence:
#
# PCOD8001249 Si02
#       8
#     2   2   2   2   2   2   2   2
#     4  12  25  47  73 102 143 191 237 292 356 424
#     4  10  19  42  73  93 134 175 239 285 345 406
#     4  11  25  44  73 103 134 185 239 289 350 422
#     4  12  28  47  66 107 155 184 227 301 365 418
#     4  11  26  44  69 101 141 186 228 290 363 417
#     4  12  27  43  73 108 140 187 249 287 345 426
#     4  10  20  43  69  96 131 180 235 289 336 415
#     4  12  24  47  73 103 139 195 236 291 359 420
#
# _framework density 22.642932999999999
#
# number of rings (size 3 to 8) (size 9 to 14) (size 15 to 20)
#    0.000    0.750    5.000    2.250    5.250    1.500 
#    2.250    0.000    0.000    0.000    0.000    0.000 
#    0.000    0.000    0.000    0.000    0.000    0.000 
#
# Total GULP energy -198306.071179 kJ/mol
# GULP energy per Si atom -12394.129449 kJ/mol
# Density = 2.259140 g / cm^3
# Si number density = 22.642933 Si / 1000 Ang^3
#
#
#
# Elastic Constant Matrix: (Units=GPa)
#
#
# Indices 1 2 3 4 5 6 
#
# 1 122.7691 20.6957 38.3203 -14.7625 5.7560 17.4611
# 2 20.6957 56.9868 18.7278 -7.2375 -3.1559 9.3295
# 3 38.3203 18.7278 76.3318 -6.5395 -1.8805 7.1844
# 4 -14.7625 -7.2375 -6.5395 39.1667 6.0330 -3.9127
# 5 5.7560 -3.1559 -1.8805 6.0330 51.8670 -7.3358
# 6 17.4611 9.3295 7.1844 -3.9127 -7.3358 31.3081
#
#
#
# Elastic Compliance Matrix: (Units=1/GPa)
#
#
# Indices 1 2 3 4 5 6 
#
# 1 0.010965 -0.001467 -0.004491 0.003013 -0.002507 -0.004859
# 2 -0.001467 0.020231 -0.003659 0.002105 0.000450 -0.004002
# 3 -0.004491 -0.003659 0.016285 0.000228 0.000852 0.000086
# 4 0.003013 0.002105 0.000228 0.027644 -0.003370 0.000305
# 5 -0.002507 0.000450 0.000852 -0.003370 0.020789 0.005518
# 6 -0.004859 -0.004002 0.000086 0.000305 0.005518 0.037154
#
#
# Mechanical properties :
#
#
# Convention : Reuss Voigt Hill
#
# Bulk Modulus (GPa) = 35.40189 45.73059 40.56624
# Shear Modulus (GPa) = 30.91780 36.35794 33.63787
#
# Velocity S-wave (km/s) = 3.69921 4.01148 3.85850
# Velocity P-wave (km/s) = 5.82360 6.45726 6.14860
#
# Compressibility (1/GPa) = 0.02824708
#
# Stress axis : x y z
#
# Youngs Moduli (GPa) = 91.19621 49.42986 61.40432
#
# Poissons Ratio (x) = 0.07252 0.27578
# Poissons Ratio (y) = 0.13379 0.22467
# Poissons Ratio (z) = 0.40959 0.18086
#
# Static dielectric constant tensor:
#      x y z
#    x 4.170540 0.200940 -0.072110 
#    y 0.200940 4.286980 0.449270 
#    z -0.072110 0.449270 4.446400 
# 
# 
# High freq. dielectric constant tensor:
#      x y z
#    x 1.893570 0.015200 -0.006550 
#    y 0.015200 1.882130 0.009980 
#    z -0.006550 0.009980 1.903860 
# 
# From -- ./inp_files/206800.got.cif
#   From: 2010.06.25/outbox.cif.g09.slc.cpg/sg2_104_cif.got.tgz:206800.got - 2010.06.27 13:26:56.
