data_PCOD8001224
_publ_section_title
;
Structure prediction by ZEFSAII (Michael W. Deem and Ramdas Pophale) SiO2 
 PCOD8001224
Probable space group: P -1
;
_chemical_formula_sum "Si O2"
_cell_formula_units_Z 16
_cell_length_a 13.202521
_cell_length_b 10.924540
_cell_length_c 15.244237
_cell_angle_alpha 63.879546
_cell_angle_beta 29.111901
_cell_angle_gamma 83.192542
_cell_volume 761.669564
_symmetry_space_group_name_H-M "P -1"
_symmetry_group_IT_number 2
_symmetry_cell_setting 'triclinic'
loop_
_space_group_symop_operation_xyz
x,y,z
-x,-y,-z
loop_
_atom_site_type_symbol
_atom_site_label
_atom_site_fract_x
_atom_site_fract_y
_atom_site_fract_z
Si Si1 0.882299 0.013339 0.495449
Si Si2 0.699705 0.653858 0.543167
Si Si3 0.347988 0.790960 0.367464
Si Si4 0.970729 0.494542 0.422069
Si Si5 0.607147 0.343885 0.081140
Si Si6 0.910985 0.959563 0.855204
Si Si7 0.799214 0.612594 0.101858
Si Si8 0.935442 0.490726 0.191014
O O1 0.844878 0.159681 0.486035
O O2 0.076758 0.055818 0.254643
O O3 0.592736 0.844556 0.746911
O O4 0.000000 0.000000 0.500000
O O5 0.546824 0.595785 0.771210
O O6 0.500903 0.534166 0.654050
O O7 0.929534 0.634792 0.380444
O O8 0.833183 0.855719 0.362281
O O9 0.292454 0.655123 0.526613
O O10 0.278215 0.696179 0.356025
O O11 0.656099 0.947612 0.078461
O O12 0.000000 0.500000 0.500000
O O13 0.224825 0.534015 0.167033
O O14 0.808296 0.358754 0.995509
O O15 0.888414 0.804835 0.967988
O O16 0.826262 0.577345 0.193641
O O17 0.998120 0.605239 0.894910
#
# Coordination Sequence:
#
# PCOD8001224 Si02
#       8
#     2   2   2   2   2   2   2   2
#     4  11  25  41  63  91 127 170 214 258 317 375
#     4  10  22  42  61  93 127 164 211 261 309 373
#     4  11  23  41  63  92 129 165 209 264 318 375
#     4  11  24  38  63  90 123 170 212 261 317 371
#     4   9  22  42  59  86 128 160 206 265 301 380
#     4  11  23  41  66  93 130 167 209 263 311 378
#     4  10  19  42  68  92 127 166 214 258 317 378
#     4   9  20  41  66  90 126 168 203 266 321 368
#
# _framework density 21.006485000000001
#
# number of rings (size 3 to 8) (size 9 to 14) (size 15 to 20)
#    0.000    1.750    2.500    0.750    5.250    1.500 
#    2.250    3.125    0.000    0.000    0.000    0.000 
#    0.000    0.000    0.000    0.000    0.000    0.000 
#
# Total GULP energy -198354.519936 kJ/mol
# GULP energy per Si atom -12397.157496 kJ/mol
# Density = 2.095867 g / cm^3
# Si number density = 21.006485 Si / 1000 Ang^3
#
#
#
# Elastic Constant Matrix: (Units=GPa)
#
#
# Indices 1 2 3 4 5 6 
#
# 1 98.5884 20.7948 29.8070 -5.9289 -4.1370 4.5904
# 2 20.7948 78.9591 24.7549 -10.2856 -8.9097 -3.3024
# 3 29.8070 24.7549 112.1628 1.3849 -4.7194 0.7342
# 4 -5.9289 -10.2856 1.3849 33.5308 6.8274 -0.9652
# 5 -4.1370 -8.9097 -4.7194 6.8274 19.0394 -1.1355
# 6 4.5904 -3.3024 0.7342 -0.9652 -1.1355 28.1994
#
#
#
# Elastic Compliance Matrix: (Units=1/GPa)
#
#
# Indices 1 2 3 4 5 6 
#
# 1 0.011561 -0.002101 -0.002602 0.001396 0.000264 -0.002002
# 2 -0.002101 0.015153 -0.002639 0.003462 0.004888 0.002501
# 3 -0.002602 -0.002639 0.010276 -0.001994 0.001452 -0.000163
# 4 0.001396 0.003462 -0.001994 0.033376 -0.010483 0.000951
# 5 0.000264 0.004888 0.001452 -0.010483 0.059136 0.002514
# 6 -0.002002 0.002501 -0.000163 0.000951 0.002514 0.036218
#
#
# Mechanical properties :
#
#
# Convention : Reuss Voigt Hill
#
# Bulk Modulus (GPa) = 44.83132 48.93593 46.88363
# Shear Modulus (GPa) = 26.61827 30.44417 28.53122
#
# Velocity S-wave (km/s) = 3.56356 3.81106 3.68939
# Velocity P-wave (km/s) = 6.19031 6.53543 6.36521
#
# Compressibility (1/GPa) = 0.02230583
#
# Stress axis : x y z
#
# Youngs Moduli (GPa) = 86.49640 65.99448 97.31122
#
# Poissons Ratio (x) = 0.13867 0.25317
# Poissons Ratio (y) = 0.18175 0.25684
# Poissons Ratio (z) = 0.22503 0.17418
#
# Static dielectric constant tensor:
#      x y z
#    x 3.788340 0.128230 0.093590 
#    y 0.128230 3.819480 0.067650 
#    z 0.093590 0.067650 4.054080 
# 
# 
# High freq. dielectric constant tensor:
#      x y z
#    x 1.807890 0.014560 0.000790 
#    y 0.014560 1.823370 0.009810 
#    z 0.000790 0.009810 1.831360 
# 
# From -- ./inp_files/282057.got.cif
#   From: 2010.06.25/outbox.cif.g09.slc.cpg/sg2_142_cif.got.tgz:282057.got - 2010.06.27 13:26:56.
