data_PCOD8001979
_publ_section_title
;
Structure prediction by ZEFSAII (Michael W. Deem and Ramdas Pophale) SiO2 
 PCOD8001979
Probable space group: P -1
;
_chemical_formula_sum "Si O2"
_cell_formula_units_Z 14
_cell_length_a 15.035331
_cell_length_b 14.977467
_cell_length_c 14.770432
_cell_angle_alpha 39.118537
_cell_angle_beta 35.846546
_cell_angle_gamma 19.260026
_cell_volume 641.541021
_symmetry_space_group_name_H-M "P -1"
_symmetry_group_IT_number 2
_symmetry_cell_setting 'triclinic'
loop_
_space_group_symop_operation_xyz
x,y,z
-x,-y,-z
loop_
_atom_site_type_symbol
_atom_site_label
_atom_site_fract_x
_atom_site_fract_y
_atom_site_fract_z
Si Si1 0.503878 0.070755 0.067266
Si Si2 0.924358 0.864723 0.998615
Si Si3 0.598421 0.558762 0.558557
Si Si4 0.163424 0.726920 0.093650
Si Si5 0.967722 0.903328 0.301853
Si Si6 0.845468 0.526275 0.219275
Si Si7 0.337124 0.472441 0.802969
O O1 0.170458 0.288192 0.174647
O O2 0.708465 0.779713 0.091837
O O3 0.552801 0.167591 0.884028
O O4 0.615386 0.029589 0.108904
O O5 0.123281 0.644367 0.928941
O O6 0.870683 0.074848 0.863864
O O7 0.076138 0.702422 0.097029
O O8 0.646784 0.636626 0.380687
O O9 0.500443 0.491503 0.644272
O O10 0.898692 0.289005 0.574121
O O11 0.369959 0.799407 0.631948
O O12 0.032367 0.763014 0.266217
O O13 0.500000 0.500000 0.000000
O O14 0.000000 0.000000 0.000000
O O15 0.836284 0.415694 0.235357
#
# Coordination Sequence:
#
# PCOD8001979 Si02
#       7
#     2   2   2   2   2   2   2
#     4  12  24  42  60  91 128 163 205 257 307 364
#     4  10  22  37  64  95 124 155 202 260 315 355
#     4  11  23  42  62  90 124 166 206 252 302 364
#     4  10  20  34  61  98 125 149 197 262 316 353
#     4  10  20  39  63  90 124 156 202 256 308 361
#     4  12  27  39  62  89 128 169 207 247 308 368
#     4  11  23  42  64  91 122 162 213 260 300 357
#
# _framework density 21.822455000000001
#
# number of rings (size 3 to 8) (size 9 to 14) (size 15 to 20)
#    0.000    1.143    2.857    4.714    4.000    0.000 
#    0.000    3.571    0.000    5.143    0.000    0.000 
#    0.000    0.000    0.000    0.000    0.000    0.000 
#
# Total GULP energy -173507.567742 kJ/mol
# GULP energy per Si atom -12393.397696 kJ/mol
# Density = 2.177279 g / cm^3
# Si number density = 21.822455 Si / 1000 Ang^3
#
#
#
# Elastic Constant Matrix: (Units=GPa)
#
#
# Indices 1 2 3 4 5 6 
#
# 1 131.8375 38.3431 22.2992 16.4798 22.1948 -16.2543
# 2 38.3431 104.4504 0.8229 -0.6373 3.9033 -14.8873
# 3 22.2992 0.8229 31.0365 1.9062 9.9500 -1.2336
# 4 16.4798 -0.6373 1.9062 27.9804 0.5502 1.7878
# 5 22.1948 3.9033 9.9500 0.5502 24.9941 7.0189
# 6 -16.2543 -14.8873 -1.2336 1.7878 7.0189 36.3070
#
#
#
# Elastic Compliance Matrix: (Units=1/GPa)
#
#
# Indices 1 2 3 4 5 6 
#
# 1 0.013029 -0.003434 -0.005100 -0.007622 -0.010717 0.006699
# 2 -0.003434 0.011306 0.002369 0.001926 -0.000600 0.003200
# 3 -0.005100 0.002369 0.039867 0.000431 -0.012400 0.002419
# 4 -0.007622 0.001926 0.000431 0.040485 0.007081 -0.005970
# 5 -0.010717 -0.000600 -0.012400 0.007081 0.059250 -0.017268
# 6 0.006699 0.003200 0.002419 -0.005970 -0.017268 0.035569
#
#
# Mechanical properties :
#
#
# Convention : Reuss Voigt Hill
#
# Bulk Modulus (GPa) = 19.27833 43.36166 31.32000
# Shear Modulus (GPa) = 21.82197 31.58026 26.70111
#
# Velocity S-wave (km/s) = 3.16567 3.80826 3.50174
# Velocity P-wave (km/s) = 4.71331 6.26502 5.54373
#
# Compressibility (1/GPa) = 0.05187170
#
# Stress axis : x y z
#
# Youngs Moduli (GPa) = 76.75008 88.44693 25.08354
#
# Poissons Ratio (x) = 0.30373 0.12793
# Poissons Ratio (y) = 0.26356 -0.05942
# Poissons Ratio (z) = 0.39144 -0.20952
#
# Static dielectric constant tensor:
#      x y z
#    x 5.735750 -0.044270 0.440810 
#    y -0.044270 3.960440 -0.100930 
#    z 0.440810 -0.100930 3.779840 
# 
# 
# High freq. dielectric constant tensor:
#      x y z
#    x 1.868580 -0.006550 0.012150 
#    y -0.006550 1.867090 -0.005610 
#    z 0.012150 -0.005610 1.818560 
# 
# From -- ./inp_files/311372.got.cif
#   From: 2010.06.25/outbox.cif.g09.slc.cpg/sg2_156_cif.got.tgz:311372.got - 2010.06.27 13:26:56.
