data_PCOD8001931
_publ_section_title
;
Structure prediction by ZEFSAII (Michael W. Deem and Ramdas Pophale) SiO2 
 PCOD8001931
Probable space group: P -1
;
_chemical_formula_sum "Si O2"
_cell_formula_units_Z 16
_cell_length_a 8.151544
_cell_length_b 9.427633
_cell_length_c 16.973466
_cell_angle_alpha 53.746127
_cell_angle_beta 88.721612
_cell_angle_gamma 54.670864
_cell_volume 750.062719
_symmetry_space_group_name_H-M "P -1"
_symmetry_group_IT_number 2
_symmetry_cell_setting 'triclinic'
loop_
_space_group_symop_operation_xyz
x,y,z
-x,-y,-z
loop_
_atom_site_type_symbol
_atom_site_label
_atom_site_fract_x
_atom_site_fract_y
_atom_site_fract_z
Si Si1 0.050870 0.817256 0.146208
Si Si2 0.064879 0.735464 0.343878
Si Si3 0.541149 0.229426 0.500000
Si Si4 0.559344 0.359614 0.285282
Si Si5 0.011219 0.133677 0.285282
Si Si6 0.241544 0.221918 0.146209
Si Si7 0.622877 0.956464 0.343880
Si Si8 0.992518 0.753741 1.000000
O O1 0.021557 0.722424 0.256282
O O2 0.325383 0.646762 0.187471
O O3 0.944749 0.784462 0.085127
O O4 0.934800 0.097193 0.064832
O O5 0.329998 0.509856 0.441012
O O6 0.897324 0.739180 0.397323
O O7 0.994495 0.991075 0.268782
O O8 0.595467 0.231965 0.408961
O O9 0.447970 0.101163 0.558986
O O10 0.777544 0.081529 0.591039
O O11 0.776631 0.323261 0.276632
O O12 0.543068 0.216786 0.268783
O O13 0.049556 0.284677 0.187471
O O14 0.194864 0.467160 0.064834
O O15 0.491006 0.987697 0.256284
O O16 0.225504 0.144082 0.085129
#
# Coordination Sequence:
#
# PCOD8001931 Si02
#       8
#     2   2   2   2   2   2   2   2
#     4  10  20  38  60  86 114 150 188 238 284 332
#     4  10  20  36  57  85 116 151 189 230 283 343
#     4  10  20  34  60  82 116 148 194 232 280 326
#     4  10  20  36  57  85 116 151 189 230 283 343
#     4  10  20  36  57  85 116 151 189 230 283 343
#     4  10  20  38  60  86 114 150 188 238 284 332
#     4  10  20  36  57  85 116 151 189 230 283 343
#     4  10  20  38  62  82 114 152 188 236 292 332
#
# _framework density 21.33155
#
# number of rings (size 3 to 8) (size 9 to 14) (size 15 to 20)
#    0.000    2.000    2.500    1.500    0.000    0.000 
#    0.000    8.750    0.000    0.000    0.000    0.000 
#    0.000    0.000    0.000    0.000    0.000    0.000 
#
# Total GULP energy -198231.874978 kJ/mol
# GULP energy per Si atom -12389.492186 kJ/mol
# Density = 2.128300 g / cm^3
# Si number density = 21.331550 Si / 1000 Ang^3
#
#
#
# Elastic Constant Matrix: (Units=GPa)
#
#
# Indices 1 2 3 4 5 6 
#
# 1 84.5759 44.8275 28.1235 4.9759 2.9998 -18.3648
# 2 44.8275 73.3266 27.1560 5.9632 6.0919 3.0616
# 3 28.1235 27.1560 91.4278 12.5128 7.6605 -2.3990
# 4 4.9759 5.9632 12.5128 32.7133 12.0451 1.9501
# 5 2.9998 6.0919 7.6605 12.0451 22.8542 -0.2271
# 6 -18.3648 3.0616 -2.3990 1.9501 -0.2271 40.4154
#
#
#
# Elastic Compliance Matrix: (Units=1/GPa)
#
#
# Indices 1 2 3 4 5 6 
#
# 1 0.021930 -0.012972 -0.002600 -0.001488 0.002343 0.010878
# 2 -0.012972 0.023237 -0.002890 0.000793 -0.004019 -0.007887
# 3 -0.002600 -0.002890 0.013208 -0.003608 -0.001414 -0.000012
# 4 -0.001488 0.000793 -0.003608 0.039430 -0.019617 -0.002963
# 5 0.002343 -0.004019 -0.001414 -0.019617 0.055358 0.002543
# 6 0.010878 -0.007887 -0.000012 -0.002963 0.002543 0.030440
#
#
# Mechanical properties :
#
#
# Convention : Reuss Voigt Hill
#
# Bulk Modulus (GPa) = 46.61934 49.94938 48.28436
# Shear Modulus (GPa) = 21.96078 29.14479 25.55279
#
# Velocity S-wave (km/s) = 3.21206 3.70033 3.46481
# Velocity P-wave (km/s) = 5.97148 6.45934 6.22019
#
# Compressibility (1/GPa) = 0.02145033
#
# Stress axis : x y z
#
# Youngs Moduli (GPa) = 45.59897 43.03485 75.71221
#
# Poissons Ratio (x) = 0.55824 0.19687
# Poissons Ratio (y) = 0.59150 0.21884
# Poissons Ratio (z) = 0.11857 0.12439
#
# Static dielectric constant tensor:
#      x y z
#    x 3.705650 0.030380 0.072790 
#    y 0.030380 3.736030 0.114610 
#    z 0.072790 0.114610 3.887800 
# 
# 
# High freq. dielectric constant tensor:
#      x y z
#    x 1.812230 0.008170 0.003980 
#    y 0.008170 1.818970 0.007580 
#    z 0.003980 0.007580 1.848860 
# 
# From -- ./inp_files/299770.got.cif
#   From: 2010.06.25/outbox.cif.g09.slc.cpg/sg2_150_cif.got.tgz:299770.got - 2010.06.27 13:26:56.
