data_PCOD8001640
_publ_section_title
;
Structure prediction by ZEFSAII (Michael W. Deem and Ramdas Pophale) SiO2 
 PCOD8001640
Probable space group: P -1
;
_chemical_formula_sum "Si O2"
_cell_formula_units_Z 16
_cell_length_a 8.040359
_cell_length_b 13.640943
_cell_length_c 13.887317
_cell_angle_alpha 56.616567
_cell_angle_beta 139.994275
_cell_angle_gamma 103.285214
_cell_volume 763.713473
_symmetry_space_group_name_H-M "P -1"
_symmetry_group_IT_number 2
_symmetry_cell_setting 'triclinic'
loop_
_space_group_symop_operation_xyz
x,y,z
-x,-y,-z
loop_
_atom_site_type_symbol
_atom_site_label
_atom_site_fract_x
_atom_site_fract_y
_atom_site_fract_z
Si Si1 0.733254 0.308056 0.262564
Si Si2 0.803098 0.477492 0.047169
Si Si3 0.112151 0.884595 0.246901
Si Si4 0.058552 0.659022 0.004213
Si Si5 0.221727 0.842525 0.100498
Si Si6 0.358839 0.138938 0.398251
Si Si7 0.798799 0.875604 0.294858
Si Si8 0.132629 0.903113 0.693225
O O1 0.852323 0.403634 0.209095
O O2 0.956005 0.221114 0.482472
O O3 0.645530 0.219871 0.193669
O O4 0.466773 0.397861 0.150034
O O5 0.789876 0.382489 0.008488
O O6 0.052003 0.530992 0.118413
O O7 0.143817 0.825407 0.186140
O O8 0.414542 0.825599 0.460365
O O9 0.887624 0.853595 0.232921
O O10 0.019140 0.035554 0.114759
O O11 0.750607 0.763059 0.791348
O O12 0.233311 0.718411 0.115891
O O13 0.517279 0.856155 0.207870
O O14 0.097515 0.147662 0.341697
O O15 0.500000 0.000000 0.500000
O O16 0.750478 0.023571 0.215880
O O17 0.000000 0.000000 0.500000
#
# Coordination Sequence:
#
# PCOD8001640 Si02
#       8
#     2   2   2   2   2   2   2   2
#     4  10  21  41  64  97 123 160 223 270 309 375
#     4  10  23  41  67  90 122 168 225 268 309 360
#     4  11  23  39  63  99 132 171 201 254 337 394
#     4  11  23  43  65  92 127 170 212 269 317 368
#     4  11  25  41  60  97 139 166 205 258 326 404
#     4  12  20  37  67  94 126 161 214 262 317 378
#     4  11  22  41  65  94 135 169 201 262 333 391
#     4  10  20  33  61  98 123 156 199 266 323 370
#
# _framework density 20.950265000000002
#
# number of rings (size 3 to 8) (size 9 to 14) (size 15 to 20)
#    0.000    1.250    3.750    2.625    1.750    2.000 
#    4.500    1.250    0.000    0.000    0.000    0.000 
#    0.000    0.000    0.000    0.000    0.000    0.000 
#
# Total GULP energy -198252.756226 kJ/mol
# GULP energy per Si atom -12390.797264 kJ/mol
# Density = 2.090258 g / cm^3
# Si number density = 20.950265 Si / 1000 Ang^3
#
#
#
# Elastic Constant Matrix: (Units=GPa)
#
#
# Indices 1 2 3 4 5 6 
#
# 1 118.9034 47.1322 20.6774 4.3980 -9.8031 -12.6804
# 2 47.1322 107.9987 30.0849 -3.8563 9.9216 -16.1550
# 3 20.6774 30.0849 71.9609 -7.1155 -1.0774 -7.3325
# 4 4.3980 -3.8563 -7.1155 30.8081 -0.9071 4.8427
# 5 -9.8031 9.9216 -1.0774 -0.9071 33.3081 -8.2773
# 6 -12.6804 -16.1550 -7.3325 4.8427 -8.2773 29.8940
#
#
#
# Elastic Compliance Matrix: (Units=1/GPa)
#
#
# Indices 1 2 3 4 5 6 
#
# 1 0.011492 -0.004718 -0.001119 -0.002968 0.005691 0.004107
# 2 -0.004718 0.013288 -0.003904 0.000860 -0.004763 0.002764
# 3 -0.001119 -0.003904 0.016343 0.003280 0.001797 0.001390
# 4 -0.002968 0.000860 0.003280 0.034651 -0.001581 -0.006040
# 5 0.005691 -0.004763 0.001797 -0.001581 0.035723 0.010429
# 6 0.004107 0.002764 0.001390 -0.006040 0.010429 0.040894
#
#
# Mechanical properties :
#
#
# Convention : Reuss Voigt Hill
#
# Bulk Modulus (GPa) = 46.21112 54.96132 50.58622
# Shear Modulus (GPa) = 27.91937 32.19994 30.05966
#
# Velocity S-wave (km/s) = 3.65451 3.92467 3.79200
# Velocity P-wave (km/s) = 6.31765 6.84314 6.58564
#
# Compressibility (1/GPa) = 0.02163981
#
# Stress axis : x y z
#
# Youngs Moduli (GPa) = 87.01738 75.25837 61.18750
#
# Poissons Ratio (x) = 0.35506 0.06850
# Poissons Ratio (y) = 0.41054 0.23888
# Poissons Ratio (z) = 0.09741 0.29382
#
# Static dielectric constant tensor:
#      x y z
#    x 3.936850 -0.329400 -0.319260 
#    y -0.329400 3.827160 -0.309420 
#    z -0.319260 -0.309420 3.431180 
# 
# 
# High freq. dielectric constant tensor:
#      x y z
#    x 1.841550 -0.007950 -0.012360 
#    y -0.007950 1.806140 -0.019790 
#    z -0.012360 -0.019790 1.803450 
# 
# From -- ./inp_files/320737.got.cif
#   From: 2010.06.25/outbox.cif.g09.slc.cpg/sg2_161_cif.got.tgz:320737.got - 2010.06.27 13:26:56.
