data_PCOD8001386
_publ_section_title
;
Structure prediction by ZEFSAII (Michael W. Deem and Ramdas Pophale) SiO2 
 PCOD8001386
Probable space group: P -1
;
_chemical_formula_sum "Si O2"
_cell_formula_units_Z 14
_cell_length_a 14.188266
_cell_length_b 12.183765
_cell_length_c 11.911366
_cell_angle_alpha 156.298661
_cell_angle_beta 66.841842
_cell_angle_gamma 115.243478
_cell_volume 748.622446
_symmetry_space_group_name_H-M "P -1"
_symmetry_group_IT_number 2
_symmetry_cell_setting 'triclinic'
loop_
_space_group_symop_operation_xyz
x,y,z
-x,-y,-z
loop_
_atom_site_type_symbol
_atom_site_label
_atom_site_fract_x
_atom_site_fract_y
_atom_site_fract_z
Si Si1 0.335593 0.960132 0.499514
Si Si2 0.779659 0.550255 0.032713
Si Si3 0.460219 0.502496 0.347411
Si Si4 0.999976 0.776648 0.194606
Si Si5 0.780538 0.244037 0.982099
Si Si6 0.541321 0.944400 0.250691
Si Si7 0.665347 0.643432 0.518846
O O1 0.433020 0.909339 0.333460
O O2 0.299650 0.235165 0.727040
O O3 0.363349 0.999417 0.654025
O O4 0.247481 0.682646 0.269402
O O5 0.894918 0.733830 0.128677
O O6 0.771672 0.385565 0.998916
O O7 0.569891 0.493956 0.347346
O O8 0.366916 0.361980 0.340868
O O9 0.446710 0.815522 0.622626
O O10 0.453726 0.341803 0.082475
O O11 0.104735 0.833838 0.123545
O O12 0.000000 0.000000 0.500000
O O13 0.000000 0.500000 0.000000
O O14 0.698437 0.959328 0.759768
O O15 0.757027 0.462992 0.291735
#
# Coordination Sequence:
#
# PCOD8001386 Si02
#       7
#     2   2   2   2   2   2   2
#     4  11  22  34  54  78 102 141 176 201 259 310
#     4  11  20  34  53  78 109 137 167 209 255 311
#     4  11  22  36  52  76 107 136 173 217 249 298
#     4  10  20  32  50  78 108 136 166 206 260 310
#     4  11  20  34  53  78 109 137 167 209 255 311
#     4  11  22  36  52  76 107 136 173 217 249 298
#     4  11  22  34  54  78 102 141 176 201 259 310
#
# _framework density 18.701015999999999
#
# number of rings (size 3 to 8) (size 9 to 14) (size 15 to 20)
#    0.000    1.143    0.000   10.286    0.000    4.571 
#    0.000    0.000    0.000    0.000    0.000   20.000 
#    0.000    0.000    0.000    0.000    0.000    0.000 
#
# Total GULP energy -173620.382383 kJ/mol
# GULP energy per Si atom -12401.455884 kJ/mol
# Density = 1.865845 g / cm^3
# Si number density = 18.701016 Si / 1000 Ang^3
#
#
#
# Elastic Constant Matrix: (Units=GPa)
#
#
# Indices 1 2 3 4 5 6 
#
# 1 89.4712 34.2483 32.3970 -6.2448 8.5619 4.0028
# 2 34.2483 64.9397 20.3397 -6.9705 0.8826 8.7412
# 3 32.3970 20.3397 117.2648 0.0711 3.2645 3.3279
# 4 -6.2448 -6.9705 0.0711 26.6743 1.2447 3.0520
# 5 8.5619 0.8826 3.2645 1.2447 33.2863 -4.2683
# 6 4.0028 8.7412 3.3279 3.0520 -4.2683 17.9042
#
#
#
# Elastic Compliance Matrix: (Units=1/GPa)
#
#
# Indices 1 2 3 4 5 6 
#
# 1 0.015382 -0.006808 -0.002945 0.002093 -0.003668 -0.000799
# 2 -0.006808 0.021291 -0.001545 0.005060 -0.000065 -0.009463
# 3 -0.002945 -0.001545 0.009620 -0.001087 -0.000133 -0.000222
# 4 0.002093 0.005060 -0.001087 0.040664 -0.003431 -0.010486
# 5 -0.003668 -0.000065 -0.000133 -0.003431 0.032304 0.009162
# 6 -0.000799 -0.009463 -0.000222 -0.010486 0.009162 0.064664
#
#
# Mechanical properties :
#
#
# Convention : Reuss Voigt Hill
#
# Bulk Modulus (GPa) = 42.19929 49.51620 45.85774
# Shear Modulus (GPa) = 23.31874 27.88568 25.60221
#
# Velocity S-wave (km/s) = 3.53501 3.86571 3.70405
# Velocity P-wave (km/s) = 6.26705 6.81617 6.54737
#
# Compressibility (1/GPa) = 0.02369708
#
# Stress axis : x y z
#
# Youngs Moduli (GPa) = 65.01127 46.96849 103.95010
#
# Poissons Ratio (x) = 0.31975 0.30616
# Poissons Ratio (y) = 0.44258 0.16059
# Poissons Ratio (z) = 0.19148 0.07256
#
# Static dielectric constant tensor:
#      x y z
#    x 49.078890 15.934990 -1.581510 
#    y 15.934990 8.732780 -0.533600 
#    z -1.581510 -0.533600 3.626160 
# 
# 
# High freq. dielectric constant tensor:
#      x y z
#    x 1.716710 0.011540 -0.001600 
#    y 0.011540 1.693630 0.009450 
#    z -0.001600 0.009450 1.751950 
# 
# From -- ./inp_files/119064.got.cif
#   From: 2010.06.25/outbox.cif.g09.slc.cpg/sg2_60_cif.got.tgz:119064.got - 2010.06.27 13:26:56.
