data_PCOD8001308
_publ_section_title
;
Structure prediction by ZEFSAII (Michael W. Deem and Ramdas Pophale) SiO2 
 PCOD8001308
Probable space group: P -1
;
_chemical_formula_sum "Si O2"
_cell_formula_units_Z 12
_cell_length_a 7.753746
_cell_length_b 13.225398
_cell_length_c 11.913587
_cell_angle_alpha 140.439843
_cell_angle_beta 119.365994
_cell_angle_gamma 86.842086
_cell_volume 551.479482
_symmetry_space_group_name_H-M "P -1"
_symmetry_group_IT_number 2
_symmetry_cell_setting 'triclinic'
loop_
_space_group_symop_operation_xyz
x,y,z
-x,-y,-z
loop_
_atom_site_type_symbol
_atom_site_label
_atom_site_fract_x
_atom_site_fract_y
_atom_site_fract_z
Si Si1 0.375764 0.304566 0.221191
Si Si2 0.527229 0.914580 0.766901
Si Si3 0.865282 0.970441 0.732166
Si Si4 0.618774 0.306456 0.085235
Si Si5 0.977989 0.703360 0.446538
Si Si6 0.238716 0.154639 0.642166
O O1 0.500000 0.500000 0.500000
O O2 0.428349 0.156666 0.164539
O O3 0.484231 0.356426 0.174623
O O4 0.083490 0.194607 0.025829
O O5 0.649059 0.872231 0.668975
O O6 0.238993 0.793647 0.551186
O O7 0.651390 0.145982 0.008008
O O8 0.991102 0.853777 0.670020
O O9 0.750845 0.954035 0.558620
O O10 0.472056 0.234033 0.860029
O O11 0.882286 0.501242 0.305668
O O12 0.791810 0.675580 0.264568
O O13 0.000000 0.000000 0.500000
#
# Coordination Sequence:
#
# PCOD8001308 Si02
#       6
#     2   2   2   2   2   2
#     4  12  26  45  70  98 141 182 223 279 339 399
#     4  12  25  44  69 103 136 179 227 274 334 405
#     4  10  24  46  68  96 142 174 222 283 336 391
#     4  12  23  44  74 101 134 181 225 277 336 401
#     4  10  24  44  70 102 135 178 220 277 341 397
#     4  10  19  46  72  95 141 174 218 282 342 388
#
# _framework density 21.759647999999999
#
# number of rings (size 3 to 8) (size 9 to 14) (size 15 to 20)
#    1.000    0.000    5.000    2.500    2.333    1.333 
#    0.000    0.833    0.000    0.000    0.000    0.000 
#    0.000    0.000    0.000    0.000    0.000    0.000 
#
# Total GULP energy -148728.453058 kJ/mol
# GULP energy per Si atom -12394.037755 kJ/mol
# Density = 2.171012 g / cm^3
# Si number density = 21.759648 Si / 1000 Ang^3
#
#
#
# Elastic Constant Matrix: (Units=GPa)
#
#
# Indices 1 2 3 4 5 6 
#
# 1 114.6703 26.8279 41.3546 0.1005 10.2537 21.5024
# 2 26.8279 93.4451 42.8608 16.8023 -7.3041 9.3367
# 3 41.3546 42.8608 126.2866 3.4785 -4.7963 8.5022
# 4 0.1005 16.8023 3.4785 44.9193 7.0525 -0.5753
# 5 10.2537 -7.3041 -4.7963 7.0525 18.6077 8.5336
# 6 21.5024 9.3367 8.5022 -0.5753 8.5336 33.9626
#
#
#
# Elastic Compliance Matrix: (Units=1/GPa)
#
#
# Indices 1 2 3 4 5 6 
#
# 1 0.011856 -0.002550 -0.003074 0.002253 -0.007268 -0.004171
# 2 -0.002550 0.015845 -0.003550 -0.007571 0.011854 -0.004960
# 3 -0.003074 -0.003550 0.010277 0.000041 0.003135 -0.000438
# 4 0.002253 -0.007571 0.000041 0.027867 -0.017266 0.005455
# 5 -0.007268 0.011854 0.003135 -0.017266 0.078698 -0.019509
# 6 -0.004171 -0.004960 -0.000438 0.005455 -0.019509 0.038552
#
#
# Mechanical properties :
#
#
# Convention : Reuss Voigt Hill
#
# Bulk Modulus (GPa) = 50.94247 61.83208 56.38728
# Shear Modulus (GPa) = 24.03979 34.38847 29.21413
#
# Velocity S-wave (km/s) = 3.32744 3.97971 3.66810
# Velocity P-wave (km/s) = 6.18262 7.04238 6.62646
#
# Compressibility (1/GPa) = 0.01962998
#
# Stress axis : x y z
#
# Youngs Moduli (GPa) = 84.34521 63.10966 97.30072
#
# Poissons Ratio (x) = 0.16094 0.29912
# Poissons Ratio (y) = 0.21510 0.34542
# Poissons Ratio (z) = 0.25929 0.22404
#
# Static dielectric constant tensor:
#      x y z
#    x 3.729170 0.107940 0.113060 
#    y 0.107940 4.185330 -0.158130 
#    z 0.113060 -0.158130 4.138860 
# 
# 
# High freq. dielectric constant tensor:
#      x y z
#    x 1.843370 0.017420 0.008730 
#    y 0.017420 1.862030 0.001440 
#    z 0.008730 0.001440 1.846450 
# 
# From -- ./inp_files/213714.got.cif
#   From: 2010.06.25/outbox.cif.g09.slc.cpg/sg2_107_cif.got.tgz:213714.got - 2010.06.27 13:26:56.
