data_PCOD8001850
_publ_section_title
;
Structure prediction by ZEFSAII (Michael W. Deem and Ramdas Pophale) SiO2 
 PCOD8001850
Probable space group: P -1
;
_chemical_formula_sum "Si O2"
_cell_formula_units_Z 16
_cell_length_a 5.048878
_cell_length_b 25.299944
_cell_length_c 14.449588
_cell_angle_alpha 149.330554
_cell_angle_beta 116.071548
_cell_angle_gamma 82.377448
_cell_volume 714.189271
_symmetry_space_group_name_H-M "P -1"
_symmetry_group_IT_number 2
_symmetry_cell_setting 'triclinic'
loop_
_space_group_symop_operation_xyz
x,y,z
-x,-y,-z
loop_
_atom_site_type_symbol
_atom_site_label
_atom_site_fract_x
_atom_site_fract_y
_atom_site_fract_z
Si Si1 0.705594 0.429676 0.664426
Si Si2 0.378034 0.966560 0.703623
Si Si3 0.890239 0.813374 0.231187
Si Si4 0.363341 0.368554 0.327545
Si Si5 0.751545 0.836491 0.540522
Si Si6 0.299192 0.395396 0.733248
Si Si7 0.595829 0.210822 0.023479
Si Si8 0.276711 0.692496 0.082702
O O1 0.427794 0.373228 0.454551
O O2 0.520368 0.447447 0.751008
O O3 0.894756 0.356010 0.605938
O O4 0.036759 0.554508 0.867432
O O5 0.638592 0.921673 0.701313
O O6 0.161101 0.913492 0.495019
O O7 0.133785 0.928337 0.697444
O O8 0.598266 0.113745 0.947540
O O9 0.550824 0.703199 0.065839
O O10 0.049213 0.748368 0.098113
O O11 0.738651 0.866594 0.213526
O O12 0.500000 0.500000 0.500000
O O13 0.565495 0.311903 0.226575
O O14 0.946089 0.281140 0.121593
O O15 0.730205 0.732554 0.445497
O O16 0.473070 0.770336 0.318829
O O17 0.500000 0.500000 0.000000
#
# Coordination Sequence:
#
# PCOD8001850 Si02
#       8
#     2   2   2   2   2   2   2   2
#     4  12  24  40  63  93 133 169 211 257 318 380
#     4  10  22  38  63  91 127 168 206 263 325 376
#     4  10  20  35  59  93 124 163 208 261 318 370
#     4  12  27  45  66  94 129 175 218 257 307 369
#     4  10  21  38  59  94 128 158 197 258 333 384
#     4  12  24  39  67  99 131 163 206 265 334 383
#     4  12  23  42  65  88 126 169 225 261 306 374
#     4  10  20  34  57  89 131 161 197 250 321 391
#
# _framework density 22.403027000000002
#
# number of rings (size 3 to 8) (size 9 to 14) (size 15 to 20)
#    0.000    1.000    1.250    6.375    3.500    0.000 
#    0.000    5.000    0.000   15.000    0.000    0.000 
#    0.000    0.000    0.000    0.000    0.000    0.000 
#
# Total GULP energy -198350.216883 kJ/mol
# GULP energy per Si atom -12396.888555 kJ/mol
# Density = 2.235204 g / cm^3
# Si number density = 22.403027 Si / 1000 Ang^3
#
#
#
# Elastic Constant Matrix: (Units=GPa)
#
#
# Indices 1 2 3 4 5 6 
#
# 1 254.0181 88.0745 19.2350 44.4718 12.1081 39.9124
# 2 88.0745 122.2811 19.7705 28.8518 0.9696 10.2502
# 3 19.2350 19.7705 62.6927 20.0997 -1.9745 -6.8000
# 4 44.4718 28.8518 20.0997 58.2664 7.7082 12.7469
# 5 12.1081 0.9696 -1.9745 7.7082 24.6065 10.1060
# 6 39.9124 10.2502 -6.8000 12.7469 10.1060 59.4449
#
#
#
# Elastic Compliance Matrix: (Units=1/GPa)
#
#
# Indices 1 2 3 4 5 6 
#
# 1 0.006058 -0.003585 -0.000466 -0.001908 -0.001085 -0.002909
# 2 -0.003585 0.011622 -0.001537 -0.002849 0.001861 0.000522
# 3 -0.000466 -0.001537 0.019196 -0.006648 0.002352 0.003799
# 4 -0.001908 -0.002849 -0.006648 0.023752 -0.005640 -0.003123
# 5 -0.001085 0.001861 0.002352 -0.005640 0.045455 -0.005842
# 6 -0.002909 0.000522 0.003799 -0.003123 -0.005842 0.020783
#
#
# Mechanical properties :
#
#
# Convention : Reuss Voigt Hill
#
# Bulk Modulus (GPa) = 38.91037 77.01691 57.96364
# Shear Modulus (GPa) = 34.10448 49.25768 41.68108
#
# Velocity S-wave (km/s) = 3.90592 4.69412 4.31804
# Velocity P-wave (km/s) = 6.14391 7.98951 7.12671
#
# Compressibility (1/GPa) = 0.02570009
#
# Stress axis : x y z
#
# Youngs Moduli (GPa) = 165.07304 86.04077 52.09470
#
# Poissons Ratio (x) = 0.30849 0.02428
# Poissons Ratio (y) = 0.59185 0.08005
# Poissons Ratio (z) = 0.07694 0.13221
#
# Static dielectric constant tensor:
#      x y z
#    x 4.364970 -0.225470 -0.034520 
#    y -0.225470 4.122440 0.044970 
#    z -0.034520 0.044970 3.661460 
# 
# 
# High freq. dielectric constant tensor:
#      x y z
#    x 1.904880 -0.008700 0.000220 
#    y -0.008700 1.883750 0.011160 
#    z 0.000220 0.011160 1.856490 
# 
# From -- ./inp_files/485979.got.cif
#   From: 2010.06.25/outbox.cif.g09.slc.cpg/sg2_243_cif.got.tgz:485979.got - 2010.06.27 13:26:56.
