data_PCOD8001970
_publ_section_title
;
Structure prediction by ZEFSAII (Michael W. Deem and Ramdas Pophale) SiO2 
 PCOD8001970
Probable space group: P -1
;
_chemical_formula_sum "Si O2"
_cell_formula_units_Z 16
_cell_length_a 12.661131
_cell_length_b 15.504546
_cell_length_c 11.615892
_cell_angle_alpha 134.233322
_cell_angle_beta 120.558662
_cell_angle_gamma 28.447895
_cell_volume 740.592946
_symmetry_space_group_name_H-M "P -1"
_symmetry_group_IT_number 2
_symmetry_cell_setting 'triclinic'
loop_
_space_group_symop_operation_xyz
x,y,z
-x,-y,-z
loop_
_atom_site_type_symbol
_atom_site_label
_atom_site_fract_x
_atom_site_fract_y
_atom_site_fract_z
Si Si1 0.130725 0.485107 0.902665
Si Si2 0.566454 0.121542 0.664762
Si Si3 0.260628 0.234803 0.425835
Si Si4 0.477237 0.319226 0.256958
Si Si5 0.853698 0.025449 0.582833
Si Si6 0.344201 0.680261 0.455517
Si Si7 0.986708 0.672891 0.237385
Si Si8 0.325256 0.088118 0.077905
O O1 0.380875 0.318655 0.840968
O O2 0.159073 0.324527 0.813250
O O3 0.940268 0.654450 0.854863
O O4 0.056447 0.629403 0.102267
O O5 0.422003 0.200527 0.544294
O O6 0.739847 0.874760 0.583055
O O7 0.725146 0.106963 0.709012
O O8 0.000000 0.500000 0.500000
O O9 0.381515 0.088663 0.237733
O O10 0.496433 0.431101 0.303835
O O11 0.530319 0.307773 0.409128
O O12 0.220695 0.475778 0.259697
O O13 0.651946 0.076353 0.071027
O O14 0.827234 0.919500 0.404932
O O15 0.122953 0.838486 0.565019
O O16 0.721646 0.238270 0.636129
O O17 0.500000 0.000000 0.000000
#
# Coordination Sequence:
#
# PCOD8001970 Si02
#       8
#     2   2   2   2   2   2   2   2
#     4  11  22  37  56  99 132 169 200 253 332 394
#     4  11  24  40  63  91 139 172 205 262 325 390
#     4  11  24  42  59  97 140 174 205 248 334 402
#     4  10  20  38  61  93 125 158 210 282 309 365
#     4  10  21  39  65  88 115 173 218 271 313 372
#     4   9  21  40  63  91 119 163 230 268 312 366
#     4  10  20  34  61  88 129 162 207 259 314 386
#     4  12  24  37  64  98 129 169 212 261 323 384
#
# _framework density 21.604309000000001
#
# number of rings (size 3 to 8) (size 9 to 14) (size 15 to 20)
#    0.000    1.500    2.500    3.000    5.250    0.000 
#    2.250    0.000    0.000   22.500    0.000    0.000 
#    0.000    0.000    0.000    0.000    0.000    0.000 
#
# Total GULP energy -198304.659612 kJ/mol
# GULP energy per Si atom -12394.041226 kJ/mol
# Density = 2.155514 g / cm^3
# Si number density = 21.604309 Si / 1000 Ang^3
#
#
#
# Elastic Constant Matrix: (Units=GPa)
#
#
# Indices 1 2 3 4 5 6 
#
# 1 100.3403 27.0443 16.4604 3.0535 -22.1278 -3.1349
# 2 27.0443 103.4488 9.1360 2.7052 -6.1929 15.5879
# 3 16.4604 9.1360 79.9468 2.3827 -7.0304 8.7698
# 4 3.0535 2.7052 2.3827 31.1330 3.4587 4.8941
# 5 -22.1278 -6.1929 -7.0304 3.4587 29.4022 4.5782
# 6 -3.1349 15.5879 8.7698 4.8941 4.5782 25.0373
#
#
#
# Elastic Compliance Matrix: (Units=1/GPa)
#
#
# Indices 1 2 3 4 5 6 
#
# 1 0.013198 -0.003188 -0.001877 -0.002328 0.008591 0.003179
# 2 -0.003188 0.011776 0.000317 0.000396 0.001382 -0.008172
# 3 -0.001877 0.000317 0.013746 -0.000317 0.002867 -0.005710
# 4 -0.002328 0.000396 -0.000317 0.033838 -0.004764 -0.006171
# 5 0.008591 0.001382 0.002867 -0.004764 0.043223 -0.007762
# 6 0.003179 -0.008172 -0.005710 -0.006171 -0.007762 0.050052
#
#
# Mechanical properties :
#
#
# Convention : Reuss Voigt Hill
#
# Bulk Modulus (GPa) = 34.21864 43.22412 38.72138
# Shear Modulus (GPa) = 27.01677 32.52085 29.76881
#
# Velocity S-wave (km/s) = 3.54012 3.88402 3.71605
# Velocity P-wave (km/s) = 5.70816 6.33757 6.03108
#
# Compressibility (1/GPa) = 0.02922383
#
# Stress axis : x y z
#
# Youngs Moduli (GPa) = 75.76831 84.91892 72.74601
#
# Poissons Ratio (x) = 0.27076 0.13653
# Poissons Ratio (y) = 0.24158 -0.02306
# Poissons Ratio (z) = 0.14221 -0.02692
#
# Static dielectric constant tensor:
#      x y z
#    x 3.867610 0.091130 0.054460 
#    y 0.091130 4.053910 0.010580 
#    z 0.054460 0.010580 3.848830 
# 
# 
# High freq. dielectric constant tensor:
#      x y z
#    x 1.827120 0.008690 0.002010 
#    y 0.008690 1.863880 0.003880 
#    z 0.002010 0.003880 1.829170 
# 
# From -- ./inp_files/433240.got.cif
#   From: 2010.06.25/outbox.cif.g09.slc.cpg/sg2_217_cif.got.tgz:433240.got - 2010.06.27 13:26:56.
