data_PCOD8001338
_publ_section_title
;
Structure prediction by ZEFSAII (Michael W. Deem and Ramdas Pophale) SiO2 
 PCOD8001338
Probable space group: P -1
;
_chemical_formula_sum "Si O2"
_cell_formula_units_Z 16
_cell_length_a 12.539978
_cell_length_b 16.018861
_cell_length_c 10.700953
_cell_angle_alpha 63.446485
_cell_angle_beta 85.661475
_cell_angle_gamma 140.611986
_cell_volume 818.086400
_symmetry_space_group_name_H-M "P -1"
_symmetry_group_IT_number 2
_symmetry_cell_setting 'triclinic'
loop_
_space_group_symop_operation_xyz
x,y,z
-x,-y,-z
loop_
_atom_site_type_symbol
_atom_site_label
_atom_site_fract_x
_atom_site_fract_y
_atom_site_fract_z
Si Si1 0.819984 0.502236 0.181550
Si Si2 0.683053 0.643118 0.749013
Si Si3 0.111101 0.134005 0.780003
Si Si4 0.185279 0.649306 0.001126
Si Si5 0.799245 0.897496 0.733061
Si Si6 0.870012 0.598790 0.833891
Si Si7 0.403262 0.080556 0.368055
Si Si8 0.588907 0.479623 0.367706
O O1 0.589129 0.247750 0.355666
O O2 0.746601 0.513802 0.291011
O O3 0.072920 0.642365 0.104651
O O4 0.876347 0.602387 0.981297
O O5 0.666660 0.692669 0.845499
O O6 0.471737 0.503890 0.759306
O O7 0.675896 0.525565 0.852637
O O8 0.952904 0.886166 0.512148
O O9 0.327501 0.244047 0.616640
O O10 0.236160 0.330929 0.673940
O O11 0.870565 0.956711 0.832076
O O12 0.000000 0.000000 0.000000
O O13 0.189956 0.548524 0.126673
O O14 0.465571 0.889922 0.759790
O O15 0.000000 0.500000 0.000000
O O16 0.604059 0.825627 0.767791
O O17 0.145000 0.840746 0.600317
#
# Coordination Sequence:
#
# PCOD8001338 Si02
#       8
#     2   2   2   2   2   2   2   2
#     4  10  20  31  49  74 104 134 172 208 247 307
#     4   9  17  30  54  79 104 130 171 209 253 309
#     4  10  23  36  51  73 107 139 171 204 255 318
#     4   8  18  31  42  73 107 132 168 206 253 300
#     4   9  17  31  51  79 104 132 166 216 254 299
#     4   9  18  28  48  79 102 134 166 206 258 303
#     4   9  16  31  50  72 105 133 161 215 256 289
#     4  10  21  38  51  75 107 139 165 210 262 296
#
# _framework density 19.557835000000001
#
# number of rings (size 3 to 8) (size 9 to 14) (size 15 to 20)
#    0.000    3.000    1.250    0.000    3.500    7.000 
#    0.000    0.000    0.000    0.750    0.000   18.375 
#    0.000    0.000    0.000    0.000    0.000    0.000 
#
# Total GULP energy -198224.887763 kJ/mol
# GULP energy per Si atom -12389.055485 kJ/mol
# Density = 1.951332 g / cm^3
# Si number density = 19.557835 Si / 1000 Ang^3
#
#
#
# Elastic Constant Matrix: (Units=GPa)
#
#
# Indices 1 2 3 4 5 6 
#
# 1 118.0535 32.4178 37.6044 9.8345 -22.5041 -21.7735
# 2 32.4178 73.9433 14.2933 11.2933 -6.8794 -1.9460
# 3 37.6044 14.2933 75.6362 12.0213 -9.6705 -10.8616
# 4 9.8345 11.2933 12.0213 19.9536 -3.4880 -4.2604
# 5 -22.5041 -6.8794 -9.6705 -3.4880 36.0348 6.6731
# 6 -21.7735 -1.9460 -10.8616 -4.2604 6.6731 24.0737
#
#
#
# Elastic Compliance Matrix: (Units=1/GPa)
#
#
# Indices 1 2 3 4 5 6 
#
# 1 0.013531 -0.004622 -0.004143 0.001193 0.004935 0.008838
# 2 -0.004622 0.016714 -0.000191 -0.007955 0.000299 -0.004406
# 3 -0.004143 -0.000191 0.016931 -0.007414 0.000767 0.002352
# 4 0.001193 -0.007955 -0.007414 0.060357 0.001728 0.007293
# 5 0.004935 0.000299 0.000767 0.001728 0.031951 -0.003717
# 6 0.008838 -0.004406 0.002352 0.007293 -0.003717 0.052559
#
#
# Mechanical properties :
#
#
# Convention : Reuss Voigt Hill
#
# Bulk Modulus (GPa) = 34.17098 48.47379 41.32239
# Shear Modulus (GPa) = 22.75725 28.23359 25.49542
#
# Velocity S-wave (km/s) = 3.41484 3.80359 3.61444
# Velocity P-wave (km/s) = 5.74960 6.64292 6.21234
#
# Compressibility (1/GPa) = 0.02926460
#
# Stress axis : x y z
#
# Youngs Moduli (GPa) = 73.90336 59.83044 59.06217
#
# Poissons Ratio (x) = 0.27652 0.24472
# Poissons Ratio (y) = 0.34157 0.01126
# Poissons Ratio (z) = 0.30621 0.01141
#
# Static dielectric constant tensor:
#      x y z
#    x 4.283850 -0.081220 -0.349490 
#    y -0.081220 3.439340 -0.083940 
#    z -0.349490 -0.083940 3.765850 
# 
# 
# High freq. dielectric constant tensor:
#      x y z
#    x 1.764340 -0.005960 -0.024920 
#    y -0.005960 1.706920 -0.012850 
#    z -0.024920 -0.012850 1.785390 
# 
# From -- ./inp_files/432703.got.cif
#   From: 2010.06.25/outbox.cif.g09.slc.cpg/sg2_217_cif.got.tgz:432703.got - 2010.06.27 13:26:56.
