data_PCOD8001001
_publ_section_title
;
Structure prediction by ZEFSAII (Michael W. Deem and Ramdas Pophale) SiO2 
 PCOD8001001
Probable space group: P -1
;
_chemical_formula_sum "Si O2"
_cell_formula_units_Z 14
_cell_length_a 8.697256
_cell_length_b 7.241101
_cell_length_c 11.728020
_cell_angle_alpha 57.268767
_cell_angle_beta 117.416050
_cell_angle_gamma 105.292879
_cell_volume 551.434023
_symmetry_space_group_name_H-M "P -1"
_symmetry_group_IT_number 2
_symmetry_cell_setting 'triclinic'
loop_
_space_group_symop_operation_xyz
x,y,z
-x,-y,-z
loop_
_atom_site_type_symbol
_atom_site_label
_atom_site_fract_x
_atom_site_fract_y
_atom_site_fract_z
Si Si1 0.793731 0.158338 0.776860
Si Si2 0.265508 0.538280 0.051908
Si Si3 0.858677 0.009561 0.090911
Si Si4 0.407686 0.118310 0.623047
Si Si5 0.788140 0.327300 0.247616
Si Si6 0.363556 0.345495 0.758419
Si Si7 0.168476 0.341222 0.301670
O O1 0.612291 0.095879 0.674615
O O2 0.795393 0.409928 0.731033
O O3 0.960607 0.106805 0.772674
O O4 0.816684 0.998261 0.946285
O O5 0.450967 0.600956 0.143734
O O6 0.184543 0.338990 0.168257
O O7 0.269101 0.496892 0.930214
O O8 0.134961 0.741721 0.946319
O O9 0.701213 0.887647 0.140151
O O10 0.377788 0.317930 0.635983
O O11 0.313807 0.180934 0.453022
O O12 0.334059 0.888054 0.723241
O O13 0.765553 0.458566 0.315368
O O14 0.985573 0.256412 0.318667
#
# Coordination Sequence:
#
# PCOD8001001 Si02
#       7
#     2   2   2   2   2   2   2
#     4  10  21  40  72  99 136 183 233 280 343 410
#     4  11  23  44  74 102 136 185 233 292 342 405
#     4  10  19  40  69 103 132 175 234 284 337 402
#     4  12  25  47  73  99 146 186 224 289 349 419
#     4  12  26  45  70 106 140 182 236 286 343 415
#     4  12  23  43  71 105 140 178 233 285 351 408
#     4  11  24  46  70 101 144 185 229 285 354 409
#
# _framework density 25.388351
#
# number of rings (size 3 to 8) (size 9 to 14) (size 15 to 20)
#    0.000    0.857    5.714    3.000    0.000    0.571 
#    2.571    0.714    3.143    0.000    0.000    0.000 
#    0.000    0.000    0.000    0.000    0.000    0.000 
#
# Total GULP energy -173571.540737 kJ/mol
# GULP energy per Si atom -12397.967195 kJ/mol
# Density = 2.533057 g / cm^3
# Si number density = 25.388351 Si / 1000 Ang^3
#
#
#
# Elastic Constant Matrix: (Units=GPa)
#
#
# Indices 1 2 3 4 5 6 
#
# 1 110.0251 11.2145 20.5196 -4.0075 14.7580 17.3286
# 2 11.2145 38.7146 10.7166 1.5150 -0.5537 6.9263
# 3 20.5196 10.7166 80.3571 -5.8438 16.1423 5.7081
# 4 -4.0075 1.5150 -5.8438 20.4160 4.0289 0.9293
# 5 14.7580 -0.5537 16.1423 4.0289 30.0287 7.4404
# 6 17.3286 6.9263 5.7081 0.9293 7.4404 47.7717
#
#
#
# Elastic Compliance Matrix: (Units=1/GPa)
#
#
# Indices 1 2 3 4 5 6 
#
# 1 0.010680 -0.002476 -0.001098 0.002963 -0.004420 -0.002753
# 2 -0.002476 0.028672 -0.004427 -0.004835 0.005645 -0.003515
# 3 -0.001098 -0.004427 0.015515 0.006277 -0.008833 0.000440
# 4 0.002963 -0.004835 0.006277 0.054121 -0.012109 -0.000291
# 5 -0.004420 0.005645 -0.008833 -0.012109 0.043100 -0.004637
# 6 -0.002753 -0.003515 0.000440 -0.000291 -0.004637 0.023116
#
#
# Mechanical properties :
#
#
# Convention : Reuss Voigt Hill
#
# Bulk Modulus (GPa) = 25.73113 34.88868 30.30990
# Shear Modulus (GPa) = 24.49021 32.08634 28.28828
#
# Velocity S-wave (km/s) = 3.10921 3.55888 3.34162
# Velocity P-wave (km/s) = 4.80069 5.53709 5.18199
#
# Compressibility (1/GPa) = 0.03886344
#
# Stress axis : x y z
#
# Youngs Moduli (GPa) = 93.62891 34.87753 64.45377
#
# Poissons Ratio (x) = 0.08637 0.07078
# Poissons Ratio (y) = 0.23187 0.28536
# Poissons Ratio (z) = 0.10281 0.15441
#
# Static dielectric constant tensor:
#      x y z
#    x 5.057440 -0.099220 -0.160370 
#    y -0.099220 4.405090 0.066880 
#    z -0.160370 0.066880 4.429260 
# 
# 
# High freq. dielectric constant tensor:
#      x y z
#    x 2.032080 0.011790 0.002360 
#    y 0.011790 2.007400 0.000390 
#    z 0.002360 0.000390 1.987600 
# 
# From -- ./inp_files/381132.got.cif
#   From: 2010.06.25/outbox.cif.g09.slc.cpg/sg2_191_cif.got.tgz:381132.got - 2010.06.27 13:26:56.
