data_PCOD8001846
_publ_section_title
;
Structure prediction by ZEFSAII (Michael W. Deem and Ramdas Pophale) SiO2 
 PCOD8001846
Probable space group: P -1
;
_chemical_formula_sum "Si O2"
_cell_formula_units_Z 16
_cell_length_a 11.584557
_cell_length_b 16.598571
_cell_length_c 9.308503
_cell_angle_alpha 100.435835
_cell_angle_beta 56.952973
_cell_angle_gamma 52.450134
_cell_volume 755.113158
_symmetry_space_group_name_H-M "P -1"
_symmetry_group_IT_number 2
_symmetry_cell_setting 'triclinic'
loop_
_space_group_symop_operation_xyz
x,y,z
-x,-y,-z
loop_
_atom_site_type_symbol
_atom_site_label
_atom_site_fract_x
_atom_site_fract_y
_atom_site_fract_z
Si Si1 0.825306 0.635815 0.337321
Si Si2 0.726375 0.844940 0.952822
Si Si3 0.740254 0.403850 0.006798
Si Si4 0.387649 0.354605 0.761987
Si Si5 0.068147 0.905524 0.553544
Si Si6 0.186538 0.656498 0.370475
Si Si7 0.465960 0.884033 0.902363
Si Si8 0.215701 0.185140 0.774385
O O1 0.650204 0.658235 0.378587
O O2 0.694573 0.715148 0.609128
O O3 0.815653 0.721531 0.275126
O O4 0.143317 0.448100 0.064281
O O5 0.547161 0.866089 0.005553
O O6 0.989669 0.720828 0.640302
O O7 0.814844 0.771211 0.026434
O O8 0.571949 0.010765 0.123236
O O9 0.615392 0.546193 0.215846
O O10 0.484429 0.477227 0.167136
O O11 0.874014 0.356827 0.744967
O O12 0.971026 0.249335 0.907916
O O13 0.682281 0.177775 0.561743
O O14 0.154942 0.770177 0.400333
O O15 0.000000 0.000000 0.500000
O O16 0.808150 0.029016 0.874625
O O17 0.500000 0.000000 0.500000
#
# Coordination Sequence:
#
# PCOD8001846 Si02
#       8
#     2   2   2   2   2   2   2   2
#     4  10  20  38  61  81 113 160 187 232 282 348
#     4  10  20  34  57  89 115 144 188 240 281 337
#     4   9  19  37  60  82 111 154 190 231 282 342
#     4   9  20  37  60  78 116 153 193 224 290 341
#     4  10  22  37  59  88 116 148 187 240 284 339
#     4   9  19  38  64  81 113 155 188 228 288 343
#     4  10  21  37  59  84 117 152 190 229 292 342
#     4  11  21  31  56  91 116 142 191 237 283 332
#
# _framework density 21.188876
#
# number of rings (size 3 to 8) (size 9 to 14) (size 15 to 20)
#    0.000    2.250    1.250    1.500    5.250    1.000 
#    0.000    0.625   24.750    0.000    0.000    0.000 
#    0.000    0.000    0.000    0.000    0.000    0.000 
#
# Total GULP energy -198243.904092 kJ/mol
# GULP energy per Si atom -12390.244006 kJ/mol
# Density = 2.114065 g / cm^3
# Si number density = 21.188876 Si / 1000 Ang^3
#
#
#
# Elastic Constant Matrix: (Units=GPa)
#
#
# Indices 1 2 3 4 5 6 
#
# 1 103.5941 34.0645 49.4045 3.1397 -8.0289 -34.7974
# 2 34.0645 66.7612 29.0838 5.2080 -14.1196 -28.2081
# 3 49.4045 29.0838 133.3781 5.5843 -6.6926 -22.3901
# 4 3.1397 5.2080 5.5843 24.5631 -11.4128 -6.0877
# 5 -8.0289 -14.1196 -6.6926 -11.4128 34.9954 7.6477
# 6 -34.7974 -28.2081 -22.3901 -6.0877 7.6477 39.8339
#
#
#
# Elastic Compliance Matrix: (Units=1/GPa)
#
#
# Indices 1 2 3 4 5 6 
#
# 1 0.015473 -0.002046 -0.003626 0.002032 0.000453 0.010253
# 2 -0.002046 0.023510 -0.001975 0.001900 0.006461 0.012801
# 3 -0.003626 -0.001975 0.009406 -0.001284 -0.000379 0.000597
# 4 0.002032 0.001900 -0.001284 0.049284 0.015542 0.006947
# 5 0.000453 0.006461 -0.000379 0.015542 0.036244 0.000174
# 6 0.010253 0.012801 0.000597 0.006947 0.000174 0.044490
#
#
# Mechanical properties :
#
#
# Convention : Reuss Voigt Hill
#
# Bulk Modulus (GPa) = 30.21638 58.75989 44.48814
# Shear Modulus (GPa) = 24.42218 32.62387 28.52303
#
# Velocity S-wave (km/s) = 3.39867 3.92812 3.67295
# Velocity P-wave (km/s) = 5.44910 6.95451 6.24732
#
# Compressibility (1/GPa) = 0.03309463
#
# Stress axis : x y z
#
# Youngs Moduli (GPa) = 64.63020 42.53521 106.31053
#
# Poissons Ratio (x) = 0.08701 0.38552
# Poissons Ratio (y) = 0.13221 0.20999
# Poissons Ratio (z) = 0.23437 0.08402
#
# Static dielectric constant tensor:
#      x y z
#    x 4.532890 -0.783520 -0.339960 
#    y -0.783520 4.165320 0.635980 
#    z -0.339960 0.635980 4.170760 
# 
# 
# High freq. dielectric constant tensor:
#      x y z
#    x 1.838690 -0.026860 -0.004330 
#    y -0.026860 1.789020 0.020260 
#    z -0.004330 0.020260 1.837980 
# 
# From -- ./inp_files/279509.got.cif
#   From: 2010.06.25/outbox.cif.g09.slc.cpg/sg2_140_cif.got.tgz:279509.got - 2010.06.27 13:26:56.
