data_PCOD8001849
_publ_section_title
;
Structure prediction by ZEFSAII (Michael W. Deem and Ramdas Pophale) SiO2 
 PCOD8001849
Probable space group: P -1
;
_chemical_formula_sum "Si O2"
_cell_formula_units_Z 16
_cell_length_a 11.839050
_cell_length_b 8.957520
_cell_length_c 16.277129
_cell_angle_alpha 128.617911
_cell_angle_beta 51.121878
_cell_angle_gamma 121.144175
_cell_volume 1027.362842
_symmetry_space_group_name_H-M "P -1"
_symmetry_group_IT_number 2
_symmetry_cell_setting 'triclinic'
loop_
_space_group_symop_operation_xyz
x,y,z
-x,-y,-z
loop_
_atom_site_type_symbol
_atom_site_label
_atom_site_fract_x
_atom_site_fract_y
_atom_site_fract_z
Si Si1 0.676986 0.106299 0.664929
Si Si2 0.103194 0.328540 0.344121
Si Si3 0.500291 0.042083 0.149046
Si Si4 0.712426 0.683204 0.477069
Si Si5 0.550429 0.460006 0.333720
Si Si6 0.590155 0.427093 0.715634
Si Si7 0.001885 0.666557 0.434495
Si Si8 0.344827 0.175395 0.112639
O O1 0.576063 0.217049 0.692350
O O2 0.842830 0.230883 0.640976
O O3 0.603104 0.086667 0.781190
O O4 0.679946 0.897910 0.552224
O O5 0.242662 0.497094 0.369832
O O6 0.022424 0.234024 0.431778
O O7 0.167855 0.170476 0.205337
O O8 0.998138 0.436093 0.373582
O O9 0.581420 0.250499 0.220278
O O10 0.394031 0.063173 0.129294
O O11 0.626605 0.928355 0.020987
O O12 0.688946 0.571990 0.362192
O O13 0.600863 0.566501 0.554653
O O14 0.879086 0.693146 0.433935
O O15 0.529641 0.590822 0.308978
O O16 0.565253 0.597331 0.849970
#
# Coordination Sequence:
#
# PCOD8001849 Si02
#       8
#     2   2   2   2   2   2   2   2
#     4  10  19  26  43  73  93 110 139 186 226 258
#     4   8  15  27  46  66  88 116 145 173 218 269
#     4   9  16  29  47  69  88 110 152 184 217 255
#     4  10  18  28  43  64  89 122 149 176 214 262
#     4   9  17  30  45  60  89 121 151 178 210 265
#     4   8  15  29  42  66  90 111 140 178 227 252
#     4  10  16  28  44  66  96 115 138 181 220 266
#     4   8  15  29  47  65  88 114 149 180 220 257
#
# _framework density 15.573855
#
# number of rings (size 3 to 8) (size 9 to 14) (size 15 to 20)
#    0.750    2.250    1.250    1.125    0.000    1.000 
#    0.000    0.000    0.000    0.750    0.000   14.000 
#    0.000    0.000    0.000    0.000    0.000    0.000 
#
# Total GULP energy -198229.810775 kJ/mol
# GULP energy per Si atom -12389.363173 kJ/mol
# Density = 1.553841 g / cm^3
# Si number density = 15.573855 Si / 1000 Ang^3
#
#
#
# Elastic Constant Matrix: (Units=GPa)
#
#
# Indices 1 2 3 4 5 6 
#
# 1 69.8471 41.8007 50.5533 7.8309 3.1990 -15.9845
# 2 41.8007 70.2038 41.3304 -2.6191 4.9541 -17.3431
# 3 50.5533 41.3304 121.5234 7.4804 -6.2643 -9.0992
# 4 7.8309 -2.6191 7.4804 18.8075 0.1060 -3.0788
# 5 3.1990 4.9541 -6.2643 0.1060 22.2483 2.5384
# 6 -15.9845 -17.3431 -9.0992 -3.0788 2.5384 18.8933
#
#
#
# Elastic Compliance Matrix: (Units=1/GPa)
#
#
# Indices 1 2 3 4 5 6 
#
# 1 0.030111 -0.010444 -0.007851 -0.008975 -0.005470 0.011379
# 2 -0.010444 0.029649 -0.005622 0.013897 -0.008933 0.019138
# 3 -0.007851 -0.005622 0.013500 -0.004052 0.006989 -0.006901
# 4 -0.008975 0.013897 -0.004052 0.062789 -0.004852 0.014095
# 5 -0.005470 -0.008933 0.006989 -0.004852 0.051676 -0.017196
# 6 0.011379 0.019138 -0.006901 0.014095 -0.017196 0.081407
#
#
# Mechanical properties :
#
#
# Convention : Reuss Voigt Hill
#
# Bulk Modulus (GPa) = 39.33133 58.77146 49.05140
# Shear Modulus (GPa) = 15.36374 20.51580 17.93977
#
# Velocity S-wave (km/s) = 3.14428 3.63343 3.39767
# Velocity P-wave (km/s) = 6.20416 7.44457 6.85249
#
# Compressibility (1/GPa) = 0.02542502
#
# Stress axis : x y z
#
# Youngs Moduli (GPa) = 33.21065 33.72771 74.07374
#
# Poissons Ratio (x) = 0.35226 0.58158
# Poissons Ratio (y) = 0.34686 0.41644
# Poissons Ratio (z) = 0.26075 0.18962
#
# Static dielectric constant tensor:
#      x y z
#    x 2.845570 -0.240700 -0.105750 
#    y -0.240700 2.826910 0.065200 
#    z -0.105750 0.065200 3.012710 
# 
# 
# High freq. dielectric constant tensor:
#      x y z
#    x 1.576820 -0.030100 -0.009910 
#    y -0.030100 1.578560 -0.000450 
#    z -0.009910 -0.000450 1.585210 
# 
# From -- ./inp_files/302915.got.cif
#   From: 2010.06.25/outbox.cif.g09.slc.cpg/sg2_152_cif.got.tgz:302915.got - 2010.06.27 13:26:56.
