data_PCOD8001591
_publ_section_title
;
Structure prediction by ZEFSAII (Michael W. Deem and Ramdas Pophale) SiO2 
 PCOD8001591
Probable space group: P -1
;
_chemical_formula_sum "Si O2"
_cell_formula_units_Z 16
_cell_length_a 31.435096
_cell_length_b 15.710449
_cell_length_c 9.357517
_cell_angle_alpha 131.974292
_cell_angle_beta 40.236414
_cell_angle_gamma 162.198492
_cell_volume 872.300427
_symmetry_space_group_name_H-M "P -1"
_symmetry_group_IT_number 2
_symmetry_cell_setting 'triclinic'
loop_
_space_group_symop_operation_xyz
x,y,z
-x,-y,-z
loop_
_atom_site_type_symbol
_atom_site_label
_atom_site_fract_x
_atom_site_fract_y
_atom_site_fract_z
Si Si1 0.678171 0.835019 0.886694
Si Si2 0.549197 0.861677 0.160524
Si Si3 0.717974 0.423551 0.025067
Si Si4 0.219844 0.356627 0.610280
Si Si5 0.582512 0.218235 0.837019
Si Si6 0.027074 0.829586 0.553004
Si Si7 0.967535 0.314598 0.870951
Si Si8 0.209439 0.562438 0.694727
O O1 0.793441 0.941110 0.603529
O O2 0.768157 0.983079 0.979668
O O3 0.500000 0.500000 0.000000
O O4 0.669144 0.944045 0.956800
O O5 0.391835 0.588148 0.359791
O O6 0.484929 0.776916 0.067601
O O7 0.645636 0.130302 0.260722
O O8 0.669413 0.394739 0.960671
O O9 0.891104 0.626793 0.799215
O O10 0.749744 0.579424 0.225891
O O11 0.572402 0.112574 0.110274
O O12 0.159185 0.379724 0.724334
O O13 0.074556 0.030576 0.591609
O O14 0.720085 0.375059 0.563548
O O15 0.941971 0.607350 0.405875
O O16 0.041673 0.371003 0.884855
O O17 0.000000 0.500000 0.000000
#
# Coordination Sequence:
#
# PCOD8001591 Si02
#       8
#     2   2   2   2   2   2   2   2
#     4  10  20  37  58  81 111 151 191 239 282 332
#     4  11  18  36  60  86 108 146 200 240 275 325
#     4  11  20  36  53  84 120 153 182 223 299 348
#     4  11  21  34  60  82 118 152 182 242 286 342
#     4  10  20  33  57  82 116 146 187 243 274 334
#     4  10  22  36  54  85 112 155 185 230 289 347
#     4  10  20  35  59  83 110 147 189 244 274 332
#     4  11  18  36  57  89 110 140 201 238 279 322
#
# _framework density 18.342303999999999
#
# number of rings (size 3 to 8) (size 9 to 14) (size 15 to 20)
#    0.750    0.750    6.250    1.125    0.000    0.500 
#    2.250    0.625    0.000    0.750    0.000    0.000 
#    0.000    0.000    0.000    0.000    0.000    0.000 
#
# Total GULP energy -198216.248099 kJ/mol
# GULP energy per Si atom -12388.515506 kJ/mol
# Density = 1.830056 g / cm^3
# Si number density = 18.342304 Si / 1000 Ang^3
#
#
#
# Elastic Constant Matrix: (Units=GPa)
#
#
# Indices 1 2 3 4 5 6 
#
# 1 122.7413 28.9359 36.5548 3.7281 -12.0046 7.9520
# 2 28.9359 80.5617 22.6143 7.1651 -0.1866 1.4245
# 3 36.5548 22.6143 48.8163 9.3312 8.1544 6.4124
# 4 3.7281 7.1651 9.3312 19.0032 7.1350 -11.0544
# 5 -12.0046 -0.1866 8.1544 7.1350 29.4247 2.2031
# 6 7.9520 1.4245 6.4124 -11.0544 2.2031 28.5389
#
#
#
# Elastic Compliance Matrix: (Units=1/GPa)
#
#
# Indices 1 2 3 4 5 6 
#
# 1 0.012266 -0.001616 -0.009069 -0.001993 0.008193 -0.002704
# 2 -0.001616 0.014792 -0.005097 -0.003925 0.001859 -0.000807
# 3 -0.009069 -0.005097 0.035854 -0.017216 -0.008650 -0.011276
# 4 -0.001993 -0.003925 -0.017216 0.097165 -0.022924 0.044025
# 5 0.008193 0.001859 -0.008650 -0.022924 0.046260 -0.012883
# 6 -0.002704 -0.000807 -0.011276 0.044025 -0.012883 0.056415
#
#
# Mechanical properties :
#
#
# Convention : Reuss Voigt Hill
#
# Bulk Modulus (GPa) = 31.89944 47.59215 39.74579
# Shear Modulus (GPa) = 16.40618 26.32764 21.36691
#
# Velocity S-wave (km/s) = 2.99397 3.79271 3.41676
# Velocity P-wave (km/s) = 5.42040 6.72180 6.10587
#
# Compressibility (1/GPa) = 0.03134852
#
# Stress axis : x y z
#
# Youngs Moduli (GPa) = 81.52525 67.60628 27.89093
#
# Poissons Ratio (x) = 0.10925 0.25294
# Poissons Ratio (y) = 0.13174 0.14215
# Poissons Ratio (z) = 0.73936 0.34456
#
# Static dielectric constant tensor:
#      x y z
#    x 3.715630 0.269480 -0.188970 
#    y 0.269480 3.460580 0.029960 
#    z -0.188970 0.029960 3.317410 
# 
# 
# High freq. dielectric constant tensor:
#      x y z
#    x 1.704220 0.009400 -0.018160 
#    y 0.009400 1.714960 -0.000990 
#    z -0.018160 -0.000990 1.690030 
# 
# From -- ./inp_files/304887.got.cif
#   From: 2010.06.25/outbox.cif.g09.slc.cpg/sg2_153_cif.got.tgz:304887.got - 2010.06.27 13:26:56.
