data_PCOD8001582
_publ_section_title
;
Structure prediction by ZEFSAII (Michael W. Deem and Ramdas Pophale) SiO2 
 PCOD8001582
Probable space group: P -1
;
_chemical_formula_sum "Si O2"
_cell_formula_units_Z 12
_cell_length_a 9.221690
_cell_length_b 8.906364
_cell_length_c 12.006918
_cell_angle_alpha 78.124056
_cell_angle_beta 141.692004
_cell_angle_gamma 101.016189
_cell_volume 597.505081
_symmetry_space_group_name_H-M "P -1"
_symmetry_group_IT_number 2
_symmetry_cell_setting 'triclinic'
loop_
_space_group_symop_operation_xyz
x,y,z
-x,-y,-z
loop_
_atom_site_type_symbol
_atom_site_label
_atom_site_fract_x
_atom_site_fract_y
_atom_site_fract_z
Si Si1 0.578567 0.444861 0.236898
Si Si2 0.683205 0.110830 0.338340
Si Si3 0.291988 0.461081 0.463651
Si Si4 0.695198 0.956845 0.038051
Si Si5 0.828520 0.613998 0.163449
Si Si6 0.956013 0.865644 0.651285
O O1 0.652459 0.277416 0.347050
O O2 0.601816 0.548655 0.345762
O O3 0.757609 0.507462 0.241664
O O4 0.318171 0.438801 0.027449
O O5 0.861562 0.133870 0.339815
O O6 0.769045 0.994368 0.499168
O O7 0.426191 0.042102 0.155741
O O8 0.500000 0.500000 0.500000
O O9 0.172239 0.297623 0.383281
O O10 0.101954 0.590081 0.312275
O O11 0.786359 0.788426 0.145244
O O12 0.908559 0.084250 0.160263
O O13 0.500000 0.000000 0.000000
#
# Coordination Sequence:
#
# PCOD8001582 Si02
#       6
#     2   2   2   2   2   2
#     4  10  21  38  63  88 116 152 205 254 293 341
#     4   9  18  34  58  90 110 144 192 258 299 326
#     4  12  26  39  57  87 128 168 193 232 297 367
#     4   9  19  33  58  92 117 138 189 256 306 338
#     4  10  21  39  64  89 117 155 201 254 293 338
#     4  10  20  33  56  86 119 149 192 242 296 348
#
# _framework density 20.083511999999999
#
# number of rings (size 3 to 8) (size 9 to 14) (size 15 to 20)
#    0.000    2.000    1.667    1.500    9.333    0.667 
#    0.000    3.333    0.000    4.000    0.000    0.000 
#    0.000    0.000    0.000    0.000    0.000    0.000 
#
# Total GULP energy -148749.964650 kJ/mol
# GULP energy per Si atom -12395.830387 kJ/mol
# Density = 2.003780 g / cm^3
# Si number density = 20.083512 Si / 1000 Ang^3
#
#
#
# Elastic Constant Matrix: (Units=GPa)
#
#
# Indices 1 2 3 4 5 6 
#
# 1 66.3347 34.0357 54.8681 1.3830 17.1146 -1.4568
# 2 34.0357 128.9959 66.1742 21.9105 7.9657 -6.7602
# 3 54.8681 66.1742 125.7863 14.7378 11.6741 -2.2876
# 4 1.3830 21.9105 14.7378 39.2853 -8.5391 1.9160
# 5 17.1146 7.9657 11.6741 -8.5391 20.6193 -0.8120
# 6 -1.4568 -6.7602 -2.2876 1.9160 -0.8120 15.3542
#
#
#
# Elastic Compliance Matrix: (Units=1/GPa)
#
#
# Indices 1 2 3 4 5 6 
#
# 1 0.028717 -0.001191 -0.010214 -0.000363 -0.017752 -0.000215
# 2 -0.001191 0.011905 -0.004685 -0.005768 -0.003151 0.004984
# 3 -0.010214 -0.004685 0.015094 -0.002521 0.000681 -0.000432
# 4 -0.000363 -0.005768 -0.002521 0.033782 0.017702 -0.006229
# 5 -0.017752 -0.003151 0.000681 0.017702 0.071341 -0.001406
# 6 -0.000215 0.004984 -0.000432 -0.006229 -0.001406 0.067941
#
#
# Mechanical properties :
#
#
# Convention : Reuss Voigt Hill
#
# Bulk Modulus (GPa) = 42.48452 70.14144 56.31298
# Shear Modulus (GPa) = 18.60077 26.12103 22.36090
#
# Velocity S-wave (km/s) = 3.04661 3.61032 3.34038
# Velocity P-wave (km/s) = 5.79445 7.23740 6.55574
#
# Compressibility (1/GPa) = 0.02353798
#
# Stress axis : x y z
#
# Youngs Moduli (GPa) = 34.82215 83.99695 66.25043
#
# Poissons Ratio (x) = 0.10002 0.67667
# Poissons Ratio (y) = 0.04147 0.31037
# Poissons Ratio (z) = 0.35567 0.39351
#
# Static dielectric constant tensor:
#      x y z
#    x 3.727870 0.613310 0.374920 
#    y 0.613310 5.057990 0.643140 
#    z 0.374920 0.643140 4.347290 
# 
# 
# High freq. dielectric constant tensor:
#      x y z
#    x 1.721780 -0.026580 0.012740 
#    y -0.026580 1.791700 0.011470 
#    z 0.012740 0.011470 1.809050 
# 
# From -- ./inp_files/145752.got.cif
#   From: 2010.06.25/outbox.cif.g09.slc.cpg/sg2_73_cif.got.tgz:145752.got - 2010.06.27 13:26:56.
