data_PCOD8001708
_publ_section_title
;
Structure prediction by ZEFSAII (Michael W. Deem and Ramdas Pophale) SiO2 
 PCOD8001708
Probable space group: P -1
;
_chemical_formula_sum "Si O2"
_cell_formula_units_Z 10
_cell_length_a 15.024822
_cell_length_b 6.901805
_cell_length_c 11.789476
_cell_angle_alpha 117.091421
_cell_angle_beta 153.111988
_cell_angle_gamma 62.710685
_cell_volume 488.061273
_symmetry_space_group_name_H-M "P -1"
_symmetry_group_IT_number 2
_symmetry_cell_setting 'triclinic'
loop_
_space_group_symop_operation_xyz
x,y,z
-x,-y,-z
loop_
_atom_site_type_symbol
_atom_site_label
_atom_site_fract_x
_atom_site_fract_y
_atom_site_fract_z
Si Si1 0.722861 0.231332 0.251837
Si Si2 0.556630 0.244567 0.636905
Si Si3 0.654641 0.491789 0.024179
Si Si4 0.790839 0.517907 0.828554
Si Si5 0.142993 0.216673 0.814831
O O1 0.734360 0.413765 0.216704
O O2 0.908856 0.197164 0.540407
O O3 0.715843 0.002599 0.118501
O O4 0.526999 0.309615 0.122217
O O5 0.743207 0.295653 0.781968
O O6 0.372991 0.420306 0.436995
O O7 0.500000 0.000000 0.500000
O O8 0.596494 0.292774 0.827064
O O9 0.834836 0.590114 0.196669
O O10 0.786052 0.720574 0.964108
O O11 0.000000 0.500000 0.000000
#
# Coordination Sequence:
#
# PCOD8001708 Si02
#       5
#     2   2   2   2   2
#     4  10  20  34  54  78 104 136 174 212 264 316
#     4  10  21  37  56  80 109 141 179 221 265 315
#     4  10  20  35  54  77 106 137 173 217 262 312
#     4  10  21  37  56  80 109 141 179 221 265 315
#     4  10  20  35  54  77 106 137 173 217 262 312
#
# _framework density 20.489229000000002
#
# number of rings (size 3 to 8) (size 9 to 14) (size 15 to 20)
#    0.000    2.000    0.000    3.600    0.000    0.800 
#    0.000   10.000    0.000    0.000    0.000    0.000 
#    0.000    0.000    0.000    0.000    0.000    0.000 
#
# Total GULP energy -123945.992779 kJ/mol
# GULP energy per Si atom -12394.599278 kJ/mol
# Density = 2.044259 g / cm^3
# Si number density = 20.489229 Si / 1000 Ang^3
#
#
#
# Elastic Constant Matrix: (Units=GPa)
#
#
# Indices 1 2 3 4 5 6 
#
# 1 77.3212 17.5284 19.1257 8.8443 17.4198 -1.3221
# 2 17.5284 89.6188 15.2351 19.0804 9.4703 -9.9333
# 3 19.1257 15.2351 57.8745 7.9788 8.3983 -2.2804
# 4 8.8443 19.0804 7.9788 30.4050 5.5319 -6.4452
# 5 17.4198 9.4703 8.3983 5.5319 26.6437 0.3843
# 6 -1.3221 -9.9333 -2.2804 -6.4452 0.3843 24.5361
#
#
#
# Elastic Compliance Matrix: (Units=1/GPa)
#
#
# Indices 1 2 3 4 5 6 
#
# 1 0.016245 -0.001383 -0.003558 -0.001390 -0.008716 -0.000244
# 2 -0.001383 0.013768 -0.001808 -0.006612 -0.002099 0.003627
# 3 -0.003558 -0.001808 0.019674 -0.002431 -0.002733 0.000309
# 4 -0.001390 -0.006612 -0.002431 0.040542 -0.004504 0.007742
# 5 -0.008716 -0.002099 -0.002733 -0.004504 0.045824 -0.003474
# 6 -0.000244 0.003627 0.000309 0.007742 -0.003474 0.044329
#
#
# Mechanical properties :
#
#
# Convention : Reuss Voigt Hill
#
# Bulk Modulus (GPa) = 27.63176 36.51033 32.07105
# Shear Modulus (GPa) = 24.27876 27.84530 26.06203
#
# Velocity S-wave (km/s) = 3.44605 3.69049 3.57036
# Velocity P-wave (km/s) = 5.41747 6.00147 5.71693
#
# Compressibility (1/GPa) = 0.03619023
#
# Stress axis : x y z
#
# Youngs Moduli (GPa) = 61.55748 72.63292 50.82782
#
# Poissons Ratio (x) = 0.10042 0.18083
# Poissons Ratio (y) = 0.08510 0.09191
# Poissons Ratio (z) = 0.21900 0.13134
#
# Static dielectric constant tensor:
#      x y z
#    x 3.795900 -0.013100 -0.051710 
#    y -0.013100 3.540520 0.164910 
#    z -0.051710 0.164910 3.697810 
# 
# 
# High freq. dielectric constant tensor:
#      x y z
#    x 1.801600 0.002980 -0.005160 
#    y 0.002980 1.788260 0.008810 
#    z -0.005160 0.008810 1.806890 
# 
# From -- ./inp_files/1488.got.cif
#   From: 2010.06.25/outbox.cif.g09.slc.cpg/sg2_1_cif.got.tgz:1488.got - 2010.06.27 13:26:56.
