data_PCOD8001502
_publ_section_title
;
Structure prediction by ZEFSAII (Michael W. Deem and Ramdas Pophale) SiO2 
 PCOD8001502
Probable space group: P -1
;
_chemical_formula_sum "Si O2"
_cell_formula_units_Z 16
_cell_length_a 12.490614
_cell_length_b 13.204137
_cell_length_c 13.315824
_cell_angle_alpha 104.064927
_cell_angle_beta 94.005798
_cell_angle_gamma 23.150795
_cell_volume 766.606886
_symmetry_space_group_name_H-M "P -1"
_symmetry_group_IT_number 2
_symmetry_cell_setting 'triclinic'
loop_
_space_group_symop_operation_xyz
x,y,z
-x,-y,-z
loop_
_atom_site_type_symbol
_atom_site_label
_atom_site_fract_x
_atom_site_fract_y
_atom_site_fract_z
Si Si1 0.660401 0.135653 0.290351
Si Si2 0.431562 0.177410 0.420071
Si Si3 0.329483 0.069052 0.130474
Si Si4 0.245869 0.141820 0.909316
Si Si5 0.344886 0.413335 0.991959
Si Si6 0.112610 0.408680 0.646687
Si Si7 0.719645 0.330492 0.061482
Si Si8 0.658132 0.448287 0.784144
O O1 0.546948 0.188392 0.400144
O O2 0.438621 0.425369 0.302593
O O3 0.644833 0.061284 0.187258
O O4 0.987227 0.888486 0.268173
O O5 0.331679 0.271598 0.552410
O O6 0.154952 0.400371 0.385727
O O7 0.701700 0.849445 0.345590
O O8 0.015840 0.391887 0.233374
O O9 0.595577 0.904505 0.146820
O O10 0.394625 0.888554 0.120655
O O11 0.339149 0.057675 0.009459
O O12 0.887979 0.465377 0.957343
O O13 0.196083 0.625474 0.948849
O O14 0.453237 0.374001 0.090109
O O15 0.526830 0.491237 0.190713
O O16 0.500000 0.500000 0.000000
O O17 0.000000 0.000000 0.000000
#
# Coordination Sequence:
#
# PCOD8001502 Si02
#       8
#     2   2   2   2   2   2   2   2
#     4  11  19  34  55  77 106 136 180 212 269 303
#     4  10  21  38  54  75 102 144 178 231 255 305
#     4  11  21  33  50  76 109 148 176 209 253 322
#     4  10  21  31  48  77 114 143 172 205 255 319
#     4  10  21  33  51  74 112 143 179 207 266 315
#     4  10  22  37  54  74 106 141 188 213 263 300
#     4  10  20  35  53  72 107 143 175 219 261 313
#     4  10  20  33  52  80 101 139 174 222 260 315
#
# _framework density 20.871193999999999
#
# number of rings (size 3 to 8) (size 9 to 14) (size 15 to 20)
#    0.000    1.750    2.500    3.375    3.500    1.000 
#    0.000    0.000    0.000    0.000    0.000    1.750 
#    0.000    0.000    0.000    0.000    0.000    0.000 
#
# Total GULP energy -198210.160856 kJ/mol
# GULP energy per Si atom -12388.135053 kJ/mol
# Density = 2.082369 g / cm^3
# Si number density = 20.871194 Si / 1000 Ang^3
#
#
#
# Elastic Constant Matrix: (Units=GPa)
#
#
# Indices 1 2 3 4 5 6 
#
# 1 37.0516 27.6082 31.1345 7.6282 -20.7806 8.8766
# 2 27.6082 122.2926 22.2185 4.8578 -11.1191 15.7036
# 3 31.1345 22.2185 58.1369 8.8691 -23.3689 9.5833
# 4 7.6282 4.8578 8.8691 27.9318 6.4981 -3.6346
# 5 -20.7806 -11.1191 -23.3689 6.4981 30.3497 -2.0079
# 6 8.8766 15.7036 9.5833 -3.6346 -2.0079 33.0805
#
#
#
# Elastic Compliance Matrix: (Units=1/GPa)
#
#
# Indices 1 2 3 4 5 6 
#
# 1 0.080529 -0.008443 -0.015057 -0.028110 0.045573 -0.013561
# 2 -0.008443 0.010174 -0.000016 0.000759 -0.002401 -0.002622
# 3 -0.015057 -0.000016 0.036428 -0.012995 0.020072 -0.006715
# 4 -0.028110 0.000759 -0.012995 0.058861 -0.040589 0.014951
# 5 0.045573 -0.002401 0.020072 -0.040589 0.086353 -0.016122
# 6 -0.013561 -0.002622 -0.006715 0.014951 -0.016122 0.037722
#
#
# Mechanical properties :
#
#
# Convention : Reuss Voigt Hill
#
# Bulk Modulus (GPa) = 12.48439 42.15596 27.32018
# Shear Modulus (GPa) = 13.02766 27.37371 20.20069
#
# Velocity S-wave (km/s) = 2.50110 3.62547 3.11444
# Velocity P-wave (km/s) = 3.78619 6.14552 5.10405
#
# Compressibility (1/GPa) = 0.08010001
#
# Stress axis : x y z
#
# Youngs Moduli (GPa) = 12.41784 98.28790 27.45144
#
# Poissons Ratio (x) = 0.82981 0.41335
# Poissons Ratio (y) = 0.10484 0.00043
# Poissons Ratio (z) = 0.18698 0.00154
#
# Static dielectric constant tensor:
#      x y z
#    x 4.559320 0.231500 -0.586600 
#    y 0.231500 3.857290 0.056990 
#    z -0.586600 0.056990 3.787020 
# 
# 
# High freq. dielectric constant tensor:
#      x y z
#    x 1.792260 0.000830 -0.040160 
#    y 0.000830 1.831890 0.003240 
#    z -0.040160 0.003240 1.781610 
# 
# From -- ./inp_files/533765.got.cif
#   From: 2010.06.25/outbox.cif.g09.slc.cpg/sg2_267_cif.got.tgz:533765.got - 2010.06.27 13:26:56.
