data_PCOD8001757
_publ_section_title
;
Structure prediction by ZEFSAII (Michael W. Deem and Ramdas Pophale) SiO2 
 PCOD8001757
Probable space group: P -1
;
_chemical_formula_sum "Si O2"
_cell_formula_units_Z 16
_cell_length_a 8.553392
_cell_length_b 14.869871
_cell_length_c 15.814486
_cell_angle_alpha 48.545383
_cell_angle_beta 80.479266
_cell_angle_gamma 41.793188
_cell_volume 757.395087
_symmetry_space_group_name_H-M "P -1"
_symmetry_group_IT_number 2
_symmetry_cell_setting 'triclinic'
loop_
_space_group_symop_operation_xyz
x,y,z
-x,-y,-z
loop_
_atom_site_type_symbol
_atom_site_label
_atom_site_fract_x
_atom_site_fract_y
_atom_site_fract_z
Si Si1 0.363569 0.849839 0.641376
Si Si2 0.170349 0.949408 0.091457
Si Si3 0.986532 0.310445 0.946595
Si Si4 0.814810 0.801208 0.477422
Si Si5 0.518492 0.518804 0.392838
Si Si6 0.485642 0.925821 0.268358
Si Si7 0.798863 0.659346 0.231744
Si Si8 0.280593 0.848938 0.457943
O O1 0.655768 0.587603 0.816714
O O2 0.335691 0.873919 0.527777
O O3 0.392435 0.970740 0.591943
O O4 0.071179 0.970287 0.633002
O O5 0.227315 0.796712 0.238934
O O6 0.505413 0.784628 0.136752
O O7 0.000000 0.000000 0.000000
O O8 0.955638 0.187498 0.009295
O O9 0.149679 0.256211 0.881372
O O10 0.200409 0.186507 0.088847
O O11 0.669262 0.888868 0.341836
O O12 0.161805 0.622557 0.562770
O O13 0.872136 0.630343 0.618976
O O14 0.500000 0.500000 0.500000
O O15 0.491106 0.415903 0.402414
O O16 0.720161 0.736212 0.289742
O O17 0.352257 0.895724 0.347371
#
# Coordination Sequence:
#
# PCOD8001757 Si02
#       8
#     2   2   2   2   2   2   2   2
#     4  10  23  41  59  84 116 158 197 231 286 345
#     4  10  20  34  55  84 113 144 185 230 284 339
#     4  11  23  39  58  85 124 154 183 235 296 352
#     4  10  22  38  59  85 113 152 201 238 275 345
#     4  10  20  36  59  87 113 144 192 243 286 333
#     4  11  22  38  61  89 116 149 192 243 296 337
#     4  10  22  40  60  86 119 151 190 241 295 341
#     4  10  21  40  63  83 115 155 195 240 283 340
#
# _framework density 21.125038
#
# number of rings (size 3 to 8) (size 9 to 14) (size 15 to 20)
#    0.000    1.750    0.000    5.625    0.000    7.000 
#    0.000    0.000    0.000    1.500    0.000    0.000 
#    0.000    0.000    0.000    0.000    0.000    0.000 
#
# Total GULP energy -198232.773229 kJ/mol
# GULP energy per Si atom -12389.548327 kJ/mol
# Density = 2.107696 g / cm^3
# Si number density = 21.125038 Si / 1000 Ang^3
#
#
#
# Elastic Constant Matrix: (Units=GPa)
#
#
# Indices 1 2 3 4 5 6 
#
# 1 76.3240 51.0027 49.3693 8.1398 -4.3433 32.5507
# 2 51.0027 80.6865 53.0838 -5.3225 -14.6594 22.8698
# 3 49.3693 53.0838 161.9293 -10.5775 -17.0931 27.3924
# 4 8.1398 -5.3225 -10.5775 46.4598 3.2817 -5.5250
# 5 -4.3433 -14.6594 -17.0931 3.2817 38.6812 9.2705
# 6 32.5507 22.8698 27.3924 -5.5250 9.2705 39.0677
#
#
#
# Elastic Compliance Matrix: (Units=1/GPa)
#
#
# Indices 1 2 3 4 5 6 
#
# 1 0.034812 -0.014411 -0.002724 -0.011094 0.003216 -0.020991
# 2 -0.014411 0.025319 -0.002540 0.004100 0.007015 -0.002119
# 3 -0.002724 -0.002540 0.008772 0.001612 0.003171 -0.002919
# 4 -0.011094 0.004100 0.001612 0.025774 -0.003614 0.010215
# 5 0.003216 0.007015 0.003171 -0.003614 0.034843 -0.017788
# 6 -0.020991 -0.002119 -0.002919 0.010215 -0.017788 0.052039
#
#
# Mechanical properties :
#
#
# Convention : Reuss Voigt Hill
#
# Bulk Modulus (GPa) = 33.83522 69.53906 51.68714
# Shear Modulus (GPa) = 21.66741 35.87401 28.77071
#
# Velocity S-wave (km/s) = 3.20609 4.12536 3.69443
# Velocity P-wave (km/s) = 5.45498 7.46196 6.53596
#
# Compressibility (1/GPa) = 0.02955501
#
# Stress axis : x y z
#
# Youngs Moduli (GPa) = 28.72552 39.49526 113.99405
#
# Poissons Ratio (x) = 0.56917 0.31048
# Poissons Ratio (y) = 0.41396 0.28953
# Poissons Ratio (z) = 0.07824 0.10031
#
# Static dielectric constant tensor:
#      x y z
#    x 4.023860 0.078350 -0.123520 
#    y 0.078350 3.812040 -0.144730 
#    z -0.123520 -0.144730 4.007760 
# 
# 
# High freq. dielectric constant tensor:
#      x y z
#    x 1.836690 0.004750 -0.004570 
#    y 0.004750 1.811850 -0.004920 
#    z -0.004570 -0.004920 1.842090 
# 
# From -- ./inp_files/182506.got.cif
#   From: 2010.06.25/outbox.cif.g09.slc.cpg/sg2_92_cif.got.tgz:182506.got - 2010.06.27 13:26:56.
