data_PCOD8001294
_publ_section_title
;
Structure prediction by ZEFSAII (Michael W. Deem and Ramdas Pophale) SiO2 
 PCOD8001294
Probable space group: P -1
;
_chemical_formula_sum "Si O2"
_cell_formula_units_Z 16
_cell_length_a 8.751469
_cell_length_b 11.735383
_cell_length_c 8.714188
_cell_angle_alpha 90.472180
_cell_angle_beta 52.087160
_cell_angle_gamma 101.584650
_cell_volume 683.974043
_symmetry_space_group_name_H-M "P -1"
_symmetry_group_IT_number 2
_symmetry_cell_setting 'triclinic'
loop_
_space_group_symop_operation_xyz
x,y,z
-x,-y,-z
loop_
_atom_site_type_symbol
_atom_site_label
_atom_site_fract_x
_atom_site_fract_y
_atom_site_fract_z
Si Si1 0.357217 0.711982 0.612621
Si Si2 0.067053 0.743851 0.570062
Si Si3 0.835394 0.992719 0.471646
Si Si4 0.608175 0.096270 0.176922
Si Si5 0.266239 0.125118 0.772073
Si Si6 0.290708 0.727615 0.140205
Si Si7 0.287521 0.294655 0.005618
Si Si8 0.777911 0.468080 0.071085
O O1 0.174224 0.663327 0.606685
O O2 0.286958 0.806637 0.764043
O O3 0.558265 0.769707 0.399984
O O4 0.375438 0.601906 0.705554
O O5 0.102868 0.721045 0.369626
O O6 0.182643 0.876372 0.546824
O O7 0.832169 0.716891 0.758360
O O8 0.628653 0.915916 0.664619
O O9 0.878698 0.933558 0.280612
O O10 0.000000 0.000000 0.500000
O O11 0.657440 0.973442 0.182812
O O12 0.676723 0.147010 0.966235
O O13 0.164524 0.192695 0.962764
O O14 0.493091 0.725014 0.105365
O O15 0.227628 0.613894 0.073319
O O16 0.304041 0.421016 0.922743
O O17 0.000000 0.500000 0.000000
#
# Coordination Sequence:
#
# PCOD8001294 Si02
#       8
#     2   2   2   2   2   2   2   2
#     4  10  19  44  69  94 130 181 226 272 335 411
#     4  12  23  43  69  99 140 176 229 282 341 398
#     4  11  22  38  65 107 142 175 227 283 331 411
#     4  10  20  42  72  93 137 191 219 267 353 407
#     4  11  22  43  71  98 140 188 220 273 351 408
#     4  11  26  46  71 101 138 180 228 291 340 396
#     4  12  26  44  70 105 136 180 236 282 339 409
#     4  11  25  46  73  98 134 182 234 284 345 409
#
# _framework density 23.392697999999999
#
# number of rings (size 3 to 8) (size 9 to 14) (size 15 to 20)
#    0.000    1.000    5.000    1.875    0.000    5.500 
#    0.000    0.000    0.000    0.000    0.000    0.000 
#    0.000    0.000    0.000    0.000    0.000    0.000 
#
# Total GULP energy -198329.528072 kJ/mol
# GULP energy per Si atom -12395.595505 kJ/mol
# Density = 2.333946 g / cm^3
# Si number density = 23.392698 Si / 1000 Ang^3
#
#
#
# Elastic Constant Matrix: (Units=GPa)
#
#
# Indices 1 2 3 4 5 6 
#
# 1 111.4391 41.3594 45.7270 2.1401 22.5935 1.9816
# 2 41.3594 123.5536 57.9904 -9.4061 23.2720 -6.9875
# 3 45.7270 57.9904 133.1542 -3.2998 22.5970 -18.9989
# 4 2.1401 -9.4061 -3.2998 29.7325 0.9184 15.1868
# 5 22.5935 23.2720 22.5970 0.9184 32.5330 -0.0458
# 6 1.9816 -6.9875 -18.9989 15.1868 -0.0458 31.2420
#
#
#
# Elastic Compliance Matrix: (Units=1/GPa)
#
#
# Indices 1 2 3 4 5 6 
#
# 1 0.011892 -0.001897 -0.002826 -0.000178 -0.004937 -0.002818
# 2 -0.001897 0.011578 -0.003769 0.004402 -0.004473 -0.001729
# 3 -0.002826 -0.003769 0.011803 -0.003855 -0.003419 0.008383
# 4 -0.000178 0.004402 -0.003855 0.047031 -0.001709 -0.024213
# 5 -0.004937 -0.004473 -0.003419 -0.001709 0.039787 -0.001877
# 6 -0.002818 -0.001729 0.008383 -0.024213 -0.001877 0.048665
#
#
# Mechanical properties :
#
#
# Convention : Reuss Voigt Hill
#
# Bulk Modulus (GPa) = 54.68275 73.14450 63.91362
# Shear Modulus (GPa) = 25.79493 33.57285 29.68389
#
# Velocity S-wave (km/s) = 3.32428 3.79249 3.56608
# Velocity P-wave (km/s) = 6.17748 7.10727 6.65862
#
# Compressibility (1/GPa) = 0.01828730
#
# Stress axis : x y z
#
# Youngs Moduli (GPa) = 84.09116 86.37274 84.72524
#
# Poissons Ratio (x) = 0.16387 0.23944
# Poissons Ratio (y) = 0.15954 0.31935
# Poissons Ratio (z) = 0.23765 0.32556
#
# Static dielectric constant tensor:
#      x y z
#    x 4.081770 0.035650 0.378220 
#    y 0.035650 4.381680 -0.181660 
#    z 0.378220 -0.181660 4.360240 
# 
# 
# High freq. dielectric constant tensor:
#      x y z
#    x 1.918220 0.000700 0.021520 
#    y 0.000700 1.923910 -0.011020 
#    z 0.021520 -0.011020 1.931200 
# 
# From -- ./inp_files/187352.got.cif
#   From: 2010.06.25/outbox.cif.g09.slc.cpg/sg2_94_cif.got.tgz:187352.got - 2010.06.27 13:26:56.
