data_PCOD8001440
_publ_section_title
;
Structure prediction by ZEFSAII (Michael W. Deem and Ramdas Pophale) SiO2 
 PCOD8001440
Probable space group: P -1
;
_chemical_formula_sum "Si O2"
_cell_formula_units_Z 16
_cell_length_a 8.521743
_cell_length_b 11.464191
_cell_length_c 13.957823
_cell_angle_alpha 122.599518
_cell_angle_beta 132.359538
_cell_angle_gamma 80.966611
_cell_volume 801.046320
_symmetry_space_group_name_H-M "P -1"
_symmetry_group_IT_number 2
_symmetry_cell_setting 'triclinic'
loop_
_space_group_symop_operation_xyz
x,y,z
-x,-y,-z
loop_
_atom_site_type_symbol
_atom_site_label
_atom_site_fract_x
_atom_site_fract_y
_atom_site_fract_z
Si Si1 0.354400 0.895612 0.289977
Si Si2 0.639170 0.814326 0.499784
Si Si3 0.421291 0.115222 0.957216
Si Si4 0.778547 0.030417 0.386283
Si Si5 0.002200 0.308335 0.500689
Si Si6 0.837021 0.786718 0.752495
Si Si7 0.147129 0.633565 0.737016
Si Si8 0.090030 0.121708 0.974510
O O1 0.407234 0.770248 0.322181
O O2 0.132295 0.827790 0.103300
O O3 0.290104 0.008378 0.384937
O O4 0.573213 0.978200 0.352710
O O5 0.823753 0.770043 0.497938
O O6 0.623790 0.755646 0.577689
O O7 0.251887 0.173914 0.974457
O O8 0.297225 0.047856 0.780267
O O9 0.625617 0.259316 0.076264
O O10 0.500000 0.000000 0.000000
O O11 0.842988 0.205085 0.470012
O O12 0.000000 0.000000 0.500000
O O13 0.133470 0.465614 0.671543
O O14 0.854268 0.329436 0.360025
O O15 0.939698 0.658096 0.719107
O O16 0.767501 0.794129 0.837315
O O17 0.024041 0.945223 0.876938
#
# Coordination Sequence:
#
# PCOD8001440 Si02
#       8
#     2   2   2   2   2   2   2   2
#     4  10  20  32  56  84 116 151 185 245 289 337
#     4   9  18  33  54  80 114 149 189 230 290 341
#     4  12  22  37  60  90 117 152 202 245 282 345
#     4  12  23  37  61  92 117 150 203 245 282 349
#     4  10  20  38  58  90 120 154 193 241 296 348
#     4   9  17  32  54  84 109 148 188 234 288 336
#     4  10  20  36  62  85 123 155 189 243 298 344
#     4  10  20  32  55  85 120 144 192 244 287 339
#
# _framework density 19.973876000000001
#
# number of rings (size 3 to 8) (size 9 to 14) (size 15 to 20)
#    0.000    1.750    3.750    2.250    5.250    0.000 
#    0.000    1.875    0.000    7.500    0.000    0.000 
#    0.000    0.000    0.000    0.000    0.000    0.000 
#
# Total GULP energy -198253.409426 kJ/mol
# GULP energy per Si atom -12390.838089 kJ/mol
# Density = 1.992841 g / cm^3
# Si number density = 19.973876 Si / 1000 Ang^3
#
#
#
# Elastic Constant Matrix: (Units=GPa)
#
#
# Indices 1 2 3 4 5 6 
#
# 1 96.8521 48.5801 41.4076 -10.7359 -6.6744 -9.3954
# 2 48.5801 90.8997 62.8801 -7.2742 -1.6222 -4.6091
# 3 41.4076 62.8801 104.4980 -17.4824 -5.5293 0.9239
# 4 -10.7359 -7.2742 -17.4824 33.0702 -1.1851 0.5228
# 5 -6.6744 -1.6222 -5.5293 -1.1851 28.8002 -5.0614
# 6 -9.3954 -4.6091 0.9239 0.5228 -5.0614 19.6880
#
#
#
# Elastic Compliance Matrix: (Units=1/GPa)
#
#
# Indices 1 2 3 4 5 6 
#
# 1 0.015588 -0.006581 -0.001580 0.002821 0.004285 0.006999
# 2 -0.006581 0.022270 -0.011505 -0.003434 -0.002247 0.002126
# 3 -0.001580 -0.011505 0.018407 0.006825 0.002106 -0.003951
# 4 0.002821 -0.003434 0.006825 0.034119 0.003199 0.000138
# 5 0.004285 -0.002247 0.002106 0.003199 0.038079 0.011124
# 6 0.006999 0.002126 -0.003951 0.000138 0.011124 0.057672
#
#
# Mechanical properties :
#
#
# Convention : Reuss Voigt Hill
#
# Bulk Modulus (GPa) = 59.05715 66.44281 62.74998
# Shear Modulus (GPa) = 21.63453 25.60382 23.61918
#
# Velocity S-wave (km/s) = 3.29468 3.58420 3.44249
# Velocity P-wave (km/s) = 6.64113 7.10392 6.87642
#
# Compressibility (1/GPa) = 0.01693275
#
# Stress axis : x y z
#
# Youngs Moduli (GPa) = 64.15022 44.90429 54.32739
#
# Poissons Ratio (x) = 0.29550 0.08586
# Poissons Ratio (y) = 0.42215 0.62504
# Poissons Ratio (z) = 0.10138 0.51662
#
# Static dielectric constant tensor:
#      x y z
#    x 3.636630 -0.024330 -0.138920 
#    y -0.024330 3.715620 -0.387040 
#    z -0.138920 -0.387040 3.844520 
# 
# 
# High freq. dielectric constant tensor:
#      x y z
#    x 1.777530 -0.016770 -0.014620 
#    y -0.016770 1.747610 -0.032940 
#    z -0.014620 -0.032940 1.768530 
# 
# From -- ./inp_files/401958.got.cif
#   From: 2010.06.25/outbox.cif.g09.slc.cpg/sg2_201_cif.got.tgz:401958.got - 2010.06.27 13:26:56.
