data_PCOD8001175
_publ_section_title
;
Structure prediction by ZEFSAII (Michael W. Deem and Ramdas Pophale) SiO2 
 PCOD8001175
Probable space group: P -1
;
_chemical_formula_sum "Si O2"
_cell_formula_units_Z 14
_cell_length_a 8.206514
_cell_length_b 9.408867
_cell_length_c 15.925675
_cell_angle_alpha 144.530433
_cell_angle_beta 107.674034
_cell_angle_gamma 73.476051
_cell_volume 678.332728
_symmetry_space_group_name_H-M "P -1"
_symmetry_group_IT_number 2
_symmetry_cell_setting 'triclinic'
loop_
_space_group_symop_operation_xyz
x,y,z
-x,-y,-z
loop_
_atom_site_type_symbol
_atom_site_label
_atom_site_fract_x
_atom_site_fract_y
_atom_site_fract_z
Si Si1 0.256087 0.193521 0.600802
Si Si2 0.630792 0.581450 0.629920
Si Si3 0.819735 0.858594 0.254038
Si Si4 0.307463 0.492562 0.056840
Si Si5 0.621986 0.335962 0.681414
Si Si6 0.451664 0.885776 0.165843
Si Si7 0.978147 0.346380 0.505999
O O1 0.151298 0.240871 0.694350
O O2 0.448794 0.275877 0.674012
O O3 0.151498 0.349866 0.588579
O O4 0.262132 0.903743 0.442850
O O5 0.500000 0.500000 0.500000
O O6 0.568178 0.503301 0.674006
O O7 0.820638 0.463520 0.590515
O O8 0.644246 0.875191 0.775060
O O9 0.622417 0.976088 0.281783
O O10 0.946187 0.063012 0.344342
O O11 0.840051 0.639980 0.082184
O O12 0.267199 0.519693 0.162969
O O13 0.325462 0.765971 0.154452
O O14 0.488139 0.325106 0.994249
O O15 0.000000 0.500000 0.500000
#
# Coordination Sequence:
#
# PCOD8001175 Si02
#       7
#     2   2   2   2   2   2   2
#     4  11  22  38  64  92 126 157 210 253 305 370
#     4  12  22  38  61  91 127 159 205 260 303 359
#     4  10  19  42  63  87 123 165 199 247 309 361
#     4   9  19  38  65  94 117 161 210 249 303 368
#     4  11  22  37  66  98 115 163 211 254 303 364
#     4   9  18  36  64  89 120 156 205 246 303 358
#     4  12  26  39  61  94 127 164 202 259 313 357
#
# _framework density 20.638840999999999
#
# number of rings (size 3 to 8) (size 9 to 14) (size 15 to 20)
#    0.857    0.571    4.286    1.286    4.000    0.571 
#    0.000    2.143    0.000    4.286    0.000    0.000 
#    0.000    0.000    0.000    0.000    0.000    0.000 
#
# Total GULP energy -173543.674684 kJ/mol
# GULP energy per Si atom -12395.976763 kJ/mol
# Density = 2.059187 g / cm^3
# Si number density = 20.638841 Si / 1000 Ang^3
#
#
#
# Elastic Constant Matrix: (Units=GPa)
#
#
# Indices 1 2 3 4 5 6 
#
# 1 39.3518 16.7912 13.8123 -1.7482 6.9747 8.6435
# 2 16.7912 149.5705 61.0462 -10.7199 5.0573 17.4553
# 3 13.8123 61.0462 111.3741 -19.3290 4.2974 8.9364
# 4 -1.7482 -10.7199 -19.3290 41.2542 0.9065 -3.6894
# 5 6.9747 5.0573 4.2974 0.9065 19.6304 1.8451
# 6 8.6435 17.4553 8.9364 -3.6894 1.8451 37.1614
#
#
#
# Elastic Compliance Matrix: (Units=1/GPa)
#
#
# Indices 1 2 3 4 5 6 
#
# 1 0.029568 -0.001571 -0.002105 -0.000408 -0.009130 -0.005220
# 2 -0.001571 0.009049 -0.004536 -0.000077 -0.000515 -0.002776
# 3 -0.002105 -0.004536 0.012565 0.004653 -0.001060 0.000113
# 4 -0.000408 -0.000077 0.004653 0.026590 -0.002247 0.001764
# 5 -0.009130 -0.000515 -0.001060 -0.002247 0.054684 -0.000318
# 6 -0.005220 -0.002776 0.000113 0.001764 -0.000318 0.029592
#
#
# Mechanical properties :
#
#
# Convention : Reuss Voigt Hill
#
# Bulk Modulus (GPa) = 28.77087 53.73287 41.25187
# Shear Modulus (GPa) = 26.30754 33.51896 29.91325
#
# Velocity S-wave (km/s) = 3.57411 4.03435 3.81119
# Velocity P-wave (km/s) = 5.56802 6.91322 6.27676
#
# Compressibility (1/GPa) = 0.03475738
#
# Stress axis : x y z
#
# Youngs Moduli (GPa) = 33.82035 110.50335 79.58334
#
# Poissons Ratio (x) = 0.17365 0.16754
# Poissons Ratio (y) = 0.05315 0.36100
# Poissons Ratio (z) = 0.07120 0.50125
#
# Static dielectric constant tensor:
#      x y z
#    x 3.509090 0.103580 0.097630 
#    y 0.103580 3.679070 0.039430 
#    z 0.097630 0.039430 3.672110 
# 
# 
# High freq. dielectric constant tensor:
#      x y z
#    x 1.786770 0.006110 0.003040 
#    y 0.006110 1.804350 -0.002800 
#    z 0.003040 -0.002800 1.800710 
# 
# From -- ./inp_files/305757.got.cif
#   From: 2010.06.25/outbox.cif.g09.slc.cpg/sg2_153_cif.got.tgz:305757.got - 2010.06.27 13:26:56.
