data_PCOD8001520
_publ_section_title
;
Structure prediction by ZEFSAII (Michael W. Deem and Ramdas Pophale) SiO2 
 PCOD8001520
Probable space group: P -1
;
_chemical_formula_sum "Si O2"
_cell_formula_units_Z 12
_cell_length_a 11.706674
_cell_length_b 13.215312
_cell_length_c 5.183388
_cell_angle_alpha 57.938860
_cell_angle_beta 96.168218
_cell_angle_gamma 60.086952
_cell_volume 507.873322
_symmetry_space_group_name_H-M "P -1"
_symmetry_group_IT_number 2
_symmetry_cell_setting 'triclinic'
loop_
_space_group_symop_operation_xyz
x,y,z
-x,-y,-z
loop_
_atom_site_type_symbol
_atom_site_label
_atom_site_fract_x
_atom_site_fract_y
_atom_site_fract_z
Si Si1 0.799827 0.014489 0.464392
Si Si2 0.370427 0.192034 0.507447
Si Si3 0.311574 0.130214 0.076336
Si Si4 0.694822 0.408107 0.477973
Si Si5 0.472485 0.712654 0.296710
Si Si6 0.130840 0.768380 0.725623
O O1 0.828398 0.121027 0.467227
O O2 0.765764 0.943677 0.778873
O O3 0.659550 0.115207 0.093049
O O4 0.949149 0.873692 0.529247
O O5 0.277833 0.249998 0.135388
O O6 0.437451 0.276174 0.477247
O O7 0.506487 0.004079 0.745615
O O8 0.254904 0.224773 0.661920
O O9 0.587165 0.595631 0.251816
O O10 0.589842 0.362774 0.476229
O O11 0.791110 0.363847 0.300723
O O12 0.809843 0.311508 0.873629
#
# Coordination Sequence:
#
# PCOD8001520 Si02
#       6
#     2   2   2   2   2   2
#     4  10  21  37  61  86 113 147 190 233 277 333
#     4  10  20  33  53  84 115 142 181 235 282 321
#     4  10  20  33  53  84 115 142 181 235 282 321
#     4  10  23  39  57  84 117 150 183 229 285 335
#     4  10  21  37  61  86 113 147 190 233 277 333
#     4  10  23  39  57  84 117 150 183 229 285 335
#
# _framework density 23.627939999999999
#
# number of rings (size 3 to 8) (size 9 to 14) (size 15 to 20)
#    0.000    2.000    0.000    4.000    0.000   20.000 
#    0.000    0.000    0.000    6.000    0.000    0.000 
#    0.000    0.000    0.000    0.000    0.000    0.000 
#
# Total GULP energy -148774.656226 kJ/mol
# GULP energy per Si atom -12397.888019 kJ/mol
# Density = 2.357416 g / cm^3
# Si number density = 23.627940 Si / 1000 Ang^3
#
#
#
# Elastic Constant Matrix: (Units=GPa)
#
#
# Indices 1 2 3 4 5 6 
#
# 1 89.4150 37.8883 38.2826 4.9500 -4.6350 -2.1989
# 2 37.8883 130.5394 29.3104 32.0521 6.2709 -7.7821
# 3 38.2826 29.3104 39.1950 16.6972 -0.2114 1.0143
# 4 4.9500 32.0521 16.6972 39.7932 -8.3705 3.4032
# 5 -4.6350 6.2709 -0.2114 -8.3705 12.5419 -1.4032
# 6 -2.1989 -7.7821 1.0143 3.4032 -1.4032 31.1697
#
#
#
# Elastic Compliance Matrix: (Units=1/GPa)
#
#
# Indices 1 2 3 4 5 6 
#
# 1 0.027678 -0.007884 -0.030115 0.021434 0.027955 -0.000118
# 2 -0.007884 0.014517 0.003929 -0.017131 -0.021107 0.003861
# 3 -0.030115 0.003929 0.066603 -0.034683 -0.035243 -0.001111
# 4 0.021434 -0.017131 -0.034683 0.063436 0.057571 -0.005971
# 5 0.027955 -0.021107 -0.035243 0.057571 0.138198 -0.002215
# 6 -0.000118 0.003861 -0.001111 -0.005971 -0.002215 0.033626
#
#
# Mechanical properties :
#
#
# Convention : Reuss Voigt Hill
#
# Bulk Modulus (GPa) = 24.59572 52.23466 38.41519
# Shear Modulus (GPa) = 11.74396 26.94550 19.34473
#
# Velocity S-wave (km/s) = 2.23185 3.38066 2.86444
# Velocity P-wave (km/s) = 4.13204 6.11503 5.21859
#
# Compressibility (1/GPa) = 0.04065748
#
# Stress axis : x y z
#
# Youngs Moduli (GPa) = 36.13010 68.88410 15.01436
#
# Poissons Ratio (x) = 0.54311 0.45215
# Poissons Ratio (y) = 0.28486 -0.05899
# Poissons Ratio (z) = 1.08805 -0.27064
#
# Static dielectric constant tensor:
#      x y z
#    x 3.993080 -0.046870 -0.022640 
#    y -0.046870 4.500300 0.221310 
#    z -0.022640 0.221310 3.941240 
# 
# 
# High freq. dielectric constant tensor:
#      x y z
#    x 1.918460 0.005310 -0.013140 
#    y 0.005310 1.942750 0.026330 
#    z -0.013140 0.026330 1.901200 
# 
# From -- ./inp_files/75304.got.cif
#   From: 2010.06.25/outbox.cif.g09.slc.cpg/sg2_38_cif.got.tgz:75304.got - 2010.06.27 13:26:56.
