data_PCOD8001236
_publ_section_title
;
Structure prediction by ZEFSAII (Michael W. Deem and Ramdas Pophale) SiO2 
 PCOD8001236
Probable space group: P -1
;
_chemical_formula_sum "Si O2"
_cell_formula_units_Z 16
_cell_length_a 10.609133
_cell_length_b 8.384091
_cell_length_c 12.064345
_cell_angle_alpha 119.947949
_cell_angle_beta 131.072966
_cell_angle_gamma 84.723186
_cell_volume 653.606861
_symmetry_space_group_name_H-M "P -1"
_symmetry_group_IT_number 2
_symmetry_cell_setting 'triclinic'
loop_
_space_group_symop_operation_xyz
x,y,z
-x,-y,-z
loop_
_atom_site_type_symbol
_atom_site_label
_atom_site_fract_x
_atom_site_fract_y
_atom_site_fract_z
Si Si1 0.886438 0.708573 0.748959
Si Si2 0.390034 0.927237 0.777978
Si Si3 0.747254 0.963371 0.892078
Si Si4 0.161131 0.887521 0.420170
Si Si5 0.613206 0.327098 0.119264
Si Si6 0.664803 0.702159 0.410290
Si Si7 0.877578 0.515382 0.136747
Si Si8 0.688870 0.226605 0.754133
O O1 0.772778 0.763299 0.798903
O O2 0.759448 0.637799 0.544218
O O3 0.937742 0.527544 0.758125
O O4 0.068631 0.896338 0.894485
O O5 0.584809 0.909107 0.865586
O O6 0.267348 0.858588 0.577786
O O7 0.300825 0.777330 0.775695
O O8 0.428638 0.158494 0.910607
O O9 0.699010 0.065886 0.792315
O O10 0.225898 0.802786 0.320511
O O11 0.948998 0.754528 0.267455
O O12 0.182123 0.115834 0.499873
O O13 0.577026 0.515329 0.213502
O O14 0.744637 0.402022 0.117751
O O15 0.516059 0.792644 0.392797
O O16 0.792505 0.442484 0.942076
#
# Coordination Sequence:
#
# PCOD8001236 Si02
#       8
#     2   2   2   2   2   2   2   2
#     4  10  21  38  70  99 133 167 223 277 331 391
#     4  11  23  46  72  95 129 187 223 277 333 392
#     4  10  19  42  70  99 132 171 218 278 341 389
#     4  12  24  41  73 101 135 173 224 276 350 388
#     4  11  26  47  66  95 138 183 231 269 322 403
#     4  12  24  41  70 102 133 180 224 275 327 404
#     4  11  25  47  66  99 142 181 215 277 334 399
#     4  11  22  45  70 100 143 168 214 289 343 392
#
# _framework density 24.479547
#
# number of rings (size 3 to 8) (size 9 to 14) (size 15 to 20)
#    0.000    1.000    5.000    2.250    0.000    5.500 
#    2.250    2.500    0.000    0.000    0.000    0.000 
#    0.000    0.000    0.000    0.000    0.000    0.000 
#
# Total GULP energy -198359.728989 kJ/mol
# GULP energy per Si atom -12397.483062 kJ/mol
# Density = 2.442383 g / cm^3
# Si number density = 24.479547 Si / 1000 Ang^3
#
#
#
# Elastic Constant Matrix: (Units=GPa)
#
#
# Indices 1 2 3 4 5 6 
#
# 1 33.6804 11.8953 35.1591 1.4954 -19.7377 8.9765
# 2 11.8953 68.8243 27.5771 12.8730 -0.2807 17.6955
# 3 35.1591 27.5771 124.4607 -1.5269 -11.6039 20.3746
# 4 1.4954 12.8730 -1.5269 52.6431 -0.5006 6.4335
# 5 -19.7377 -0.2807 -11.6039 -0.5006 34.3296 -4.0818
# 6 8.9765 17.6955 20.3746 6.4335 -4.0818 35.2022
#
#
#
# Elastic Compliance Matrix: (Units=1/GPa)
#
#
# Indices 1 2 3 4 5 6 
#
# 1 0.066129 -0.004949 -0.014148 -0.000487 0.032920 -0.002280
# 2 -0.004949 0.018613 -0.002068 -0.003691 -0.004244 -0.006715
# 3 -0.014148 -0.002068 0.012685 0.001662 -0.004254 -0.003492
# 4 -0.000487 -0.003691 0.001662 0.020288 0.000231 -0.002663
# 5 0.032920 -0.004244 -0.004254 0.000231 0.046775 0.001583
# 6 -0.002280 -0.006715 -0.003492 -0.002663 0.001583 0.035056
#
#
# Mechanical properties :
#
#
# Convention : Reuss Voigt Hill
#
# Bulk Modulus (GPa) = 18.14953 41.80317 29.97635
# Shear Modulus (GPa) = 19.21296 34.59055 26.90175
#
# Velocity S-wave (km/s) = 2.80457 3.76312 3.31863
# Velocity P-wave (km/s) = 4.23294 5.99961 5.19197
#
# Compressibility (1/GPa) = 0.05509785
#
# Stress axis : x y z
#
# Youngs Moduli (GPa) = 15.12201 53.72512 78.83453
#
# Poissons Ratio (x) = 0.26588 1.11533
# Poissons Ratio (y) = 0.07484 0.16302
# Poissons Ratio (z) = 0.21394 0.11109
#
# Static dielectric constant tensor:
#      x y z
#    x 4.316120 -0.029240 -0.124340 
#    y -0.029240 4.367350 0.240640 
#    z -0.124340 0.240640 4.685590 
# 
# 
# High freq. dielectric constant tensor:
#      x y z
#    x 1.953520 0.004450 -0.012700 
#    y 0.004450 1.963670 0.008950 
#    z -0.012700 0.008950 1.993020 
# 
# From -- ./inp_files/419848.got.cif
#   From: 2010.06.25/outbox.cif.g09.slc.cpg/sg2_210_cif.got.tgz:419848.got - 2010.06.27 13:26:56.
