data_PCOD8001493
_publ_section_title
;
Structure prediction by ZEFSAII (Michael W. Deem and Ramdas Pophale) SiO2 
 PCOD8001493
Probable space group: P -1
;
_chemical_formula_sum "Si O2"
_cell_formula_units_Z 12
_cell_length_a 11.093428
_cell_length_b 19.234338
_cell_length_c 17.585350
_cell_angle_alpha 28.494303
_cell_angle_beta 43.420058
_cell_angle_gamma 23.910371
_cell_volume 665.356643
_symmetry_space_group_name_H-M "P -1"
_symmetry_group_IT_number 2
_symmetry_cell_setting 'triclinic'
loop_
_space_group_symop_operation_xyz
x,y,z
-x,-y,-z
loop_
_atom_site_type_symbol
_atom_site_label
_atom_site_fract_x
_atom_site_fract_y
_atom_site_fract_z
Si Si1 0.344763 0.922675 0.442014
Si Si2 0.730603 0.179073 0.279966
Si Si3 0.379932 0.222256 0.103111
Si Si4 0.209890 0.890208 0.081931
Si Si5 0.312208 0.697576 0.565332
Si Si6 0.604236 0.288153 0.065126
O O1 0.463484 0.783247 0.605013
O O2 0.474336 0.722046 0.510511
O O3 0.484021 0.984721 0.302598
O O4 0.947170 0.198168 0.357907
O O5 0.629541 0.199181 0.222812
O O6 0.657064 0.400652 0.113752
O O7 0.118568 0.885889 0.397524
O O8 0.495731 0.240627 0.102141
O O9 0.548692 0.148468 0.016530
O O10 0.000000 0.500000 0.000000
O O11 0.410518 0.609770 0.288257
O O12 0.958962 0.107570 0.054805
O O13 0.000000 0.000000 0.000000
#
# Coordination Sequence:
#
# PCOD8001493 Si02
#       6
#     2   2   2   2   2   2
#     4   9  17  30  56  75  96 135 176 202 246 313
#     4   9  18  36  54  72 103 147 169 202 257 326
#     4  11  18  32  54  80 102 134 173 215 255 303
#     4  10  20  33  51  80 106 130 174 219 250 299
#     4   9  17  34  54  77  99 141 170 204 257 315
#     4  10  21  34  54  78 104 136 175 213 255 301
#
# _framework density 18.035439
#
# number of rings (size 3 to 8) (size 9 to 14) (size 15 to 20)
#    1.000    1.333    1.667    3.000    0.000    1.333 
#    0.000    7.500    0.000    9.000    0.000    0.000 
#    0.000    0.000    0.000    0.000    0.000    0.000 
#
# Total GULP energy -148695.469985 kJ/mol
# GULP energy per Si atom -12391.289165 kJ/mol
# Density = 1.799439 g / cm^3
# Si number density = 18.035439 Si / 1000 Ang^3
#
#
#
# Elastic Constant Matrix: (Units=GPa)
#
#
# Indices 1 2 3 4 5 6 
#
# 1 80.9199 24.8093 47.3357 14.4163 -0.6580 -0.6767
# 2 24.8093 59.1495 34.4470 4.6922 2.4744 -9.8616
# 3 47.3357 34.4470 131.6723 5.5504 9.2987 -1.6844
# 4 14.4163 4.6922 5.5504 29.3469 -5.0691 -2.6302
# 5 -0.6580 2.4744 9.2987 -5.0691 27.3278 4.8632
# 6 -0.6767 -9.8616 -1.6844 -2.6302 4.8632 16.1383
#
#
#
# Elastic Compliance Matrix: (Units=1/GPa)
#
#
# Indices 1 2 3 4 5 6 
#
# 1 0.018124 -0.004887 -0.005141 -0.007195 0.002107 -0.004571
# 2 -0.004887 0.023996 -0.004077 0.000072 -0.003581 0.015124
# 3 -0.005141 -0.004077 0.010705 0.000552 -0.003200 -0.000536
# 4 -0.007195 0.000072 0.000552 0.038931 0.006087 0.004311
# 5 0.002107 -0.003581 -0.003200 0.006087 0.041677 -0.014001
# 6 -0.004571 0.015124 -0.000536 0.004311 -0.014001 0.075880
#
#
# Mechanical properties :
#
#
# Convention : Reuss Voigt Hill
#
# Bulk Modulus (GPa) = 40.62652 53.88063 47.25357
# Shear Modulus (GPa) = 20.34742 25.57258 22.96000
#
# Velocity S-wave (km/s) = 3.36250 3.76960 3.57185
# Velocity P-wave (km/s) = 6.13596 6.99187 6.57785
#
# Compressibility (1/GPa) = 0.02461447
#
# Stress axis : x y z
#
# Youngs Moduli (GPa) = 55.17395 41.67294 93.41145
#
# Poissons Ratio (x) = 0.20367 0.48023
# Poissons Ratio (y) = 0.26966 0.38088
# Poissons Ratio (z) = 0.28365 0.16992
#
# Static dielectric constant tensor:
#      x y z
#    x 3.057460 0.037790 0.031320 
#    y 0.037790 3.622290 0.113140 
#    z 0.031320 0.113140 3.467440 
# 
# 
# High freq. dielectric constant tensor:
#      x y z
#    x 1.672010 0.004660 0.003210 
#    y 0.004660 1.672510 -0.004920 
#    z 0.003210 -0.004920 1.711520 
# 
# From -- ./inp_files/153336.got.cif
#   From: 2010.06.25/outbox.cif.g09.slc.cpg/sg2_77_cif.got.tgz:153336.got - 2010.06.27 13:26:56.
