data_PCOD8001427
_publ_section_title
;
Structure prediction by ZEFSAII (Michael W. Deem and Ramdas Pophale) SiO2 
 PCOD8001427
Probable space group: P -1
;
_chemical_formula_sum "Si O2"
_cell_formula_units_Z 16
_cell_length_a 15.884987
_cell_length_b 11.111883
_cell_length_c 5.226250
_cell_angle_alpha 85.675358
_cell_angle_beta 115.263658
_cell_angle_gamma 106.726794
_cell_volume 797.764830
_symmetry_space_group_name_H-M "P -1"
_symmetry_group_IT_number 2
_symmetry_cell_setting 'triclinic'
loop_
_space_group_symop_operation_xyz
x,y,z
-x,-y,-z
loop_
_atom_site_type_symbol
_atom_site_label
_atom_site_fract_x
_atom_site_fract_y
_atom_site_fract_z
Si Si1 0.105058 0.981729 0.113602
Si Si2 0.296509 0.476234 0.396978
Si Si3 0.490559 0.635434 0.529643
Si Si4 0.799881 0.882355 0.290124
Si Si5 0.976095 0.296901 0.929852
Si Si6 0.605384 0.706361 0.183620
Si Si7 0.157870 0.335811 0.859136
Si Si8 0.106605 0.501964 0.395277
O O1 0.097481 0.836254 0.064887
O O2 0.152514 0.019913 0.445762
O O3 0.173030 0.060673 0.966986
O O4 0.000000 0.000000 0.000000
O O5 0.373382 0.608874 0.391511
O O6 0.343764 0.406526 0.686548
O O7 0.200605 0.513538 0.342054
O O8 0.261805 0.374984 0.135478
O O9 0.500000 0.500000 0.500000
O O10 0.544077 0.726175 0.353132
O O11 0.534032 0.678930 0.855381
O O12 0.684886 0.838278 0.202464
O O13 0.835903 0.755001 0.357490
O O14 0.919836 0.366559 0.650559
O O15 0.068509 0.262171 0.931981
O O16 0.012543 0.390467 0.199858
O O17 0.133290 0.463340 0.717114
#
# Coordination Sequence:
#
# PCOD8001427 Si02
#       8
#     2   2   2   2   2   2   2   2
#     4  12  24  38  58  84 113 152 198 238 275 329
#     4  10  20  32  54  88 114 152 185 231 289 351
#     4  10  20  32  54  83 120 147 181 229 290 352
#     4  12  23  37  58  83 115 154 189 232 285 334
#     4  10  23  38  53  84 112 158 196 236 278 336
#     4  11  21  35  54  83 118 152 182 232 289 348
#     4  11  20  34  57  81 119 151 191 228 288 346
#     4  10  21  37  58  78 119 153 193 229 290 340
#
# _framework density 20.056037
#
# number of rings (size 3 to 8) (size 9 to 14) (size 15 to 20)
#    0.000    1.250    2.500    6.000    3.500    0.000 
#    0.000    0.000    0.000    0.000    0.000    5.250 
#    0.000    0.000    0.000    0.000    0.000    0.000 
#
# Total GULP energy -198274.550079 kJ/mol
# GULP energy per Si atom -12392.159380 kJ/mol
# Density = 2.001039 g / cm^3
# Si number density = 20.056037 Si / 1000 Ang^3
#
#
#
# Elastic Constant Matrix: (Units=GPa)
#
#
# Indices 1 2 3 4 5 6 
#
# 1 77.8594 43.8095 36.3176 6.7946 -5.1017 25.8903
# 2 43.8095 99.4178 34.5244 5.7560 5.2030 19.8793
# 3 36.3176 34.5244 97.3645 11.5228 -9.7861 10.0000
# 4 6.7946 5.7560 11.5228 26.3674 7.7424 -1.0567
# 5 -5.1017 5.2030 -9.7861 7.7424 29.0051 -2.5856
# 6 25.8903 19.8793 10.0000 -1.0567 -2.5856 32.0462
#
#
#
# Elastic Compliance Matrix: (Units=1/GPa)
#
#
# Indices 1 2 3 4 5 6 
#
# 1 0.023428 -0.006032 -0.004286 -0.004493 0.003735 -0.013695
# 2 -0.006032 0.014826 -0.003328 0.001241 -0.005503 -0.003688
# 3 -0.004286 -0.003328 0.014298 -0.006259 0.006461 0.001381
# 4 -0.004493 0.001241 -0.006259 0.046154 -0.014988 0.005126
# 5 0.003735 -0.005503 0.006461 -0.014988 0.042418 0.001308
# 6 -0.013695 -0.003688 0.001381 0.005126 0.001308 0.044401
#
#
# Mechanical properties :
#
#
# Convention : Reuss Voigt Hill
#
# Bulk Modulus (GPa) = 39.59037 55.99386 47.79212
# Shear Modulus (GPa) = 22.60012 28.14977 25.37494
#
# Velocity S-wave (km/s) = 3.36050 3.75047 3.56083
# Velocity P-wave (km/s) = 5.90254 6.83623 6.38647
#
# Compressibility (1/GPa) = 0.02525866
#
# Stress axis : x y z
#
# Youngs Moduli (GPa) = 42.68430 67.44798 69.94021
#
# Poissons Ratio (x) = 0.40687 0.29977
# Poissons Ratio (y) = 0.25749 0.23278
# Poissons Ratio (z) = 0.18295 0.22449
#
# Static dielectric constant tensor:
#      x y z
#    x 4.893880 1.276690 0.512790 
#    y 1.276690 4.501360 0.693580 
#    z 0.512790 0.693580 4.109490 
# 
# 
# High freq. dielectric constant tensor:
#      x y z
#    x 1.775260 0.037730 -0.014100 
#    y 0.037730 1.753230 0.013120 
#    z -0.014100 0.013120 1.783240 
# 
# From -- ./inp_files/109004.got.cif
#   From: 2010.06.25/outbox.cif.g09.slc.cpg/sg2_55_cif.got.tgz:109004.got - 2010.06.27 13:26:56.
