data_PCOD8001621
_publ_section_title
;
Structure prediction by ZEFSAII (Michael W. Deem and Ramdas Pophale) SiO2 
 PCOD8001621
Probable space group: P -1
;
_chemical_formula_sum "Si O2"
_cell_formula_units_Z 14
_cell_length_a 19.412706
_cell_length_b 8.964691
_cell_length_c 24.570431
_cell_angle_alpha 149.813482
_cell_angle_beta 158.922933
_cell_angle_gamma 40.138953
_cell_volume 751.972228
_symmetry_space_group_name_H-M "P -1"
_symmetry_group_IT_number 2
_symmetry_cell_setting 'triclinic'
loop_
_space_group_symop_operation_xyz
x,y,z
-x,-y,-z
loop_
_atom_site_type_symbol
_atom_site_label
_atom_site_fract_x
_atom_site_fract_y
_atom_site_fract_z
Si Si1 0.459417 0.633926 0.219608
Si Si2 0.356893 0.718071 0.471963
Si Si3 0.968162 0.338305 0.085678
Si Si4 0.747499 0.291419 0.379415
Si Si5 0.511799 0.759271 0.979633
Si Si6 0.095930 0.420938 0.600660
Si Si7 0.169758 0.759327 0.451684
O O1 0.565033 0.433594 0.272662
O O2 0.444891 0.527432 0.111816
O O3 0.583007 0.979393 0.423790
O O4 0.243143 0.631462 0.082277
O O5 0.500000 0.500000 0.500000
O O6 0.358834 0.796580 0.562880
O O7 0.135085 0.547951 0.236454
O O8 0.000020 0.474691 0.214030
O O9 0.000000 0.000000 0.000000
O O10 0.770650 0.316249 0.468350
O O11 0.952638 0.472670 0.560460
O O12 0.687129 0.930779 0.203359
O O13 0.313861 0.644604 0.834170
O O14 0.500000 0.000000 0.000000
O O15 0.000000 0.500000 0.500000
O O16 0.094548 0.067315 0.490302
#
# Coordination Sequence:
#
# PCOD8001621 Si02
#       7
#     2   2   2   2   2   2   2
#     4  11  19  37  62  82 116 159 194 235 286 351
#     4  10  20  39  63  85 109 149 205 244 288 349
#     4  10  21  37  64  85 106 149 204 240 292 350
#     4  11  24  37  56  92 124 155 191 240 295 342
#     4  10  20  33  59  85 118 158 200 221 279 360
#     4  12  20  38  59  88 122 163 195 230 278 356
#     4  10  23  40  58  88 125 147 192 255 292 331
#
# _framework density 18.617708
#
# number of rings (size 3 to 8) (size 9 to 14) (size 15 to 20)
#    0.857    0.571    5.714    1.286    2.000    0.571 
#    2.571    2.857    0.000    1.714    0.000    0.000 
#    0.000    0.000    0.000    0.000    0.000    0.000 
#
# Total GULP energy -173440.601685 kJ/mol
# GULP energy per Si atom -12388.614406 kJ/mol
# Density = 1.857533 g / cm^3
# Si number density = 18.617708 Si / 1000 Ang^3
#
#
#
# Elastic Constant Matrix: (Units=GPa)
#
#
# Indices 1 2 3 4 5 6 
#
# 1 69.8755 43.5718 28.3449 -13.6564 8.1705 5.7200
# 2 43.5718 113.0940 42.0537 -1.3990 2.8489 -9.6622
# 3 28.3449 42.0537 119.0034 7.1855 24.0750 -0.9223
# 4 -13.6564 -1.3990 7.1855 31.2002 -8.5345 4.2535
# 5 8.1705 2.8489 24.0750 -8.5345 34.3709 -7.4640
# 6 5.7200 -9.6622 -0.9223 4.2535 -7.4640 25.6487
#
#
#
# Elastic Compliance Matrix: (Units=1/GPa)
#
#
# Indices 1 2 3 4 5 6 
#
# 1 0.024985 -0.009347 -0.002919 0.012079 -0.002726 -0.011995
# 2 -0.009347 0.014439 -0.003660 -0.002501 0.004978 0.009256
# 3 -0.002919 -0.003660 0.012849 -0.006899 -0.010168 -0.002081
# 4 0.012079 -0.002501 -0.006899 0.042920 0.011140 -0.007760
# 5 -0.002726 0.004978 -0.010168 0.011140 0.041926 0.012471
# 6 -0.011995 0.009256 -0.002081 -0.007760 0.012471 0.049991
#
#
# Mechanical properties :
#
#
# Convention : Reuss Voigt Hill
#
# Bulk Modulus (GPa) = 48.97099 58.87927 53.92513
# Shear Modulus (GPa) = 22.14639 30.77746 26.46193
#
# Velocity S-wave (km/s) = 3.45270 4.07028 3.77414
# Velocity P-wave (km/s) = 6.50042 7.33373 6.92961
#
# Compressibility (1/GPa) = 0.02042025
#
# Stress axis : x y z
#
# Youngs Moduli (GPa) = 40.02387 69.25680 77.82542
#
# Poissons Ratio (x) = 0.64737 0.22715
# Poissons Ratio (y) = 0.37412 0.28487
# Poissons Ratio (z) = 0.11682 0.25351
#
# Static dielectric constant tensor:
#      x y z
#    x 3.399950 -0.257180 0.141570 
#    y -0.257180 3.253190 0.069490 
#    z 0.141570 0.069490 3.937830 
# 
# 
# High freq. dielectric constant tensor:
#      x y z
#    x 1.696370 -0.020690 0.019870 
#    y -0.020690 1.716540 0.010190 
#    z 0.019870 0.010190 1.729940 
# 
# From -- ./inp_files/356530.got.cif
#   From: 2010.06.25/outbox.cif.g09.slc.cpg/sg2_179_cif.got.tgz:356530.got - 2010.06.27 13:26:56.
