data_PCOD8001726
_publ_section_title
;
Structure prediction by ZEFSAII (Michael W. Deem and Ramdas Pophale) SiO2 
 PCOD8001726
Probable space group: P -1
;
_chemical_formula_sum "Si O2"
_cell_formula_units_Z 16
_cell_length_a 11.588217
_cell_length_b 12.364408
_cell_length_c 7.384387
_cell_angle_alpha 98.844664
_cell_angle_beta 50.980150
_cell_angle_gamma 121.993807
_cell_volume 670.701453
_symmetry_space_group_name_H-M "P -1"
_symmetry_group_IT_number 2
_symmetry_cell_setting 'triclinic'
loop_
_space_group_symop_operation_xyz
x,y,z
-x,-y,-z
loop_
_atom_site_type_symbol
_atom_site_label
_atom_site_fract_x
_atom_site_fract_y
_atom_site_fract_z
Si Si1 0.129815 0.038123 0.176212
Si Si2 0.494972 0.899122 0.230449
Si Si3 0.261744 0.457378 0.887031
Si Si4 0.360994 0.639718 0.134887
Si Si5 0.362723 0.061435 0.520015
Si Si6 0.633248 0.510467 0.586959
Si Si7 0.969792 0.841720 0.990478
Si Si8 0.725059 0.782559 0.613548
O O1 0.156523 0.135389 0.007401
O O2 0.104400 0.095186 0.407809
O O3 0.305499 0.036867 0.031818
O O4 0.964575 0.890013 0.221301
O O5 0.346652 0.761099 0.239946
O O6 0.439154 0.002516 0.287639
O O7 0.498664 0.868831 0.432420
O O8 0.422168 0.448384 0.805456
O O9 0.327310 0.535468 0.652370
O O10 0.231357 0.549826 0.072504
O O11 0.085432 0.307654 0.006215
O O12 0.297218 0.536087 0.334134
O O13 0.569015 0.705007 0.899227
O O14 0.173766 0.936635 0.749062
O O15 0.347285 0.169634 0.462597
O O16 0.753800 0.671056 0.486918
#
# Coordination Sequence:
#
# PCOD8001726 Si02
#       8
#     2   2   2   2   2   2   2   2
#     4   9  19  33  56  83 116 157 187 249 290 344
#     4   9  20  39  61  84 117 156 204 239 291 352
#     4  10  20  34  54  83 114 156 192 237 297 343
#     4  10  20  36  58  85 114 152 203 252 276 344
#     4  10  22  37  60  90 119 160 189 244 302 358
#     4  10  21  33  58  87 115 155 197 250 288 340
#     4  10  20  36  55  84 128 151 192 245 302 348
#     4  10  20  35  58  90 121 149 203 242 296 354
#
# _framework density 23.855620999999999
#
# number of rings (size 3 to 8) (size 9 to 14) (size 15 to 20)
#    0.000    2.250    0.000    3.750   10.500    2.500 
#    2.250    0.625    0.000    0.750    0.000    0.000 
#    0.000    0.000    0.000    0.000    0.000    0.000 
#
# Total GULP energy -198285.531567 kJ/mol
# GULP energy per Si atom -12392.845723 kJ/mol
# Density = 2.380133 g / cm^3
# Si number density = 23.855621 Si / 1000 Ang^3
#
#
#
# Elastic Constant Matrix: (Units=GPa)
#
#
# Indices 1 2 3 4 5 6 
#
# 1 49.2057 26.6932 14.0160 3.6375 15.3797 10.7458
# 2 26.6932 156.6567 23.3106 7.1259 10.8306 27.0286
# 3 14.0160 23.3106 25.5697 10.1277 1.5017 9.8698
# 4 3.6375 7.1259 10.1277 39.7903 6.0713 10.0948
# 5 15.3797 10.8306 1.5017 6.0713 31.5755 10.3876
# 6 10.7458 27.0286 9.8698 10.0948 10.3876 36.5990
#
#
#
# Elastic Compliance Matrix: (Units=1/GPa)
#
#
# Indices 1 2 3 4 5 6 
#
# 1 0.029761 -0.002002 -0.014993 0.003626 -0.013684 -0.000333
# 2 -0.002002 0.008209 -0.005175 0.001181 -0.000411 -0.004288
# 3 -0.014993 -0.005175 0.059251 -0.012594 0.011129 -0.007440
# 4 0.003626 0.001181 -0.012594 0.029975 -0.005621 -0.005212
# 5 -0.013684 -0.000411 0.011129 -0.005621 0.042006 -0.009052
# 6 -0.000333 -0.004288 -0.007440 -0.005212 -0.009052 0.036601
#
#
# Mechanical properties :
#
#
# Convention : Reuss Voigt Hill
#
# Bulk Modulus (GPa) = 18.90968 39.94131 29.42549
# Shear Modulus (GPa) = 18.67282 32.75377 25.71329
#
# Velocity S-wave (km/s) = 2.80079 3.70942 3.28666
# Velocity P-wave (km/s) = 4.28989 5.92669 5.17343
#
# Compressibility (1/GPa) = 0.05288296
#
# Stress axis : x y z
#
# Youngs Moduli (GPa) = 33.60097 121.81705 16.87722
#
# Poissons Ratio (x) = 0.24382 0.25304
# Poissons Ratio (y) = 0.06725 0.08734
# Poissons Ratio (z) = 0.50377 0.63039
#
# Static dielectric constant tensor:
#      x y z
#    x 3.984870 0.517620 0.446090 
#    y 0.517620 4.802420 0.330990 
#    z 0.446090 0.330990 4.500770 
# 
# 
# High freq. dielectric constant tensor:
#      x y z
#    x 1.902490 0.028030 0.041010 
#    y 0.028030 1.964340 0.004200 
#    z 0.041010 0.004200 1.949310 
# 
# From -- ./inp_files/262659.got.cif
#   From: 2010.06.25/outbox.cif.g09.slc.cpg/sg2_132_cif.got.tgz:262659.got - 2010.06.27 13:26:56.
