data_PCOD8001438
_publ_section_title
;
Structure prediction by ZEFSAII (Michael W. Deem and Ramdas Pophale) SiO2 
 PCOD8001438
Probable space group: P -1
;
_chemical_formula_sum "Si O2"
_cell_formula_units_Z 16
_cell_length_a 24.119991
_cell_length_b 13.465469
_cell_length_c 14.051579
_cell_angle_alpha 133.176882
_cell_angle_beta 148.350015
_cell_angle_gamma 23.835844
_cell_volume 866.551638
_symmetry_space_group_name_H-M "P -1"
_symmetry_group_IT_number 2
_symmetry_cell_setting 'triclinic'
loop_
_space_group_symop_operation_xyz
x,y,z
-x,-y,-z
loop_
_atom_site_type_symbol
_atom_site_label
_atom_site_fract_x
_atom_site_fract_y
_atom_site_fract_z
Si Si1 0.044667 0.079405 0.054799
Si Si2 0.920926 0.897011 0.421704
Si Si3 0.527396 0.334556 0.495731
Si Si4 0.375531 0.289102 0.110432
Si Si5 0.628023 0.564475 0.186079
Si Si6 0.905601 0.171069 0.711271
Si Si7 0.560776 0.092667 0.045375
Si Si8 0.223396 0.899483 0.864079
O O1 0.864000 0.394596 0.012397
O O2 0.054963 0.012727 0.918647
O O3 0.267003 0.895805 0.289063
O O4 0.000000 0.000000 0.000000
O O5 0.789696 0.910361 0.267794
O O6 0.173780 0.577953 0.568538
O O7 0.903849 0.023234 0.565482
O O8 0.830985 0.061955 0.301184
O O9 0.500000 0.500000 0.500000
O O10 0.541255 0.191395 0.350870
O O11 0.334326 0.525930 0.412052
O O12 0.432516 0.246372 0.056146
O O13 0.394262 0.112169 0.053112
O O14 0.686077 0.340098 0.114081
O O15 0.402498 0.819195 0.082603
O O16 0.592109 0.666773 0.096959
O O17 0.005214 0.171546 0.782730
#
# Coordination Sequence:
#
# PCOD8001438 Si02
#       8
#     2   2   2   2   2   2   2   2
#     4  11  23  35  55  80 108 148 187 232 268 325
#     4  10  20  33  57  86 116 144 183 230 289 330
#     4  11  21  36  55  78 108 145 187 232 273 324
#     4  10  23  39  53  81 117 146 195 223 275 331
#     4   9  18  32  53  79 113 144 180 221 284 324
#     4  10  20  32  55  83 114 143 178 231 284 323
#     4  10  22  36  56  81 114 156 179 230 273 342
#     4   9  19  33  52  88 116 139 182 240 278 333
#
# _framework density 18.463989000000002
#
# number of rings (size 3 to 8) (size 9 to 14) (size 15 to 20)
#    0.000    2.000    2.500    2.250    3.500    5.000 
#    0.000    2.500    0.000   12.000    0.000   24.500 
#    0.000    0.000    0.000    0.000    0.000    0.000 
#
# Total GULP energy -198275.134032 kJ/mol
# GULP energy per Si atom -12392.195877 kJ/mol
# Density = 1.842196 g / cm^3
# Si number density = 18.463989 Si / 1000 Ang^3
#
#
#
# Elastic Constant Matrix: (Units=GPa)
#
#
# Indices 1 2 3 4 5 6 
#
# 1 110.9083 47.7620 49.6005 0.8624 0.6211 -0.9253
# 2 47.7620 75.1338 56.3168 9.1814 -4.9377 -0.3978
# 3 49.6005 56.3168 150.6941 -7.4772 3.3185 6.6648
# 4 0.8624 9.1814 -7.4772 30.8120 -4.3477 2.8436
# 5 0.6211 -4.9377 3.3185 -4.3477 32.6027 -3.4039
# 6 -0.9253 -0.3978 6.6648 2.8436 -3.4039 24.2234
#
#
#
# Elastic Compliance Matrix: (Units=1/GPa)
#
#
# Indices 1 2 3 4 5 6 
#
# 1 0.012788 -0.007281 -0.001424 0.001284 -0.000981 0.000472
# 2 -0.007281 0.025052 -0.007665 -0.008922 0.003924 0.003841
# 3 -0.001424 -0.007665 0.010430 0.004941 -0.001944 -0.003903
# 4 0.001284 -0.008922 0.004941 0.037134 0.002503 -0.005464
# 5 -0.000981 0.003924 -0.001944 0.002503 0.032319 0.004810
# 6 0.000472 0.003841 -0.003903 -0.005464 0.004810 0.043755
#
#
# Mechanical properties :
#
#
# Convention : Reuss Voigt Hill
#
# Bulk Modulus (GPa) = 64.38938 71.56610 67.97774
# Shear Modulus (GPa) = 25.07613 29.73139 27.40376
#
# Velocity S-wave (km/s) = 3.68925 4.01713 3.85668
# Velocity P-wave (km/s) = 7.28671 7.76920 7.53182
#
# Compressibility (1/GPa) = 0.01553051
#
# Stress axis : x y z
#
# Youngs Moduli (GPa) = 78.19717 39.91749 95.88175
#
# Poissons Ratio (x) = 0.29065 0.13650
# Poissons Ratio (y) = 0.56937 0.73490
# Poissons Ratio (z) = 0.11133 0.30595
#
# Static dielectric constant tensor:
#      x y z
#    x 3.780150 -0.300300 0.270780 
#    y -0.300300 3.023520 0.118270 
#    z 0.270780 0.118270 3.410300 
# 
# 
# High freq. dielectric constant tensor:
#      x y z
#    x 1.728900 -0.012440 0.009090 
#    y -0.012440 1.673340 -0.014060 
#    z 0.009090 -0.014060 1.732440 
# 
# From -- ./inp_files/471054.got.cif
#   From: 2010.06.25/outbox.cif.g09.slc.cpg/sg2_236_cif.got.tgz:471054.got - 2010.06.27 13:26:56.
