data_PCOD8001194
_publ_section_title
;
Structure prediction by ZEFSAII (Michael W. Deem and Ramdas Pophale) SiO2 
 PCOD8001194
Probable space group: P -1
;
_chemical_formula_sum "Si O2"
_cell_formula_units_Z 16
_cell_length_a 9.759216
_cell_length_b 9.731269
_cell_length_c 12.038646
_cell_angle_alpha 92.278715
_cell_angle_beta 107.029232
_cell_angle_gamma 45.410482
_cell_volume 755.070832
_symmetry_space_group_name_H-M "P -1"
_symmetry_group_IT_number 2
_symmetry_cell_setting 'triclinic'
loop_
_space_group_symop_operation_xyz
x,y,z
-x,-y,-z
loop_
_atom_site_type_symbol
_atom_site_label
_atom_site_fract_x
_atom_site_fract_y
_atom_site_fract_z
Si Si1 0.932451 0.916292 0.128153
Si Si2 0.800299 0.025074 0.861351
Si Si3 0.560744 0.800379 0.376507
Si Si4 0.064981 0.587204 0.871561
Si Si5 0.727969 0.968650 0.480775
Si Si6 0.169994 0.602880 0.668736
Si Si7 0.323645 0.801977 0.718024
Si Si8 0.202999 0.469174 0.139530
O O1 0.026548 0.698341 0.144522
O O2 0.789902 0.040882 0.204334
O O3 0.781429 0.047051 0.991024
O O4 0.134575 0.873978 0.171755
O O5 0.990881 0.794490 0.870943
O O6 0.587366 0.120940 0.761552
O O7 0.662987 0.879748 0.391663
O O8 0.732754 0.560276 0.409317
O O9 0.448558 0.865076 0.469636
O O10 0.192441 0.497194 0.783985
O O11 0.864207 0.627193 0.822290
O O12 0.208945 0.448825 0.006232
O O13 0.931220 0.797075 0.594406
O O14 0.768453 0.068426 0.412051
O O15 0.290790 0.662110 0.709248
O O16 0.569239 0.653684 0.770032
#
# Coordination Sequence:
#
# PCOD8001194 Si02
#       8
#     2   2   2   2   2   2   2   2
#     4  10  22  39  64  97 133 170 201 266 319 381
#     4  10  19  42  65  92 136 166 209 259 325 376
#     4  11  24  42  68  93 121 177 214 265 319 378
#     4  10  21  43  63  92 137 165 207 268 314 375
#     4  11  26  45  63  93 132 165 219 272 312 370
#     4  12  25  42  69  95 126 172 216 266 317 377
#     4  12  25  41  68  99 128 169 216 260 316 391
#     4  10  24  40  62  97 133 169 205 262 320 377
#
# _framework density 21.190062999999999
#
# number of rings (size 3 to 8) (size 9 to 14) (size 15 to 20)
#    0.000    1.250    2.500    2.250    5.250    2.000 
#    0.000    2.500    0.000    0.000    0.000    0.000 
#    0.000    0.000    0.000    0.000    0.000    0.000 
#
# Total GULP energy -198456.171882 kJ/mol
# GULP energy per Si atom -12403.510743 kJ/mol
# Density = 2.114183 g / cm^3
# Si number density = 21.190063 Si / 1000 Ang^3
#
#
#
# Elastic Constant Matrix: (Units=GPa)
#
#
# Indices 1 2 3 4 5 6 
#
# 1 93.4088 33.0607 49.8247 6.9466 2.9098 14.5050
# 2 33.0607 89.9376 31.4036 19.8597 -14.3796 -0.2988
# 3 49.8247 31.4036 86.0065 8.7886 -9.2413 10.0222
# 4 6.9466 19.8597 8.7886 28.3580 0.1909 -1.3928
# 5 2.9098 -14.3796 -9.2413 0.1909 38.8341 1.6209
# 6 14.5050 -0.2988 10.0222 -1.3928 1.6209 24.6187
#
#
#
# Elastic Compliance Matrix: (Units=1/GPa)
#
#
# Indices 1 2 3 4 5 6 
#
# 1 0.018087 -0.004717 -0.008611 0.001240 -0.004873 -0.006817
# 2 -0.004717 0.016700 -0.002056 -0.009802 0.005976 0.002871
# 3 -0.008611 -0.002056 0.018411 -0.002327 0.004396 -0.002867
# 4 0.001240 -0.009802 -0.002327 0.042715 -0.004604 0.002818
# 5 -0.004873 0.005976 0.004396 -0.004604 0.029441 -0.001045
# 6 -0.006817 0.002871 -0.002867 0.002818 -0.001045 0.046067
#
#
# Mechanical properties :
#
#
# Convention : Reuss Voigt Hill
#
# Bulk Modulus (GPa) = 44.58548 55.32565 49.95557
# Shear Modulus (GPa) = 23.84756 28.69974 26.27365
#
# Velocity S-wave (km/s) = 3.35836 3.68420 3.52505
# Velocity P-wave (km/s) = 6.01037 6.65310 6.33988
#
# Compressibility (1/GPa) = 0.02242883
#
# Stress axis : x y z
#
# Youngs Moduli (GPa) = 55.28901 59.87952 54.31660
#
# Poissons Ratio (x) = 0.28247 0.46774
# Poissons Ratio (y) = 0.26081 0.11166
# Poissons Ratio (z) = 0.47611 0.12310
#
# Static dielectric constant tensor:
#      x y z
#    x 3.798470 0.170360 0.020140 
#    y 0.170360 3.781460 0.113760 
#    z 0.020140 0.113760 3.877370 
# 
# 
# High freq. dielectric constant tensor:
#      x y z
#    x 1.835780 0.009440 0.002570 
#    y 0.009440 1.830830 0.007420 
#    z 0.002570 0.007420 1.832370 
# 
# From -- ./inp_files/245955.got.cif
#   From: 2010.06.25/outbox.cif.g09.slc.cpg/sg2_123_cif.got.tgz:245955.got - 2010.06.27 13:26:56.
