data_PCOD8001879
_publ_section_title
;
Structure prediction by ZEFSAII (Michael W. Deem and Ramdas Pophale) SiO2 
 PCOD8001879
Probable space group: P -1
;
_chemical_formula_sum "Si O2"
_cell_formula_units_Z 16
_cell_length_a 8.735752
_cell_length_b 12.642189
_cell_length_c 20.037290
_cell_angle_alpha 26.594869
_cell_angle_beta 119.568106
_cell_angle_gamma 126.501794
_cell_volume 791.778035
_symmetry_space_group_name_H-M "P -1"
_symmetry_group_IT_number 2
_symmetry_cell_setting 'triclinic'
loop_
_space_group_symop_operation_xyz
x,y,z
-x,-y,-z
loop_
_atom_site_type_symbol
_atom_site_label
_atom_site_fract_x
_atom_site_fract_y
_atom_site_fract_z
Si Si1 0.145936 0.411708 0.324444
Si Si2 0.464179 0.300342 0.948223
Si Si3 0.784138 0.696052 0.234030
Si Si4 0.386606 0.143218 0.311359
Si Si5 0.297102 0.847043 0.008486
Si Si6 0.736459 0.988987 0.493202
Si Si7 0.218340 0.683515 0.450419
Si Si8 0.212597 0.770634 0.254968
O O1 0.161115 0.603544 0.158798
O O2 0.246008 0.581441 0.314997
O O3 0.924601 0.248931 0.383046
O O4 0.253192 0.226322 0.433603
O O5 0.359898 0.358671 0.828134
O O6 0.541793 0.559094 0.863472
O O7 0.650930 0.243110 0.000493
O O8 0.316440 0.066705 0.089576
O O9 0.686665 0.458154 0.398950
O O10 0.987801 0.709865 0.245100
O O11 0.810757 0.959148 0.130112
O O12 0.562478 0.057291 0.395133
O O13 0.286912 0.113424 0.378599
O O14 0.235800 0.956734 0.331076
O O15 0.500000 0.000000 0.000000
O O16 0.303623 0.730133 0.367447
O O17 0.000000 0.500000 0.500000
#
# Coordination Sequence:
#
# PCOD8001879 Si02
#       8
#     2   2   2   2   2   2   2   2
#     4  11  20  37  57  92 126 145 197 246 303 334
#     4  11  21  35  62  91 116 148 196 252 295 334
#     4  10  20  37  62  85 117 156 200 236 292 350
#     4  11  21  38  60  84 120 155 201 235 301 348
#     4  10  20  34  58  88 120 150 187 249 293 341
#     4  10  22  34  61  92 118 153 191 258 289 343
#     4  10  23  40  59  84 119 160 197 238 292 357
#     4  11  22  37  60  88 120 157 193 241 289 359
#
# _framework density 20.207682999999999
#
# number of rings (size 3 to 8) (size 9 to 14) (size 15 to 20)
#    0.000    1.500    3.750    4.125    3.500    0.500 
#    0.000    2.500    0.000    3.000    0.000    0.000 
#    0.000    0.000    0.000    0.000    0.000    0.000 
#
# Total GULP energy -198357.780339 kJ/mol
# GULP energy per Si atom -12397.361271 kJ/mol
# Density = 2.016169 g / cm^3
# Si number density = 20.207683 Si / 1000 Ang^3
#
#
#
# Elastic Constant Matrix: (Units=GPa)
#
#
# Indices 1 2 3 4 5 6 
#
# 1 79.6120 26.4846 27.6414 -9.9641 -6.5235 -13.9703
# 2 26.4846 105.3173 55.3894 -26.5417 -6.0672 -20.6388
# 3 27.6414 55.3894 125.0654 -20.0891 -9.8806 -11.1846
# 4 -9.9641 -26.5417 -20.0891 42.8467 -6.0133 0.2043
# 5 -6.5235 -6.0672 -9.8806 -6.0133 25.1591 -8.9624
# 6 -13.9703 -20.6388 -11.1846 0.2043 -8.9624 24.1297
#
#
#
# Elastic Compliance Matrix: (Units=1/GPa)
#
#
# Indices 1 2 3 4 5 6 
#
# 1 0.016530 0.001115 -0.001265 0.005308 0.010201 0.013681
# 2 0.001115 0.018912 -0.003889 0.011914 0.013235 0.019834
# 3 -0.001265 -0.003889 0.011163 0.003208 0.004924 0.002917
# 4 0.005308 0.011914 0.003208 0.036483 0.022327 0.022734
# 5 0.010201 0.013235 0.004924 0.022327 0.068845 0.044890
# 6 0.013681 0.019834 0.002917 0.022734 0.044890 0.084161
#
#
# Mechanical properties :
#
#
# Convention : Reuss Voigt Hill
#
# Bulk Modulus (GPa) = 25.95625 58.78063 42.36844
# Shear Modulus (GPa) = 19.45416 31.79239 25.62327
#
# Velocity S-wave (km/s) = 3.10612 3.97077 3.56476
# Velocity P-wave (km/s) = 5.07313 7.08336 6.16079
#
# Compressibility (1/GPa) = 0.03852637
#
# Stress axis : x y z
#
# Youngs Moduli (GPa) = 60.49497 52.87684 89.58182
#
# Poissons Ratio (x) = -0.05895 0.11334
# Poissons Ratio (y) = -0.06745 0.34839
# Poissons Ratio (z) = 0.07654 0.20564
#
# Static dielectric constant tensor:
#      x y z
#    x 3.844080 -0.311620 0.027930 
#    y -0.311620 3.838560 -0.154830 
#    z 0.027930 -0.154830 4.149000 
# 
# 
# High freq. dielectric constant tensor:
#      x y z
#    x 1.787430 -0.017900 -0.012790 
#    y -0.017900 1.770480 -0.034030 
#    z -0.012790 -0.034030 1.794120 
# 
# From -- ./inp_files/403031.got.cif
#   From: 2010.06.25/outbox.cif.g09.slc.cpg/sg2_202_cif.got.tgz:403031.got - 2010.06.27 13:26:56.
