data_PCOD8001319
_publ_section_title
;
Structure prediction by ZEFSAII (Michael W. Deem and Ramdas Pophale) SiO2 
 PCOD8001319
Probable space group: P -1
;
_chemical_formula_sum "Si O2"
_cell_formula_units_Z 16
_cell_length_a 13.970723
_cell_length_b 17.799344
_cell_length_c 14.153081
_cell_angle_alpha 124.190817
_cell_angle_beta 20.767543
_cell_angle_gamma 131.610186
_cell_volume 909.671954
_symmetry_space_group_name_H-M "P -1"
_symmetry_group_IT_number 2
_symmetry_cell_setting 'triclinic'
loop_
_space_group_symop_operation_xyz
x,y,z
-x,-y,-z
loop_
_atom_site_type_symbol
_atom_site_label
_atom_site_fract_x
_atom_site_fract_y
_atom_site_fract_z
Si Si1 0.585638 0.581154 0.560899
Si Si2 0.451692 0.234821 0.993035
Si Si3 0.854175 0.129874 0.579238
Si Si4 0.155299 0.569435 0.109765
Si Si5 0.081457 0.434461 0.252609
Si Si6 0.834665 0.810518 0.465477
Si Si7 0.549594 0.068529 0.094675
Si Si8 0.458888 0.634813 0.171310
O O1 0.500000 0.500000 0.500000
O O2 0.645668 0.689076 0.535207
O O3 0.880264 0.592863 0.354172
O O4 0.294841 0.542639 0.870814
O O5 0.694388 0.193154 0.729817
O O6 0.573739 0.330990 0.020019
O O7 0.403506 0.266959 0.955400
O O8 0.129428 0.145733 0.266521
O O9 0.981920 0.171910 0.594289
O O10 0.606384 0.008183 0.727091
O O11 0.026647 0.469889 0.225917
O O12 0.263583 0.533944 0.218978
O O13 0.758039 0.356446 0.542665
O O14 0.269829 0.371366 0.026811
O O15 0.604701 0.857835 0.720844
O O16 0.081450 0.861980 0.188383
O O17 0.500000 0.000000 0.000000
#
# Coordination Sequence:
#
# PCOD8001319 Si02
#       8
#     2   2   2   2   2   2   2   2
#     4  12  24  36  51  70  93 127 173 216 246 268
#     4  11  18  28  47  68 100 128 156 194 229 281
#     4  11  18  29  45  70  95 126 161 192 230 287
#     4  11  20  35  49  66  91 132 165 204 243 277
#     4   9  17  29  45  61  90 122 162 190 225 283
#     4  11  19  34  47  64  93 126 164 206 239 277
#     4  10  20  30  48  68  91 123 163 199 235 284
#     4   9  17  27  41  68  90 122 156 187 226 275
#
# _framework density 17.588757999999999
#
# number of rings (size 3 to 8) (size 9 to 14) (size 15 to 20)
#    0.000    1.500    2.500    6.375    0.000    4.000 
#    0.000    0.000    0.000    0.000    0.000    0.000 
#    0.000    0.000    0.000   78.750    0.000    0.000 
#
# Total GULP energy -198389.230173 kJ/mol
# GULP energy per Si atom -12399.326886 kJ/mol
# Density = 1.754872 g / cm^3
# Si number density = 17.588758 Si / 1000 Ang^3
#
#
#
# Elastic Constant Matrix: (Units=GPa)
#
#
# Indices 1 2 3 4 5 6 
#
# 1 43.5800 32.2456 21.4443 -2.8037 8.3854 -17.5038
# 2 32.2456 83.3951 28.2074 4.9476 3.8673 -14.6716
# 3 21.4443 28.2074 116.4737 2.1381 11.8808 -10.7033
# 4 -2.8037 4.9476 2.1381 29.4063 -17.5376 -1.5352
# 5 8.3854 3.8673 11.8808 -17.5376 23.7629 0.1374
# 6 -17.5038 -14.6716 -10.7033 -1.5352 0.1374 20.1786
#
#
#
# Elastic Compliance Matrix: (Units=1/GPa)
#
#
# Indices 1 2 3 4 5 6 
#
# 1 0.048310 -0.011692 -0.001525 -0.000537 -0.014968 0.032657
# 2 -0.011692 0.017708 -0.001782 -0.004682 -0.001328 0.001440
# 3 -0.001525 -0.001782 0.010512 -0.005580 -0.008561 0.002591
# 4 -0.000537 -0.004682 -0.005580 0.066583 0.052894 -0.002124
# 5 -0.014968 -0.001328 -0.008561 0.052894 0.090984 -0.015085
# 6 0.032657 0.001440 0.002591 -0.002124 -0.015085 0.080247
#
#
# Mechanical properties :
#
#
# Convention : Reuss Voigt Hill
#
# Bulk Modulus (GPa) = 21.49145 45.24926 33.37036
# Shear Modulus (GPa) = 13.89455 25.43967 19.66711
#
# Velocity S-wave (km/s) = 2.81369 3.80723 3.34752
# Velocity P-wave (km/s) = 4.77505 6.71630 5.82709
#
# Compressibility (1/GPa) = 0.04653014
#
# Stress axis : x y z
#
# Youngs Moduli (GPa) = 20.69959 56.47324 95.13193
#
# Poissons Ratio (x) = 0.66031 0.14510
# Poissons Ratio (y) = 0.24203 0.16951
# Poissons Ratio (z) = 0.03157 0.10063
#
# Static dielectric constant tensor:
#      x y z
#    x 3.014300 -0.461730 0.160800 
#    y -0.461730 3.182320 -0.144780 
#    z 0.160800 -0.144780 3.722640 
# 
# 
# High freq. dielectric constant tensor:
#      x y z
#    x 1.635310 -0.050980 0.009640 
#    y -0.050980 1.650110 0.009100 
#    z 0.009640 0.009100 1.707690 
# 
# From -- ./inp_files/96424.got.cif
#   From: 2010.06.25/outbox.cif.g09.slc.cpg/sg2_49_cif.got.tgz:96424.got - 2010.06.27 13:26:56.
