data_PCOD8001124
_publ_section_title
;
Structure prediction by ZEFSAII (Michael W. Deem and Ramdas Pophale) SiO2 
 PCOD8001124
Probable space group: P -1
;
_chemical_formula_sum "Si O2"
_cell_formula_units_Z 16
_cell_length_a 9.398028
_cell_length_b 20.118616
_cell_length_c 24.938443
_cell_angle_alpha 19.026747
_cell_angle_beta 29.170298
_cell_angle_gamma 37.650634
_cell_volume 732.184228
_symmetry_space_group_name_H-M "P -1"
_symmetry_group_IT_number 2
_symmetry_cell_setting 'triclinic'
loop_
_space_group_symop_operation_xyz
x,y,z
-x,-y,-z
loop_
_atom_site_type_symbol
_atom_site_label
_atom_site_fract_x
_atom_site_fract_y
_atom_site_fract_z
Si Si1 0.217183 0.442843 0.854627
Si Si2 0.703439 0.492932 0.569024
Si Si3 0.215223 0.155590 0.168248
Si Si4 0.540121 0.301390 0.169549
Si Si5 0.309451 0.662852 0.420381
Si Si6 0.765172 0.764988 0.568903
Si Si7 0.732211 0.158246 0.406254
Si Si8 0.325691 0.091397 0.803158
O O1 0.421990 0.409956 0.762521
O O2 0.237775 0.692383 0.665225
O O3 0.328846 0.354117 0.940763
O O4 0.891091 0.307400 0.052065
O O5 0.699067 0.325394 0.650297
O O6 0.679264 0.714069 0.382330
O O7 0.000000 0.500000 0.500000
O O8 0.054964 0.222877 0.222176
O O9 0.506270 0.071070 0.157718
O O10 0.966803 0.988061 0.346771
O O11 0.409542 0.333314 0.246473
O O12 0.359377 0.089578 0.361232
O O13 0.500000 0.500000 0.000000
O O14 0.500000 0.500000 0.500000
O O15 0.484617 0.872496 0.231156
O O16 0.971004 0.612192 0.593909
O O17 0.530398 0.797191 0.577960
O O18 0.000000 0.000000 0.000000
#
# Coordination Sequence:
#
# PCOD8001124 Si02
#       8
#     2   2   2   2   2   2   2   2
#     4  12  24  41  67  98 132 171 219 271 339 388
#     4  11  24  44  63  98 139 169 222 286 331 390
#     4  10  20  40  66  93 130 173 222 272 322 406
#     4  11  25  41  64  99 134 169 208 276 340 384
#     4   9  21  40  67  92 124 180 218 266 326 386
#     4  10  19  41  68  92 127 169 226 266 320 407
#     4  11  22  43  65  97 129 171 222 261 330 406
#     4  10  22  43  66  95 128 177 231 271 321 400
#
# _framework density 21.852423999999999
#
# number of rings (size 3 to 8) (size 9 to 14) (size 15 to 20)
#    0.000    1.500    2.500    2.625    7.000    1.500 
#    2.250    3.125    0.000    0.000    0.000    0.000 
#    0.000    0.000    0.000    0.000    0.000    0.000 
#
# Total GULP energy -198305.934104 kJ/mol
# GULP energy per Si atom -12394.120882 kJ/mol
# Density = 2.180269 g / cm^3
# Si number density = 21.852424 Si / 1000 Ang^3
#
#
#
# Elastic Constant Matrix: (Units=GPa)
#
#
# Indices 1 2 3 4 5 6 
#
# 1 72.4990 28.1640 24.7215 12.5049 6.3319 -0.9947
# 2 28.1640 128.5354 41.3506 37.7892 3.1082 -7.1868
# 3 24.7215 41.3506 118.4596 20.7179 13.3643 -1.6170
# 4 12.5049 37.7892 20.7179 49.9973 -5.1656 2.6424
# 5 6.3319 3.1082 13.3643 -5.1656 26.7242 -0.6904
# 6 -0.9947 -7.1868 -1.6170 2.6424 -0.6904 42.0862
#
#
#
# Elastic Compliance Matrix: (Units=1/GPa)
#
#
# Indices 1 2 3 4 5 6 
#
# 1 0.015880 -0.002288 -0.001881 -0.001761 -0.002897 -0.000025
# 2 -0.002288 0.011229 -0.002006 -0.007317 -0.001117 0.002228
# 3 -0.001881 -0.002006 0.010644 -0.002969 -0.005215 0.000123
# 4 -0.001761 -0.007317 -0.002969 0.028203 0.008126 -0.003043
# 5 -0.002897 -0.001117 -0.005215 0.008126 0.042407 -0.000274
# 6 -0.000025 0.002228 0.000123 -0.003043 -0.000274 0.024332
#
#
# Mechanical properties :
#
#
# Convention : Reuss Voigt Hill
#
# Bulk Modulus (GPa) = 39.36540 56.44069 47.90305
# Shear Modulus (GPa) = 32.57070 38.77875 35.67472
#
# Velocity S-wave (km/s) = 3.86487 4.21714 4.04484
# Velocity P-wave (km/s) = 6.16195 7.04248 6.61688
#
# Compressibility (1/GPa) = 0.02540302
#
# Stress axis : x y z
#
# Youngs Moduli (GPa) = 62.97278 89.05121 93.95190
#
# Poissons Ratio (x) = 0.20375 0.17671
# Poissons Ratio (y) = 0.14408 0.18848
# Poissons Ratio (z) = 0.11844 0.17865
#
# Static dielectric constant tensor:
#      x y z
#    x 4.388300 0.655820 -0.111090 
#    y 0.655820 5.624990 -0.040250 
#    z -0.111090 -0.040250 3.938690 
# 
# 
# High freq. dielectric constant tensor:
#      x y z
#    x 1.847650 -0.009550 -0.007010 
#    y -0.009550 1.880160 0.010070 
#    z -0.007010 0.010070 1.849990 
# 
# From -- ./inp_files/608626.got.cif
#   From: 2010.06.25/outbox.cif.g09.slc.cpg/sg2_305_cif.got.tgz:608626.got - 2010.06.27 13:26:56.
