data_PCOD8001967
_publ_section_title
;
Structure prediction by ZEFSAII (Michael W. Deem and Ramdas Pophale) SiO2 
 PCOD8001967
Probable space group: P -1
;
_chemical_formula_sum "Si O2"
_cell_formula_units_Z 16
_cell_length_a 11.973562
_cell_length_b 17.866603
_cell_length_c 10.946428
_cell_angle_alpha 79.116853
_cell_angle_beta 132.067952
_cell_angle_gamma 139.549693
_cell_volume 840.718842
_symmetry_space_group_name_H-M "P -1"
_symmetry_group_IT_number 2
_symmetry_cell_setting 'triclinic'
loop_
_space_group_symop_operation_xyz
x,y,z
-x,-y,-z
loop_
_atom_site_type_symbol
_atom_site_label
_atom_site_fract_x
_atom_site_fract_y
_atom_site_fract_z
Si Si1 0.798862 0.535124 0.218645
Si Si2 0.786604 0.078319 0.859149
Si Si3 0.448436 0.327144 0.245891
Si Si4 0.487208 0.811674 0.591996
Si Si5 0.245131 0.327047 0.720979
Si Si6 0.279815 0.426041 0.469351
Si Si7 0.302434 0.871662 0.994010
Si Si8 0.367306 0.026460 0.572857
O O1 0.654157 0.413473 0.248859
O O2 0.843433 0.636456 0.281767
O O3 0.121024 0.645285 0.375553
O O4 0.575384 0.441253 0.967420
O O5 0.575344 0.051779 0.653325
O O6 0.613968 0.922509 0.757426
O O7 0.828922 0.116375 0.022419
O O8 0.126828 0.226243 0.004993
O O9 0.376528 0.211602 0.277873
O O10 0.622335 0.450654 0.440017
O O11 0.607957 0.889953 0.522692
O O12 0.265730 0.353667 0.583809
O O13 0.986005 0.151402 0.616244
O O14 0.500000 0.500000 0.500000
O O15 0.949310 0.290062 0.207820
O O16 0.498134 0.900088 0.214705
O O17 0.500000 0.000000 0.000000
#
# Coordination Sequence:
#
# PCOD8001967 Si02
#       8
#     2   2   2   2   2   2   2   2
#     4  10  22  35  56  86 119 152 194 238 298 340
#     4  10  21  37  62  87 113 153 198 238 283 346
#     4  11  24  39  58  88 122 156 185 241 303 353
#     4  12  23  38  59  88 123 152 191 242 302 346
#     4  10  20  34  61  88 113 148 198 252 277 334
#     4  11  20  38  62  86 115 150 201 237 285 346
#     4  10  20  36  62  88 112 147 200 242 277 334
#     4  10  21  36  61  88 112 150 200 241 284 336
#
# _framework density 19.031334000000001
#
# number of rings (size 3 to 8) (size 9 to 14) (size 15 to 20)
#    0.750    0.750    3.750    1.875    8.750    0.000 
#    0.000    0.625    0.000    1.500    0.000    0.000 
#    0.000    0.000    0.000    0.000    0.000    0.000 
#
# Total GULP energy -198330.880455 kJ/mol
# GULP energy per Si atom -12395.680028 kJ/mol
# Density = 1.898802 g / cm^3
# Si number density = 19.031334 Si / 1000 Ang^3
#
#
#
# Elastic Constant Matrix: (Units=GPa)
#
#
# Indices 1 2 3 4 5 6 
#
# 1 28.4550 15.4815 6.3462 -2.8158 -10.3792 10.7260
# 2 15.4815 111.2448 14.5934 -2.6915 -7.8880 14.6458
# 3 6.3462 14.5934 85.7285 13.1991 -15.1014 8.2447
# 4 -2.8158 -2.6915 13.1991 32.3342 7.6453 -0.4772
# 5 -10.3792 -7.8880 -15.1014 7.6453 29.7336 3.1353
# 6 10.7260 14.6458 8.2447 -0.4772 3.1353 33.4823
#
#
#
# Elastic Compliance Matrix: (Units=1/GPa)
#
#
# Indices 1 2 3 4 5 6 
#
# 1 0.050097 -0.003683 0.002352 -0.001876 0.019970 -0.016913
# 2 -0.003683 0.010136 -0.001087 0.000685 0.000999 -0.003070
# 3 0.002352 -0.001087 0.015560 -0.008989 0.011305 -0.005296
# 4 -0.001876 0.000685 -0.008989 0.038181 -0.015329 0.004494
# 5 0.019970 0.000999 0.011305 -0.015329 0.052103 -0.014715
# 6 -0.016913 -0.003070 -0.005296 0.004494 -0.014715 0.039374
#
#
# Mechanical properties :
#
#
# Convention : Reuss Voigt Hill
#
# Bulk Modulus (GPa) = 14.09318 33.14115 23.61717
# Shear Modulus (GPa) = 21.37305 31.71053 26.54179
#
# Velocity S-wave (km/s) = 3.35482 4.08637 3.73853
# Velocity P-wave (km/s) = 4.73580 6.30209 5.57423
#
# Compressibility (1/GPa) = 0.07095631
#
# Stress axis : x y z
#
# Youngs Moduli (GPa) = 19.96139 98.65943 64.26545
#
# Poissons Ratio (x) = 0.36335 -0.15113
# Poissons Ratio (y) = 0.07352 0.06987
# Poissons Ratio (z) = -0.04694 0.10726
#
# Static dielectric constant tensor:
#      x y z
#    x 3.119640 0.226100 -0.033280 
#    y 0.226100 3.378180 0.055010 
#    z -0.033280 0.055010 3.513500 
# 
# 
# High freq. dielectric constant tensor:
#      x y z
#    x 1.702590 0.024860 -0.009210 
#    y 0.024860 1.737900 0.013430 
#    z -0.009210 0.013430 1.757730 
# 
# From -- ./inp_files/436749.got.cif
#   From: 2010.06.25/outbox.cif.g09.slc.cpg/sg2_219_cif.got.tgz:436749.got - 2010.06.27 13:26:56.
