data_PCOD8001369
_publ_section_title
;
Structure prediction by ZEFSAII (Michael W. Deem and Ramdas Pophale) SiO2 
 PCOD8001369
Probable space group: P -1
;
_chemical_formula_sum "Si O2"
_cell_formula_units_Z 16
_cell_length_a 25.641147
_cell_length_b 15.105044
_cell_length_c 15.925146
_cell_angle_alpha 161.522889
_cell_angle_beta 28.118115
_cell_angle_gamma 152.694269
_cell_volume 863.506257
_symmetry_space_group_name_H-M "P -1"
_symmetry_group_IT_number 2
_symmetry_cell_setting 'triclinic'
loop_
_space_group_symop_operation_xyz
x,y,z
-x,-y,-z
loop_
_atom_site_type_symbol
_atom_site_label
_atom_site_fract_x
_atom_site_fract_y
_atom_site_fract_z
Si Si1 0.183419 0.282054 0.946366
Si Si2 0.142213 0.367545 0.693288
Si Si3 0.522270 0.081860 0.946347
Si Si4 0.126621 0.615792 0.465906
Si Si5 0.381572 0.475066 0.520825
Si Si6 0.978935 0.316828 0.734303
Si Si7 0.027191 0.566014 0.339261
Si Si8 0.732578 0.905174 0.495238
O O1 0.170635 0.969287 0.725080
O O2 0.278688 0.326940 0.774955
O O3 0.215403 0.509013 0.185302
O O4 0.067260 0.298852 0.078244
O O5 0.281634 0.428441 0.549895
O O6 0.101951 0.422165 0.706140
O O7 0.067125 0.035964 0.532062
O O8 0.119212 0.596828 0.997753
O O9 0.437766 0.818809 0.772312
O O10 0.659108 0.122807 0.770989
O O11 0.500000 0.000000 0.000000
O O12 0.484875 0.369050 0.240659
O O13 0.000000 0.500000 0.500000
O O14 0.098035 0.468367 0.467569
O O15 0.320444 0.286763 0.520337
O O16 0.000275 0.479942 0.761442
O O17 0.132007 0.881459 0.492979
#
# Coordination Sequence:
#
# PCOD8001369 Si02
#       8
#     2   2   2   2   2   2   2   2
#     4  11  21  32  47  68 101 133 160 195 240 294
#     4  10  20  35  51  70  99 128 167 208 243 274
#     4  10  23  33  46  70  98 127 171 208 231 281
#     4  10  20  32  44  69  98 134 155 198 241 285
#     4  11  21  35  49  67 101 133 165 204 244 270
#     4  10  21  33  50  76  95 127 172 202 232 298
#     4  11  21  31  52  70 103 133 165 192 240 299
#     4  11  21  30  50  71  95 136 168 190 237 293
#
# _framework density 18.529107
#
# number of rings (size 3 to 8) (size 9 to 14) (size 15 to 20)
#    0.000    1.500    3.750    4.500    7.000    0.000 
#    0.000    0.000    0.000    0.000    0.000    0.000 
#    0.000    6.000    0.000    0.125    0.000    0.000 
#
# Total GULP energy -198210.026337 kJ/mol
# GULP energy per Si atom -12388.126646 kJ/mol
# Density = 1.848693 g / cm^3
# Si number density = 18.529107 Si / 1000 Ang^3
#
#
#
# Elastic Constant Matrix: (Units=GPa)
#
#
# Indices 1 2 3 4 5 6 
#
# 1 99.4952 22.8163 32.9132 -15.5107 5.8700 -1.7147
# 2 22.8163 41.2873 17.5379 -3.8075 7.0234 -12.2655
# 3 32.9132 17.5379 111.6846 -9.3666 4.8106 -5.7576
# 4 -15.5107 -3.8075 -9.3666 27.7485 1.3014 1.3128
# 5 5.8700 7.0234 4.8106 1.3014 21.3543 -4.8194
# 6 -1.7147 -12.2655 -5.7576 1.3128 -4.8194 19.9377
#
#
#
# Elastic Compliance Matrix: (Units=1/GPa)
#
#
# Indices 1 2 3 4 5 6 
#
# 1 0.013449 -0.006806 -0.002530 0.006062 -0.002324 -0.004722
# 2 -0.006806 0.035571 -0.002403 -0.000427 -0.004870 0.019455
# 3 -0.002530 -0.002403 0.010303 0.001721 -0.000716 0.000993
# 4 0.006062 -0.000427 0.001721 0.040335 -0.005078 -0.003128
# 5 -0.002324 -0.004870 -0.000716 -0.005078 0.051667 0.009421
# 6 -0.004722 0.019455 0.000993 -0.003128 0.009421 0.064488
#
#
# Mechanical properties :
#
#
# Convention : Reuss Voigt Hill
#
# Bulk Modulus (GPa) = 27.89741 44.33356 36.11549
# Shear Modulus (GPa) = 19.90134 25.75474 22.82804
#
# Velocity S-wave (km/s) = 3.28084 3.73226 3.51381
# Velocity P-wave (km/s) = 5.42591 6.52315 5.99967
#
# Compressibility (1/GPa) = 0.03584562
#
# Stress axis : x y z
#
# Youngs Moduli (GPa) = 74.35434 28.11263 97.05975
#
# Poissons Ratio (x) = 0.19134 0.24552
# Poissons Ratio (y) = 0.50607 0.23324
# Poissons Ratio (z) = 0.18808 0.06756
#
# Static dielectric constant tensor:
#      x y z
#    x 3.443380 -0.295080 0.231250 
#    y -0.295080 3.717650 -0.408300 
#    z 0.231250 -0.408300 4.052710 
# 
# 
# High freq. dielectric constant tensor:
#      x y z
#    x 1.671860 -0.004130 0.009210 
#    y -0.004130 1.694090 0.004250 
#    z 0.009210 0.004250 1.748470 
# 
# From -- ./inp_files/544214.got.cif
#   From: 2010.06.25/outbox.cif.g09.slc.cpg/sg2_273_cif.got.tgz:544214.got - 2010.06.27 13:26:56.
