data_PCOD8001559
_publ_section_title
;
Structure prediction by ZEFSAII (Michael W. Deem and Ramdas Pophale) SiO2 
 PCOD8001559
Probable space group: P -1
;
_chemical_formula_sum "Si O2"
_cell_formula_units_Z 12
_cell_length_a 16.640963
_cell_length_b 16.394463
_cell_length_c 10.679714
_cell_angle_alpha 45.154799
_cell_angle_beta 46.783033
_cell_angle_gamma 17.254934
_cell_volume 611.882355
_symmetry_space_group_name_H-M "P -1"
_symmetry_group_IT_number 2
_symmetry_cell_setting 'triclinic'
loop_
_space_group_symop_operation_xyz
x,y,z
-x,-y,-z
loop_
_atom_site_type_symbol
_atom_site_label
_atom_site_fract_x
_atom_site_fract_y
_atom_site_fract_z
Si Si1 0.167058 0.831104 0.786694
Si Si2 0.321090 0.534180 0.388585
Si Si3 0.372334 0.454123 0.141202
Si Si4 0.685357 0.669331 0.202442
Si Si5 0.813073 0.795811 0.997425
Si Si6 0.118245 0.114025 0.945660
O O1 0.430867 0.623325 0.651698
O O2 0.288512 0.668223 0.967347
O O3 0.957544 0.134150 0.698401
O O4 0.010499 0.870002 0.850918
O O5 0.424054 0.385149 0.307346
O O6 0.258501 0.493011 0.595749
O O7 0.636029 0.167192 0.093864
O O8 0.119259 0.615870 0.187780
O O9 0.881598 0.481201 0.076812
O O10 0.381027 0.956094 0.163908
O O11 0.733055 0.738459 0.158773
O O12 0.784271 0.878288 0.075717
#
# Coordination Sequence:
#
# PCOD8001559 Si02
#       6
#     2   2   2   2   2   2
#     4  10  20  33  55  83 115 148 169 218 275 322
#     4  12  20  35  55  88 112 136 190 218 266 325
#     4  10  20  33  56  85 112 149 169 218 276 323
#     4  10  23  38  63  78 102 148 184 235 262 312
#     4  10  21  44  58  76 106 145 193 220 272 321
#     4  10  20  35  58  80 107 155 175 213 275 331
#
# _framework density 19.611612999999998
#
# number of rings (size 3 to 8) (size 9 to 14) (size 15 to 20)
#    1.000    0.667    1.667    4.000    0.000    0.000 
#    0.000    6.667    0.000    0.000    0.000    0.000 
#    0.000    0.000    0.000    0.000    0.000    0.000 
#
# Total GULP energy -148696.452259 kJ/mol
# GULP energy per Si atom -12391.371022 kJ/mol
# Density = 1.956698 g / cm^3
# Si number density = 19.611613 Si / 1000 Ang^3
#
#
#
# Elastic Constant Matrix: (Units=GPa)
#
#
# Indices 1 2 3 4 5 6 
#
# 1 43.4310 12.0512 -10.7281 1.7208 -1.4163 -3.5902
# 2 12.0512 104.9995 -3.7763 2.8273 -3.2373 -12.8522
# 3 -10.7281 -3.7763 8.6550 1.4667 -0.2036 -3.0294
# 4 1.7208 2.8273 1.4667 15.7668 -0.7403 -3.4450
# 5 -1.4163 -3.2373 -0.2036 -0.7403 9.2266 3.2067
# 6 -3.5902 -12.8522 -3.0294 -3.4450 3.2067 23.0843
#
#
#
# Elastic Compliance Matrix: (Units=1/GPa)
#
#
# Indices 1 2 3 4 5 6 
#
# 1 0.036824 -0.000899 0.050037 -0.006097 0.002280 0.010566
# 2 -0.000899 0.010674 0.005918 -0.000934 0.001497 0.006232
# 3 0.050037 0.005918 0.194970 -0.017194 0.000872 0.033975
# 4 -0.006097 -0.000934 -0.017194 0.067263 0.001638 0.006086
# 5 0.002280 0.001497 0.000872 0.001638 0.114394 -0.014344
# 6 0.010566 0.006232 0.033975 0.006086 -0.014344 0.055792
#
#
# Mechanical properties :
#
#
# Convention : Reuss Voigt Hill
#
# Bulk Modulus (GPa) = 2.83625 16.90881 9.87253
# Shear Modulus (GPa) = 10.25994 20.25145 15.25569
#
# Velocity S-wave (km/s) = 2.28974 3.21693 2.79210
# Velocity P-wave (km/s) = 2.90515 4.73696 3.92929
#
# Compressibility (1/GPa) = 0.35257815
#
# Stress axis : x y z
#
# Youngs Moduli (GPa) = 27.15650 93.68544 5.12899
#
# Poissons Ratio (x) = 0.08423 -0.25664
# Poissons Ratio (y) = 0.02442 -0.03035
# Poissons Ratio (z) = -1.35882 -0.55440
#
# Static dielectric constant tensor:
#      x y z
#    x 3.457980 -0.252610 -0.175330 
#    y -0.252610 3.755050 -0.002560 
#    z -0.175330 -0.002560 3.208590 
# 
# 
# High freq. dielectric constant tensor:
#      x y z
#    x 1.747070 -0.018610 -0.009740 
#    y -0.018610 1.790220 0.000780 
#    z -0.009740 0.000780 1.725370 
# 
# From -- ./inp_files/32101.got.cif
#   From: 2010.06.25/outbox.cif.g09.slc.cpg/sg2_17_cif.got.tgz:32101.got - 2010.06.27 13:26:56.
