data_PCOD8001815
_publ_section_title
;
Structure prediction by ZEFSAII (Michael W. Deem and Ramdas Pophale) SiO2 
 PCOD8001815
Probable space group: P -1
;
_chemical_formula_sum "Si O2"
_cell_formula_units_Z 16
_cell_length_a 11.488854
_cell_length_b 22.291208
_cell_length_c 12.833570
_cell_angle_alpha 26.295796
_cell_angle_beta 120.008953
_cell_angle_gamma 137.688368
_cell_volume 821.122448
_symmetry_space_group_name_H-M "P -1"
_symmetry_group_IT_number 2
_symmetry_cell_setting 'triclinic'
loop_
_space_group_symop_operation_xyz
x,y,z
-x,-y,-z
loop_
_atom_site_type_symbol
_atom_site_label
_atom_site_fract_x
_atom_site_fract_y
_atom_site_fract_z
Si Si1 0.662739 0.435493 0.805512
Si Si2 0.451593 0.175387 0.922482
Si Si3 0.696438 0.978163 0.592941
Si Si4 0.483654 0.064458 0.628691
Si Si5 0.133424 0.774077 0.517661
Si Si6 0.728023 0.851241 0.508335
Si Si7 0.810725 0.786491 0.854949
Si Si8 0.559194 0.630877 0.564178
O O1 0.582866 0.375709 0.743797
O O2 0.653951 0.579952 0.621138
O O3 0.897766 0.564157 0.712801
O O4 0.524262 0.225082 0.136907
O O5 0.430694 0.224868 0.722883
O O6 0.569156 0.119703 0.052720
O O7 0.223243 0.974350 0.182967
O O8 0.656567 0.032968 0.385623
O O9 0.818163 0.934475 0.688422
O O10 0.838054 0.176077 0.424011
O O11 0.727194 0.249863 0.416324
O O12 0.437998 0.154601 0.544576
O O13 0.707025 0.727778 0.785871
O O14 0.695736 0.751778 0.540051
O O15 0.957298 0.091631 0.240610
O O16 0.677403 0.576753 0.186226
#
# Coordination Sequence:
#
# PCOD8001815 Si02
#       8
#     2   2   2   2   2   2   2   2
#     4  10  20  34  57  81 104 136 179 223 261 304
#     4   9  22  37  50  78 113 138 175 216 257 316
#     4   9  17  35  56  79 110 131 176 225 260 308
#     4   9  20  38  51  77 114 142 168 218 260 311
#     4   9  19  34  53  81 104 142 173 210 269 310
#     4  10  20  38  58  78 107 136 176 219 263 313
#     4   9  20  36  58  83 101 135 176 224 266 300
#     4  11  21  36  57  80 105 139 177 219 261 309
#
# _framework density 19.485520999999999
#
# number of rings (size 3 to 8) (size 9 to 14) (size 15 to 20)
#    0.750    1.750    0.000    1.875    0.000    2.500 
#    2.250    0.625    0.000    0.000    0.000    0.000 
#    0.000    0.000    0.000    0.000    0.000    0.000 
#
# Total GULP energy -198347.904310 kJ/mol
# GULP energy per Si atom -12396.744019 kJ/mol
# Density = 1.944117 g / cm^3
# Si number density = 19.485521 Si / 1000 Ang^3
#
#
#
# Elastic Constant Matrix: (Units=GPa)
#
#
# Indices 1 2 3 4 5 6 
#
# 1 70.5729 30.0823 11.8023 -2.9468 -3.7483 4.0507
# 2 30.0823 58.1253 5.6772 -10.2768 -3.6713 -2.8200
# 3 11.8023 5.6772 33.2555 3.4346 -3.8936 7.9216
# 4 -2.9468 -10.2768 3.4346 25.9684 3.7910 -1.1638
# 5 -3.7483 -3.6713 -3.8936 3.7910 25.6218 -4.4799
# 6 4.0507 -2.8200 7.9216 -1.1638 -4.4799 23.2673
#
#
#
# Elastic Compliance Matrix: (Units=1/GPa)
#
#
# Indices 1 2 3 4 5 6 
#
# 1 0.019243 -0.009918 -0.004203 -0.001386 0.000416 -0.003110
# 2 -0.009918 0.024643 -0.003002 0.009108 0.001406 0.006462
# 3 -0.004203 -0.003002 0.036017 -0.007460 0.003505 -0.011593
# 4 -0.001386 0.009108 -0.007460 0.043994 -0.005667 0.004994
# 5 0.000416 0.001406 0.003505 -0.005667 0.041830 0.006675
# 6 -0.003110 0.006462 -0.011593 0.004994 0.006675 0.049785
#
#
# Mechanical properties :
#
#
# Convention : Reuss Voigt Hill
#
# Bulk Modulus (GPa) = 21.90329 28.56416 25.23372
# Shear Modulus (GPa) = 18.86944 22.59761 20.73353
#
# Velocity S-wave (km/s) = 3.11526 3.40915 3.26551
# Velocity P-wave (km/s) = 4.91986 5.49431 5.21500
#
# Compressibility (1/GPa) = 0.04565525
#
# Stress axis : x y z
#
# Youngs Moduli (GPa) = 51.96638 40.57905 27.76478
#
# Poissons Ratio (x) = 0.40247 0.11671
# Poissons Ratio (y) = 0.51541 0.08336
# Poissons Ratio (z) = 0.21844 0.12183
#
# Static dielectric constant tensor:
#      x y z
#    x 3.560520 -0.094370 -0.087190 
#    y -0.094370 3.330350 0.042920 
#    z -0.087190 0.042920 3.278700 
# 
# 
# High freq. dielectric constant tensor:
#      x y z
#    x 1.756030 -0.004540 -0.004840 
#    y -0.004540 1.749780 0.001020 
#    z -0.004840 0.001020 1.737080 
# 
# From -- ./inp_files/431792.got.cif
#   From: 2010.06.25/outbox.cif.g09.slc.cpg/sg2_216_cif.got.tgz:431792.got - 2010.06.27 13:26:56.
