data_PCOD8001134
_publ_section_title
;
Structure prediction by ZEFSAII (Michael W. Deem and Ramdas Pophale) SiO2 
 PCOD8001134
Probable space group: P -1
;
_chemical_formula_sum "Si O2"
_cell_formula_units_Z 16
_cell_length_a 12.952310
_cell_length_b 8.861437
_cell_length_c 9.234616
_cell_angle_alpha 122.933838
_cell_angle_beta 53.449872
_cell_angle_gamma 116.495682
_cell_volume 702.768138
_symmetry_space_group_name_H-M "P -1"
_symmetry_group_IT_number 2
_symmetry_cell_setting 'triclinic'
loop_
_space_group_symop_operation_xyz
x,y,z
-x,-y,-z
loop_
_atom_site_type_symbol
_atom_site_label
_atom_site_fract_x
_atom_site_fract_y
_atom_site_fract_z
Si Si1 0.377942 0.592898 0.170107
Si Si2 0.969311 0.119952 0.451110
Si Si3 0.937182 0.792879 0.110893
Si Si4 0.596245 0.353194 0.495954
Si Si5 0.676759 0.715083 0.447015
Si Si6 0.708826 0.111485 0.768609
Si Si7 0.163455 0.252015 0.140299
Si Si8 0.769183 0.128118 0.053802
O O1 0.365953 0.661207 0.377495
O O2 0.394752 0.772995 0.147886
O O3 0.256831 0.443574 0.142494
O O4 0.500000 0.500000 0.000000
O O5 0.850732 0.217956 0.648238
O O6 0.091404 0.265483 0.364455
O O7 0.933055 0.998490 0.273216
O O8 0.000000 0.000000 0.500000
O O9 0.809182 0.675285 0.236302
O O10 0.930848 0.771645 0.932903
O O11 0.081271 0.755118 0.018688
O O12 0.637694 0.560782 0.518752
O O13 0.439960 0.290389 0.574249
O O14 0.676362 0.220961 0.279202
O O15 0.694367 0.905669 0.616378
O O16 0.700656 0.114482 0.948311
O O17 0.235293 0.077092 0.991297
#
# Coordination Sequence:
#
# PCOD8001134 Si02
#       8
#     2   2   2   2   2   2   2   2
#     4  12  30  47  67 100 143 183 238 282 346 411
#     4  10  19  41  69 103 135 178 227 277 346 416
#     4  10  22  41  73 100 143 180 229 278 352 406
#     4  11  27  45  71 103 134 178 240 285 343 410
#     4  10  25  47  72  96 141 183 230 285 345 418
#     4  11  25  44  71  99 139 184 227 283 350 413
#     4  11  24  44  71  99 146 183 224 288 342 413
#     4  11  24  43  73 106 134 181 232 284 346 414
#
# _framework density 22.767111
#
# number of rings (size 3 to 8) (size 9 to 14) (size 15 to 20)
#    0.000    1.250    2.500    3.000   14.000    2.000 
#    0.000    0.000    0.000    0.000    0.000    0.000 
#    0.000    0.000    0.000    0.000    0.000    0.000 
#
# Total GULP energy -198310.920818 kJ/mol
# GULP energy per Si atom -12394.432551 kJ/mol
# Density = 2.271529 g / cm^3
# Si number density = 22.767111 Si / 1000 Ang^3
#
#
#
# Elastic Constant Matrix: (Units=GPa)
#
#
# Indices 1 2 3 4 5 6 
#
# 1 100.0873 33.4814 22.3390 0.7620 23.3400 -12.9449
# 2 33.4814 70.9617 30.3861 1.3034 11.8801 -5.0488
# 3 22.3390 30.3861 96.1876 1.9086 14.7852 -8.3259
# 4 0.7620 1.3034 1.9086 28.6889 -5.1963 -5.0996
# 5 23.3400 11.8801 14.7852 -5.1963 48.3902 -5.4560
# 6 -12.9449 -5.0488 -8.3259 -5.0996 -5.4560 34.3251
#
#
#
# Elastic Compliance Matrix: (Units=1/GPa)
#
#
# Indices 1 2 3 4 5 6 
#
# 1 0.013320 -0.005048 -0.000479 -0.000345 -0.004697 0.003367
# 2 -0.005048 0.018557 -0.004592 -0.000649 -0.000846 -0.000519
# 3 -0.000479 -0.004592 0.012479 -0.000733 -0.002343 0.001690
# 4 -0.000345 -0.000649 -0.000733 0.036933 0.005182 0.005907
# 5 -0.004697 -0.000846 -0.002343 0.005182 0.024662 0.002226
# 6 0.003367 -0.000519 0.001690 0.005907 0.002226 0.031968
#
#
# Mechanical properties :
#
#
# Convention : Reuss Voigt Hill
#
# Bulk Modulus (GPa) = 41.46027 48.84996 45.15512
# Shear Modulus (GPa) = 30.08537 34.34950 32.21744
#
# Velocity S-wave (km/s) = 3.63911 3.88846 3.76584
# Velocity P-wave (km/s) = 5.99229 6.45469 6.22779
#
# Compressibility (1/GPa) = 0.02411947
#
# Stress axis : x y z
#
# Youngs Moduli (GPa) = 75.07537 53.88922 80.13446
#
# Poissons Ratio (x) = 0.27201 0.03836
# Poissons Ratio (y) = 0.37894 0.36796
# Poissons Ratio (z) = 0.03594 0.24745
#
# Static dielectric constant tensor:
#      x y z
#    x 43.538290 6.672930 0.154300 
#    y 6.672930 5.268940 -0.259610 
#    z 0.154300 -0.259610 4.314090 
# 
# 
# High freq. dielectric constant tensor:
#      x y z
#    x 1.907360 0.005770 0.004400 
#    y 0.005770 1.885090 -0.010340 
#    z 0.004400 -0.010340 1.906900 
# 
# From -- ./inp_files/245373.got.cif
#   From: 2010.06.25/outbox.cif.g09.slc.cpg/sg2_123_cif.got.tgz:245373.got - 2010.06.27 13:26:56.
