data_PCOD8001000
_publ_section_title
;
Structure prediction by ZEFSAII (Michael W. Deem and Ramdas Pophale) SiO2 
 PCOD8001000
Probable space group: P -1
;
_chemical_formula_sum "Si O2"
_cell_formula_units_Z 16
_cell_length_a 14.832728
_cell_length_b 9.224517
_cell_length_c 9.628813
_cell_angle_alpha 127.773557
_cell_angle_beta 57.369732
_cell_angle_gamma 88.407407
_cell_volume 739.312941
_symmetry_space_group_name_H-M "P -1"
_symmetry_group_IT_number 2
_symmetry_cell_setting 'triclinic'
loop_
_space_group_symop_operation_xyz
x,y,z
-x,-y,-z
loop_
_atom_site_type_symbol
_atom_site_label
_atom_site_fract_x
_atom_site_fract_y
_atom_site_fract_z
Si Si1 0.576141 0.899368 0.241177
Si Si2 0.948557 0.866677 0.142190
Si Si3 0.242698 0.567112 0.090584
Si Si4 0.989137 0.813865 0.576802
Si Si5 0.771068 0.409823 0.215836
Si Si6 0.803635 0.990293 0.593621
Si Si7 0.603000 0.885438 0.730125
Si Si8 0.798723 0.975671 0.044091
O O1 0.500000 0.000000 0.500000
O O2 0.465805 0.980512 0.269962
O O3 0.672719 0.974256 0.169094
O O4 0.646993 0.643044 0.048424
O O5 0.862946 0.846361 0.319321
O O6 0.874708 0.930760 0.097162
O O7 0.966350 0.057577 0.290787
O O8 0.089000 0.646946 0.885606
O O9 0.267655 0.752860 0.227209
O O10 0.112836 0.599707 0.285065
O O11 0.244332 0.545337 0.910016
O O12 0.911902 0.953678 0.589266
O O13 0.894829 0.787071 0.742416
O O14 0.662616 0.627131 0.512463
O O15 0.754194 0.212702 0.156950
O O16 0.714733 0.922339 0.697557
O O17 0.500000 0.000000 0.000000
#
# Coordination Sequence:
#
# PCOD8001000 Si02
#       8
#     2   2   2   2   2   2   2   2
#     4  12  27  46  62  95 134 178 232 267 301 389
#     4  10  20  38  70 104 130 160 213 271 336 404
#     4  11  22  42  75  93 130 177 214 263 339 394
#     4  10  19  40  69 102 130 162 213 269 334 407
#     4  11  22  44  71  96 131 175 212 267 338 394
#     4  11  21  42  69  97 130 170 211 270 333 388
#     4  12  29  43  63  97 134 172 233 273 304 381
#     4  11  24  40  70 101 136 166 211 279 336 377
#
# _framework density 21.641715000000001
#
# number of rings (size 3 to 8) (size 9 to 14) (size 15 to 20)
#    0.000    1.000    5.000    3.750    0.000    7.000 
#    0.000    0.000    0.000    0.000    0.000    0.000 
#    0.000    0.000    0.000    0.000    0.000    0.000 
#
# Total GULP energy -198296.733183 kJ/mol
# GULP energy per Si atom -12393.545824 kJ/mol
# Density = 2.159246 g / cm^3
# Si number density = 21.641715 Si / 1000 Ang^3
#
#
#
# Elastic Constant Matrix: (Units=GPa)
#
#
# Indices 1 2 3 4 5 6 
#
# 1 46.6324 -3.8708 -6.7739 -5.2174 2.3015 -5.6454
# 2 -3.8708 37.6570 11.0278 -13.5703 5.9655 -3.8790
# 3 -6.7739 11.0278 137.1648 -19.4470 -1.1511 1.0963
# 4 -5.2174 -13.5703 -19.4470 44.7971 -0.9317 -9.1710
# 5 2.3015 5.9655 -1.1511 -0.9317 26.3929 -9.5584
# 6 -5.6454 -3.8790 1.0963 -9.1710 -9.5584 34.4889
#
#
#
# Elastic Compliance Matrix: (Units=1/GPa)
#
#
# Indices 1 2 3 4 5 6 
#
# 1 0.023483 0.004845 0.001575 0.006042 -0.000787 0.005728
# 2 0.004845 0.032830 -0.000899 0.011245 -0.005299 0.006035
# 3 0.001575 -0.000899 0.007952 0.003614 0.000949 0.001128
# 4 0.006042 0.011245 0.003614 0.030245 0.002050 0.010750
# 5 -0.000787 -0.005299 0.000949 0.002050 0.043566 0.011864
# 6 0.005728 0.006035 0.001128 0.010750 0.011864 0.036722
#
#
# Mechanical properties :
#
#
# Convention : Reuss Voigt Hill
#
# Bulk Modulus (GPa) = 13.27904 24.69116 18.98510
# Shear Modulus (GPa) = 26.47482 35.87388 31.17435
#
# Velocity S-wave (km/s) = 3.50140 4.07581 3.79948
# Velocity P-wave (km/s) = 4.74295 5.79513 5.29524
#
# Compressibility (1/GPa) = 0.07530664
#
# Stress axis : x y z
#
# Youngs Moduli (GPa) = 42.58323 30.45992 125.75757
#
# Poissons Ratio (x) = -0.14757 -0.19801
# Poissons Ratio (y) = -0.20631 0.11302
# Poissons Ratio (z) = -0.06705 0.02737
#
# Static dielectric constant tensor:
#      x y z
#    x 3.706220 -0.064920 -0.213910 
#    y -0.064920 3.812260 -0.339300 
#    z -0.213910 -0.339300 4.345700 
# 
# 
# High freq. dielectric constant tensor:
#      x y z
#    x 1.841300 -0.011320 -0.007340 
#    y -0.011320 1.847350 -0.016730 
#    z -0.007340 -0.016730 1.866490 
# 
# From -- ./inp_files/299458.got.cif
#   From: 2010.06.25/outbox.cif.g09.slc.cpg/sg2_150_cif.got.tgz:299458.got - 2010.06.27 13:26:56.
