data_PCOD8001896
_publ_section_title
;
Structure prediction by ZEFSAII (Michael W. Deem and Ramdas Pophale) SiO2 
 PCOD8001896
Probable space group: P -1
;
_chemical_formula_sum "Si O2"
_cell_formula_units_Z 14
_cell_length_a 11.371040
_cell_length_b 9.174205
_cell_length_c 11.860385
_cell_angle_alpha 139.773500
_cell_angle_beta 113.280362
_cell_angle_gamma 54.369850
_cell_volume 646.562012
_symmetry_space_group_name_H-M "P -1"
_symmetry_group_IT_number 2
_symmetry_cell_setting 'triclinic'
loop_
_space_group_symop_operation_xyz
x,y,z
-x,-y,-z
loop_
_atom_site_type_symbol
_atom_site_label
_atom_site_fract_x
_atom_site_fract_y
_atom_site_fract_z
Si Si1 0.995528 0.728161 0.962025
Si Si2 0.703561 0.790530 0.855429
Si Si3 0.693181 0.497174 0.032546
Si Si4 0.364564 0.335088 0.639163
Si Si5 0.050311 0.743437 0.729952
Si Si6 0.267148 0.069280 0.297501
Si Si7 0.511008 0.659741 0.843617
O O1 0.150028 0.526124 0.955485
O O2 0.030750 0.751874 0.860645
O O3 0.871293 0.641042 0.873955
O O4 0.939407 0.006527 0.161070
O O5 0.698814 0.818618 0.736031
O O6 0.622350 0.628955 0.766776
O O7 0.631393 0.065912 0.053537
O O8 0.634489 0.650730 0.217533
O O9 0.582102 0.659807 0.990900
O O10 0.703506 0.217931 0.885213
O O11 0.205831 0.505105 0.619855
O O12 0.383033 0.061879 0.434967
O O13 0.474378 0.425982 0.681184
O O14 0.903923 0.755206 0.626197
#
# Coordination Sequence:
#
# PCOD8001896 Si02
#       7
#     2   2   2   2   2   2   2
#     4   8  14  31  57  73 103 137 176 214 260 304
#     4  10  20  37  55  79 104 147 180 209 257 323
#     4  10  21  37  54  83 108 134 174 227 263 308
#     4  11  19  33  58  81 107 140 172 221 270 306
#     4   8  14  29  51  84 102 129 175 226 255 304
#     4  10  20  34  59  80 105 136 183 219 259 312
#     4  11  22  35  54  77 115 142 172 214 266 316
#
# _framework density 21.652989000000002
#
# number of rings (size 3 to 8) (size 9 to 14) (size 15 to 20)
#    0.000    2.286    2.857    2.571    0.000    1.714 
#    0.000    0.000    0.000    0.000    0.000    7.000 
#    0.000    0.000    0.000    0.000    0.000    0.000 
#
# Total GULP energy -173475.652789 kJ/mol
# GULP energy per Si atom -12391.118056 kJ/mol
# Density = 2.160371 g / cm^3
# Si number density = 21.652989 Si / 1000 Ang^3
#
#
#
# Elastic Constant Matrix: (Units=GPa)
#
#
# Indices 1 2 3 4 5 6 
#
# 1 120.1317 26.4918 32.4278 -10.4219 6.7191 4.1936
# 2 26.4918 40.9937 15.6839 -9.2638 6.1296 5.4216
# 3 32.4278 15.6839 77.8637 -19.6082 18.0824 1.3914
# 4 -10.4219 -9.2638 -19.6082 23.5524 -7.9716 2.9473
# 5 6.7191 6.1296 18.0824 -7.9716 21.9305 -6.1355
# 6 4.1936 5.4216 1.3914 2.9473 -6.1355 23.2578
#
#
#
# Elastic Compliance Matrix: (Units=1/GPa)
#
#
# Indices 1 2 3 4 5 6 
#
# 1 0.010434 -0.005596 -0.003530 -0.000102 0.001233 -0.000027
# 2 -0.005596 0.032350 -0.000243 0.009030 -0.006466 -0.009367
# 3 -0.003530 -0.000243 0.020392 0.011612 -0.012960 -0.005417
# 4 -0.000102 0.009030 0.011612 0.059071 0.007054 -0.008406
# 5 0.001233 -0.006466 -0.012960 0.007054 0.065433 0.018428
# 6 -0.000027 -0.009367 -0.005417 -0.008406 0.018428 0.051436
#
#
# Mechanical properties :
#
#
# Convention : Reuss Voigt Hill
#
# Bulk Modulus (GPa) = 22.50292 43.13289 32.81790
# Shear Modulus (GPa) = 18.33739 24.70718 21.52228
#
# Velocity S-wave (km/s) = 2.91327 3.38161 3.15614
# Velocity P-wave (km/s) = 4.66168 5.93383 5.33581
#
# Compressibility (1/GPa) = 0.04443868
#
# Stress axis : x y z
#
# Youngs Moduli (GPa) = 95.83773 30.91233 49.03770
#
# Poissons Ratio (x) = 0.17300 0.17310
# Poissons Ratio (y) = 0.53634 0.01190
# Poissons Ratio (z) = 0.33829 0.00750
#
# Static dielectric constant tensor:
#      x y z
#    x 4.385720 -0.614210 0.153400 
#    y -0.614210 3.883670 -0.014430 
#    z 0.153400 -0.014430 3.641030 
# 
# 
# High freq. dielectric constant tensor:
#      x y z
#    x 1.863810 -0.038620 0.013960 
#    y -0.038620 1.825500 -0.001200 
#    z 0.013960 -0.001200 1.832080 
# 
# From -- ./inp_files/170602.got.cif
#   From: 2010.06.25/outbox.cif.g09.slc.cpg/sg2_86_cif.got.tgz:170602.got - 2010.06.27 13:26:56.
