data_PCOD8001196
_publ_section_title
;
Structure prediction by ZEFSAII (Michael W. Deem and Ramdas Pophale) SiO2 
 PCOD8001196
Probable space group: P -1
;
_chemical_formula_sum "Si O2"
_cell_formula_units_Z 16
_cell_length_a 8.190865
_cell_length_b 18.951361
_cell_length_c 20.875347
_cell_angle_alpha 160.073872
_cell_angle_beta 42.085166
_cell_angle_gamma 135.997911
_cell_volume 736.870521
_symmetry_space_group_name_H-M "P -1"
_symmetry_group_IT_number 2
_symmetry_cell_setting 'triclinic'
loop_
_space_group_symop_operation_xyz
x,y,z
-x,-y,-z
loop_
_atom_site_type_symbol
_atom_site_label
_atom_site_fract_x
_atom_site_fract_y
_atom_site_fract_z
Si Si1 0.548630 0.879379 0.578179
Si Si2 0.422028 0.047499 0.991812
Si Si3 0.086057 0.497327 0.232139
Si Si4 0.074143 0.845807 0.221009
Si Si5 0.713906 0.432725 0.176293
Si Si6 0.536295 0.819425 0.384660
Si Si7 0.845513 0.855846 0.660596
Si Si8 0.933795 0.962921 0.117760
O O1 0.600733 0.647261 0.382092
O O2 0.484757 0.900937 0.540520
O O3 0.776896 0.044139 0.669321
O O4 0.315632 0.932985 0.734092
O O5 0.514918 0.281519 0.143775
O O6 0.126140 0.018770 0.051174
O O7 0.500000 0.000000 0.000000
O O8 0.553158 0.884271 0.768877
O O9 0.351145 0.620498 0.251901
O O10 0.966375 0.461706 0.166931
O O11 0.902253 0.618057 0.433456
O O12 0.124925 0.284535 0.074695
O O13 0.811427 0.751048 0.242855
O O14 0.027145 0.018843 0.329125
O O15 0.221275 0.663288 0.993024
O O16 0.500000 0.000000 0.500000
O O17 0.953667 0.955366 0.778591
#
# Coordination Sequence:
#
# PCOD8001196 Si02
#       8
#     2   2   2   2   2   2   2   2
#     4  12  26  44  67  96 143 172 216 283 331 391
#     4   9  19  41  70  98 135 173 226 269 319 406
#     4  12  22  41  71  96 131 178 222 274 325 390
#     4  11  23  44  66  93 141 173 215 277 333 393
#     4  11  24  44  69 100 134 179 219 271 342 383
#     4  12  25  45  69 100 130 176 228 270 333 399
#     4  10  19  42  65  98 132 173 220 276 316 395
#     4  11  23  43  65 101 137 174 227 272 323 395
#
# _framework density 21.713449000000001
#
# number of rings (size 3 to 8) (size 9 to 14) (size 15 to 20)
#    0.000    1.000    7.500    0.375    1.750    2.000 
#    2.250    2.500    0.000    0.000    0.000    0.000 
#    0.000    0.000    0.000    0.000    0.000    0.000 
#
# Total GULP energy -198397.183687 kJ/mol
# GULP energy per Si atom -12399.823980 kJ/mol
# Density = 2.166403 g / cm^3
# Si number density = 21.713449 Si / 1000 Ang^3
#
#
#
# Elastic Constant Matrix: (Units=GPa)
#
#
# Indices 1 2 3 4 5 6 
#
# 1 77.2397 49.2805 38.7712 15.6220 -4.3840 16.2077
# 2 49.2805 135.2306 62.5020 -3.7026 -8.4484 29.2384
# 3 38.7712 62.5020 167.8250 4.3037 -14.1695 17.5541
# 4 15.6220 -3.7026 4.3037 29.7541 10.0840 -2.8607
# 5 -4.3840 -8.4484 -14.1695 10.0840 32.8166 -6.5905
# 6 16.2077 29.2384 17.5541 -2.8607 -6.5905 25.9794
#
#
#
# Elastic Compliance Matrix: (Units=1/GPa)
#
#
# Indices 1 2 3 4 5 6 
#
# 1 0.021943 -0.006075 -0.001459 -0.013950 0.003727 -0.006457
# 2 -0.006075 0.012764 -0.002739 0.005015 -0.001992 -0.008677
# 3 -0.001459 -0.002739 0.007665 -0.001695 0.002797 -0.000663
# 4 -0.013950 0.005015 -0.001695 0.047333 -0.014707 0.005685
# 5 0.003727 -0.001992 0.002797 -0.014707 0.037367 0.005886
# 6 -0.006457 -0.008677 -0.000663 0.005685 0.005886 0.054853
#
#
# Mechanical properties :
#
#
# Convention : Reuss Voigt Hill
#
# Bulk Modulus (GPa) = 45.81939 75.71141 60.76540
# Shear Modulus (GPa) = 23.83833 33.02612 28.43223
#
# Velocity S-wave (km/s) = 3.31699 3.90423 3.62253
# Velocity P-wave (km/s) = 5.98478 7.43425 6.74854
#
# Compressibility (1/GPa) = 0.02182482
#
# Stress axis : x y z
#
# Youngs Moduli (GPa) = 45.57262 78.34781 130.46688
#
# Poissons Ratio (x) = 0.47597 0.19035
# Poissons Ratio (y) = 0.27686 0.35737
# Poissons Ratio (z) = 0.06649 0.21461
#
# Static dielectric constant tensor:
#      x y z
#    x 3.952320 0.355370 -0.118610 
#    y 0.355370 4.501350 -0.466370 
#    z -0.118610 -0.466370 4.220200 
# 
# 
# High freq. dielectric constant tensor:
#      x y z
#    x 1.847790 0.010300 -0.003470 
#    y 0.010300 1.851130 -0.011530 
#    z -0.003470 -0.011530 1.859130 
# 
# From -- ./inp_files/591250.got.cif
#   From: 2010.06.25/outbox.cif.g09.slc.cpg/sg2_296_cif.got.tgz:591250.got - 2010.06.27 13:26:56.
