data_PCOD8001093
_publ_section_title
;
Structure prediction by ZEFSAII (Michael W. Deem and Ramdas Pophale) SiO2 
 PCOD8001093
Probable space group: P -1
;
_chemical_formula_sum "Si O2"
_cell_formula_units_Z 16
_cell_length_a 12.931759
_cell_length_b 14.451724
_cell_length_c 12.196453
_cell_angle_alpha 87.310441
_cell_angle_beta 129.441189
_cell_angle_gamma 49.277936
_cell_volume 820.884686
_symmetry_space_group_name_H-M "P -1"
_symmetry_group_IT_number 2
_symmetry_cell_setting 'triclinic'
loop_
_space_group_symop_operation_xyz
x,y,z
-x,-y,-z
loop_
_atom_site_type_symbol
_atom_site_label
_atom_site_fract_x
_atom_site_fract_y
_atom_site_fract_z
Si Si1 0.054252 0.760299 0.982402
Si Si2 0.744180 0.134849 0.235436
Si Si3 0.987171 0.025264 0.176769
Si Si4 0.175118 0.519339 0.951754
Si Si5 0.638986 0.581611 0.688181
Si Si6 0.885279 0.528657 0.659843
Si Si7 0.460659 0.131690 0.951923
Si Si8 0.371018 0.909861 0.165288
O O1 0.105351 0.832392 0.969836
O O2 0.026054 0.710942 0.859275
O O3 0.761618 0.934528 0.847500
O O4 0.317289 0.555789 0.245653
O O5 0.824782 0.135718 0.176552
O O6 0.452336 0.359699 0.069144
O O7 0.685004 0.060530 0.175088
O O8 0.000000 0.000000 0.500000
O O9 0.324809 0.807398 0.432346
O O10 0.897680 0.987297 0.057348
O O11 0.933245 0.602543 0.733342
O O12 0.276798 0.414850 0.143690
O O13 0.857631 0.473026 0.743825
O O14 0.595431 0.704930 0.385872
O O15 0.140630 0.346753 0.762069
O O16 0.478409 0.135409 0.833881
O O17 0.500000 0.000000 0.000000
#
# Coordination Sequence:
#
# PCOD8001093 Si02
#       8
#     2   2   2   2   2   2   2   2
#     4  10  22  39  59  97 118 160 214 242 312 366
#     4  10  19  41  66  87 126 164 203 263 313 359
#     4  11  22  41  62  90 127 162 204 261 308 360
#     4   9  22  39  60  93 119 160 211 251 309 365
#     4  10  21  39  62  90 122 159 204 256 306 356
#     4  11  21  41  64  85 130 163 198 263 309 363
#     4  10  23  42  61  93 124 163 213 249 313 380
#     4  11  23  40  62  88 127 164 202 256 312 365
#
# _framework density 19.491166
#
# number of rings (size 3 to 8) (size 9 to 14) (size 15 to 20)
#    0.750    1.000    2.500    1.875    0.000    1.500 
#    9.000    0.000    0.000    0.000    0.000    0.000 
#    0.000    0.000    0.000    0.000    0.000    0.000 
#
# Total GULP energy -198242.304737 kJ/mol
# GULP energy per Si atom -12390.144046 kJ/mol
# Density = 1.944680 g / cm^3
# Si number density = 19.491166 Si / 1000 Ang^3
#
#
#
# Elastic Constant Matrix: (Units=GPa)
#
#
# Indices 1 2 3 4 5 6 
#
# 1 119.9684 58.4666 18.7768 -12.4976 -14.5710 -22.8745
# 2 58.4666 125.5250 29.7087 -13.2729 -1.2159 -14.9120
# 3 18.7768 29.7087 56.3568 0.6175 -3.2922 -6.2771
# 4 -12.4976 -13.2729 0.6175 19.6765 3.8529 -3.8037
# 5 -14.5710 -1.2159 -3.2922 3.8529 24.6087 -3.3548
# 6 -22.8745 -14.9120 -6.2771 -3.8037 -3.3548 36.0673
#
#
#
# Elastic Compliance Matrix: (Units=1/GPa)
#
#
# Indices 1 2 3 4 5 6 
#
# 1 0.013817 -0.004591 -0.000878 0.005690 0.008045 0.008060
# 2 -0.004591 0.012109 -0.004957 0.006412 -0.003572 0.001576
# 3 -0.000878 -0.004957 0.020963 -0.004980 0.002927 0.000789
# 4 0.005690 0.006412 -0.004980 0.062142 -0.005146 0.011468
# 5 0.008045 -0.003572 0.002927 -0.005146 0.047512 0.008011
# 6 0.008060 0.001576 0.000789 0.011468 0.008011 0.035582
#
#
# Mechanical properties :
#
#
# Convention : Reuss Voigt Hill
#
# Bulk Modulus (GPa) = 38.40656 57.30604 47.85630
# Shear Modulus (GPa) = 22.55761 29.06373 25.81067
#
# Velocity S-wave (km/s) = 3.40564 3.86570 3.64294
# Velocity P-wave (km/s) = 5.93396 7.02778 6.50390
#
# Compressibility (1/GPa) = 0.02603722
#
# Stress axis : x y z
#
# Youngs Moduli (GPa) = 72.37492 82.58624 47.70272
#
# Poissons Ratio (x) = 0.37913 0.04189
# Poissons Ratio (y) = 0.33225 0.23646
# Poissons Ratio (z) = 0.06355 0.40938
#
# Static dielectric constant tensor:
#      x y z
#    x 3.739300 -0.666630 0.055240 
#    y -0.666630 5.122710 -0.108090 
#    z 0.055240 -0.108090 3.410780 
# 
# 
# High freq. dielectric constant tensor:
#      x y z
#    x 1.760700 -0.023840 0.000520 
#    y -0.023840 1.769690 0.001500 
#    z 0.000520 0.001500 1.745140 
# 
# From -- ./inp_files/431416.got.cif
#   From: 2010.06.25/outbox.cif.g09.slc.cpg/sg2_216_cif.got.tgz:431416.got - 2010.06.27 13:26:56.
