data_PCOD8001687
_publ_section_title
;
Structure prediction by ZEFSAII (Michael W. Deem and Ramdas Pophale) SiO2 
 PCOD8001687
Probable space group: P -1
;
_chemical_formula_sum "Si O2"
_cell_formula_units_Z 16
_cell_length_a 13.931371
_cell_length_b 26.284700
_cell_length_c 25.432993
_cell_angle_alpha 169.094361
_cell_angle_beta 30.979159
_cell_angle_gamma 148.839884
_cell_volume 897.705335
_symmetry_space_group_name_H-M "P -1"
_symmetry_group_IT_number 2
_symmetry_cell_setting 'triclinic'
loop_
_space_group_symop_operation_xyz
x,y,z
-x,-y,-z
loop_
_atom_site_type_symbol
_atom_site_label
_atom_site_fract_x
_atom_site_fract_y
_atom_site_fract_z
Si Si1 0.728209 0.587676 0.122524
Si Si2 0.803334 0.573377 0.186250
Si Si3 0.596715 0.020688 0.558090
Si Si4 0.975027 0.470880 0.246526
Si Si5 0.845905 0.131516 0.791024
Si Si6 0.342824 0.270626 0.321223
Si Si7 0.222327 0.021287 0.677728
Si Si8 0.688058 0.113702 0.957586
O O1 0.671660 0.545762 0.168187
O O2 0.585455 0.779487 0.361033
O O3 0.711723 0.298211 0.807686
O O4 0.938969 0.742298 0.171236
O O5 0.833410 0.880062 0.502712
O O6 0.000000 0.500000 0.000000
O O7 0.732511 0.358740 0.048004
O O8 0.385620 0.070281 0.694155
O O9 0.696847 0.904262 0.342520
O O10 0.837783 0.596555 0.481467
O O11 0.830952 0.392971 0.185890
O O12 0.142401 0.704174 0.389722
O O13 0.066845 0.211895 0.960771
O O14 0.743376 0.016588 0.775979
O O15 0.500000 0.500000 0.500000
O O16 0.267071 0.078604 0.210730
O O17 0.460463 0.124269 0.073999
#
# Coordination Sequence:
#
# PCOD8001687 Si02
#       8
#     2   2   2   2   2   2   2   2
#     4  11  20  35  53  70 105 144 177 207 265 290
#     4  10  21  35  48  75 104 135 175 225 244 294
#     4  11  22  34  50  73 101 141 174 226 246 296
#     4  11  20  34  51  71 106 143 167 206 250 306
#     4  11  21  32  55  76 104 138 181 205 249 311
#     4   9  20  34  52  75 111 138 165 211 250 314
#     4  11  22  34  49  75 104 131 187 215 247 289
#     4  10  20  34  53  80 105 145 168 204 256 312
#
# _framework density 17.823219999999999
#
# number of rings (size 3 to 8) (size 9 to 14) (size 15 to 20)
#    0.000    1.500    1.250    6.750    3.500    2.000 
#    0.000    0.000    0.000    0.000    0.000    0.000 
#    0.000   20.000    0.000    0.000    0.000    0.000 
#
# Total GULP energy -198235.713388 kJ/mol
# GULP energy per Si atom -12389.732087 kJ/mol
# Density = 1.778265 g / cm^3
# Si number density = 17.823220 Si / 1000 Ang^3
#
#
#
# Elastic Constant Matrix: (Units=GPa)
#
#
# Indices 1 2 3 4 5 6 
#
# 1 90.0192 31.9364 36.3299 -5.9593 -6.9354 -2.7286
# 2 31.9364 65.2181 20.1740 -3.9331 -1.3975 -3.1916
# 3 36.3299 20.1740 102.7962 -1.3673 -6.0022 3.9858
# 4 -5.9593 -3.9331 -1.3673 28.6136 3.9495 -3.2614
# 5 -6.9354 -1.3975 -6.0022 3.9495 25.9962 -0.8806
# 6 -2.7286 -3.1916 3.9858 -3.2614 -0.8806 19.0631
#
#
#
# Elastic Compliance Matrix: (Units=1/GPa)
#
#
# Indices 1 2 3 4 5 6 
#
# 1 0.015298 -0.005893 -0.004171 0.002114 0.002567 0.002555
# 2 -0.005893 0.019007 -0.001805 0.001795 -0.001139 0.002970
# 3 -0.004171 -0.001805 0.011768 -0.001168 0.001566 -0.003487
# 4 0.002114 0.001795 -0.001168 0.037063 -0.005005 0.006957
# 5 0.002567 -0.001139 0.001566 -0.005005 0.040242 0.000852
# 6 0.002555 0.002970 -0.003487 0.006957 0.000852 0.055279
#
#
# Mechanical properties :
#
#
# Convention : Reuss Voigt Hill
#
# Bulk Modulus (GPa) = 44.77682 48.32378 46.55030
# Shear Modulus (GPa) = 23.82767 26.04077 24.93422
#
# Velocity S-wave (km/s) = 3.66032 3.82653 3.74434
# Velocity P-wave (km/s) = 6.56058 6.83336 6.69836
#
# Compressibility (1/GPa) = 0.02233298
#
# Stress axis : x y z
#
# Youngs Moduli (GPa) = 65.36757 52.61308 84.97980
#
# Poissons Ratio (x) = 0.31007 0.35446
# Poissons Ratio (y) = 0.38524 0.15339
# Poissons Ratio (z) = 0.27265 0.09497
#
# Static dielectric constant tensor:
#      x y z
#    x 3.517460 -0.164700 -0.291660 
#    y -0.164700 3.577260 -0.349590 
#    z -0.291660 -0.349590 3.413520 
# 
# 
# High freq. dielectric constant tensor:
#      x y z
#    x 1.655980 0.004910 -0.006000 
#    y 0.004910 1.663450 0.007930 
#    z -0.006000 0.007930 1.716650 
# 
# From -- ./inp_files/533553.got.cif
#   From: 2010.06.25/outbox.cif.g09.slc.cpg/sg2_267_cif.got.tgz:533553.got - 2010.06.27 13:26:56.
