data_PCOD8001211
_publ_section_title
;
Structure prediction by ZEFSAII (Michael W. Deem and Ramdas Pophale) SiO2 
 PCOD8001211
Probable space group: P -1
;
_chemical_formula_sum "Si O2"
_cell_formula_units_Z 16
_cell_length_a 11.257899
_cell_length_b 8.216973
_cell_length_c 14.412898
_cell_angle_alpha 132.643174
_cell_angle_beta 132.001950
_cell_angle_gamma 71.837740
_cell_volume 703.934345
_symmetry_space_group_name_H-M "P -1"
_symmetry_group_IT_number 2
_symmetry_cell_setting 'triclinic'
loop_
_space_group_symop_operation_xyz
x,y,z
-x,-y,-z
loop_
_atom_site_type_symbol
_atom_site_label
_atom_site_fract_x
_atom_site_fract_y
_atom_site_fract_z
Si Si1 0.858080 0.994788 0.999260
Si Si2 0.740506 0.426140 0.144316
Si Si3 0.891597 0.917985 0.190498
Si Si4 0.412681 0.426750 0.052063
Si Si5 0.408577 0.476303 0.346096
Si Si6 0.445449 0.201969 0.600840
Si Si7 0.949097 0.205932 0.503477
Si Si8 0.189030 0.807331 0.388793
O O1 0.948260 0.006418 0.151090
O O2 0.785334 0.213853 0.035333
O O3 0.698194 0.781349 0.822262
O O4 0.000000 0.000000 0.000000
O O5 0.585466 0.353127 0.105630
O O6 0.899236 0.569923 0.338754
O O7 0.682251 0.585319 0.099741
O O8 0.005080 0.761007 0.231456
O O9 0.884137 0.130097 0.336692
O O10 0.706412 0.760235 0.017359
O O11 0.438996 0.681214 0.207791
O O12 0.500000 0.500000 0.500000
O O13 0.551533 0.583360 0.384743
O O14 0.283064 0.635747 0.327444
O O15 0.500000 0.000000 0.500000
O O16 0.268939 0.075963 0.506671
O O17 0.811532 0.245426 0.520477
O O18 0.000000 0.000000 0.500000
#
# Coordination Sequence:
#
# PCOD8001211 Si02
#       8
#     2   2   2   2   2   2   2   2
#     4  12  29  47  66 104 142 180 229 285 350 400
#     4  11  25  42  70 102 139 183 223 283 341 408
#     4  11  24  43  72 100 136 180 227 283 341 409
#     4  11  22  43  71 100 137 179 237 276 331 414
#     4  11  26  46  62  97 141 182 229 282 342 401
#     4  10  23  42  67  99 133 185 234 272 337 409
#     4  10  19  42  67 102 129 168 230 274 343 398
#     4  10  22  42  72  97 133 183 227 280 337 411
#
# _framework density 22.729392000000001
#
# number of rings (size 3 to 8) (size 9 to 14) (size 15 to 20)
#    0.000    1.250    3.750    2.250    7.000    2.500 
#    2.250    0.000    0.000    0.000    0.000    0.000 
#    0.000    0.000    0.000    0.000    0.000    0.000 
#
# Total GULP energy -198263.398790 kJ/mol
# GULP energy per Si atom -12391.462424 kJ/mol
# Density = 2.267766 g / cm^3
# Si number density = 22.729392 Si / 1000 Ang^3
#
#
#
# Elastic Constant Matrix: (Units=GPa)
#
#
# Indices 1 2 3 4 5 6 
#
# 1 146.7135 38.1813 60.5396 4.1625 5.6726 13.0121
# 2 38.1813 61.6907 25.9626 6.5692 2.8776 5.2485
# 3 60.5396 25.9626 142.9238 14.7968 5.8624 7.4517
# 4 4.1625 6.5692 14.7968 36.6639 11.0531 -9.3458
# 5 5.6726 2.8776 5.8624 11.0531 43.3261 3.2078
# 6 13.0121 5.2485 7.4517 -9.3458 3.2078 33.7168
#
#
#
# Elastic Compliance Matrix: (Units=1/GPa)
#
#
# Indices 1 2 3 4 5 6 
#
# 1 0.009436 -0.004388 -0.003136 0.000618 -0.000526 -0.002044
# 2 -0.004388 0.019988 -0.001354 -0.003174 0.000390 -0.002036
# 3 -0.003136 -0.001354 0.009006 -0.003528 0.000299 -0.001576
# 4 0.000618 -0.003174 -0.003528 0.034910 -0.009156 0.011583
# 5 -0.000526 0.000390 0.000299 -0.009156 0.025783 -0.004915
# 6 -0.002044 -0.002036 -0.001576 0.011583 -0.004915 0.034791
#
#
# Mechanical properties :
#
#
# Convention : Reuss Voigt Hill
#
# Bulk Modulus (GPa) = 48.36542 66.74391 57.55467
# Shear Modulus (GPa) = 31.53381 37.85099 34.69240
#
# Velocity S-wave (km/s) = 3.72877 4.08522 3.91106
# Velocity P-wave (km/s) = 6.31374 7.18891 6.76549
#
# Compressibility (1/GPa) = 0.02067593
#
# Stress axis : x y z
#
# Youngs Moduli (GPa) = 105.97867 50.02969 111.03756
#
# Poissons Ratio (x) = 0.21952 0.34817
# Poissons Ratio (y) = 0.46500 0.15031
# Poissons Ratio (z) = 0.33231 0.06772
#
# Static dielectric constant tensor:
#      x y z
#    x 6.111030 0.631540 -0.295400 
#    y 0.631540 3.778000 0.102750 
#    z -0.295400 0.102750 4.337470 
# 
# 
# High freq. dielectric constant tensor:
#      x y z
#    x 1.916110 0.020610 -0.003060 
#    y 0.020610 1.859260 0.010160 
#    z -0.003060 0.010160 1.907350 
# 
# From -- ./inp_files/516440.got.cif
#   From: 2010.06.25/outbox.cif.g09.slc.cpg/sg2_259_cif.got.tgz:516440.got - 2010.06.27 13:26:56.
