data_PCOD8001465
_publ_section_title
;
Structure prediction by ZEFSAII (Michael W. Deem and Ramdas Pophale) SiO2 
 PCOD8001465
Probable space group: P -1
;
_chemical_formula_sum "Si O2"
_cell_formula_units_Z 14
_cell_length_a 9.276052
_cell_length_b 9.305131
_cell_length_c 11.289649
_cell_angle_alpha 61.638312
_cell_angle_beta 55.928317
_cell_angle_gamma 83.879860
_cell_volume 693.078798
_symmetry_space_group_name_H-M "P -1"
_symmetry_group_IT_number 2
_symmetry_cell_setting 'triclinic'
loop_
_space_group_symop_operation_xyz
x,y,z
-x,-y,-z
loop_
_atom_site_type_symbol
_atom_site_label
_atom_site_fract_x
_atom_site_fract_y
_atom_site_fract_z
Si Si1 0.082406 0.267328 0.569079
Si Si2 0.141095 0.933761 0.044975
Si Si3 0.335981 0.070078 0.594397
Si Si4 0.174283 0.616233 0.520725
Si Si5 0.847899 0.262882 0.092577
Si Si6 0.568405 0.768921 0.262660
Si Si7 0.780940 0.510195 0.198795
O O1 0.249802 0.181071 0.497270
O O2 0.157061 0.438863 0.535704
O O3 0.942337 0.140951 0.765008
O O4 0.986629 0.298253 0.479168
O O5 0.202726 0.781213 0.004555
O O6 0.316508 0.081646 0.929011
O O7 0.000000 0.000000 0.000000
O O8 0.392823 0.188964 0.634327
O O9 0.500000 0.000000 0.500000
O O10 0.178924 0.912488 0.758393
O O11 0.358122 0.741328 0.346796
O O12 0.163133 0.593067 0.676198
O O13 0.728893 0.381019 0.162839
O O14 0.056102 0.345232 0.975783
O O15 0.617987 0.591660 0.278786
#
# Coordination Sequence:
#
# PCOD8001465 Si02
#       7
#     2   2   2   2   2   2   2
#     4  11  22  39  60  84 125 155 188 234 311 343
#     4  11  17  39  61  85 113 156 195 242 284 348
#     4  11  21  37  60  88 112 152 199 246 282 345
#     4  11  23  36  58  91 119 158 183 246 295 349
#     4  10  20  32  59  89 110 149 198 244 284 325
#     4  11  21  36  62  86 114 152 208 238 276 342
#     4  11  19  35  59  89 115 150 202 239 276 353
#
# _framework density 20.199722999999999
#
# number of rings (size 3 to 8) (size 9 to 14) (size 15 to 20)
#    0.000    1.143    7.143    1.286    2.000    0.571 
#    0.000    2.857    0.000    6.857    0.000    0.000 
#    0.000    0.000    0.000    0.000    0.000    0.000 
#
# Total GULP energy -173501.724634 kJ/mol
# GULP energy per Si atom -12392.980331 kJ/mol
# Density = 2.015375 g / cm^3
# Si number density = 20.199723 Si / 1000 Ang^3
#
#
#
# Elastic Constant Matrix: (Units=GPa)
#
#
# Indices 1 2 3 4 5 6 
#
# 1 80.6641 39.6978 38.6875 -5.0339 -12.5063 -19.8257
# 2 39.6978 122.3082 25.3505 15.9494 -0.7623 -18.0388
# 3 38.6875 25.3505 72.3028 -6.1100 -9.5906 -2.6096
# 4 -5.0339 15.9494 -6.1100 29.5076 4.0993 -3.7085
# 5 -12.5063 -0.7623 -9.5906 4.0993 25.6329 -2.5479
# 6 -19.8257 -18.0388 -2.6096 -3.7085 -2.5479 27.5248
#
#
#
# Elastic Compliance Matrix: (Units=1/GPa)
#
#
# Indices 1 2 3 4 5 6 
#
# 1 0.024630 -0.004386 -0.009431 0.005314 0.009051 0.015526
# 2 -0.004386 0.011408 -0.002286 -0.006828 -0.001260 0.003064
# 3 -0.009431 -0.002286 0.019935 0.002773 0.001763 -0.005865
# 4 0.005314 -0.006828 0.002773 0.040008 -0.002497 0.004775
# 5 0.009051 -0.001260 0.001763 -0.002497 0.045417 0.009729
# 6 0.015526 0.003064 -0.005865 0.004775 0.009729 0.050510
#
#
# Mechanical properties :
#
#
# Convention : Reuss Voigt Hill
#
# Bulk Modulus (GPa) = 42.07707 53.63851 47.85779
# Shear Modulus (GPa) = 21.54840 27.96901 24.75870
#
# Velocity S-wave (km/s) = 3.26968 3.72509 3.50479
# Velocity P-wave (km/s) = 5.92707 6.71665 6.33418
#
# Compressibility (1/GPa) = 0.02376592
#
# Stress axis : x y z
#
# Youngs Moduli (GPa) = 40.60154 87.65819 50.16265
#
# Poissons Ratio (x) = 0.38447 0.47308
# Poissons Ratio (y) = 0.17808 0.11469
# Poissons Ratio (z) = 0.38291 0.20043
#
# Static dielectric constant tensor:
#      x y z
#    x 3.421110 0.070700 -0.202090 
#    y 0.070700 4.195490 0.019090 
#    z -0.202090 0.019090 3.895640 
# 
# 
# High freq. dielectric constant tensor:
#      x y z
#    x 1.743230 0.004930 -0.028090 
#    y 0.004930 1.802720 -0.011880 
#    z -0.028090 -0.011880 1.790770 
# 
# From -- ./inp_files/185107.got.cif
#   From: 2010.06.25/outbox.cif.g09.slc.cpg/sg2_93_cif.got.tgz:185107.got - 2010.06.27 13:26:56.
