data_PCOD8001113
_publ_section_title
;
Structure prediction by ZEFSAII (Michael W. Deem and Ramdas Pophale) SiO2 
 PCOD8001113
Probable space group: P -1
;
_chemical_formula_sum "Si O2"
_cell_formula_units_Z 14
_cell_length_a 7.157424
_cell_length_b 23.929351
_cell_length_c 14.892633
_cell_angle_alpha 18.762971
_cell_angle_beta 58.596050
_cell_angle_gamma 54.131241
_cell_volume 659.266163
_symmetry_space_group_name_H-M "P -1"
_symmetry_group_IT_number 2
_symmetry_cell_setting 'triclinic'
loop_
_space_group_symop_operation_xyz
x,y,z
-x,-y,-z
loop_
_atom_site_type_symbol
_atom_site_label
_atom_site_fract_x
_atom_site_fract_y
_atom_site_fract_z
Si Si1 0.052400 0.599088 0.964580
Si Si2 0.248674 0.568872 0.597226
Si Si3 0.953426 0.718595 0.273093
Si Si4 0.735301 0.779573 0.608753
Si Si5 0.253846 0.580402 0.242136
Si Si6 0.947565 0.074520 0.800847
Si Si7 0.231161 0.823971 0.704760
O O1 0.220981 0.412859 0.160870
O O2 0.896419 0.561697 0.140414
O O3 0.216885 0.699894 0.812660
O O4 0.883567 0.738949 0.724229
O O5 0.163392 0.653380 0.392252
O O6 0.520492 0.456854 0.695315
O O7 0.223452 0.715552 0.462883
O O8 0.037962 0.685315 0.200090
O O9 0.771452 0.610700 0.498166
O O10 0.835587 0.941118 0.977537
O O11 0.462250 0.877948 0.549129
O O12 0.817336 0.922638 0.311679
O O13 0.265352 0.709635 0.961386
O O14 0.000000 0.000000 0.000000
O O15 0.000000 0.000000 0.500000
#
# Coordination Sequence:
#
# PCOD8001113 Si02
#       7
#     2   2   2   2   2   2   2
#     4  10  21  41  67  89 121 162 206 261 311 367
#     4  10  19  41  67  89 120 161 208 253 311 360
#     4  10  22  41  60  89 130 161 206 249 302 373
#     4  10  22  43  67  90 120 163 209 258 317 360
#     4  11  23  40  62  89 125 170 203 247 311 369
#     4   9  21  41  65  94 120 155 207 261 304 363
#     4  12  26  41  61  96 129 161 211 258 306 369
#
# _framework density 21.235731999999999
#
# number of rings (size 3 to 8) (size 9 to 14) (size 15 to 20)
#    0.000    1.714    2.857    0.857    2.000    2.286 
#   10.286    0.000    0.000    0.000    0.000    0.000 
#    0.000    0.000    0.000    0.000    0.000    0.000 
#
# Total GULP energy -173568.059098 kJ/mol
# GULP energy per Si atom -12397.718507 kJ/mol
# Density = 2.118740 g / cm^3
# Si number density = 21.235732 Si / 1000 Ang^3
#
#
#
# Elastic Constant Matrix: (Units=GPa)
#
#
# Indices 1 2 3 4 5 6 
#
# 1 79.7523 18.8483 19.2473 6.5324 3.1711 0.6498
# 2 18.8483 67.4474 28.2770 16.7880 -3.3744 0.8736
# 3 19.2473 28.2770 89.8753 19.7823 -9.3894 1.1754
# 4 6.5324 16.7880 19.7823 31.8408 3.1048 -3.6974
# 5 3.1711 -3.3744 -9.3894 3.1048 23.8947 -2.9430
# 6 0.6498 0.8736 1.1754 -3.6974 -2.9430 39.1143
#
#
#
# Elastic Compliance Matrix: (Units=1/GPa)
#
#
# Indices 1 2 3 4 5 6 
#
# 1 0.013977 -0.003195 -0.002485 0.000660 -0.003403 -0.000280
# 2 -0.003195 0.019200 -0.003358 -0.007740 0.002723 -0.000802
# 3 -0.002485 -0.003358 0.015161 -0.007865 0.006764 -0.000574
# 4 0.000660 -0.007740 -0.007865 0.041559 -0.009224 0.003633
# 5 -0.003403 0.002723 0.006764 -0.009224 0.046844 0.002445
# 6 -0.000280 -0.000802 -0.000574 0.003633 0.002445 0.026133
#
#
# Mechanical properties :
#
#
# Convention : Reuss Voigt Hill
#
# Bulk Modulus (GPa) = 33.04551 41.09114 37.06832
# Shear Modulus (GPa) = 26.17275 30.35013 28.26144
#
# Velocity S-wave (km/s) = 3.51449 3.78458 3.65203
# Velocity P-wave (km/s) = 5.66250 6.20398 5.93941
#
# Compressibility (1/GPa) = 0.03026130
#
# Stress axis : x y z
#
# Youngs Moduli (GPa) = 71.54502 52.08277 65.96056
#
# Poissons Ratio (x) = 0.16641 0.16393
# Poissons Ratio (y) = 0.22859 0.22150
# Poissons Ratio (z) = 0.17781 0.17490
#
# Static dielectric constant tensor:
#      x y z
#    x 3.646530 0.183370 -0.211690 
#    y 0.183370 3.902700 -0.129820 
#    z -0.211690 -0.129820 4.095940 
# 
# 
# High freq. dielectric constant tensor:
#      x y z
#    x 1.818030 0.014230 -0.010040 
#    y 0.014230 1.832480 0.009940 
#    z -0.010040 0.009940 1.836690 
# 
# From -- ./inp_files/72649.got.cif
#   From: 2010.06.25/outbox.cif.g09.slc.cpg/sg2_37_cif.got.tgz:72649.got - 2010.06.27 13:26:56.
