data_PCOD8001688
_publ_section_title
;
Structure prediction by ZEFSAII (Michael W. Deem and Ramdas Pophale) SiO2 
 PCOD8001688
Probable space group: P -1
;
_chemical_formula_sum "Si O2"
_cell_formula_units_Z 16
_cell_length_a 16.907220
_cell_length_b 16.757872
_cell_length_c 16.939515
_cell_angle_alpha 42.878421
_cell_angle_beta 162.226219
_cell_angle_gamma 133.434468
_cell_volume 995.680377
_symmetry_space_group_name_H-M "P -1"
_symmetry_group_IT_number 2
_symmetry_cell_setting 'triclinic'
loop_
_space_group_symop_operation_xyz
x,y,z
-x,-y,-z
loop_
_atom_site_type_symbol
_atom_site_label
_atom_site_fract_x
_atom_site_fract_y
_atom_site_fract_z
Si Si1 0.208414 0.411765 0.858346
Si Si2 0.253685 0.148219 0.116626
Si Si3 0.890410 0.066438 0.560174
Si Si4 0.314335 0.443146 0.756844
Si Si5 0.502687 0.859452 0.110816
Si Si6 0.965258 0.903108 0.604671
Si Si7 0.595811 0.795475 0.069629
Si Si8 0.197191 0.959175 0.327792
O O1 0.269052 0.392506 0.837607
O O2 0.923086 0.469787 0.558084
O O3 0.219792 0.285872 0.002612
O O4 0.419185 0.490793 0.041876
O O5 0.540353 0.120102 0.376161
O O6 0.210587 0.081909 0.205939
O O7 0.042872 0.113102 0.877581
O O8 0.843614 0.010714 0.641339
O O9 0.165752 0.124417 0.779401
O O10 0.889345 0.960813 0.573798
O O11 0.658886 0.161266 0.252125
O O12 0.329261 0.337028 0.786754
O O13 0.738352 0.819180 0.422331
O O14 0.533825 0.796581 0.102372
O O15 0.233862 0.824485 0.921613
O O16 0.500000 0.000000 0.000000
O O17 0.000000 0.000000 0.500000
#
# Coordination Sequence:
#
# PCOD8001688 Si02
#       8
#     2   2   2   2   2   2   2   2
#     4  10  19  35  47  61  94 122 150 196 238 260
#     4  10  20  37  51  64  97 124 152 200 245 265
#     4  12  19  28  47  68  99 126 153 189 223 281
#     4  10  21  30  46  70  86 119 166 187 219 283
#     4  10  16  29  41  61  92 133 146 170 234 283
#     4  10  16  28  40  62  92 132 145 168 230 285
#     4  12  20  29  46  68 100 127 155 192 221 277
#     4  10  21  32  50  76  88 119 167 190 228 292
#
# _framework density 16.069413999999998
#
# number of rings (size 3 to 8) (size 9 to 14) (size 15 to 20)
#    0.000    1.500    5.000    3.750    0.000    2.000 
#    0.000    0.000    0.000    0.000    0.000    0.000 
#    0.000    6.000    0.000    0.000    0.000    0.000 
#
# Total GULP energy -198401.214292 kJ/mol
# GULP energy per Si atom -12400.075893 kJ/mol
# Density = 1.603284 g / cm^3
# Si number density = 16.069414 Si / 1000 Ang^3
#
#
#
# Elastic Constant Matrix: (Units=GPa)
#
#
# Indices 1 2 3 4 5 6 
#
# 1 88.3489 28.8793 29.6562 -6.4040 -11.0073 -19.3115
# 2 28.8793 54.6624 20.6603 -5.1442 -5.5504 -10.4949
# 3 29.6562 20.6603 118.1749 14.5582 11.0432 -0.5598
# 4 -6.4040 -5.1442 14.5582 16.5082 -7.5463 -1.0467
# 5 -11.0073 -5.5504 11.0432 -7.5463 11.1262 1.2904
# 6 -19.3115 -10.4949 -0.5598 -1.0467 1.2904 22.0156
#
#
#
# Elastic Compliance Matrix: (Units=1/GPa)
#
#
# Indices 1 2 3 4 5 6 
#
# 1 -0.006519 -0.021492 0.020947 -0.065504 -0.080788 -0.013810
# 2 -0.021492 0.012249 0.013950 -0.043764 -0.057361 -0.011377
# 3 0.020947 0.013950 -0.015242 0.066266 0.085111 0.022798
# 4 -0.065504 -0.043764 0.066266 -0.155517 -0.249838 -0.069386
# 5 -0.080788 -0.057361 0.085111 -0.249838 -0.261850 -0.092575
# 6 -0.013810 -0.011377 0.022798 -0.069386 -0.092575 0.030592
#
#
# Mechanical properties :
#
#
# Convention : Reuss Voigt Hill
#
# Bulk Modulus (GPa) = 57.81363 46.61974 52.21669
# Shear Modulus (GPa) = -11.98087 22.06270 5.04092
#
# Velocity S-wave (km/s) = -2.73347 3.70937 1.77307
# Velocity P-wave (km/s) = 5.10813 6.88624 6.06273
#
# Compressibility (1/GPa) = 0.01729696
#
# Stress axis : x y z
#
# Youngs Moduli (GPa) = -153.38948 81.63875 -65.60631
#
# Poissons Ratio (x) = 1.75458 1.37426
# Poissons Ratio (y) = -3.29665 0.91519
# Poissons Ratio (z) = 3.21307 -1.13884
#
# Static dielectric constant tensor:
#      x y z
#    x 2.894050 -0.253940 -0.260700 
#    y -0.253940 2.579740 -0.258360 
#    z -0.260700 -0.258360 2.259520 
# 
# 
# High freq. dielectric constant tensor:
#      x y z
#    x 1.602030 -0.020810 0.014780 
#    y -0.020810 1.579960 0.022140 
#    z 0.014780 0.022140 1.647800 
# 
# From -- ./inp_files/74978.got.cif
#   From: 2010.06.25/outbox.cif.g09.slc.cpg/sg2_38_cif.got.tgz:74978.got - 2010.06.27 13:26:56.
