data_PCOD8001153
_publ_section_title
;
Structure prediction by ZEFSAII (Michael W. Deem and Ramdas Pophale) SiO2 
 PCOD8001153
Probable space group: P -1
;
_chemical_formula_sum "Si O2"
_cell_formula_units_Z 16
_cell_length_a 9.014623
_cell_length_b 18.975413
_cell_length_c 9.034830
_cell_angle_alpha 138.222765
_cell_angle_beta 53.145556
_cell_angle_gamma 101.593761
_cell_volume 730.666756
_symmetry_space_group_name_H-M "P -1"
_symmetry_group_IT_number 2
_symmetry_cell_setting 'triclinic'
loop_
_space_group_symop_operation_xyz
x,y,z
-x,-y,-z
loop_
_atom_site_type_symbol
_atom_site_label
_atom_site_fract_x
_atom_site_fract_y
_atom_site_fract_z
Si Si1 0.862112 0.177170 0.110469
Si Si2 0.640415 0.376593 0.800642
Si Si3 0.988006 0.378148 0.809928
Si Si4 0.339794 0.191492 0.119139
Si Si5 0.709782 0.990554 0.284360
Si Si6 0.330040 0.972319 0.135711
Si Si7 0.933954 0.772326 0.188090
Si Si8 0.582424 0.758889 0.174390
O O1 0.778094 0.272180 0.440894
O O2 0.722741 0.109590 0.071505
O O3 0.876182 0.248262 0.068324
O O4 0.093349 0.066667 0.816647
O O5 0.793129 0.391359 0.849725
O O6 0.465416 0.351021 0.944999
O O7 0.500000 0.500000 0.000000
O O8 0.210752 0.288861 0.468957
O O9 0.970744 0.331818 0.910298
O O10 0.000000 0.500000 0.000000
O O11 0.577718 0.111301 0.904969
O O12 0.329346 0.251844 0.061206
O O13 0.237648 0.100443 0.027402
O O14 0.646464 0.124976 0.483823
O O15 0.500000 0.000000 0.500000
O O16 0.138240 0.097976 0.491853
O O17 0.500000 0.000000 0.000000
O O18 0.747153 0.762155 0.197678
#
# Coordination Sequence:
#
# PCOD8001153 Si02
#       8
#     2   2   2   2   2   2   2   2
#     4  12  26  44  73 103 146 187 230 282 353 424
#     4  12  29  49  68  99 136 189 244 287 342 416
#     4  12  28  46  70  97 135 181 241 293 343 405
#     4  11  22  45  70 102 142 182 227 277 353 421
#     4  10  19  41  71 105 136 174 224 276 347 428
#     4  12  25  40  70 112 151 182 220 286 353 422
#     4  12  23  45  69 106 140 182 228 286 351 414
#     4  11  23  43  75  99 142 182 224 288 349 420
#
# _framework density 21.897808000000001
#
# number of rings (size 3 to 8) (size 9 to 14) (size 15 to 20)
#    0.000    0.500    6.250    2.625    5.250    1.500 
#    0.000    3.750    0.000    0.000    0.000    0.000 
#    0.000    0.000    0.000    0.000    0.000    0.000 
#
# Total GULP energy -198341.600818 kJ/mol
# GULP energy per Si atom -12396.350051 kJ/mol
# Density = 2.184797 g / cm^3
# Si number density = 21.897808 Si / 1000 Ang^3
#
#
#
# Elastic Constant Matrix: (Units=GPa)
#
#
# Indices 1 2 3 4 5 6 
#
# 1 136.8203 67.5327 32.2545 12.9298 11.1389 -3.0045
# 2 67.5327 126.7865 37.9920 15.1373 4.5958 -1.0460
# 3 32.2545 37.9920 56.3873 6.7389 8.7007 4.6101
# 4 12.9298 15.1373 6.7389 36.6272 -1.0032 0.6890
# 5 11.1389 4.5958 8.7007 -1.0032 35.3474 7.6054
# 6 -3.0045 -1.0460 4.6101 0.6890 7.6054 41.1597
#
#
#
# Elastic Compliance Matrix: (Units=1/GPa)
#
#
# Indices 1 2 3 4 5 6 
#
# 1 0.010529 -0.004586 -0.002496 -0.001456 -0.002452 0.001409
# 2 -0.004586 0.012241 -0.005536 -0.002401 0.001053 0.000442
# 3 -0.002496 -0.005536 0.023833 -0.001281 -0.003913 -0.002248
# 4 -0.001456 -0.002401 -0.001281 0.029119 0.002106 -0.000901
# 5 -0.002452 0.001053 -0.003913 0.002106 0.031133 -0.005502
# 6 0.001409 0.000442 -0.002248 -0.000901 -0.005502 0.025693
#
#
# Mechanical properties :
#
#
# Convention : Reuss Voigt Hill
#
# Bulk Modulus (GPa) = 46.80070 66.17249 56.48659
# Shear Modulus (GPa) = 30.32038 34.77450 32.54744
#
# Velocity S-wave (km/s) = 3.72510 3.98934 3.85948
# Velocity P-wave (km/s) = 6.31827 7.17664 6.76109
#
# Compressibility (1/GPa) = 0.02136720
#
# Stress axis : x y z
#
# Youngs Moduli (GPa) = 94.97606 81.69227 41.95923
#
# Poissons Ratio (x) = 0.37465 0.10472
# Poissons Ratio (y) = 0.43557 0.23229
# Poissons Ratio (z) = 0.23703 0.45225
#
# Static dielectric constant tensor:
#      x y z
#    x 4.217580 -0.090140 0.092980 
#    y -0.090140 4.256760 0.226920 
#    z 0.092980 0.226920 4.131730 
# 
# 
# High freq. dielectric constant tensor:
#      x y z
#    x 1.868730 -0.006740 0.010260 
#    y -0.006740 1.868590 0.000850 
#    z 0.010260 0.000850 1.852300 
# 
# From -- ./inp_files/218808.got.cif
#   From: 2010.06.25/outbox.cif.g09.slc.cpg/sg2_110_cif.got.tgz:218808.got - 2010.06.27 13:26:56.
