data_PCOD8001047
_publ_section_title
;
Structure prediction by ZEFSAII (Michael W. Deem and Ramdas Pophale) SiO2 
 PCOD8001047
Probable space group: P -1
;
_chemical_formula_sum "Si O2"
_cell_formula_units_Z 14
_cell_length_a 9.795817
_cell_length_b 14.275145
_cell_length_c 7.647603
_cell_angle_alpha 71.144748
_cell_angle_beta 61.315640
_cell_angle_gamma 53.052449
_cell_volume 748.858403
_symmetry_space_group_name_H-M "P -1"
_symmetry_group_IT_number 2
_symmetry_cell_setting 'triclinic'
loop_
_space_group_symop_operation_xyz
x,y,z
-x,-y,-z
loop_
_atom_site_type_symbol
_atom_site_label
_atom_site_fract_x
_atom_site_fract_y
_atom_site_fract_z
Si Si1 0.480519 0.087479 0.603083
Si Si2 0.184425 0.988721 0.329225
Si Si3 0.410660 0.424750 0.109552
Si Si4 0.004010 0.568102 0.123813
Si Si5 0.359317 0.336390 0.539615
Si Si6 0.221974 0.178848 0.016347
Si Si7 0.488859 0.763694 0.120568
O O1 0.685307 0.044285 0.564363
O O2 0.387379 0.218642 0.506340
O O3 0.354567 0.089651 0.837294
O O4 0.500000 0.000000 0.500000
O O5 0.288809 0.885038 0.183034
O O6 0.000000 0.000000 0.500000
O O7 0.139786 0.114231 0.210262
O O8 0.430553 0.390209 0.322372
O O9 0.200270 0.501145 0.134393
O O10 0.500000 0.500000 0.000000
O O11 0.520616 0.311436 0.985086
O O12 0.857750 0.573346 0.347992
O O13 0.949496 0.699336 0.026264
O O14 0.000000 0.500000 0.000000
O O15 0.466401 0.305742 0.678868
O O16 0.351349 0.209043 0.033282
#
# Coordination Sequence:
#
# PCOD8001047 Si02
#       7
#     2   2   2   2   2   2   2
#     4   9  19  35  61  87 110 149 197 235 287 347
#     4  10  21  38  58  89 119 148 189 239 302 346
#     4  12  24  38  61  90 121 154 196 246 295 342
#     4  10  19  41  61  84 117 157 201 239 283 350
#     4   9  21  38  62  85 118 154 200 241 283 353
#     4   9  19  37  65  81 113 157 193 232 289 354
#     4   9  20  42  59  86 118 159 197 235 296 350
#
# _framework density 18.695124
#
# number of rings (size 3 to 8) (size 9 to 14) (size 15 to 20)
#    0.000    2.857    2.857    2.143    4.000    2.857 
#    7.714    0.714    0.000    0.000    0.000    0.000 
#    0.000    0.000    0.000    0.000    0.000    0.000 
#
# Total GULP energy -173511.445381 kJ/mol
# GULP energy per Si atom -12393.674670 kJ/mol
# Density = 1.865257 g / cm^3
# Si number density = 18.695124 Si / 1000 Ang^3
#
#
#
# Elastic Constant Matrix: (Units=GPa)
#
#
# Indices 1 2 3 4 5 6 
#
# 1 54.5368 33.1676 46.8031 3.3372 -0.4512 9.7611
# 2 33.1676 99.6410 58.8703 8.7803 -2.2871 15.1087
# 3 46.8031 58.8703 128.6761 -19.5392 -12.0237 15.8078
# 4 3.3372 8.7803 -19.5392 32.0931 5.1128 2.7888
# 5 -0.4512 -2.2871 -12.0237 5.1128 21.9947 3.0402
# 6 9.7611 15.1087 15.8078 2.7888 3.0402 35.7032
#
#
#
# Elastic Compliance Matrix: (Units=1/GPa)
#
#
# Indices 1 2 3 4 5 6 
#
# 1 0.030387 -0.002487 -0.011443 -0.008755 -0.003691 -0.001191
# 2 -0.002487 0.016536 -0.007743 -0.008753 -0.000227 -0.002187
# 3 -0.011443 -0.007743 0.018612 0.013925 0.006377 -0.003466
# 4 -0.008755 -0.008753 0.013925 0.043731 -0.003199 -0.003211
# 5 -0.003691 -0.000227 0.006377 -0.003199 0.050392 -0.005759
# 6 -0.001191 -0.002187 -0.003466 -0.003211 -0.005759 0.031536
#
#
# Mechanical properties :
#
#
# Convention : Reuss Voigt Hill
#
# Bulk Modulus (GPa) = 45.06432 62.28178 53.67305
# Shear Modulus (GPa) = 20.66669 27.55907 24.11288
#
# Velocity S-wave (km/s) = 3.32845 3.84361 3.59527
# Velocity P-wave (km/s) = 6.23928 7.28591 6.78282
#
# Compressibility (1/GPa) = 0.02219050
#
# Stress axis : x y z
#
# Youngs Moduli (GPa) = 32.90857 60.47414 53.72885
#
# Poissons Ratio (x) = 0.15040 0.61481
# Poissons Ratio (y) = 0.08184 0.41600
# Poissons Ratio (z) = 0.37657 0.46822
#
# Static dielectric constant tensor:
#      x y z
#    x 0.917830 0.532210 -0.225450 
#    y 0.532210 3.511100 0.184790 
#    z -0.225450 0.184790 3.233610 
# 
# 
# High freq. dielectric constant tensor:
#      x y z
#    x 1.697400 -0.006300 0.003020 
#    y -0.006300 1.743250 0.004070 
#    z 0.003020 0.004070 1.716910 
# 
# From -- ./inp_files/175875.got.cif
#   From: 2010.06.25/outbox.cif.g09.slc.cpg/sg2_88_cif.got.tgz:175875.got - 2010.06.27 13:26:56.
