data_PCOD8001536
_publ_section_title
;
Structure prediction by ZEFSAII (Michael W. Deem and Ramdas Pophale) SiO2 
 PCOD8001536
Probable space group: P -1
;
_chemical_formula_sum "Si O2"
_cell_formula_units_Z 16
_cell_length_a 11.982912
_cell_length_b 8.666250
_cell_length_c 12.080378
_cell_angle_alpha 84.504671
_cell_angle_beta 123.960154
_cell_angle_gamma 124.845843
_cell_volume 806.645604
_symmetry_space_group_name_H-M "P -1"
_symmetry_group_IT_number 2
_symmetry_cell_setting 'triclinic'
loop_
_space_group_symop_operation_xyz
x,y,z
-x,-y,-z
loop_
_atom_site_type_symbol
_atom_site_label
_atom_site_fract_x
_atom_site_fract_y
_atom_site_fract_z
Si Si1 0.491267 0.241695 0.723837
Si Si2 0.337319 0.131360 0.173588
Si Si3 0.377208 0.450328 0.036826
Si Si4 0.235599 0.731778 0.414149
Si Si5 0.183198 0.710554 0.069564
Si Si6 0.850654 0.436849 0.164139
Si Si7 0.564322 0.809621 0.542564
Si Si8 0.316764 0.805608 0.692548
O O1 0.509831 0.389635 0.813940
O O2 0.671933 0.287667 0.787880
O O3 0.413584 0.253783 0.562741
O O4 0.366213 0.021388 0.722354
O O5 0.292010 0.234462 0.055660
O O6 0.353254 0.215741 0.301740
O O7 0.513776 0.176110 0.230907
O O8 0.187119 0.891785 0.099910
O O9 0.500000 0.500000 0.000000
O O10 0.222390 0.444420 0.907390
O O11 0.358953 0.675867 0.459134
O O12 0.195139 0.704914 0.524488
O O13 0.057717 0.593085 0.258062
O O14 0.340244 0.957545 0.419800
O O15 0.223617 0.732807 0.958595
O O16 0.000000 0.500000 0.000000
O O17 0.793163 0.332077 0.256715
#
# Coordination Sequence:
#
# PCOD8001536 Si02
#       8
#     2   2   2   2   2   2   2   2
#     4   9  20  34  56  80 103 141 186 221 269 317
#     4  10  20  35  56  80 108 149 178 213 273 323
#     4  11  23  36  52  77 116 150 179 213 266 329
#     4   9  17  32  57  85 105 133 178 232 274 312
#     4  10  20  33  54  82 110 137 179 226 272 315
#     4  11  20  32  55  80 114 139 179 227 265 321
#     4   9  17  35  58  78 108 136 178 228 272 316
#     4   9  18  33  56  82 102 139 184 229 266 313
#
# _framework density 19.835229999999999
#
# number of rings (size 3 to 8) (size 9 to 14) (size 15 to 20)
#    0.000    2.250    1.250    4.125    1.750    2.000 
#    0.000    5.625    0.000    9.000    0.000    0.000 
#    0.000    0.000    0.000    0.000    0.000    0.000 
#
# Total GULP energy -198285.268899 kJ/mol
# GULP energy per Si atom -12392.829306 kJ/mol
# Density = 1.979008 g / cm^3
# Si number density = 19.835230 Si / 1000 Ang^3
#
#
#
# Elastic Constant Matrix: (Units=GPa)
#
#
# Indices 1 2 3 4 5 6 
#
# 1 45.1660 32.8556 28.3896 -0.6887 -8.7924 -2.0404
# 2 32.8556 90.9224 50.9510 -5.4007 -7.3448 1.9668
# 3 28.3896 50.9510 104.9840 -5.7656 -9.7459 3.2234
# 4 -0.6887 -5.4007 -5.7656 34.6062 4.4159 -5.1771
# 5 -8.7924 -7.3448 -9.7459 4.4159 28.2703 4.0778
# 6 -2.0404 1.9668 3.2234 -5.1771 4.0778 25.2028
#
#
#
# Elastic Compliance Matrix: (Units=1/GPa)
#
#
# Indices 1 2 3 4 5 6 
#
# 1 0.032658 -0.009251 -0.003932 -0.001891 0.006339 0.002455
# 2 -0.009251 0.017821 -0.006075 0.001493 -0.000432 -0.000986
# 3 -0.003932 -0.006075 0.013829 0.000739 0.002111 -0.001803
# 4 -0.001891 0.001493 0.000739 0.030991 -0.005787 0.006939
# 5 0.006339 -0.000432 0.002111 -0.005787 0.039927 -0.007372
# 6 0.002455 -0.000986 -0.001803 0.006939 -0.007372 0.042802
#
#
# Mechanical properties :
#
#
# Convention : Reuss Voigt Hill
#
# Bulk Modulus (GPa) = 38.77358 51.71834 45.24596
# Shear Modulus (GPa) = 22.20822 26.20760 24.20791
#
# Velocity S-wave (km/s) = 3.34973 3.63886 3.49728
# Velocity P-wave (km/s) = 5.87802 6.61708 6.25847
#
# Compressibility (1/GPa) = 0.02579075
#
# Stress axis : x y z
#
# Youngs Moduli (GPa) = 30.62047 56.11457 72.31267
#
# Poissons Ratio (x) = 0.51911 0.28436
# Poissons Ratio (y) = 0.28327 0.43930
# Poissons Ratio (z) = 0.12041 0.34090
#
# Static dielectric constant tensor:
#      x y z
#    x 3.345780 0.047790 -0.305310 
#    y 0.047790 3.448290 -0.028230 
#    z -0.305310 -0.028230 4.018500 
# 
# 
# High freq. dielectric constant tensor:
#      x y z
#    x 1.741270 0.013780 -0.027820 
#    y 0.013780 1.760330 -0.004570 
#    z -0.027820 -0.004570 1.793040 
# 
# From -- ./inp_files/175323.got.cif
#   From: 2010.06.25/outbox.cif.g09.slc.cpg/sg2_88_cif.got.tgz:175323.got - 2010.06.27 13:26:56.
