data_PCOD8001447
_publ_section_title
;
Structure prediction by ZEFSAII (Michael W. Deem and Ramdas Pophale) SiO2 
 PCOD8001447
Probable space group: P -1
;
_chemical_formula_sum "Si O2"
_cell_formula_units_Z 12
_cell_length_a 5.262930
_cell_length_b 13.340291
_cell_length_c 17.543539
_cell_angle_alpha 140.717384
_cell_angle_beta 115.349553
_cell_angle_gamma 56.939792
_cell_volume 653.554711
_symmetry_space_group_name_H-M "P -1"
_symmetry_group_IT_number 2
_symmetry_cell_setting 'triclinic'
loop_
_space_group_symop_operation_xyz
x,y,z
-x,-y,-z
loop_
_atom_site_type_symbol
_atom_site_label
_atom_site_fract_x
_atom_site_fract_y
_atom_site_fract_z
Si Si1 0.803531 0.911618 0.079566
Si Si2 0.918738 0.373106 0.160518
Si Si3 0.493672 0.066301 0.423526
Si Si4 0.520623 0.754370 0.326129
Si Si5 0.413971 0.775440 0.859920
Si Si6 0.960936 0.964870 0.296472
O O1 0.785247 0.095711 0.154564
O O2 0.488382 0.887908 0.003167
O O3 0.848112 0.899526 0.168344
O O4 0.081336 0.758762 0.984667
O O5 0.726062 0.562233 0.218045
O O6 0.773863 0.331624 0.194110
O O7 0.266151 0.353783 0.210642
O O8 0.491583 0.219625 0.568571
O O9 0.148646 0.085070 0.370088
O O10 0.670399 0.072268 0.372838
O O11 0.661035 0.885116 0.383126
O O12 0.182187 0.799430 0.274846
#
# Coordination Sequence:
#
# PCOD8001447 Si02
#       6
#     2   2   2   2   2   2
#     4   9  21  35  55  77 107 134 177 203 265 302
#     4  10  20  33  56  78 103 138 168 218 250 311
#     4   9  21  35  53  78 102 143 169 206 259 310
#     4   9  21  35  56  77 106 132 179 205 265 299
#     4   9  21  34  53  78 103 143 169 205 258 309
#     4  10  20  32  57  77 103 138 169 216 250 313
#
# _framework density 18.361125999999999
#
# number of rings (size 3 to 8) (size 9 to 14) (size 15 to 20)
#    2.000    0.667    0.000    1.000    4.667    0.667 
#    0.000    1.667    0.000    6.000    0.000    0.000 
#    0.000    0.000    0.000    0.000    0.000    0.000 
#
# Total GULP energy -148666.384691 kJ/mol
# GULP energy per Si atom -12388.865391 kJ/mol
# Density = 1.831934 g / cm^3
# Si number density = 18.361126 Si / 1000 Ang^3
#
#
#
# Elastic Constant Matrix: (Units=GPa)
#
#
# Indices 1 2 3 4 5 6 
#
# 1 107.9575 21.3407 33.6790 -7.4034 -26.2035 6.4950
# 2 21.3407 49.5077 41.5793 -1.4789 -4.9970 -2.9508
# 3 33.6790 41.5793 69.9295 -11.3435 -14.0901 -6.1099
# 4 -7.4034 -1.4789 -11.3435 10.4844 1.3506 0.6481
# 5 -26.2035 -4.9970 -14.0901 1.3506 19.9566 -2.2774
# 6 6.4950 -2.9508 -6.1099 0.6481 -2.2774 16.5444
#
#
#
# Elastic Compliance Matrix: (Units=1/GPa)
#
#
# Indices 1 2 3 4 5 6 
#
# 1 0.015432 -0.004872 -0.000013 0.008181 0.017934 -0.004784
# 2 -0.004872 0.050396 -0.037124 -0.033914 -0.018148 -0.003979
# 3 -0.000013 -0.037124 0.049652 0.044528 0.024250 0.013314
# 4 0.008181 -0.033914 0.044528 0.141053 0.024721 0.005061
# 5 0.017934 -0.018148 0.024250 0.024721 0.085644 0.009499
# 6 -0.004784 -0.003979 0.013314 0.005061 0.009499 0.067638
#
#
# Mechanical properties :
#
#
# Convention : Reuss Voigt Hill
#
# Bulk Modulus (GPa) = 31.78372 46.73254 39.25813
# Shear Modulus (GPa) = 9.91437 18.11679 14.01558
#
# Velocity S-wave (km/s) = 2.32624 3.14457 2.76584
# Velocity P-wave (km/s) = 4.95611 6.22026 5.62382
#
# Compressibility (1/GPa) = 0.03146265
#
# Stress axis : x y z
#
# Youngs Moduli (GPa) = 64.80201 19.84301 20.14017
#
# Poissons Ratio (x) = 0.09667 0.00026
# Poissons Ratio (y) = 0.31571 0.74768
# Poissons Ratio (z) = 0.00082 0.73665
#
# Static dielectric constant tensor:
#      x y z
#    x 3.200300 -0.026980 -0.087370 
#    y -0.026980 3.040380 0.008810 
#    z -0.087370 0.008810 3.049710 
# 
# 
# High freq. dielectric constant tensor:
#      x y z
#    x 1.706630 -0.000190 -0.013500 
#    y -0.000190 1.683530 -0.001730 
#    z -0.013500 -0.001730 1.685170 
# 
# From -- ./inp_files/73985.got.cif
#   From: 2010.06.25/outbox.cif.g09.slc.cpg/sg2_37_cif.got.tgz:73985.got - 2010.06.27 13:26:56.
