data_PCOD8001130
_publ_section_title
;
Structure prediction by ZEFSAII (Michael W. Deem and Ramdas Pophale) SiO2 
 PCOD8001130
Probable space group: P -1
;
_chemical_formula_sum "Si O2"
_cell_formula_units_Z 16
_cell_length_a 7.592364
_cell_length_b 16.719119
_cell_length_c 11.763918
_cell_angle_alpha 148.104889
_cell_angle_beta 75.685927
_cell_angle_gamma 113.351249
_cell_volume 711.999184
_symmetry_space_group_name_H-M "P -1"
_symmetry_group_IT_number 2
_symmetry_cell_setting 'triclinic'
loop_
_space_group_symop_operation_xyz
x,y,z
-x,-y,-z
loop_
_atom_site_type_symbol
_atom_site_label
_atom_site_fract_x
_atom_site_fract_y
_atom_site_fract_z
Si Si1 0.200534 0.126041 0.573461
Si Si2 0.308286 0.336041 0.601531
Si Si3 0.788263 0.959576 0.866408
Si Si4 0.042906 0.298893 0.167825
Si Si5 0.799889 0.085806 0.247797
Si Si6 0.402378 0.321517 0.995852
Si Si7 0.047380 0.412853 0.552664
Si Si8 0.475759 0.949908 0.313975
O O1 0.174048 0.241514 0.616107
O O2 0.322834 0.248799 0.798127
O O3 0.309845 0.010177 0.363574
O O4 0.000000 0.000000 0.500000
O O5 0.200521 0.418141 0.632972
O O6 0.369795 0.195275 0.359463
O O7 0.499705 0.483041 0.791671
O O8 0.696809 0.970644 0.018139
O O9 0.981489 0.914184 0.782647
O O10 0.851678 0.133670 0.004539
O O11 0.117020 0.376132 0.372929
O O12 0.979859 0.415746 0.236772
O O13 0.224207 0.264480 0.044128
O O14 0.835517 0.274709 0.446088
O O15 0.680220 0.037034 0.322563
O O16 0.561064 0.242975 0.918132
O O17 0.500000 0.000000 0.500000
#
# Coordination Sequence:
#
# PCOD8001130 Si02
#       8
#     2   2   2   2   2   2   2   2
#     4  11  26  47  69  91 127 180 232 276 337 401
#     4  11  24  41  63 100 133 172 222 273 333 390
#     4   9  18  36  69  93 129 175 211 266 326 406
#     4  10  19  41  68  99 133 177 221 263 335 392
#     4   9  17  37  65 100 128 169 220 267 331 392
#     4  11  24  42  67  96 135 173 218 285 330 396
#     4   9  22  37  69  99 135 177 216 272 327 402
#     4  10  23  41  68  94 129 171 224 280 334 386
#
# _framework density 22.471935999999999
#
# number of rings (size 3 to 8) (size 9 to 14) (size 15 to 20)
#    0.000    2.000    1.250    1.875    7.000    2.500 
#    0.000    1.875    0.000    0.000    0.000    0.000 
#    0.000    0.000    0.000    0.000    0.000    0.000 
#
# Total GULP energy -198232.947724 kJ/mol
# GULP energy per Si atom -12389.559233 kJ/mol
# Density = 2.242079 g / cm^3
# Si number density = 22.471936 Si / 1000 Ang^3
#
#
#
# Elastic Constant Matrix: (Units=GPa)
#
#
# Indices 1 2 3 4 5 6 
#
# 1 60.6392 33.9260 35.7384 2.2041 -8.9448 -13.4174
# 2 33.9260 140.8246 53.0498 -2.6089 -7.7638 -7.6122
# 3 35.7384 53.0498 148.8913 16.7436 -0.9154 -2.2862
# 4 2.2041 -2.6089 16.7436 41.3644 0.6388 -6.9120
# 5 -8.9448 -7.7638 -0.9154 0.6388 35.1071 0.1589
# 6 -13.4174 -7.6122 -2.2862 -6.9120 0.1589 36.9062
#
#
#
# Elastic Compliance Matrix: (Units=1/GPa)
#
#
# Indices 1 2 3 4 5 6 
#
# 1 0.023350 -0.003201 -0.004493 0.001603 0.005060 0.007829
# 2 -0.003201 0.009009 -0.002640 0.001939 0.001069 0.000890
# 3 -0.004493 -0.002640 0.009140 -0.003999 -0.001407 -0.002355
# 4 0.001603 0.001939 -0.003999 0.026789 0.000220 0.005751
# 5 0.005060 0.001069 -0.001407 0.000220 0.029961 0.001885
# 6 0.007829 0.000890 -0.002355 0.005751 0.001885 0.031049
#
#
# Mechanical properties :
#
#
# Convention : Reuss Voigt Hill
#
# Bulk Modulus (GPa) = 48.00190 66.19819 57.10005
# Shear Modulus (GPa) = 31.86556 37.85159 34.85858
#
# Velocity S-wave (km/s) = 3.76974 4.10859 3.94281
# Velocity P-wave (km/s) = 6.35257 7.21314 6.79649
#
# Compressibility (1/GPa) = 0.02083251
#
# Stress axis : x y z
#
# Youngs Moduli (GPa) = 42.82601 110.99446 109.40714
#
# Poissons Ratio (x) = 0.35528 0.49159
# Poissons Ratio (y) = 0.13708 0.28879
# Poissons Ratio (z) = 0.19243 0.29298
#
# Static dielectric constant tensor:
#      x y z
#    x 3.854250 -0.297170 -0.259470 
#    y -0.297170 4.182060 0.161050 
#    z -0.259470 0.161050 4.551080 
# 
# 
# High freq. dielectric constant tensor:
#      x y z
#    x 1.848420 -0.019010 -0.010010 
#    y -0.019010 1.897860 0.004450 
#    z -0.010010 0.004450 1.901170 
# 
# From -- ./inp_files/402471.got.cif
#   From: 2010.06.25/outbox.cif.g09.slc.cpg/sg2_202_cif.got.tgz:402471.got - 2010.06.27 13:26:56.
