data_PCOD8001969
_publ_section_title
;
Structure prediction by ZEFSAII (Michael W. Deem and Ramdas Pophale) SiO2 
 PCOD8001969
Probable space group: P -1
;
_chemical_formula_sum "Si O2"
_cell_formula_units_Z 14
_cell_length_a 18.331076
_cell_length_b 9.161362
_cell_length_c 9.218266
_cell_angle_alpha 117.282342
_cell_angle_beta 106.461040
_cell_angle_gamma 126.384997
_cell_volume 698.533898
_symmetry_space_group_name_H-M "P -1"
_symmetry_group_IT_number 2
_symmetry_cell_setting 'triclinic'
loop_
_space_group_symop_operation_xyz
x,y,z
-x,-y,-z
loop_
_atom_site_type_symbol
_atom_site_label
_atom_site_fract_x
_atom_site_fract_y
_atom_site_fract_z
Si Si1 0.335032 0.639907 0.748287
Si Si2 0.899121 0.670148 0.742965
Si Si3 0.825524 0.437291 0.161381
Si Si4 0.322791 0.168052 0.109282
Si Si5 0.644037 0.687284 0.482073
Si Si6 0.938533 0.210015 0.352480
Si Si7 0.858824 0.353166 0.838509
O O1 0.249341 0.552708 0.521095
O O2 0.259149 0.559145 0.820268
O O3 0.325676 0.426169 0.636251
O O4 0.500000 0.000000 0.000000
O O5 0.860229 0.468767 0.752431
O O6 0.008735 0.789959 0.753681
O O7 0.000000 0.000000 0.000000
O O8 0.994975 0.750164 0.446830
O O9 0.829854 0.430156 0.987614
O O10 0.743648 0.133095 0.045184
O O11 0.480324 0.440023 0.259814
O O12 0.316300 0.254274 0.297954
O O13 0.234863 0.103893 0.903848
O O14 0.729918 0.988410 0.587701
O O15 0.000000 0.500000 0.500000
O O16 0.000000 0.500000 0.000000
#
# Coordination Sequence:
#
# PCOD8001969 Si02
#       7
#     2   2   2   2   2   2   2
#     4  11  21  39  64  91 127 163 195 247 309 367
#     4  11  23  41  65  87 117 165 210 243 307 371
#     4   9  19  35  61  88 121 155 201 248 304 347
#     4   9  16  32  58  88 117 158 204 237 297 367
#     4  10  20  34  61  88 120 160 199 246 302 359
#     4   9  17  33  60  88 113 152 200 252 289 360
#     4  11  22  41  62  90 122 157 207 258 294 358
#
# _framework density 20.041978
#
# number of rings (size 3 to 8) (size 9 to 14) (size 15 to 20)
#    0.000    2.000    1.429    4.286    0.000    0.000 
#    0.000    9.286    3.143    0.000    0.000    0.000 
#    0.000    0.000    0.000    0.000    0.000    0.000 
#
# Total GULP energy -173448.323457 kJ/mol
# GULP energy per Si atom -12389.165961 kJ/mol
# Density = 1.999636 g / cm^3
# Si number density = 20.041978 Si / 1000 Ang^3
#
#
#
# Elastic Constant Matrix: (Units=GPa)
#
#
# Indices 1 2 3 4 5 6 
#
# 1 -149.2056 -215.3913 -17.8167 60.4653 -23.6106 -151.0245
# 2 -215.3913 -149.5725 -44.0319 51.3679 -3.6553 -147.1497
# 3 -17.8167 -44.0319 108.0465 19.8013 12.1765 -50.2864
# 4 60.4653 51.3679 19.8013 3.7861 10.3112 33.4954
# 5 -23.6106 -3.6553 12.1765 10.3112 50.8136 -7.3486
# 6 -151.0245 -147.1497 -50.2864 33.4954 -7.3486 -70.2369
#
#
#
# Elastic Compliance Matrix: (Units=1/GPa)
#
#
# Indices 1 2 3 4 5 6 
#
# 1 0.012457 -0.006296 -0.005854 -0.001854 0.005543 -0.010867
# 2 -0.006296 0.011846 -0.000251 0.009185 -0.004777 -0.006222
# 3 -0.005854 -0.000251 0.011297 0.000344 -0.004694 0.005680
# 4 -0.001854 0.009185 0.000344 0.062014 -0.010671 0.015188
# 5 0.005543 -0.004777 -0.004694 -0.010671 0.024308 -0.006182
# 6 -0.010867 -0.006222 0.005680 0.015188 -0.006182 0.025987
#
#
# Mechanical properties :
#
#
# Convention : Reuss Voigt Hill
#
# Bulk Modulus (GPa) = 92.60879 -82.80126 4.90377
# Shear Modulus (GPa) = 28.35924 2.63979 15.49951
#
# Velocity S-wave (km/s) = 3.76572 1.14891 2.78394
# Velocity P-wave (km/s) = 8.07560 6.29632 3.57573
#
# Compressibility (1/GPa) = 0.01079811
#
# Stress axis : x y z
#
# Youngs Moduli (GPa) = 80.27858 84.41447 88.51670
#
# Poissons Ratio (x) = 0.53146 0.51819
# Poissons Ratio (y) = 0.50542 0.02222
# Poissons Ratio (z) = 0.46997 0.02119
#
# Static dielectric constant tensor:
#      x y z
#    x 3.972040 0.137690 0.065340 
#    y 0.137690 3.364090 -0.099630 
#    z 0.065340 -0.099630 4.265540 
# 
# 
# High freq. dielectric constant tensor:
#      x y z
#    x 1.799800 0.012110 -0.005320 
#    y 0.012110 1.739580 -0.000260 
#    z -0.005320 -0.000260 1.805890 
# 
# From -- ./inp_files/157209.got.cif
#   From: 2010.06.25/outbox.cif.g09.slc.cpg/sg2_79_cif.got.tgz:157209.got - 2010.06.27 13:26:56.
