data_PCOD8001519
_publ_section_title
;
Structure prediction by ZEFSAII (Michael W. Deem and Ramdas Pophale) SiO2 
 PCOD8001519
Probable space group: P -1
;
_chemical_formula_sum "Si O2"
_cell_formula_units_Z 16
_cell_length_a 16.570876
_cell_length_b 7.176491
_cell_length_c 18.195934
_cell_angle_alpha 116.227789
_cell_angle_beta 35.556192
_cell_angle_gamma 137.263528
_cell_volume 784.735966
_symmetry_space_group_name_H-M "P -1"
_symmetry_group_IT_number 2
_symmetry_cell_setting 'triclinic'
loop_
_space_group_symop_operation_xyz
x,y,z
-x,-y,-z
loop_
_atom_site_type_symbol
_atom_site_label
_atom_site_fract_x
_atom_site_fract_y
_atom_site_fract_z
Si Si1 0.597921 0.336173 0.199348
Si Si2 0.251966 0.711819 0.508053
Si Si3 0.222755 0.665850 0.363808
Si Si4 0.849405 0.502872 0.901733
Si Si5 0.911120 0.689351 0.735085
Si Si6 0.830810 0.962638 0.153326
Si Si7 0.697367 0.246641 0.256042
Si Si8 0.949524 0.693351 0.275839
O O1 0.628294 0.608554 0.250687
O O2 0.716767 0.333949 0.172232
O O3 0.367387 0.022383 0.310931
O O4 0.692280 0.403978 0.061418
O O5 0.264523 0.601332 0.400764
O O6 0.185866 0.487728 0.582911
O O7 0.104768 0.749324 0.610694
O O8 0.474050 0.031658 0.416520
O O9 0.240931 0.532731 0.257444
O O10 0.000000 0.500000 0.500000
O O11 0.782090 0.522254 0.876263
O O12 0.865607 0.269593 0.849357
O O13 0.074511 0.838578 0.807749
O O14 0.972666 0.990331 0.727016
O O15 0.772179 0.091178 0.168070
O O16 0.000000 0.000000 0.000000
O O17 0.831882 0.532224 0.259075
#
# Coordination Sequence:
#
# PCOD8001519 Si02
#       8
#     2   2   2   2   2   2   2   2
#     4  10  20  36  57  79 110 146 175 222 271 307
#     4   9  20  36  53  79 107 137 185 226 263 321
#     4   9  20  38  56  77 105 140 188 227 259 315
#     4   9  20  35  53  83 110 135 181 220 263 329
#     4  10  20  36  54  75 107 145 181 220 266 314
#     4   9  19  34  55  82 109 140 175 213 268 326
#     4  10  20  33  53  84 112 136 178 221 264 329
#     4  10  20  34  55  77 110 145 168 222 278 311
#
# _framework density 20.389023000000002
#
# number of rings (size 3 to 8) (size 9 to 14) (size 15 to 20)
#    0.000    2.500    0.000    1.125    0.000   11.000 
#    0.000    6.875    0.000    0.000    0.000    0.000 
#    0.000    0.000    0.000    0.000    0.000    0.000 
#
# Total GULP energy -198235.133370 kJ/mol
# GULP energy per Si atom -12389.695836 kJ/mol
# Density = 2.034262 g / cm^3
# Si number density = 20.389023 Si / 1000 Ang^3
#
#
#
# Elastic Constant Matrix: (Units=GPa)
#
#
# Indices 1 2 3 4 5 6 
#
# 1 84.8241 59.7826 27.2385 2.6968 30.5963 3.0228
# 2 59.7826 149.1970 22.9585 -4.2669 5.6429 1.1009
# 3 27.2385 22.9585 59.8545 -9.7903 22.0131 2.7242
# 4 2.6968 -4.2669 -9.7903 24.7169 0.3830 -3.2412
# 5 30.5963 5.6429 22.0131 0.3830 36.1795 -1.8481
# 6 3.0228 1.1009 2.7242 -3.2412 -1.8481 29.8700
#
#
#
# Elastic Compliance Matrix: (Units=1/GPa)
#
#
# Indices 1 2 3 4 5 6 
#
# 1 0.027008 -0.009916 -0.001705 -0.005552 -0.020405 -0.004077
# 2 -0.009916 0.010778 -0.002369 0.002081 0.008204 0.001556
# 3 -0.001705 -0.002369 0.025075 0.009682 -0.013641 -0.001820
# 4 -0.005552 0.002081 0.009682 0.045872 -0.001777 0.004470
# 5 -0.020405 0.008204 -0.013641 -0.001777 0.052244 0.006046
# 6 -0.004077 0.001556 -0.001820 0.004470 0.006046 0.034859
#
#
# Mechanical properties :
#
#
# Convention : Reuss Voigt Hill
#
# Bulk Modulus (GPa) = 28.66976 57.09275 42.88126
# Shear Modulus (GPa) = 21.23654 30.41300 25.82477
#
# Velocity S-wave (km/s) = 3.23083 3.86636 3.56280
# Velocity P-wave (km/s) = 5.29241 6.92778 6.16457
#
# Compressibility (1/GPa) = 0.03487996
#
# Stress axis : x y z
#
# Youngs Moduli (GPa) = 37.02670 92.77882 39.88020
#
# Poissons Ratio (x) = 0.92003 0.06799
# Poissons Ratio (y) = 0.36717 0.09448
# Poissons Ratio (z) = 0.06313 0.21981
#
# Static dielectric constant tensor:
#      x y z
#    x 4.192610 0.423430 0.343150 
#    y 0.423430 4.155720 0.116890 
#    z 0.343150 0.116890 3.611880 
# 
# 
# High freq. dielectric constant tensor:
#      x y z
#    x 1.802050 0.007860 0.020350 
#    y 0.007860 1.791500 -0.002240 
#    z 0.020350 -0.002240 1.781110 
# 
# From -- ./inp_files/66846.got.cif
#   From: 2010.06.25/outbox.cif.g09.slc.cpg/sg2_34_cif.got.tgz:66846.got - 2010.06.27 13:26:56.
