data_PCOD8001389
_publ_section_title
;
Structure prediction by ZEFSAII (Michael W. Deem and Ramdas Pophale) SiO2 
 PCOD8001389
Probable space group: P -1
;
_chemical_formula_sum "Si O2"
_cell_formula_units_Z 16
_cell_length_a 17.455146
_cell_length_b 10.197168
_cell_length_c 9.960578
_cell_angle_alpha 66.904053
_cell_angle_beta 55.698366
_cell_angle_gamma 36.509846
_cell_volume 864.696060
_symmetry_space_group_name_H-M "P -1"
_symmetry_group_IT_number 2
_symmetry_cell_setting 'triclinic'
loop_
_space_group_symop_operation_xyz
x,y,z
-x,-y,-z
loop_
_atom_site_type_symbol
_atom_site_label
_atom_site_fract_x
_atom_site_fract_y
_atom_site_fract_z
Si Si1 0.226799 0.219544 0.410889
Si Si2 0.408303 0.727606 0.070213
Si Si3 0.251819 0.889983 0.416701
Si Si4 0.587857 0.788905 0.905272
Si Si5 0.916714 0.114184 0.242533
Si Si6 0.874385 0.330013 0.933405
Si Si7 0.091812 0.133334 0.223514
Si Si8 0.011042 0.510557 0.260262
O O1 0.353321 0.188502 0.288554
O O2 0.123947 0.372171 0.325632
O O3 0.148956 0.326758 0.588018
O O4 0.285866 0.989342 0.431870
O O5 0.389367 0.705633 0.255461
O O6 0.248789 0.928864 0.079444
O O7 0.500000 0.500000 0.000000
O O8 0.482056 0.793389 0.951809
O O9 0.220738 0.794599 0.583850
O O10 0.108071 0.078932 0.389004
O O11 0.715229 0.561150 0.952064
O O12 0.500000 0.000000 0.000000
O O13 0.974824 0.170916 0.256576
O O14 0.856839 0.246061 0.109967
O O15 0.042005 0.849581 0.197977
O O16 0.970737 0.352907 0.875023
O O17 0.041152 0.358261 0.176137
#
# Coordination Sequence:
#
# PCOD8001389 Si02
#       8
#     2   2   2   2   2   2   2   2
#     4   9  16  29  55  74 106 128 175 231 252 309
#     4  10  20  32  50  79 109 136 176 217 265 310
#     4   9  18  33  53  79 107 138 174 226 263 313
#     4  11  19  34  54  77 103 139 187 216 254 308
#     4  11  20  36  51  82 115 137 175 213 281 323
#     4  10  22  32  56  78 110 147 170 220 265 326
#     4   9  20  32  55  78 106 139 171 232 261 314
#     4   9  16  32  49  80  99 133 177 216 274 297
#
# _framework density 18.503609999999998
#
# number of rings (size 3 to 8) (size 9 to 14) (size 15 to 20)
#    0.750    1.500    2.500    1.875    1.750    1.500 
#    0.000    0.625    0.000    0.000    0.000    3.500 
#    0.000    0.000    0.000    0.000    0.000    0.000 
#
# Total GULP energy -198300.077565 kJ/mol
# GULP energy per Si atom -12393.754848 kJ/mol
# Density = 1.846150 g / cm^3
# Si number density = 18.503610 Si / 1000 Ang^3
#
#
#
# Elastic Constant Matrix: (Units=GPa)
#
#
# Indices 1 2 3 4 5 6 
#
# 1 54.1856 23.2084 27.5428 -4.2974 -20.3132 22.5935
# 2 23.2084 99.9392 30.7699 15.0813 -4.0982 26.5810
# 3 27.5428 30.7699 110.2679 5.2988 -29.5689 8.6108
# 4 -4.2974 15.0813 5.2988 28.9839 4.7069 0.4492
# 5 -20.3132 -4.0982 -29.5689 4.7069 28.3120 -2.7226
# 6 22.5935 26.5810 8.6108 0.4492 -2.7226 32.6100
#
#
#
# Elastic Compliance Matrix: (Units=1/GPa)
#
#
# Indices 1 2 3 4 5 6 
#
# 1 0.038423 -0.002113 -0.001170 0.003584 0.023262 -0.022697
# 2 -0.002113 0.015153 -0.003245 -0.007038 -0.002517 -0.010144
# 3 -0.001170 -0.003245 0.014138 -0.003376 0.014109 0.000947
# 4 0.003584 -0.007038 -0.003376 0.040641 -0.008452 0.002880
# 5 0.023262 -0.002517 0.014109 -0.008452 0.066622 -0.012112
# 6 -0.022697 -0.010144 0.000947 0.002880 -0.012112 0.053359
#
#
# Mechanical properties :
#
#
# Convention : Reuss Voigt Hill
#
# Bulk Modulus (GPa) = 18.29539 47.49277 32.89408
# Shear Modulus (GPa) = 19.25956 30.17263 24.71610
#
# Velocity S-wave (km/s) = 3.22973 4.04249 3.65875
# Velocity P-wave (km/s) = 4.88028 6.89286 5.97196
#
# Compressibility (1/GPa) = 0.05465858
#
# Stress axis : x y z
#
# Youngs Moduli (GPa) = 26.02575 65.99462 70.72997
#
# Poissons Ratio (x) = 0.13944 0.08275
# Poissons Ratio (y) = 0.05499 0.22953
# Poissons Ratio (z) = 0.03045 0.21417
#
# Static dielectric constant tensor:
#      x y z
#    x 3.010530 0.240650 -0.265740 
#    y 0.240650 3.331780 0.069760 
#    z -0.265740 0.069760 3.498700 
# 
# 
# High freq. dielectric constant tensor:
#      x y z
#    x 1.683350 0.033200 -0.025020 
#    y 0.033200 1.709990 0.006930 
#    z -0.025020 0.006930 1.718190 
# 
# From -- ./inp_files/460407.got.cif
#   From: 2010.06.25/outbox.cif.g09.slc.cpg/sg2_231_cif.got.tgz:460407.got - 2010.06.27 13:26:56.
