data_PCOD8001133
_publ_section_title
;
Structure prediction by ZEFSAII (Michael W. Deem and Ramdas Pophale) SiO2 
 PCOD8001133
Probable space group: P -1
;
_chemical_formula_sum "Si O2"
_cell_formula_units_Z 12
_cell_length_a 13.094139
_cell_length_b 13.361404
_cell_length_c 10.455764
_cell_angle_alpha 32.063053
_cell_angle_beta 46.943711
_cell_angle_gamma 33.948105
_cell_volume 541.023971
_symmetry_space_group_name_H-M "P -1"
_symmetry_group_IT_number 2
_symmetry_cell_setting 'triclinic'
loop_
_space_group_symop_operation_xyz
x,y,z
-x,-y,-z
loop_
_atom_site_type_symbol
_atom_site_label
_atom_site_fract_x
_atom_site_fract_y
_atom_site_fract_z
Si Si1 0.343269 0.781046 0.618800
Si Si2 0.853484 0.431202 0.968342
Si Si3 0.887740 0.968098 0.031266
Si Si4 0.356498 0.563021 0.444725
Si Si5 0.315756 0.065192 0.551998
Si Si6 0.987757 0.215770 0.338893
O O1 0.523821 0.672913 0.497569
O O2 0.368598 0.822434 0.698979
O O3 0.303479 0.590851 0.846256
O O4 0.179974 0.066418 0.407892
O O5 0.788095 0.694958 0.706539
O O6 0.972200 0.243291 0.957534
O O7 0.966498 0.374265 0.064707
O O8 0.798263 0.877994 0.285174
O O9 0.728445 0.203704 0.828203
O O10 0.000000 0.000000 0.000000
O O11 0.500000 0.500000 0.500000
O O12 0.184308 0.608026 0.608092
O O13 0.500000 0.000000 0.500000
O O14 0.000000 0.000000 0.500000
#
# Coordination Sequence:
#
# PCOD8001133 Si02
#       6
#     2   2   2   2   2   2
#     4  11  23  45  70 101 140 182 231 285 348 413
#     4  11  22  44  70  95 140 179 227 288 341 412
#     4  12  24  44  73 100 137 188 232 280 355 412
#     4  12  21  38  76 103 130 183 231 284 347 412
#     4  12  28  43  64 104 140 182 235 283 345 414
#     4  10  19  41  69 102 133 178 231 280 352 410
#
# _framework density 22.180163
#
# number of rings (size 3 to 8) (size 9 to 14) (size 15 to 20)
#    0.000    0.667    8.333    1.500    2.333    2.000 
#    3.000    0.833    0.000    0.000    0.000    0.000 
#    0.000    0.000    0.000    0.000    0.000    0.000 
#
# Total GULP energy -148681.142366 kJ/mol
# GULP energy per Si atom -12390.095197 kJ/mol
# Density = 2.212968 g / cm^3
# Si number density = 22.180163 Si / 1000 Ang^3
#
#
#
# Elastic Constant Matrix: (Units=GPa)
#
#
# Indices 1 2 3 4 5 6 
#
# 1 58.8961 15.2139 18.7061 0.2101 6.2389 1.0491
# 2 15.2139 171.6328 25.3179 22.5787 -1.2736 -1.7397
# 3 18.7061 25.3179 133.7144 9.9240 12.2733 -3.0781
# 4 0.2101 22.5787 9.9240 38.5307 -2.8618 6.4160
# 5 6.2389 -1.2736 12.2733 -2.8618 22.2675 6.4315
# 6 1.0491 -1.7397 -3.0781 6.4160 6.4315 30.0582
#
#
#
# Elastic Compliance Matrix: (Units=1/GPa)
#
#
# Indices 1 2 3 4 5 6 
#
# 1 0.018426 -0.001508 -0.002021 0.001069 -0.003902 -0.000331
# 2 -0.001508 0.006588 -0.000768 -0.003802 0.000423 0.001076
# 3 -0.002021 -0.000768 0.008649 -0.002596 -0.005331 0.002607
# 4 0.001069 -0.003802 -0.002596 0.030839 0.007386 -0.008687
# 5 -0.003902 0.000423 -0.005331 0.007386 0.053806 -0.013475
# 6 -0.000331 0.001076 0.002607 -0.008687 -0.013475 0.038347
#
#
# Mechanical properties :
#
#
# Convention : Reuss Voigt Hill
#
# Bulk Modulus (GPa) = 39.89187 53.63545 46.76366
# Shear Modulus (GPa) = 28.80102 38.50495 33.65299
#
# Velocity S-wave (km/s) = 3.60738 4.17106 3.89942
# Velocity P-wave (km/s) = 5.94772 6.88703 6.43454
#
# Compressibility (1/GPa) = 0.02506776
#
# Stress axis : x y z
#
# Youngs Moduli (GPa) = 54.27130 151.80021 115.62202
#
# Poissons Ratio (x) = 0.22894 0.23367
# Poissons Ratio (y) = 0.08185 0.08883
# Poissons Ratio (z) = 0.10968 0.11662
#
# Static dielectric constant tensor:
#      x y z
#    x 4.158900 -0.434520 0.822370 
#    y -0.434520 3.921230 0.546680 
#    z 0.822370 0.546680 3.672990 
# 
# 
# High freq. dielectric constant tensor:
#      x y z
#    x 1.866800 0.002080 0.031040 
#    y 0.002080 1.890730 0.009050 
#    z 0.031040 0.009050 1.872260 
# 
# From -- ./inp_files/251229.got.cif
#   From: 2010.06.25/outbox.cif.g09.slc.cpg/sg2_126_cif.got.tgz:251229.got - 2010.06.27 13:26:56.
