data_PCOD8001661
_publ_section_title
;
Structure prediction by ZEFSAII (Michael W. Deem and Ramdas Pophale) SiO2 
 PCOD8001661
Probable space group: P -1
;
_chemical_formula_sum "Si O2"
_cell_formula_units_Z 14
_cell_length_a 6.563607
_cell_length_b 16.971315
_cell_length_c 9.521675
_cell_angle_alpha 133.516713
_cell_angle_beta 94.527698
_cell_angle_gamma 71.896306
_cell_volume 716.913591
_symmetry_space_group_name_H-M "P -1"
_symmetry_group_IT_number 2
_symmetry_cell_setting 'triclinic'
loop_
_space_group_symop_operation_xyz
x,y,z
-x,-y,-z
loop_
_atom_site_type_symbol
_atom_site_label
_atom_site_fract_x
_atom_site_fract_y
_atom_site_fract_z
Si Si1 0.753490 0.087132 0.087048
Si Si2 0.982963 0.254265 0.250876
Si Si3 0.783808 0.728914 0.293778
Si Si4 0.922128 0.452204 0.697057
Si Si5 0.490030 0.405519 0.992068
Si Si6 0.377199 0.096118 0.265352
Si Si7 0.955315 0.330140 0.035843
O O1 0.775502 0.210631 0.202883
O O2 0.617073 0.097613 0.238113
O O3 0.628067 0.035209 0.900579
O O4 0.000000 0.000000 0.000000
O O5 0.915650 0.382612 0.470308
O O6 0.035238 0.260321 0.097848
O O7 0.204392 0.171283 0.232850
O O8 0.691525 0.852027 0.520009
O O9 0.976935 0.635191 0.276521
O O10 0.582511 0.685801 0.211602
O O11 0.879385 0.743161 0.165229
O O12 0.676701 0.532659 0.817815
O O13 0.058941 0.536581 0.786726
O O14 0.715819 0.333396 0.989319
O O15 0.500000 0.500000 0.000000
#
# Coordination Sequence:
#
# PCOD8001661 Si02
#       7
#     2   2   2   2   2   2   2
#     4   9  19  37  59  84 102 131 178 224 272 321
#     4  10  22  34  56  81 110 141 177 222 271 315
#     4  10  20  34  55  78 104 146 184 215 262 315
#     4  10  20  34  51  78 109 148 186 214 255 314
#     4  11  19  31  53  75 110 147 182 218 251 304
#     4   9  20  38  61  78 104 136 178 227 267 319
#     4  11  21  35  50  81 117 143 177 220 262 312
#
# _framework density 19.528155000000002
#
# number of rings (size 3 to 8) (size 9 to 14) (size 15 to 20)
#    0.000    2.000    2.857    1.286    2.000    4.000 
#    0.000    0.714    0.000    8.571    0.000    0.000 
#    0.000    0.000    0.000    0.000    0.000    0.000 
#
# Total GULP energy -173553.988817 kJ/mol
# GULP energy per Si atom -12396.713487 kJ/mol
# Density = 1.948371 g / cm^3
# Si number density = 19.528155 Si / 1000 Ang^3
#
#
#
# Elastic Constant Matrix: (Units=GPa)
#
#
# Indices 1 2 3 4 5 6 
#
# 1 112.3760 14.9355 54.7800 -3.6394 0.5925 7.5855
# 2 14.9355 30.9001 30.6582 -17.1504 1.4636 4.7255
# 3 54.7800 30.6582 159.1836 -3.6123 -2.1749 11.0610
# 4 -3.6394 -17.1504 -3.6123 30.0746 1.9777 -1.6580
# 5 0.5925 1.4636 -2.1749 1.9777 22.5351 -0.1825
# 6 7.5855 4.7255 11.0610 -1.6580 -0.1825 22.8410
#
#
#
# Elastic Compliance Matrix: (Units=1/GPa)
#
#
# Indices 1 2 3 4 5 6 
#
# 1 0.010847 -0.001808 -0.003280 -0.000172 -0.000483 -0.001656
# 2 -0.001808 0.065102 -0.010865 0.035876 -0.008419 -0.005070
# 3 -0.003280 -0.010865 0.009520 -0.005686 0.002196 -0.001668
# 4 -0.000172 0.035876 -0.005686 0.053460 -0.007572 -0.000792
# 5 -0.000483 -0.008419 0.002196 -0.007572 0.045817 0.000655
# 6 -0.001656 -0.005070 -0.001668 -0.000792 0.000655 0.046135
#
#
# Mechanical properties :
#
#
# Convention : Reuss Voigt Hill
#
# Bulk Modulus (GPa) = 18.66925 55.91189 37.29057
# Shear Modulus (GPa) = 17.81636 28.56253 23.18944
#
# Velocity S-wave (km/s) = 3.02378 3.82859 3.44973
# Velocity P-wave (km/s) = 4.66604 6.94534 5.91648
#
# Compressibility (1/GPa) = 0.05356402
#
# Stress axis : x y z
#
# Youngs Moduli (GPa) = 92.19498 15.36044 105.03935
#
# Poissons Ratio (x) = 0.02777 0.34452
# Poissons Ratio (y) = 0.16666 1.14125
# Poissons Ratio (z) = 0.30239 0.16689
#
# Static dielectric constant tensor:
#      x y z
#    x 3.975230 0.187910 0.225770 
#    y 0.187910 3.212520 0.160340 
#    z 0.225770 0.160340 3.816070 
# 
# 
# High freq. dielectric constant tensor:
#      x y z
#    x 1.774420 0.007480 0.003060 
#    y 0.007480 1.717220 0.005800 
#    z 0.003060 0.005800 1.769720 
# 
# From -- ./inp_files/27193.got.cif
#   From: 2010.06.25/outbox.cif.g09.slc.cpg/sg2_14_cif.got.tgz:27193.got - 2010.06.27 13:26:56.
