data_PCOD8001539
_publ_section_title
;
Structure prediction by ZEFSAII (Michael W. Deem and Ramdas Pophale) SiO2 
 PCOD8001539
Probable space group: P -1
;
_chemical_formula_sum "Si O2"
_cell_formula_units_Z 14
_cell_length_a 11.511695
_cell_length_b 14.001542
_cell_length_c 14.060201
_cell_angle_alpha 20.505589
_cell_angle_beta 66.444118
_cell_angle_gamma 69.914331
_cell_volume 724.334118
_symmetry_space_group_name_H-M "P -1"
_symmetry_group_IT_number 2
_symmetry_cell_setting 'triclinic'
loop_
_space_group_symop_operation_xyz
x,y,z
-x,-y,-z
loop_
_atom_site_type_symbol
_atom_site_label
_atom_site_fract_x
_atom_site_fract_y
_atom_site_fract_z
Si Si1 0.857507 0.522209 0.992215
Si Si2 0.386946 0.647297 0.294387
Si Si3 0.781429 0.083077 0.562817
Si Si4 0.881771 0.267863 0.763809
Si Si5 0.554512 0.184577 0.677335
Si Si6 0.983977 0.077551 0.091247
Si Si7 0.981137 0.645943 0.650942
O O1 0.862184 0.563491 0.838052
O O2 0.792599 0.765712 0.836774
O O3 0.778896 0.241428 0.314530
O O4 0.000000 0.500000 0.000000
O O5 0.249710 0.607061 0.327500
O O6 0.454556 0.384114 0.485798
O O7 0.370484 0.672753 0.389980
O O8 0.474436 0.905765 0.988729
O O9 0.652498 0.123782 0.620708
O O10 0.901486 0.193261 0.484032
O O11 0.000000 0.500000 0.500000
O O12 0.876904 0.128965 0.999591
O O13 0.895618 0.031492 0.900959
O O14 0.930910 0.845080 0.401060
O O15 0.029838 0.367366 0.854110
#
# Coordination Sequence:
#
# PCOD8001539 Si02
#       7
#     2   2   2   2   2   2   2
#     4  10  20  33  54  83 118 150 184 235 290 338
#     4  10  23  38  56  81 118 146 194 233 266 345
#     4  11  20  35  56  83 119 151 190 228 285 347
#     4  11  24  40  57  86 118 149 193 238 285 328
#     4  10  22  37  57  84 110 159 186 222 285 329
#     4  11  23  34  56  83 113 151 185 221 303 328
#     4  11  20  35  54  85 117 149 183 233 287 349
#
# _framework density 19.328097
#
# number of rings (size 3 to 8) (size 9 to 14) (size 15 to 20)
#    0.000    1.429    1.429    6.000    4.000    2.286 
#    0.000    0.000    0.000    0.000    0.000   20.000 
#    0.000    0.000    0.000    0.000    0.000    0.000 
#
# Total GULP energy -173570.471080 kJ/mol
# GULP energy per Si atom -12397.890791 kJ/mol
# Density = 1.928411 g / cm^3
# Si number density = 19.328097 Si / 1000 Ang^3
#
#
#
# Elastic Constant Matrix: (Units=GPa)
#
#
# Indices 1 2 3 4 5 6 
#
# 1 88.6641 37.7438 33.7875 4.0574 20.5387 -16.8163
# 2 37.7438 98.0405 39.3560 1.3792 17.7473 -10.9668
# 3 33.7875 39.3560 119.9356 -1.0271 28.2066 -4.7862
# 4 4.0574 1.3792 -1.0271 51.2980 4.6223 7.3810
# 5 20.5387 17.7473 28.2066 4.6223 30.7672 -2.3728
# 6 -16.8163 -10.9668 -4.7862 7.3810 -2.3728 28.3674
#
#
#
# Elastic Compliance Matrix: (Units=1/GPa)
#
#
# Indices 1 2 3 4 5 6 
#
# 1 0.016577 -0.003605 -0.001629 -0.001815 -0.006598 0.008079
# 2 -0.003605 0.013416 -0.002665 -0.000240 -0.002665 0.002440
# 3 -0.001629 -0.002665 0.011587 0.001334 -0.008282 -0.001081
# 4 -0.001815 -0.000240 0.001334 0.020952 -0.003537 -0.006691
# 5 -0.006598 -0.002665 -0.008282 -0.003537 0.046450 -0.001534
# 6 0.008079 0.002440 -0.001081 -0.006691 -0.001534 0.042415
#
#
# Mechanical properties :
#
#
# Convention : Reuss Voigt Hill
#
# Bulk Modulus (GPa) = 38.78271 58.71277 48.74774
# Shear Modulus (GPa) = 28.44328 35.13670 31.78999
#
# Velocity S-wave (km/s) = 3.84031 4.26832 4.05996
# Velocity P-wave (km/s) = 6.30658 7.39826 6.87413
#
# Compressibility (1/GPa) = 0.02578469
#
# Stress axis : x y z
#
# Youngs Moduli (GPa) = 60.32308 74.53780 86.30222
#
# Poissons Ratio (x) = 0.26867 0.14055
# Poissons Ratio (y) = 0.21744 0.22998
# Poissons Ratio (z) = 0.09824 0.19863
#
# Static dielectric constant tensor:
#      x y z
#    x 3.135790 0.114810 0.289810 
#    y 0.114810 3.913710 0.208560 
#    z 0.289810 0.208560 4.033340 
# 
# 
# High freq. dielectric constant tensor:
#      x y z
#    x 1.699860 -0.000110 0.020590 
#    y -0.000110 1.758020 -0.003870 
#    z 0.020590 -0.003870 1.780710 
# 
# From -- ./inp_files/67289.got.cif
#   From: 2010.06.25/outbox.cif.g09.slc.cpg/sg2_34_cif.got.tgz:67289.got - 2010.06.27 13:26:56.
