data_PCOD8001630
_publ_section_title
;
Structure prediction by ZEFSAII (Michael W. Deem and Ramdas Pophale) SiO2 
 PCOD8001630
Probable space group: P -1
;
_chemical_formula_sum "Si O2"
_cell_formula_units_Z 14
_cell_length_a 12.271501
_cell_length_b 11.726567
_cell_length_c 11.360020
_cell_angle_alpha 130.874658
_cell_angle_beta 90.745313
_cell_angle_gamma 52.355829
_cell_volume 747.270019
_symmetry_space_group_name_H-M "P -1"
_symmetry_group_IT_number 2
_symmetry_cell_setting 'triclinic'
loop_
_space_group_symop_operation_xyz
x,y,z
-x,-y,-z
loop_
_atom_site_type_symbol
_atom_site_label
_atom_site_fract_x
_atom_site_fract_y
_atom_site_fract_z
Si Si1 0.821953 0.361464 0.151949
Si Si2 0.215052 0.411742 0.902528
Si Si3 0.038823 0.526059 0.205577
Si Si4 0.122006 0.248672 0.402661
Si Si5 0.426967 0.125190 0.376891
Si Si6 0.196901 0.950015 0.004620
Si Si7 0.606878 0.011969 0.077019
O O1 0.796449 0.414497 0.046688
O O2 0.711766 0.620386 0.381739
O O3 0.738883 0.292902 0.141852
O O4 0.032507 0.138562 0.037031
O O5 0.101411 0.419332 0.829867
O O6 0.414426 0.121238 0.709482
O O7 0.137888 0.524230 0.109744
O O8 0.943635 0.718023 0.442533
O O9 0.185838 0.260782 0.090943
O O10 0.321455 0.099226 0.304292
O O11 0.000000 0.500000 0.500000
O O12 0.126825 0.087024 0.222428
O O13 0.510491 0.140501 0.287470
O O14 0.374129 0.848202 0.895057
O O15 0.500000 0.000000 0.000000
#
# Coordination Sequence:
#
# PCOD8001630 Si02
#       7
#     2   2   2   2   2   2   2
#     4  11  22  40  57  86 118 153 183 236 290 342
#     4  10  20  37  57  86 113 150 192 237 272 344
#     4  10  20  33  60  85 111 144 199 233 277 325
#     4  12  18  36  59  89 108 147 196 236 277 338
#     4  11  21  32  64  85 108 150 199 232 276 337
#     4  11  23  37  60  85 120 148 185 237 298 331
#     4  11  19  34  58  90 111 142 190 245 279 327
#
# _framework density 18.734860999999999
#
# number of rings (size 3 to 8) (size 9 to 14) (size 15 to 20)
#    0.000    1.143    7.143    0.429    0.000    0.571 
#    0.000    1.429    0.000    0.000    0.000    0.000 
#    0.000    0.000    0.000    0.000    0.000    0.000 
#
# Total GULP energy -173513.382924 kJ/mol
# GULP energy per Si atom -12393.813066 kJ/mol
# Density = 1.869222 g / cm^3
# Si number density = 18.734861 Si / 1000 Ang^3
#
#
#
# Elastic Constant Matrix: (Units=GPa)
#
#
# Indices 1 2 3 4 5 6 
#
# 1 97.1804 39.9929 9.5151 10.2233 -2.8993 13.8818
# 2 39.9929 101.3611 23.6216 2.6407 -1.2341 11.8886
# 3 9.5151 23.6216 44.1833 -4.5190 -7.4143 11.6133
# 4 10.2233 2.6407 -4.5190 35.3906 0.2235 -10.9421
# 5 -2.8993 -1.2341 -7.4143 0.2235 25.8932 -2.2584
# 6 13.8818 11.8886 11.6133 -10.9421 -2.2584 37.6335
#
#
#
# Elastic Compliance Matrix: (Units=1/GPa)
#
#
# Indices 1 2 3 4 5 6 
#
# 1 0.013453 -0.004714 0.000617 -0.005027 0.001060 -0.005062
# 2 -0.004714 0.013269 -0.006221 -0.000669 -0.001744 -0.000832
# 3 0.000617 -0.006221 0.028906 0.002030 0.007496 -0.006142
# 4 -0.005027 -0.000669 0.002030 0.033480 0.000676 0.011214
# 5 0.001060 -0.001744 0.007496 0.000676 0.040840 0.000494
# 6 -0.005062 -0.000832 -0.006142 0.011214 0.000494 0.033888
#
#
# Mechanical properties :
#
#
# Convention : Reuss Voigt Hill
#
# Bulk Modulus (GPa) = 28.57749 43.22045 35.89897
# Shear Modulus (GPa) = 25.49232 31.08983 28.29107
#
# Velocity S-wave (km/s) = 3.69275 4.07807 3.89019
# Velocity P-wave (km/s) = 5.78521 6.73007 6.27545
#
# Compressibility (1/GPa) = 0.03499257
#
# Stress axis : x y z
#
# Youngs Moduli (GPa) = 74.33059 75.36098 34.59470
#
# Poissons Ratio (x) = 0.35529 -0.02136
# Poissons Ratio (y) = 0.35043 0.21522
# Poissons Ratio (z) = -0.04589 0.46884
#
# Static dielectric constant tensor:
#      x y z
#    x 3.455160 0.239020 -0.346080 
#    y 0.239020 3.430870 -0.144820 
#    z -0.346080 -0.144820 3.360420 
# 
# 
# High freq. dielectric constant tensor:
#      x y z
#    x 1.714290 -0.005930 -0.029340 
#    y -0.005930 1.738530 -0.016330 
#    z -0.029340 -0.016330 1.710940 
# 
# From -- ./inp_files/155257.got.cif
#   From: 2010.06.25/outbox.cif.g09.slc.cpg/sg2_78_cif.got.tgz:155257.got - 2010.06.27 13:26:56.
