data_PCOD8001555
_publ_section_title
;
Structure prediction by ZEFSAII (Michael W. Deem and Ramdas Pophale) SiO2 
 PCOD8001555
Probable space group: P -1
;
_chemical_formula_sum "Si O2"
_cell_formula_units_Z 16
_cell_length_a 5.011586
_cell_length_b 26.764999
_cell_length_c 16.671665
_cell_angle_alpha 25.051746
_cell_angle_beta 73.852633
_cell_angle_gamma 63.803565
_cell_volume 804.800340
_symmetry_space_group_name_H-M "P -1"
_symmetry_group_IT_number 2
_symmetry_cell_setting 'triclinic'
loop_
_space_group_symop_operation_xyz
x,y,z
-x,-y,-z
loop_
_atom_site_type_symbol
_atom_site_label
_atom_site_fract_x
_atom_site_fract_y
_atom_site_fract_z
Si Si1 0.549975 0.623317 0.408699
Si Si2 0.766433 0.472679 0.111977
Si Si3 0.706072 0.994248 0.414556
Si Si4 0.147770 0.693938 0.796918
Si Si5 0.074273 0.676773 0.236692
Si Si6 0.598228 0.466640 0.300020
Si Si7 0.883424 0.858677 0.837205
Si Si8 0.927159 0.626313 0.059401
O O1 0.325321 0.687762 0.257966
O O2 0.762506 0.463064 0.620253
O O3 0.344592 0.646830 0.473001
O O4 0.782608 0.688347 0.297826
O O5 0.743831 0.358099 0.226982
O O6 0.850395 0.413039 0.282555
O O7 0.459620 0.616252 0.937677
O O8 0.000000 0.500000 0.000000
O O9 0.477465 0.024491 0.311696
O O10 0.851416 0.095687 0.268809
O O11 0.500000 0.000000 0.500000
O O12 0.007898 0.852100 0.581306
O O13 0.912620 0.650273 0.928277
O O14 0.943112 0.797366 0.009806
O O15 0.254864 0.507522 0.234763
O O16 0.651366 0.586436 0.161985
O O17 0.882382 0.759152 0.913498
#
# Coordination Sequence:
#
# PCOD8001555 Si02
#       8
#     2   2   2   2   2   2   2   2
#     4  10  20  33  55  82 113 149 191 245 284 356
#     4  10  21  39  61  83 120 155 191 251 292 340
#     4  12  26  38  59  87 121 162 202 234 279 357
#     4  10  23  38  56  86 117 158 199 237 288 342
#     4  10  21  35  53  80 115 154 191 233 297 344
#     4  11  21  34  57  88 113 155 189 238 299 342
#     4  12  24  38  55  84 120 167 191 233 288 348
#     4  11  21  33  56  80 123 152 193 228 281 348
#
# _framework density 19.880707000000001
#
# number of rings (size 3 to 8) (size 9 to 14) (size 15 to 20)
#    0.000    1.250    3.750    2.625    5.250    0.000 
#    0.000    0.000    0.000    0.000    0.000    5.250 
#    0.000    0.000    0.000    0.000    0.000    0.000 
#
# Total GULP energy -198211.415719 kJ/mol
# GULP energy per Si atom -12388.213482 kJ/mol
# Density = 1.983546 g / cm^3
# Si number density = 19.880707 Si / 1000 Ang^3
#
#
#
# Elastic Constant Matrix: (Units=GPa)
#
#
# Indices 1 2 3 4 5 6 
#
# 1 102.1784 20.7886 35.7971 11.4038 -10.9738 -3.8841
# 2 20.7886 92.7590 49.3256 20.4579 0.8446 -7.2518
# 3 35.7971 49.3256 94.3261 17.3677 4.3070 -2.9909
# 4 11.4038 20.4579 17.3677 32.7501 -4.4461 -0.7932
# 5 -10.9738 0.8446 4.3070 -4.4461 30.2945 10.3203
# 6 -3.8841 -7.2518 -2.9909 -0.7932 10.3203 23.5014
#
#
#
# Elastic Compliance Matrix: (Units=1/GPa)
#
#
# Indices 1 2 3 4 5 6 
#
# 1 0.012056 -0.000179 -0.004570 -0.000980 0.005206 -0.000963
# 2 -0.000179 0.016434 -0.007051 -0.006639 -0.002152 0.004865
# 3 -0.004570 -0.007051 0.016947 -0.003615 -0.004813 0.001217
# 4 -0.000980 -0.006639 -0.003615 0.037844 0.007494 -0.004684
# 5 0.005206 -0.002152 -0.004813 0.007494 0.043268 -0.019164
# 6 -0.000963 0.004865 0.001217 -0.004684 -0.019164 0.052305
#
#
# Mechanical properties :
#
#
# Convention : Reuss Voigt Hill
#
# Bulk Modulus (GPa) = 45.79151 55.67625 50.73388
# Shear Modulus (GPa) = 23.83985 29.53265 26.68625
#
# Velocity S-wave (km/s) = 3.46662 3.85839 3.66774
# Velocity P-wave (km/s) = 6.25352 6.92210 6.59629
#
# Compressibility (1/GPa) = 0.02183811
#
# Stress axis : x y z
#
# Youngs Moduli (GPa) = 82.94647 60.84796 59.00691
#
# Poissons Ratio (x) = 0.01086 0.26965
# Poissons Ratio (y) = 0.01481 0.41608
# Poissons Ratio (z) = 0.37905 0.42906
#
# Static dielectric constant tensor:
#      x y z
#    x 4.007170 1.027500 0.042020 
#    y 1.027500 12.441600 -0.090530 
#    z 0.042020 -0.090530 3.533870 
# 
# 
# High freq. dielectric constant tensor:
#      x y z
#    x 1.795420 -0.002730 0.001050 
#    y -0.002730 1.751660 0.036480 
#    z 0.001050 0.036480 1.742720 
# 
# From -- ./inp_files/551502.got.cif
#   From: 2010.06.25/outbox.cif.g09.slc.cpg/sg2_276_cif.got.tgz:551502.got - 2010.06.27 13:26:56.
