data_PCOD8001768
_publ_section_title
;
Structure prediction by ZEFSAII (Michael W. Deem and Ramdas Pophale) SiO2 
 PCOD8001768
Probable space group: P -1
;
_chemical_formula_sum "Si O2"
_cell_formula_units_Z 16
_cell_length_a 6.657606
_cell_length_b 18.389169
_cell_length_c 11.596353
_cell_angle_alpha 59.033990
_cell_angle_beta 74.251329
_cell_angle_gamma 115.308032
_cell_volume 851.178740
_symmetry_space_group_name_H-M "P -1"
_symmetry_group_IT_number 2
_symmetry_cell_setting 'triclinic'
loop_
_space_group_symop_operation_xyz
x,y,z
-x,-y,-z
loop_
_atom_site_type_symbol
_atom_site_label
_atom_site_fract_x
_atom_site_fract_y
_atom_site_fract_z
Si Si1 0.057207 0.918209 0.174058
Si Si2 0.790110 0.204112 0.628994
Si Si3 0.378195 0.175732 0.864202
Si Si4 0.512161 0.240798 0.251354
Si Si5 0.680277 0.924068 0.384472
Si Si6 0.854699 0.633444 0.953224
Si Si7 0.809090 0.810448 0.886413
Si Si8 0.664435 0.628717 0.737608
O O1 0.225139 0.883210 0.218428
O O2 0.853797 0.836745 0.164378
O O3 0.867324 0.900301 0.323364
O O4 0.282152 0.051096 0.989429
O O5 0.679298 0.253093 0.683829
O O6 0.591433 0.131418 0.608076
O O7 0.113543 0.313356 0.449825
O O8 0.401663 0.226228 0.943678
O O9 0.428059 0.134429 0.425024
O O10 0.331532 0.188072 0.205632
O O11 0.448909 0.308062 0.277605
O O12 0.848089 0.330779 0.095219
O O13 0.873131 0.062334 0.250960
O O14 0.839616 0.718519 0.951000
O O15 0.821994 0.636040 0.819471
O O16 0.602347 0.504390 0.147806
#
# Coordination Sequence:
#
# PCOD8001768 Si02
#       8
#     2   2   2   2   2   2   2   2
#     4   9  18  34  55  81 115 146 188 231 268 326
#     4  11  19  34  62  86 108 148 185 238 279 316
#     4   9  20  35  53  83 114 150 185 223 276 335
#     4  11  20  37  58  83 111 150 184 231 283 327
#     4  10  20  34  55  90 116 139 185 229 282 338
#     4  10  22  39  57  79 114 152 186 232 277 327
#     4  10  23  37  53  83 122 150 178 221 280 351
#     4  10  21  38  59  85 107 141 201 237 267 323
#
# _framework density 18.797461999999999
#
# number of rings (size 3 to 8) (size 9 to 14) (size 15 to 20)
#    0.000    2.000    2.500    1.875    0.000    3.500 
#    0.000    0.625    0.000    1.500    0.000    0.000 
#    0.000    0.000    0.000    0.000    0.000    0.000 
#
# Total GULP energy -198426.049520 kJ/mol
# GULP energy per Si atom -12401.628095 kJ/mol
# Density = 1.875468 g / cm^3
# Si number density = 18.797462 Si / 1000 Ang^3
#
#
#
# Elastic Constant Matrix: (Units=GPa)
#
#
# Indices 1 2 3 4 5 6 
#
# 1 96.4580 29.4301 44.9701 6.2940 -5.4566 4.5924
# 2 29.4301 90.5692 57.0107 5.5870 -4.1077 -2.3588
# 3 44.9701 57.0107 99.3027 5.9839 -16.1666 0.5728
# 4 6.2940 5.5870 5.9839 28.2215 1.2001 -1.6376
# 5 -5.4566 -4.1077 -16.1666 1.2001 30.6397 2.9146
# 6 4.5924 -2.3588 0.5728 -1.6376 2.9146 16.4076
#
#
#
# Elastic Compliance Matrix: (Units=1/GPa)
#
#
# Indices 1 2 3 4 5 6 
#
# 1 0.013500 -0.000939 -0.005465 -0.001885 -0.000162 -0.003882
# 2 -0.000939 0.017871 -0.010394 -0.000754 -0.003584 0.003756
# 3 -0.005465 -0.010394 0.019991 -0.001456 0.008458 -0.002310
# 4 -0.001885 -0.000754 -0.001456 0.036715 -0.003088 0.004683
# 5 -0.000162 -0.003584 0.008458 -0.003088 0.037447 -0.007725
# 6 -0.003882 0.003756 -0.002310 0.004683 -0.007725 0.064494
#
#
# Mechanical properties :
#
#
# Convention : Reuss Voigt Hill
#
# Bulk Modulus (GPa) = 56.28997 61.01687 58.65342
# Shear Modulus (GPa) = 21.78300 25.38171 23.58236
#
# Velocity S-wave (km/s) = 3.40785 3.67859 3.54581
# Velocity P-wave (km/s) = 6.74501 7.11149 6.93067
#
# Compressibility (1/GPa) = 0.01776515
#
# Stress axis : x y z
#
# Youngs Moduli (GPa) = 74.07301 55.95591 50.02332
#
# Poissons Ratio (x) = 0.05254 0.27338
# Poissons Ratio (y) = 0.06955 0.51997
# Poissons Ratio (z) = 0.40481 0.58163
#
# Static dielectric constant tensor:
#      x y z
#    x 3.412650 0.057240 -0.046170 
#    y 0.057240 3.234040 0.089920 
#    z -0.046170 0.089920 3.503440 
# 
# 
# High freq. dielectric constant tensor:
#      x y z
#    x 1.737760 0.002270 -0.005340 
#    y 0.002270 1.702650 0.012030 
#    z -0.005340 0.012030 1.732790 
# 
# From -- ./inp_files/66214.got.cif
#   From: 2010.06.25/outbox.cif.g09.slc.cpg/sg2_34_cif.got.tgz:66214.got - 2010.06.27 13:26:56.
