data_PCOD8001991
_publ_section_title
;
Structure prediction by ZEFSAII (Michael W. Deem and Ramdas Pophale) SiO2 
 PCOD8001991
Probable space group: P -1
;
_chemical_formula_sum "Si O2"
_cell_formula_units_Z 14
_cell_length_a 9.066602
_cell_length_b 11.332451
_cell_length_c 11.488607
_cell_angle_alpha 42.550122
_cell_angle_beta 72.621097
_cell_angle_gamma 93.921580
_cell_volume 681.483954
_symmetry_space_group_name_H-M "P -1"
_symmetry_group_IT_number 2
_symmetry_cell_setting 'triclinic'
loop_
_space_group_symop_operation_xyz
x,y,z
-x,-y,-z
loop_
_atom_site_type_symbol
_atom_site_label
_atom_site_fract_x
_atom_site_fract_y
_atom_site_fract_z
Si Si1 0.731149 0.022870 0.704495
Si Si2 0.950753 0.591662 0.714720
Si Si3 0.789101 0.584386 0.180595
Si Si4 0.684112 0.631793 0.917041
Si Si5 0.166546 0.657766 0.286194
Si Si6 0.765983 0.929352 0.015531
Si Si7 0.432268 0.734808 0.370360
O O1 0.596036 0.111927 0.648452
O O2 0.926163 0.200143 0.524842
O O3 0.710512 0.854681 0.740955
O O4 0.678245 0.930565 0.912059
O O5 0.841866 0.622387 0.819862
O O6 0.812866 0.440511 0.766486
O O7 0.067930 0.493018 0.808214
O O8 0.875784 0.808392 0.048286
O O9 0.636817 0.464711 0.396055
O O10 0.695118 0.566036 0.093108
O O11 0.500000 0.500000 0.000000
O O12 0.329865 0.710219 0.291350
O O13 0.000000 0.500000 0.500000
O O14 0.130488 0.845835 0.131732
O O15 0.630832 0.814705 0.232640
#
# Coordination Sequence:
#
# PCOD8001991 Si02
#       7
#     2   2   2   2   2   2   2
#     4   9  19  38  60  87 117 160 197 237 302 351
#     4  11  22  40  63  85 125 160 191 249 293 360
#     4  10  22  41  59  87 125 160 195 242 305 346
#     4  11  25  40  65  86 111 157 216 248 287 350
#     4  11  19  36  62  93 120 154 201 233 298 365
#     4  10  20  34  62  91 124 155 190 243 299 356
#     4  10  20  37  63  88 126 156 189 251 296 349
#
# _framework density 20.543405
#
# number of rings (size 3 to 8) (size 9 to 14) (size 15 to 20)
#    0.000    1.714    4.286    3.000    6.000    0.571 
#    0.000    2.857    3.143    0.000    0.000    0.000 
#    0.000    0.000    0.000    0.000    0.000    0.000 
#
# Total GULP energy -173439.562043 kJ/mol
# GULP energy per Si atom -12388.540146 kJ/mol
# Density = 2.049665 g / cm^3
# Si number density = 20.543405 Si / 1000 Ang^3
#
#
#
# Elastic Constant Matrix: (Units=GPa)
#
#
# Indices 1 2 3 4 5 6 
#
# 1 65.9575 41.9225 26.4197 0.2166 -0.9945 -2.5443
# 2 41.9225 153.1068 61.0819 -25.5197 1.7932 -10.8206
# 3 26.4197 61.0819 100.3263 -3.5573 1.4363 -14.0583
# 4 0.2166 -25.5197 -3.5573 37.4537 -3.9912 1.8839
# 5 -0.9945 1.7932 1.4363 -3.9912 27.2126 5.7554
# 6 -2.5443 -10.8206 -14.0583 1.8839 5.7554 29.3447
#
#
#
# Elastic Compliance Matrix: (Units=1/GPa)
#
#
# Indices 1 2 3 4 5 6 
#
# 1 0.019280 -0.005058 -0.002313 -0.003620 0.000892 -0.001244
# 2 -0.005058 0.011211 -0.005141 0.007169 0.000246 0.000724
# 3 -0.002313 -0.005141 0.014395 -0.002608 -0.002022 0.005364
# 4 -0.003620 0.007169 -0.002608 0.031944 0.004615 -0.001875
# 5 0.000892 0.000246 -0.002022 0.004615 0.039415 -0.008827
# 6 -0.001244 0.000724 0.005364 -0.001875 -0.008827 0.038658
#
#
# Mechanical properties :
#
#
# Convention : Reuss Voigt Hill
#
# Bulk Modulus (GPa) = 50.35092 64.24876 57.29984
# Shear Modulus (GPa) = 26.80276 31.46663 29.13469
#
# Velocity S-wave (km/s) = 3.61597 3.91796 3.76999
# Velocity P-wave (km/s) = 6.48046 7.19790 6.84858
#
# Compressibility (1/GPa) = 0.01986061
#
# Stress axis : x y z
#
# Youngs Moduli (GPa) = 51.86705 89.19999 69.46864
#
# Poissons Ratio (x) = 0.45118 0.16069
# Poissons Ratio (y) = 0.26235 0.35717
# Poissons Ratio (z) = 0.11998 0.45861
#
# Static dielectric constant tensor:
#      x y z
#    x 1.366190 -2.338370 0.691550 
#    y -2.338370 1.903970 0.304170 
#    z 0.691550 0.304170 3.796180 
# 
# 
# High freq. dielectric constant tensor:
#      x y z
#    x 1.768220 -0.022120 0.006840 
#    y -0.022120 1.817540 -0.013020 
#    z 0.006840 -0.013020 1.811350 
# 
# From -- ./inp_files/181926.got.cif
#   From: 2010.06.25/outbox.cif.g09.slc.cpg/sg2_91_cif.got.tgz:181926.got - 2010.06.27 13:26:56.
