data_PCOD8001030
_publ_section_title
;
Structure prediction by ZEFSAII (Michael W. Deem and Ramdas Pophale) SiO2 
 PCOD8001030
Probable space group: P -1
;
_chemical_formula_sum "Si O2"
_cell_formula_units_Z 16
_cell_length_a 9.317737
_cell_length_b 13.883007
_cell_length_c 14.132545
_cell_angle_alpha 151.916370
_cell_angle_beta 117.567668
_cell_angle_gamma 70.055760
_cell_volume 752.956593
_symmetry_space_group_name_H-M "P -1"
_symmetry_group_IT_number 2
_symmetry_cell_setting 'triclinic'
loop_
_space_group_symop_operation_xyz
x,y,z
-x,-y,-z
loop_
_atom_site_type_symbol
_atom_site_label
_atom_site_fract_x
_atom_site_fract_y
_atom_site_fract_z
Si Si1 0.032422 0.767551 0.315461
Si Si2 0.476897 0.732125 0.701711
Si Si3 0.653869 0.056630 0.334983
Si Si4 0.252630 0.902148 0.915384
Si Si5 0.072310 0.540851 0.830560
Si Si6 0.298208 0.924243 0.165754
Si Si7 0.897883 0.805686 0.119017
Si Si8 0.050523 0.181861 0.379899
O O1 0.908884 0.625009 0.225169
O O2 0.993708 0.689467 0.127902
O O3 0.220879 0.787789 0.426173
O O4 0.000000 0.000000 0.500000
O O5 0.500000 0.500000 0.500000
O O6 0.363627 0.743500 0.768678
O O7 0.387098 0.809786 0.650739
O O8 0.656689 0.868149 0.886700
O O9 0.493871 0.975910 0.278794
O O10 0.719299 0.846404 0.135209
O O11 0.070694 0.864700 0.785980
O O12 0.238747 0.868132 0.992906
O O13 0.058030 0.420385 0.621400
O O14 0.229573 0.723832 0.035158
O O15 0.911024 0.654083 0.901177
O O16 0.226134 0.128310 0.355027
O O17 0.986222 0.039754 0.326982
#
# Coordination Sequence:
#
# PCOD8001030 Si02
#       8
#     2   2   2   2   2   2   2   2
#     4  10  19  40  72  93 120 161 217 265 311 376
#     4  10  21  37  64  96 129 163 216 262 309 369
#     4  10  20  44  63  97 128 164 205 273 315 357
#     4  10  21  40  57  93 129 166 214 256 313 366
#     4  11  22  40  64  93 121 168 211 254 320 380
#     4  10  25  39  60  90 137 162 205 262 319 373
#     4  10  21  40  70  92 125 158 218 267 306 375
#     4  11  21  41  61  90 127 171 208 258 309 378
#
# _framework density 21.249566999999999
#
# number of rings (size 3 to 8) (size 9 to 14) (size 15 to 20)
#    0.000    1.750    3.750    0.750    0.000    6.500 
#    2.250    5.000    0.000    0.000    0.000    0.000 
#    0.000    0.000    0.000    0.000    0.000    0.000 
#
# Total GULP energy -198272.996330 kJ/mol
# GULP energy per Si atom -12392.062271 kJ/mol
# Density = 2.120120 g / cm^3
# Si number density = 21.249567 Si / 1000 Ang^3
#
#
#
# Elastic Constant Matrix: (Units=GPa)
#
#
# Indices 1 2 3 4 5 6 
#
# 1 146.5266 35.2260 61.6152 7.9642 -5.1958 -11.0163
# 2 35.2260 81.3627 34.7252 3.9007 -0.5270 -2.0694
# 3 61.6152 34.7252 97.9917 9.4304 -16.3084 -16.3576
# 4 7.9642 3.9007 9.4304 37.6527 -7.6185 -0.4192
# 5 -5.1958 -0.5270 -16.3084 -7.6185 33.3855 6.1874
# 6 -11.0163 -2.0694 -16.3576 -0.4192 6.1874 28.4539
#
#
#
# Elastic Compliance Matrix: (Units=1/GPa)
#
#
# Indices 1 2 3 4 5 6 
#
# 1 0.009590 -0.001780 -0.005449 -0.000778 -0.001517 0.000770
# 2 -0.001780 0.015097 -0.004871 -0.000426 -0.002158 -0.001928
# 3 -0.005449 -0.004871 0.017568 -0.001425 0.006169 0.006273
# 4 -0.000778 -0.000426 -0.001425 0.028319 0.006017 -0.002043
# 5 -0.001517 -0.002158 0.006169 0.006017 0.034942 -0.004707
# 6 0.000770 -0.001928 0.006273 -0.002043 -0.004707 0.039902
#
#
# Mechanical properties :
#
#
# Convention : Reuss Voigt Hill
#
# Bulk Modulus (GPa) = 55.38013 65.44597 60.41305
# Shear Modulus (GPa) = 28.46793 32.85272 30.66033
#
# Velocity S-wave (km/s) = 3.66415 3.93624 3.80263
# Velocity P-wave (km/s) = 6.63474 7.17804 6.91173
#
# Compressibility (1/GPa) = 0.01805702
#
# Stress axis : x y z
#
# Youngs Moduli (GPa) = 104.27522 66.23618 56.92131
#
# Poissons Ratio (x) = 0.11787 0.31014
# Poissons Ratio (y) = 0.18556 0.27727
# Poissons Ratio (z) = 0.56815 0.32265
#
# Static dielectric constant tensor:
#      x y z
#    x 3.943870 0.148430 -0.240430 
#    y 0.148430 4.222460 -0.401010 
#    z -0.240430 -0.401010 4.259730 
# 
# 
# High freq. dielectric constant tensor:
#      x y z
#    x 1.829620 0.007770 -0.019440 
#    y 0.007770 1.825660 0.006680 
#    z -0.019440 0.006680 1.830580 
# 
# From -- ./inp_files/505949.got.cif
#   From: 2010.06.25/outbox.cif.g09.slc.cpg/sg2_253_cif.got.tgz:505949.got - 2010.06.27 13:26:56.
