data_PCOD8001685
_publ_section_title
;
Structure prediction by ZEFSAII (Michael W. Deem and Ramdas Pophale) SiO2 
 PCOD8001685
Probable space group: P -1
;
_chemical_formula_sum "Si O2"
_cell_formula_units_Z 12
_cell_length_a 8.912554
_cell_length_b 9.394081
_cell_length_c 13.225997
_cell_angle_alpha 135.257285
_cell_angle_beta 63.750983
_cell_angle_gamma 128.512145
_cell_volume 609.932893
_symmetry_space_group_name_H-M "P -1"
_symmetry_group_IT_number 2
_symmetry_cell_setting 'triclinic'
loop_
_space_group_symop_operation_xyz
x,y,z
-x,-y,-z
loop_
_atom_site_type_symbol
_atom_site_label
_atom_site_fract_x
_atom_site_fract_y
_atom_site_fract_z
Si Si1 0.926341 0.654323 0.045690
Si Si2 0.345641 0.205296 0.683804
Si Si3 0.426341 0.562944 0.454311
Si Si4 0.655969 0.519041 0.885736
Si Si5 0.154361 0.162312 0.183804
Si Si6 0.844033 0.252431 0.385734
O O1 0.777633 0.683174 0.177249
O O2 0.827605 0.525811 0.904509
O O3 0.109929 0.903125 0.090929
O O4 0.000000 0.500000 0.000000
O O5 0.390072 0.278728 0.590926
O O6 0.550773 0.301991 0.730906
O O7 0.235828 0.927608 0.587067
O O8 0.500000 0.500000 0.500000
O O9 0.277634 0.328679 0.322752
O O10 0.327603 0.716790 0.595494
O O11 0.500000 0.500000 0.000000
O O12 0.735826 0.753477 0.912935
O O13 0.949231 0.159824 0.230905
O O14 0.000000 0.500000 0.500000
#
# Coordination Sequence:
#
# PCOD8001685 Si02
#       6
#     2   2   2   2   2   2
#     4  10  20  34  53  79 104 132 170 216 256 292
#     4   9  19  36  53  74 105 137 172 205 249 313
#     4  10  20  34  53  79 104 132 170 216 256 292
#     4   9  18  34  54  73 100 139 171 203 251 307
#     4   9  19  36  53  74 105 137 172 205 249 313
#     4   9  18  34  54  73 100 139 171 203 251 307
#
# _framework density 19.674295000000001
#
# number of rings (size 3 to 8) (size 9 to 14) (size 15 to 20)
#    0.000    2.667    0.000    1.000    0.000    2.667 
#    0.000   15.000    0.000    0.000    0.000    0.000 
#    0.000    0.000    0.000    0.000    0.000    0.000 
#
# Total GULP energy -148684.877982 kJ/mol
# GULP energy per Si atom -12390.406498 kJ/mol
# Density = 1.962952 g / cm^3
# Si number density = 19.674295 Si / 1000 Ang^3
#
#
#
# Elastic Constant Matrix: (Units=GPa)
#
#
# Indices 1 2 3 4 5 6 
#
# 1 115.7667 77.8393 42.2175 1.5331 -0.4678 -25.6326
# 2 77.8393 194.8885 60.9571 4.3243 1.6562 -7.4410
# 3 42.2175 60.9571 53.6130 5.0247 2.0645 -12.3307
# 4 1.5331 4.3243 5.0247 37.4023 -4.6825 0.5921
# 5 -0.4678 1.6562 2.0645 -4.6825 27.0621 -0.1161
# 6 -25.6326 -7.4410 -12.3307 0.5921 -0.1161 35.1276
#
#
#
# Elastic Compliance Matrix: (Units=1/GPa)
#
#
# Indices 1 2 3 4 5 6 
#
# 1 0.015221 -0.004038 -0.005587 0.000597 0.001075 0.008284
# 2 -0.004038 0.009128 -0.008113 0.000264 0.000020 -0.003865
# 3 -0.005587 -0.008113 0.034190 -0.003882 -0.002853 0.006262
# 4 0.000597 0.000264 -0.003882 0.027863 0.005106 -0.001324
# 5 0.001075 0.000020 -0.002853 0.005106 0.038070 -0.000173
# 6 0.008284 -0.003865 0.006262 -0.001324 -0.000173 0.035914
#
#
# Mechanical properties :
#
#
# Convention : Reuss Voigt Hill
#
# Bulk Modulus (GPa) = 43.35901 80.69956 62.02928
# Shear Modulus (GPa) = 24.56412 32.13535 28.34974
#
# Velocity S-wave (km/s) = 3.53730 4.04588 3.80011
# Velocity P-wave (km/s) = 6.22652 7.93299 7.13098
#
# Compressibility (1/GPa) = 0.02306326
#
# Stress axis : x y z
#
# Youngs Moduli (GPa) = 65.69787 109.55378 29.24846
#
# Poissons Ratio (x) = 0.44239 0.16341
# Poissons Ratio (y) = 0.26529 0.23729
# Poissons Ratio (z) = 0.36704 0.88881
#
# Static dielectric constant tensor:
#      x y z
#    x 3.755770 0.251810 0.003760 
#    y 0.251810 3.853320 0.013820 
#    z 0.003760 0.013820 3.953610 
# 
# 
# High freq. dielectric constant tensor:
#      x y z
#    x 1.748110 0.018450 0.001770 
#    y 0.018450 1.787980 0.005170 
#    z 0.001770 0.005170 1.746060 
# 
# From -- ./inp_files/491580.got.cif
#   From: 2010.06.25/outbox.cif.g09.slc.cpg/sg2_246_cif.got.tgz:491580.got - 2010.06.27 13:26:56.
