data_PCOD8001934
_publ_section_title
;
Structure prediction by ZEFSAII (Michael W. Deem and Ramdas Pophale) SiO2 
 PCOD8001934
Probable space group: P -1
;
_chemical_formula_sum "Si O2"
_cell_formula_units_Z 16
_cell_length_a 21.747549
_cell_length_b 18.900279
_cell_length_c 16.550572
_cell_angle_alpha 33.892927
_cell_angle_beta 26.147010
_cell_angle_gamma 17.636401
_cell_volume 891.697650
_symmetry_space_group_name_H-M "P -1"
_symmetry_group_IT_number 2
_symmetry_cell_setting 'triclinic'
loop_
_space_group_symop_operation_xyz
x,y,z
-x,-y,-z
loop_
_atom_site_type_symbol
_atom_site_label
_atom_site_fract_x
_atom_site_fract_y
_atom_site_fract_z
Si Si1 0.314380 0.709641 0.459221
Si Si2 0.194553 0.657256 0.324792
Si Si3 0.151250 0.771323 0.431715
Si Si4 0.839354 0.019754 0.975728
Si Si5 0.252396 0.889801 0.822118
Si Si6 0.078840 0.252223 0.586657
Si Si7 0.329582 0.328159 0.205939
Si Si8 0.359734 0.469235 0.891920
O O1 0.500000 0.500000 0.500000
O O2 0.195605 0.698413 0.543349
O O3 0.483042 0.683889 0.232287
O O4 0.086791 0.946197 0.556033
O O5 0.095719 0.710126 0.485021
O O6 0.498005 0.391058 0.214626
O O7 0.029348 0.694784 0.425074
O O8 0.147976 0.838679 0.183075
O O9 0.424774 0.624416 0.216996
O O10 0.123382 0.742803 0.886391
O O11 0.753885 0.047710 0.140268
O O12 0.635482 0.110155 0.070163
O O13 0.259640 0.999234 0.645856
O O14 0.000000 0.000000 0.000000
O O15 0.261308 0.233907 0.383287
O O16 0.837925 0.458312 0.736630
O O17 0.266798 0.419702 0.100695
#
# Coordination Sequence:
#
# PCOD8001934 Si02
#       8
#     2   2   2   2   2   2   2   2
#     4   9  18  34  57  88 118 138 176 243 296 329
#     4  12  22  35  57  83 115 152 185 236 282 332
#     4   9  20  33  55  90 113 137 185 234 285 338
#     4  12  20  33  58  81 111 152 190 231 280 325
#     4  12  22  33  53  83 113 149 194 233 277 328
#     4  11  25  38  54  78 119 160 195 229 275 330
#     4  11  23  40  53  80 117 158 196 230 270 340
#     4  10  20  34  60  85 114 147 187 232 283 340
#
# _framework density 17.943301999999999
#
# number of rings (size 3 to 8) (size 9 to 14) (size 15 to 20)
#    0.750    0.500    5.000    2.625    0.000    1.500 
#    0.000    0.000    0.000    0.750    0.000    2.625 
#    0.000    0.000    0.000    0.000    0.000    0.000 
#
# Total GULP energy -198216.717744 kJ/mol
# GULP energy per Si atom -12388.544859 kJ/mol
# Density = 1.790246 g / cm^3
# Si number density = 17.943302 Si / 1000 Ang^3
#
#
#
# Elastic Constant Matrix: (Units=GPa)
#
#
# Indices 1 2 3 4 5 6 
#
# 1 100.0213 24.7127 21.2199 2.8422 -1.0813 -11.1384
# 2 24.7127 105.2285 38.4145 12.4350 -11.5282 -21.2573
# 3 21.2199 38.4145 57.8035 -0.0587 -6.5078 -0.7981
# 4 2.8422 12.4350 -0.0587 30.5396 -0.1174 3.2000
# 5 -1.0813 -11.5282 -6.5078 -0.1174 20.5068 -0.8671
# 6 -11.1384 -21.2573 -0.7981 3.2000 -0.8671 25.2610
#
#
#
# Elastic Compliance Matrix: (Units=1/GPa)
#
#
# Indices 1 2 3 4 5 6 
#
# 1 0.011503 0.000012 -0.004220 -0.001624 -0.000518 0.005136
# 2 0.000012 0.019273 -0.011705 -0.009658 0.007799 0.017345
# 3 -0.004220 -0.011705 0.026607 0.006434 0.001186 -0.011644
# 4 -0.001624 -0.009658 0.006434 0.038253 -0.003830 -0.013617
# 5 -0.000518 0.007799 0.001186 -0.003830 0.053843 0.008705
# 6 0.005136 0.017345 -0.011644 -0.013617 0.008705 0.058103
#
#
# Mechanical properties :
#
#
# Convention : Reuss Voigt Hill
#
# Bulk Modulus (GPa) = 39.12786 47.97194 43.54990
# Shear Modulus (GPa) = 20.16730 27.17523 23.67127
#
# Velocity S-wave (km/s) = 3.35617 3.89589 3.63606
# Velocity P-wave (km/s) = 6.07225 6.85788 6.47699
#
# Compressibility (1/GPa) = 0.02555724
#
# Stress axis : x y z
#
# Youngs Moduli (GPa) = 86.93618 51.88639 37.58425
#
# Poissons Ratio (x) = -0.00061 0.15859
# Poissons Ratio (y) = -0.00102 0.43992
# Poissons Ratio (z) = 0.36683 0.60732
#
# Static dielectric constant tensor:
#      x y z
#    x 3.591900 -0.152430 0.228340 
#    y -0.152430 3.396760 0.182960 
#    z 0.228340 0.182960 3.110510 
# 
# 
# High freq. dielectric constant tensor:
#      x y z
#    x 1.703320 -0.022650 0.017160 
#    y -0.022650 1.697950 0.022570 
#    z 0.017160 0.022570 1.657390 
# 
# From -- ./inp_files/331483.got.cif
#   From: 2010.06.25/outbox.cif.g09.slc.cpg/sg2_166_cif.got.tgz:331483.got - 2010.06.27 13:26:56.
