data_PCOD8001437
_publ_section_title
;
Structure prediction by ZEFSAII (Michael W. Deem and Ramdas Pophale) SiO2 
 PCOD8001437
Probable space group: P -1
;
_chemical_formula_sum "Si O2"
_cell_formula_units_Z 16
_cell_length_a 9.057296
_cell_length_b 25.594117
_cell_length_c 18.309859
_cell_angle_alpha 154.024978
_cell_angle_beta 151.100032
_cell_angle_gamma 35.190277
_cell_volume 889.217374
_symmetry_space_group_name_H-M "P -1"
_symmetry_group_IT_number 2
_symmetry_cell_setting 'triclinic'
loop_
_space_group_symop_operation_xyz
x,y,z
-x,-y,-z
loop_
_atom_site_type_symbol
_atom_site_label
_atom_site_fract_x
_atom_site_fract_y
_atom_site_fract_z
Si Si1 0.849159 0.642819 0.032822
Si Si2 0.141503 0.817335 0.282710
Si Si3 0.461610 0.194634 0.702485
Si Si4 0.561292 0.003793 0.283075
Si Si5 0.177001 0.863457 0.668755
Si Si6 0.684882 0.157459 0.909357
Si Si7 0.315584 0.030897 0.060018
Si Si8 0.070280 0.628913 0.269654
O O1 0.505928 0.716035 0.987646
O O2 0.019978 0.697263 0.107935
O O3 0.072154 0.644237 0.201644
O O4 0.805526 0.506505 0.822261
O O5 0.311444 0.792368 0.248821
O O6 0.366325 0.862756 0.498155
O O7 0.862989 0.923288 0.280934
O O8 0.651579 0.142050 0.789117
O O9 0.196505 0.107916 0.465376
O O10 0.288029 0.331241 0.812367
O O11 0.305830 0.011928 0.118954
O O12 0.445711 0.950004 0.239852
O O13 0.349654 0.937540 0.778151
O O14 0.276426 0.719911 0.514051
O O15 0.260572 0.905819 0.839311
O O16 0.051413 0.142711 0.065300
#
# Coordination Sequence:
#
# PCOD8001437 Si02
#       8
#     2   2   2   2   2   2   2   2
#     4   9  17  35  57  81 106 136 180 226 261 306
#     4  10  20  32  55  83 108 137 178 223 262 316
#     4   9  20  35  54  81 105 140 180 216 264 313
#     4  10  22  33  50  81 114 140 171 221 269 315
#     4   9  21  34  52  81 108 144 169 223 262 317
#     4  10  21  35  55  81 108 142 178 218 263 320
#     4  11  21  34  53  79 112 144 174 212 271 324
#     4   8  17  36  57  76 109 138 178 222 265 304
#
# _framework density 17.993351000000001
#
# number of rings (size 3 to 8) (size 9 to 14) (size 15 to 20)
#    0.750    1.750    0.000    1.875    7.000    1.500 
#    0.000    0.625    0.000    3.000    0.000    0.000 
#    0.000    0.000    0.000    0.000    0.000    0.000 
#
# Total GULP energy -198248.367670 kJ/mol
# GULP energy per Si atom -12390.522979 kJ/mol
# Density = 1.795240 g / cm^3
# Si number density = 17.993351 Si / 1000 Ang^3
#
#
#
# Elastic Constant Matrix: (Units=GPa)
#
#
# Indices 1 2 3 4 5 6 
#
# 1 127.9307 45.4969 45.8295 -1.4154 1.8406 7.8036
# 2 45.4969 82.6859 50.5159 7.0913 -10.3540 8.5758
# 3 45.8295 50.5159 84.4809 8.1027 -17.4401 8.4455
# 4 -1.4154 7.0913 8.1027 29.0032 -1.8394 -3.6553
# 5 1.8406 -10.3540 -17.4401 -1.8394 26.3233 -5.6844
# 6 7.8036 8.5758 8.4455 -3.6553 -5.6844 21.3240
#
#
#
# Elastic Compliance Matrix: (Units=1/GPa)
#
#
# Indices 1 2 3 4 5 6 
#
# 1 0.011200 -0.003836 -0.005036 0.002304 -0.005840 -0.001723
# 2 -0.003836 0.020729 -0.009438 -0.002966 0.001233 -0.003375
# 3 -0.005036 -0.009438 0.023040 -0.003790 0.011403 -0.001096
# 4 0.002304 -0.002966 -0.003790 0.037477 0.000602 0.008435
# 5 -0.005840 0.001233 0.011403 0.000602 0.048683 0.010206
# 6 -0.001723 -0.003375 -0.001096 0.008435 0.010206 0.053484
#
#
# Mechanical properties :
#
#
# Convention : Reuss Voigt Hill
#
# Bulk Modulus (GPa) = 54.50031 64.30910 59.40471
# Shear Modulus (GPa) = 21.06608 25.54713 23.30660
#
# Velocity S-wave (km/s) = 3.42536 3.77212 3.60292
# Velocity P-wave (km/s) = 6.78226 7.40202 7.09891
#
# Compressibility (1/GPa) = 0.01834852
#
# Stress axis : x y z
#
# Youngs Moduli (GPa) = 89.28853 48.24080 43.40337
#
# Poissons Ratio (x) = 0.18504 0.21859
# Poissons Ratio (y) = 0.34249 0.40964
# Poissons Ratio (z) = 0.44968 0.45530
#
# Static dielectric constant tensor:
#      x y z
#    x 3.324630 -0.139310 -0.050620 
#    y -0.139310 3.194580 -0.042240 
#    z -0.050620 -0.042240 3.176570 
# 
# 
# High freq. dielectric constant tensor:
#      x y z
#    x 1.707700 -0.005600 -0.004770 
#    y -0.005600 1.675680 -0.003050 
#    z -0.004770 -0.003050 1.675220 
# 
# From -- ./inp_files/177706.got.cif
#   From: 2010.06.25/outbox.cif.g09.slc.cpg/sg2_89_cif.got.tgz:177706.got - 2010.06.27 13:26:56.
