data_PCOD8001316
_publ_section_title
;
Structure prediction by ZEFSAII (Michael W. Deem and Ramdas Pophale) SiO2 
 PCOD8001316
Probable space group: P -1
;
_chemical_formula_sum "Si O2"
_cell_formula_units_Z 16
_cell_length_a 27.889489
_cell_length_b 28.069738
_cell_length_c 13.376430
_cell_angle_alpha 30.452404
_cell_angle_beta 147.831776
_cell_angle_gamma 169.843144
_cell_volume 935.664353
_symmetry_space_group_name_H-M "P -1"
_symmetry_group_IT_number 2
_symmetry_cell_setting 'triclinic'
loop_
_space_group_symop_operation_xyz
x,y,z
-x,-y,-z
loop_
_atom_site_type_symbol
_atom_site_label
_atom_site_fract_x
_atom_site_fract_y
_atom_site_fract_z
Si Si1 0.987853 0.296429 0.461536
Si Si2 0.304826 0.610028 0.770745
Si Si3 0.894972 0.459500 0.297598
Si Si4 0.294786 0.229125 0.009947
Si Si5 0.846221 0.063911 0.842889
Si Si6 0.406631 0.900070 0.320340
Si Si7 0.242015 0.361228 0.767078
Si Si8 0.511940 0.080680 0.782704
O O1 0.885455 0.156726 0.639659
O O2 0.151715 0.376505 0.543861
O O3 0.189433 0.582019 0.311228
O O4 0.720291 0.068489 0.343261
O O5 0.203285 0.537957 0.833392
O O6 0.287532 0.680452 0.536323
O O7 0.122904 0.344806 0.886417
O O8 0.615464 0.883279 0.830701
O O9 0.000000 0.500000 0.500000
O O10 0.151394 0.722138 0.199014
O O11 0.641182 0.159331 0.341629
O O12 0.535709 0.411368 0.163378
O O13 0.246952 0.135695 0.984835
O O14 0.352097 0.399471 0.803291
O O15 0.020909 0.946383 0.097544
O O16 0.534932 0.025405 0.209418
O O17 0.500000 0.000000 0.000000
#
# Coordination Sequence:
#
# PCOD8001316 Si02
#       8
#     2   2   2   2   2   2   2   2
#     4  11  19  34  47  64  88 126 158 195 234 268
#     4  11  18  28  44  68  90 118 152 184 218 277
#     4  10  20  30  46  65  87 116 155 189 228 275
#     4   9  17  27  41  67  90 118 151 181 216 267
#     4  11  17  27  45  66  93 121 147 183 219 268
#     4  11  19  34  45  61  88 121 154 199 232 266
#     4   9  17  29  44  61  88 119 156 183 216 276
#     4  12  24  35  49  67  88 121 167 210 238 258
#
# _framework density 17.100149999999999
#
# number of rings (size 3 to 8) (size 9 to 14) (size 15 to 20)
#    0.000    1.500    2.500    7.875    0.000    0.000 
#    0.000    0.000    0.000    0.000    0.000    0.000 
#    0.000    0.000    0.000   22.500    0.000    0.000 
#
# Total GULP energy -198232.800885 kJ/mol
# GULP energy per Si atom -12389.550055 kJ/mol
# Density = 1.706123 g / cm^3
# Si number density = 17.100150 Si / 1000 Ang^3
#
#
#
# Elastic Constant Matrix: (Units=GPa)
#
#
# Indices 1 2 3 4 5 6 
#
# 1 112.4638 30.6973 29.2627 -0.8904 11.9679 -3.3996
# 2 30.6973 102.7823 11.2723 4.7585 4.4755 -0.8587
# 3 29.2627 11.2723 34.6514 6.0741 3.7897 5.6668
# 4 -0.8904 4.7585 6.0741 11.1619 1.1602 6.6179
# 5 11.9679 4.4755 3.7897 1.1602 14.1216 2.5261
# 6 -3.3996 -0.8587 5.6668 6.6179 2.5261 34.2250
#
#
#
# Elastic Compliance Matrix: (Units=1/GPa)
#
#
# Indices 1 2 3 4 5 6 
#
# 1 0.013713 -0.002811 -0.011507 0.008113 -0.008716 0.002271
# 2 -0.002811 0.010893 -0.000349 -0.005268 -0.000745 0.001126
# 3 -0.011507 -0.000349 0.043107 -0.021869 0.000828 -0.004121
# 4 0.008113 -0.005268 -0.021869 0.115411 -0.005670 -0.017603
# 5 -0.008716 -0.000745 0.000828 -0.005670 0.079719 -0.005809
# 6 0.002271 0.001126 -0.004121 -0.017603 -0.005809 0.033987
#
#
# Mechanical properties :
#
#
# Convention : Reuss Voigt Hill
#
# Bulk Modulus (GPa) = 26.05549 43.59580 34.82565
# Shear Modulus (GPa) = 14.75115 23.81272 19.28194
#
# Velocity S-wave (km/s) = 2.94025 3.73573 3.36160
# Velocity P-wave (km/s) = 5.17656 6.64510 5.95626
#
# Compressibility (1/GPa) = 0.03837963
#
# Stress axis : x y z
#
# Youngs Moduli (GPa) = 72.92111 91.80374 23.19827
#
# Poissons Ratio (x) = 0.25805 0.26694
# Poissons Ratio (y) = 0.20497 0.00809
# Poissons Ratio (z) = 0.83909 0.03203
#
# Static dielectric constant tensor:
#      x y z
#    x 3.929970 0.138460 0.392480 
#    y 0.138460 3.416930 0.020480 
#    z 0.392480 0.020480 2.630530 
# 
# 
# High freq. dielectric constant tensor:
#      x y z
#    x 1.673860 0.002430 0.030570 
#    y 0.002430 1.692320 0.008710 
#    z 0.030570 0.008710 1.559660 
# 
# From -- ./inp_files/371311.got.cif
#   From: 2010.06.25/outbox.cif.g09.slc.cpg/sg2_186_cif.got.tgz:371311.got - 2010.06.27 13:26:56.
