data_PCOD8001851
_publ_section_title
;
Structure prediction by ZEFSAII (Michael W. Deem and Ramdas Pophale) SiO2 
 PCOD8001851
Probable space group: P -1
;
_chemical_formula_sum "Si O2"
_cell_formula_units_Z 16
_cell_length_a 10.132518
_cell_length_b 24.985865
_cell_length_c 9.420691
_cell_angle_alpha 133.497294
_cell_angle_beta 29.367852
_cell_angle_gamma 135.463301
_cell_volume 804.585253
_symmetry_space_group_name_H-M "P -1"
_symmetry_group_IT_number 2
_symmetry_cell_setting 'triclinic'
loop_
_space_group_symop_operation_xyz
x,y,z
-x,-y,-z
loop_
_atom_site_type_symbol
_atom_site_label
_atom_site_fract_x
_atom_site_fract_y
_atom_site_fract_z
Si Si1 0.286469 0.159645 0.682028
Si Si2 0.674726 0.060305 0.059847
Si Si3 0.187522 0.458450 0.667164
Si Si4 0.007383 0.569530 0.515978
Si Si5 0.903632 0.710646 0.576323
Si Si6 0.303439 0.027457 0.835710
Si Si7 0.545653 0.808797 0.103334
Si Si8 0.348248 0.329067 0.947515
O O1 0.539500 0.128508 0.339489
O O2 0.272635 0.158785 0.865097
O O3 0.329778 0.246986 0.740432
O O4 0.994890 0.103054 0.786587
O O5 0.690098 0.008672 0.084846
O O6 0.500000 0.000000 0.000000
O O7 0.500000 0.500000 0.500000
O O8 0.102696 0.369198 0.638972
O O9 0.159625 0.464959 0.535145
O O10 0.000000 0.500000 0.000000
O O11 0.000000 0.500000 0.500000
O O12 0.847985 0.622941 0.847543
O O13 0.324985 0.618573 0.262992
O O14 0.779208 0.689384 0.810439
O O15 0.224261 0.767506 0.377741
O O16 0.690719 0.752120 0.781346
O O17 0.427568 0.121109 0.902279
O O18 0.500000 0.000000 0.500000
O O19 0.000000 0.000000 0.000000
#
# Coordination Sequence:
#
# PCOD8001851 Si02
#       8
#     2   2   2   2   2   2   2   2
#     4  11  20  37  62  86 113 153 202 243 286 341
#     4  12  24  39  59  86 121 159 193 237 296 361
#     4  11  21  37  61  86 120 157 193 231 287 361
#     4  11  22  39  63  92 119 152 195 248 291 338
#     4  10  20  34  57  91 116 148 195 241 290 334
#     4  12  22  38  60  91 115 151 200 244 294 340
#     4  11  19  34  61  86 116 144 198 256 282 325
#     4  10  20  36  62  91 115 149 203 247 284 341
#
# _framework density 19.886021
#
# number of rings (size 3 to 8) (size 9 to 14) (size 15 to 20)
#    0.000    1.000    2.500    9.000    0.000    0.000 
#    0.000    0.000   16.500    0.000    0.000    0.000 
#    0.000    0.000    0.000    0.000    0.000    0.000 
#
# Total GULP energy -198325.715994 kJ/mol
# GULP energy per Si atom -12395.357250 kJ/mol
# Density = 1.984076 g / cm^3
# Si number density = 19.886021 Si / 1000 Ang^3
#
#
#
# Elastic Constant Matrix: (Units=GPa)
#
#
# Indices 1 2 3 4 5 6 
#
# 1 87.9406 58.7041 41.7955 -3.6878 -15.9600 -1.6100
# 2 58.7041 162.7836 64.4739 6.5905 -19.8674 -6.6479
# 3 41.7955 64.4739 133.0144 11.6076 -33.2361 -2.0626
# 4 -3.6878 6.5905 11.6076 52.6490 4.9116 -18.4162
# 5 -15.9600 -19.8674 -33.2361 4.9116 29.0722 2.5945
# 6 -1.6100 -6.6479 -2.0626 -18.4162 2.5945 30.1252
#
#
#
# Elastic Compliance Matrix: (Units=1/GPa)
#
#
# Indices 1 2 3 4 5 6 
#
# 1 0.016172 -0.004635 -0.002399 0.002316 0.002498 0.000878
# 2 -0.004635 0.009027 -0.002747 -0.000458 0.000450 0.001237
# 3 -0.002399 -0.002747 0.013375 -0.005554 0.013424 -0.004370
# 4 0.002316 -0.000458 -0.005554 0.027664 -0.011631 0.017555
# 5 0.002498 0.000450 0.013424 -0.011631 0.054337 -0.010638
# 6 0.000878 0.001237 -0.004370 0.017555 -0.010638 0.044864
#
#
# Mechanical properties :
#
#
# Convention : Reuss Voigt Hill
#
# Bulk Modulus (GPa) = 52.60195 79.29841 65.95018
# Shear Modulus (GPa) = 26.13179 36.95361 31.54270
#
# Velocity S-wave (km/s) = 3.62895 4.31544 3.98700
# Velocity P-wave (km/s) = 6.63839 8.04946 7.37774
#
# Compressibility (1/GPa) = 0.01901070
#
# Stress axis : x y z
#
# Youngs Moduli (GPa) = 61.83466 110.78168 74.76848
#
# Poissons Ratio (x) = 0.51346 0.17939
# Poissons Ratio (y) = 0.28659 0.20541
# Poissons Ratio (z) = 0.14836 0.30435
#
# Static dielectric constant tensor:
#      x y z
#    x 3.286480 -0.134580 -0.408690 
#    y -0.134580 4.300450 0.481970 
#    z -0.408690 0.481970 4.115310 
# 
# 
# High freq. dielectric constant tensor:
#      x y z
#    x 1.728680 -0.001720 -0.034630 
#    y -0.001720 1.799650 0.009490 
#    z -0.034630 0.009490 1.796820 
# 
# From -- ./inp_files/226429.got.cif
#   From: 2010.06.25/outbox.cif.g09.slc.cpg/sg2_114_cif.got.tgz:226429.got - 2010.06.27 13:26:56.
