data_PCOD8001446
_publ_section_title
;
Structure prediction by ZEFSAII (Michael W. Deem and Ramdas Pophale) SiO2 
 PCOD8001446
Probable space group: P -1
;
_chemical_formula_sum "Si O2"
_cell_formula_units_Z 16
_cell_length_a 17.173436
_cell_length_b 17.212692
_cell_length_c 17.733411
_cell_angle_alpha 147.551936
_cell_angle_beta 16.287125
_cell_angle_gamma 148.224892
_cell_volume 760.236193
_symmetry_space_group_name_H-M "P -1"
_symmetry_group_IT_number 2
_symmetry_cell_setting 'triclinic'
loop_
_space_group_symop_operation_xyz
x,y,z
-x,-y,-z
loop_
_atom_site_type_symbol
_atom_site_label
_atom_site_fract_x
_atom_site_fract_y
_atom_site_fract_z
Si Si1 0.537537 0.716628 0.323048
Si Si2 0.693564 0.668899 0.448419
Si Si3 0.331095 0.210603 0.003587
Si Si4 0.512101 0.386838 0.124633
Si Si5 0.821155 0.328404 0.530263
Si Si6 0.902054 0.606402 0.352198
Si Si7 0.160663 0.715647 0.923615
Si Si8 0.168807 0.866985 0.889850
O O1 0.582190 0.553379 0.162061
O O2 0.377323 0.723595 0.399836
O O3 0.353884 0.760999 0.597354
O O4 0.852252 0.831104 0.118249
O O5 0.500000 0.500000 0.500000
O O6 0.885102 0.711067 0.380677
O O7 0.896248 0.686694 0.202505
O O8 0.466151 0.767827 0.727181
O O9 0.619115 0.307261 0.774186
O O10 0.333776 0.037983 0.859079
O O11 0.327506 0.271084 0.141334
O O12 0.043556 0.226643 0.243013
O O13 0.348775 0.377933 0.347264
O O14 0.799572 0.336190 0.833773
O O15 0.000000 0.500000 0.500000
O O16 0.861226 0.435452 0.226111
O O17 0.140373 0.843043 0.987011
#
# Coordination Sequence:
#
# PCOD8001446 Si02
#       8
#     2   2   2   2   2   2   2   2
#     4  12  24  42  69  93 126 170 213 262 319 377
#     4  10  20  32  56  94 129 159 204 262 319 359
#     4  12  28  45  66  96 129 171 212 260 325 384
#     4  12  22  39  65  92 125 166 213 260 312 370
#     4  12  26  45  70  95 128 166 213 270 319 374
#     4  11  20  35  61  95 125 159 215 263 304 367
#     4  11  19  36  59  88 131 166 198 260 321 369
#     4  12  26  43  65  97 132 168 213 260 319 385
#
# _framework density 21.046091000000001
#
# number of rings (size 3 to 8) (size 9 to 14) (size 15 to 20)
#    0.000    0.500    3.750    7.125    1.750    3.000 
#    0.000    0.000    0.000    4.500    0.000    0.000 
#    0.000    0.000    0.000    0.000    0.000    0.000 
#
# Total GULP energy -198463.538022 kJ/mol
# GULP energy per Si atom -12403.971126 kJ/mol
# Density = 2.099819 g / cm^3
# Si number density = 21.046091 Si / 1000 Ang^3
#
#
#
# Elastic Constant Matrix: (Units=GPa)
#
#
# Indices 1 2 3 4 5 6 
#
# 1 118.1547 45.0828 23.7493 -5.7962 -22.3941 -8.0559
# 2 45.0828 73.0479 23.7001 -6.9443 -4.1753 0.4538
# 3 23.7493 23.7001 96.1458 -19.3594 -13.4048 -2.0953
# 4 -5.7962 -6.9443 -19.3594 22.9089 -5.0805 -2.0612
# 5 -22.3941 -4.1753 -13.4048 -5.0805 45.7859 -1.5363
# 6 -8.0559 0.4538 -2.0953 -2.0612 -1.5363 17.3981
#
#
#
# Elastic Compliance Matrix: (Units=1/GPa)
#
#
# Indices 1 2 3 4 5 6 
#
# 1 0.013192 -0.007611 0.000378 0.003452 0.006498 0.007335
# 2 -0.007611 0.019347 -0.003449 -0.000098 -0.003138 -0.004733
# 3 0.000378 -0.003449 0.014691 0.013111 0.005764 0.004097
# 4 0.003452 -0.000098 0.013111 0.059361 0.012485 0.011315
# 5 0.006498 -0.003138 0.005764 0.012485 0.028066 0.007742
# 6 0.007335 -0.004733 0.004097 0.011315 0.007742 0.063515
#
#
# Mechanical properties :
#
#
# Convention : Reuss Voigt Hill
#
# Bulk Modulus (GPa) = 38.66062 52.49029 45.57546
# Shear Modulus (GPa) = 21.91471 30.20634 26.06052
#
# Velocity S-wave (km/s) = 3.23038 3.79258 3.52271
# Velocity P-wave (km/s) = 5.68535 6.64627 6.18450
#
# Compressibility (1/GPa) = 0.02586611
#
# Stress axis : x y z
#
# Youngs Moduli (GPa) = 75.80081 51.68869 68.07065
#
# Poissons Ratio (x) = 0.39339 -0.02574
# Poissons Ratio (y) = 0.57690 0.23480
# Poissons Ratio (z) = -0.02867 0.17829
#
# Static dielectric constant tensor:
#      x y z
#    x 4.438480 -0.218140 -0.337890 
#    y -0.218140 3.472700 -0.062030 
#    z -0.337890 -0.062030 4.008460 
# 
# 
# High freq. dielectric constant tensor:
#      x y z
#    x 1.845590 -0.015780 -0.010670 
#    y -0.015780 1.784040 -0.014390 
#    z -0.010670 -0.014390 1.842340 
# 
# From -- ./inp_files/226239.got.cif
#   From: 2010.06.25/outbox.cif.g09.slc.cpg/sg2_114_cif.got.tgz:226239.got - 2010.06.27 13:26:56.
