data_PCOD8001961
_publ_section_title
;
Structure prediction by ZEFSAII (Michael W. Deem and Ramdas Pophale) SiO2 
 PCOD8001961
Probable space group: P -1
;
_chemical_formula_sum "Si O2"
_cell_formula_units_Z 16
_cell_length_a 8.739012
_cell_length_b 14.592079
_cell_length_c 9.601401
_cell_angle_alpha 38.932788
_cell_angle_beta 104.198356
_cell_angle_gamma 96.860386
_cell_volume 740.770150
_symmetry_space_group_name_H-M "P -1"
_symmetry_group_IT_number 2
_symmetry_cell_setting 'triclinic'
loop_
_space_group_symop_operation_xyz
x,y,z
-x,-y,-z
loop_
_atom_site_type_symbol
_atom_site_label
_atom_site_fract_x
_atom_site_fract_y
_atom_site_fract_z
Si Si1 0.213083 0.677321 0.428979
Si Si2 0.380478 0.097678 0.259913
Si Si3 0.732771 0.592168 0.072001
Si Si4 0.968582 0.945921 0.707029
Si Si5 0.097118 0.635695 0.157997
Si Si6 0.919694 0.818532 0.357890
Si Si7 0.166659 0.432218 0.177440
Si Si8 0.645902 0.017065 0.913406
O O1 0.315352 0.556931 0.691920
O O2 0.182176 0.600420 0.366192
O O3 0.310039 0.817037 0.271411
O O4 0.038768 0.714485 0.412729
O O5 0.206305 0.097127 0.282815
O O6 0.500000 0.000000 0.500000
O O7 0.406272 0.029893 0.194115
O O8 0.394349 0.272978 0.061167
O O9 0.914935 0.601009 0.151145
O O10 0.714079 0.582869 0.909857
O O11 0.000000 0.000000 0.500000
O O12 0.977425 0.067844 0.681273
O O13 0.099987 0.808938 0.929076
O O14 0.208771 0.544027 0.175951
O O15 0.839007 0.727647 0.565973
O O16 0.792706 0.903058 0.127681
O O17 0.000000 0.500000 0.000000
O O18 0.500000 0.000000 0.000000
#
# Coordination Sequence:
#
# PCOD8001961 Si02
#       8
#     2   2   2   2   2   2   2   2
#     4  12  22  42  70 100 132 170 230 286 330 404
#     4  11  26  46  68  97 140 179 222 274 346 410
#     4  10  22  40  67 100 137 170 223 273 349 393
#     4  11  22  37  70 103 132 172 231 277 329 397
#     4  10  20  34  61 105 132 165 212 280 341 384
#     4  12  21  41  71 100 135 172 234 282 332 396
#     4  10  20  36  62 105 139 164 207 287 343 390
#     4  12  29  46  66  97 141 187 226 279 346 400
#
# _framework density 21.599140999999999
#
# number of rings (size 3 to 8) (size 9 to 14) (size 15 to 20)
#    0.000    1.000    5.000    4.500    5.250    0.000 
#    0.000    1.250    5.500    0.000    0.000    0.000 
#    0.000    0.000    0.000    0.000    0.000    0.000 
#
# Total GULP energy -198386.367542 kJ/mol
# GULP energy per Si atom -12399.147971 kJ/mol
# Density = 2.154998 g / cm^3
# Si number density = 21.599141 Si / 1000 Ang^3
#
#
#
# Elastic Constant Matrix: (Units=GPa)
#
#
# Indices 1 2 3 4 5 6 
#
# 1 48.9738 24.2475 39.0929 1.3908 -3.4949 -8.8458
# 2 24.2475 149.9310 62.8111 3.6579 0.9147 -4.8733
# 3 39.0929 62.8111 173.2191 -8.5025 -8.1917 4.4469
# 4 1.3908 3.6579 -8.5025 43.4295 -4.0710 0.6041
# 5 -3.4949 0.9147 -8.1917 -4.0710 31.4722 3.0785
# 6 -8.8458 -4.8733 4.4469 0.6041 3.0785 11.1434
#
#
#
# Elastic Compliance Matrix: (Units=1/GPa)
#
#
# Indices 1 2 3 4 5 6 
#
# 1 0.032481 -0.000865 -0.008001 -0.003101 -0.001712 0.029239
# 2 -0.000865 0.008312 -0.003101 -0.001515 -0.001807 0.004767
# 3 -0.008001 -0.003101 0.009313 0.002815 0.003209 -0.012463
# 4 -0.003101 -0.001515 0.002815 0.024294 0.004234 -0.006734
# 5 -0.001712 -0.001807 0.003209 0.004234 0.034304 -0.013136
# 6 0.029239 0.004767 -0.012463 -0.006734 -0.013136 0.124002
#
#
# Mechanical properties :
#
#
# Convention : Reuss Voigt Hill
#
# Bulk Modulus (GPa) = 38.20759 69.38077 53.79418
# Shear Modulus (GPa) = 18.84210 33.60719 26.22464
#
# Velocity S-wave (km/s) = 2.95677 3.94883 3.48825
# Velocity P-wave (km/s) = 5.42074 7.27893 6.41745
#
# Compressibility (1/GPa) = 0.02617281
#
# Stress axis : x y z
#
# Youngs Moduli (GPa) = 30.78731 120.31366 107.37726
#
# Poissons Ratio (x) = 0.10404 0.85909
# Poissons Ratio (y) = 0.02662 0.33297
# Poissons Ratio (z) = 0.24632 0.37309
#
# Static dielectric constant tensor:
#      x y z
#    x 3.404250 -0.077130 -0.143180 
#    y -0.077130 4.199910 0.001670 
#    z -0.143180 0.001670 4.215230 
# 
# 
# High freq. dielectric constant tensor:
#      x y z
#    x 1.797910 -0.009750 -0.008790 
#    y -0.009750 1.869360 -0.001070 
#    z -0.008790 -0.001070 1.871350 
# 
# From -- ./inp_files/188665.got.cif
#   From: 2010.06.25/outbox.cif.g09.slc.cpg/sg2_95_cif.got.tgz:188665.got - 2010.06.27 13:26:56.
