data_PCOD8001603
_publ_section_title
;
Structure prediction by ZEFSAII (Michael W. Deem and Ramdas Pophale) SiO2 
 PCOD8001603
Probable space group: P -1
;
_chemical_formula_sum "Si O2"
_cell_formula_units_Z 14
_cell_length_a 13.215397
_cell_length_b 10.134323
_cell_length_c 9.173334
_cell_angle_alpha 82.447146
_cell_angle_beta 101.861924
_cell_angle_gamma 148.142863
_cell_volume 632.381169
_symmetry_space_group_name_H-M "P -1"
_symmetry_group_IT_number 2
_symmetry_cell_setting 'triclinic'
loop_
_space_group_symop_operation_xyz
x,y,z
-x,-y,-z
loop_
_atom_site_type_symbol
_atom_site_label
_atom_site_fract_x
_atom_site_fract_y
_atom_site_fract_z
Si Si1 0.857287 0.799219 0.179236
Si Si2 0.935827 0.514482 0.617596
Si Si3 0.059762 0.919577 0.476349
Si Si4 0.601407 0.708220 0.279509
Si Si5 0.799240 0.643063 0.871274
Si Si6 0.716643 0.102829 0.132133
Si Si7 0.671628 0.214974 0.826178
O O1 0.673675 0.646018 0.245102
O O2 0.998712 0.847198 0.298301
O O3 0.766098 0.633338 0.034263
O O4 0.987703 0.072419 0.148391
O O5 0.934671 0.670041 0.557731
O O6 0.080564 0.639301 0.773451
O O7 0.000000 0.500000 0.500000
O O8 0.727388 0.245263 0.667967
O O9 0.289998 0.148262 0.551742
O O10 0.000000 0.000000 0.500000
O O11 0.366366 0.458857 0.258837
O O12 0.662617 0.888917 0.156152
O O13 0.793192 0.479553 0.868387
O O14 0.557819 0.012065 0.192545
O O15 0.727213 0.154806 0.958406
#
# Coordination Sequence:
#
# PCOD8001603 Si02
#       7
#     2   2   2   2   2   2   2
#     4  10  20  34  53  84 115 143 194 239 282 337
#     4  11  23  37  59  86 117 153 191 241 290 341
#     4   9  19  37  57  79 117 153 189 235 287 349
#     4   9  18  36  56  80 113 149 187 234 289 339
#     4  10  20  33  58  82 111 152 188 238 286 339
#     4   9  20  37  60  84 111 151 193 235 281 350
#     4  10  20  38  60  82 113 154 193 230 292 342
#
# _framework density 22.138546000000002
#
# number of rings (size 3 to 8) (size 9 to 14) (size 15 to 20)
#    0.000    2.286    0.000    3.429    2.000    1.143 
#    2.571    4.286    0.000    0.000    0.000    0.000 
#    0.000    0.000    0.000    0.000    0.000    0.000 
#
# Total GULP energy -173489.632264 kJ/mol
# GULP energy per Si atom -12392.116590 kJ/mol
# Density = 2.208816 g / cm^3
# Si number density = 22.138546 Si / 1000 Ang^3
#
#
#
# Elastic Constant Matrix: (Units=GPa)
#
#
# Indices 1 2 3 4 5 6 
#
# 1 80.3109 13.2653 41.6485 -3.1311 2.1016 3.3375
# 2 13.2653 40.6579 7.9860 1.6670 2.5871 6.6660
# 3 41.6485 7.9860 97.7165 3.1213 13.9284 6.9935
# 4 -3.1311 1.6670 3.1213 32.6648 9.1126 5.1607
# 5 2.1016 2.5871 13.9284 9.1126 36.8403 -5.4045
# 6 3.3375 6.6660 6.9935 5.1607 -5.4045 24.8483
#
#
#
# Elastic Compliance Matrix: (Units=1/GPa)
#
#
# Indices 1 2 3 4 5 6 
#
# 1 0.016923 -0.004445 -0.007226 0.001905 0.001745 0.000937
# 2 -0.004445 0.027359 0.000636 0.000179 -0.003071 -0.007627
# 3 -0.007226 0.000636 0.014409 0.000241 -0.005810 -0.004569
# 4 0.001905 0.000179 0.000241 0.035234 -0.010387 -0.009948
# 5 0.001745 -0.003071 -0.005810 -0.010387 0.033746 0.011722
# 6 0.000937 -0.007627 -0.004569 -0.009948 0.011722 0.048066
#
#
# Mechanical properties :
#
#
# Convention : Reuss Voigt Hill
#
# Bulk Modulus (GPa) = 27.30600 38.27608 32.79104
# Shear Modulus (GPa) = 23.80800 29.25638 26.53219
#
# Velocity S-wave (km/s) = 3.28290 3.63921 3.46564
# Velocity P-wave (km/s) = 5.17019 5.91484 5.55500
#
# Compressibility (1/GPa) = 0.03662199
#
# Stress axis : x y z
#
# Youngs Moduli (GPa) = 59.09164 36.55075 69.40050
#
# Poissons Ratio (x) = 0.16246 0.50150
# Poissons Ratio (y) = 0.26265 -0.04417
# Poissons Ratio (z) = 0.42701 -0.02326
#
# Static dielectric constant tensor:
#      x y z
#    x 3.901810 0.207820 0.271800 
#    y 0.207820 3.915810 0.128930 
#    z 0.271800 0.128930 4.467260 
# 
# 
# High freq. dielectric constant tensor:
#      x y z
#    x 1.858780 0.012220 0.020440 
#    y 0.012220 1.854840 -0.000110 
#    z 0.020440 -0.000110 1.872530 
# 
# From -- ./inp_files/290545.got.cif
#   From: 2010.06.25/outbox.cif.g09.slc.cpg/sg2_146_cif.got.tgz:290545.got - 2010.06.27 13:26:56.
