data_PCOD8001925
_publ_section_title
;
Structure prediction by ZEFSAII (Michael W. Deem and Ramdas Pophale) SiO2 
 PCOD8001925
Probable space group: P -1
;
_chemical_formula_sum "Si O2"
_cell_formula_units_Z 14
_cell_length_a 19.204088
_cell_length_b 8.665641
_cell_length_c 8.437429
_cell_angle_alpha 146.511445
_cell_angle_beta 133.338902
_cell_angle_gamma 52.613597
_cell_volume 561.359465
_symmetry_space_group_name_H-M "P -1"
_symmetry_group_IT_number 2
_symmetry_cell_setting 'triclinic'
loop_
_space_group_symop_operation_xyz
x,y,z
-x,-y,-z
loop_
_atom_site_type_symbol
_atom_site_label
_atom_site_fract_x
_atom_site_fract_y
_atom_site_fract_z
Si Si1 0.167818 0.673231 0.305846
Si Si2 0.575870 0.884300 0.152530
Si Si3 0.956165 0.816594 0.409631
Si Si4 0.842694 0.421029 0.431930
Si Si5 0.379296 0.551335 0.419018
Si Si6 0.728822 0.991585 0.752689
Si Si7 0.427961 0.056773 0.294440
O O1 0.181764 0.705858 0.543784
O O2 0.268964 0.657209 0.361959
O O3 0.108528 0.958628 0.390938
O O4 0.111524 0.402243 0.956526
O O5 0.558414 0.176479 0.271877
O O6 0.656289 0.960338 0.469508
O O7 0.474472 0.841182 0.048401
O O8 0.614661 0.618359 0.882721
O O9 0.044594 0.646871 0.494642
O O10 0.000000 0.000000 0.500000
O O11 0.816391 0.752280 0.675724
O O12 0.778014 0.284052 0.079184
O O13 0.422208 0.369491 0.478667
O O14 0.677047 0.989859 0.843774
O O15 0.500000 0.000000 0.500000
#
# Coordination Sequence:
#
# PCOD8001925 Si02
#       7
#     2   2   2   2   2   2   2
#     4  11  21  36  62  96 129 164 209 259 323 375
#     4  11  26  44  63  94 130 177 211 257 319 383
#     4  10  20  34  59  97 132 158 205 270 318 369
#     4  11  20  37  65  94 130 162 213 267 322 361
#     4  12  24  43  68  91 135 169 211 257 320 390
#     4  11  23  40  66  94 129 168 217 266 311 371
#     4  10  24  44  68  97 127 164 219 269 314 370
#
# _framework density 24.939456
#
# number of rings (size 3 to 8) (size 9 to 14) (size 15 to 20)
#    0.000    1.143    1.429    6.857    2.000    1.143 
#    0.000    6.429    0.000   17.143    0.000    0.000 
#    0.000    0.000    0.000    0.000    0.000    0.000 
#
# Total GULP energy -173499.503798 kJ/mol
# GULP energy per Si atom -12392.821700 kJ/mol
# Density = 2.488269 g / cm^3
# Si number density = 24.939456 Si / 1000 Ang^3
#
#
#
# Elastic Constant Matrix: (Units=GPa)
#
#
# Indices 1 2 3 4 5 6 
#
# 1 115.7091 57.5283 42.6207 7.1363 -23.9548 -34.3841
# 2 57.5283 99.9453 22.0000 7.5434 -19.1707 -25.6538
# 3 42.6207 22.0000 140.3830 13.9595 -8.8407 -7.0983
# 4 7.1363 7.5434 13.9595 32.6926 -5.4152 -8.8886
# 5 -23.9548 -19.1707 -8.8407 -5.4152 36.3395 6.4253
# 6 -34.3841 -25.6538 -7.0983 -8.8886 6.4253 43.5160
#
#
#
# Elastic Compliance Matrix: (Units=1/GPa)
#
#
# Indices 1 2 3 4 5 6 
#
# 1 0.016303 -0.005425 -0.003542 0.002558 0.005855 0.008764
# 2 -0.005425 0.014859 -0.000217 -0.000542 0.003454 0.003817
# 3 -0.003542 -0.000217 0.008433 -0.003458 -0.000528 -0.002179
# 4 0.002558 -0.000542 -0.003458 0.034397 0.004355 0.007521
# 5 0.005855 0.003454 -0.000528 0.004355 0.033269 0.002554
# 6 0.008764 0.003817 -0.002179 0.007521 0.002554 0.032959
#
#
# Mechanical properties :
#
#
# Convention : Reuss Voigt Hill
#
# Bulk Modulus (GPa) = 47.10968 66.70392 56.90680
# Shear Modulus (GPa) = 30.18173 38.10217 34.14195
#
# Velocity S-wave (km/s) = 3.48257 3.91293 3.70400
# Velocity P-wave (km/s) = 5.92466 6.87162 6.41564
#
# Compressibility (1/GPa) = 0.02122706
#
# Stress axis : x y z
#
# Youngs Moduli (GPa) = 61.33990 67.29918 118.57984
#
# Poissons Ratio (x) = 0.36508 0.42000
# Poissons Ratio (y) = 0.33275 0.02576
# Poissons Ratio (z) = 0.21726 0.01462
#
# Static dielectric constant tensor:
#      x y z
#    x 5.233340 -0.478870 -0.425780 
#    y -0.478870 4.912240 0.075330 
#    z -0.425780 0.075330 4.592790 
# 
# 
# High freq. dielectric constant tensor:
#      x y z
#    x 1.989620 -0.031250 -0.008320 
#    y -0.031250 2.002900 -0.001480 
#    z -0.008320 -0.001480 2.004230 
# 
# From -- ./inp_files/343179.got.cif
#   From: 2010.06.25/outbox.cif.g09.slc.cpg/sg2_172_cif.got.tgz:343179.got - 2010.06.27 13:26:56.
