data_PCOD8001777
_publ_section_title
;
Structure prediction by ZEFSAII (Michael W. Deem and Ramdas Pophale) SiO2 
 PCOD8001777
Probable space group: P -1
;
_chemical_formula_sum "Si O2"
_cell_formula_units_Z 16
_cell_length_a 8.542790
_cell_length_b 17.133494
_cell_length_c 11.079545
_cell_angle_alpha 65.633654
_cell_angle_beta 39.755447
_cell_angle_gamma 57.032757
_cell_volume 870.049143
_symmetry_space_group_name_H-M "P -1"
_symmetry_group_IT_number 2
_symmetry_cell_setting 'triclinic'
loop_
_space_group_symop_operation_xyz
x,y,z
-x,-y,-z
loop_
_atom_site_type_symbol
_atom_site_label
_atom_site_fract_x
_atom_site_fract_y
_atom_site_fract_z
Si Si1 0.517701 0.908552 0.200013
Si Si2 0.271329 0.413296 0.215972
Si Si3 0.697557 0.717355 0.505500
Si Si4 0.285052 0.593252 0.213622
Si Si5 0.293946 0.580545 0.491332
Si Si6 0.674208 0.242364 0.521822
Si Si7 0.547709 0.076480 0.499597
Si Si8 0.082309 0.088095 0.229994
O O1 0.414541 0.825194 0.298041
O O2 0.584370 0.916934 0.294847
O O3 0.296614 0.006923 0.230654
O O4 0.784980 0.883696 0.980992
O O5 0.369315 0.340870 0.313300
O O6 0.226332 0.514086 0.228458
O O7 0.998039 0.418301 0.316167
O O8 0.492339 0.381074 0.001258
O O9 0.550503 0.707531 0.477073
O O10 0.592802 0.823669 0.544924
O O11 0.011724 0.683261 0.318950
O O12 0.381998 0.560472 0.312763
O O13 0.500000 0.500000 0.500000
O O14 0.285622 0.681138 0.467851
O O15 0.950406 0.179764 0.332270
O O16 0.861682 0.050898 0.339985
O O17 0.500000 0.000000 0.500000
#
# Coordination Sequence:
#
# PCOD8001777 Si02
#       8
#     2   2   2   2   2   2   2   2
#     4   9  19  36  56  77 105 141 176 214 262 312
#     4  10  21  37  56  78 106 139 173 212 261 314
#     4   9  19  36  56  75 104 143 173 211 260 310
#     4  10  21  37  56  78 106 139 173 212 261 314
#     4  11  22  37  55  80 108 135 174 219 260 306
#     4  10  20  34  56  79 105 138 175 219 260 307
#     4  10  21  35  53  80 109 138 176 219 260 305
#     4   9  19  36  56  77 105 141 176 214 262 312
#
# _framework density 18.389766999999999
#
# number of rings (size 3 to 8) (size 9 to 14) (size 15 to 20)
#    0.000    2.500    0.000    4.500    0.000   10.000 
#    0.000    2.500    0.000    0.000    0.000    0.000 
#    0.000    0.000    0.000    0.000    0.000    0.000 
#
# Total GULP energy -198410.222939 kJ/mol
# GULP energy per Si atom -12400.638934 kJ/mol
# Density = 1.834791 g / cm^3
# Si number density = 18.389767 Si / 1000 Ang^3
#
#
#
# Elastic Constant Matrix: (Units=GPa)
#
#
# Indices 1 2 3 4 5 6 
#
# 1 68.2398 19.4545 24.1366 -2.2189 -3.8563 8.1237
# 2 19.4545 55.8789 14.2004 -5.3721 -1.3897 4.7805
# 3 24.1366 14.2004 136.6117 -7.5276 4.3448 -1.8287
# 4 -2.2189 -5.3721 -7.5276 22.5943 -1.2466 0.1485
# 5 -3.8563 -1.3897 4.3448 -1.2466 14.1524 -4.1642
# 6 8.1237 4.7805 -1.8287 0.1485 -4.1642 45.8127
#
#
#
# Elastic Compliance Matrix: (Units=1/GPa)
#
#
# Indices 1 2 3 4 5 6 
#
# 1 0.017615 -0.005139 -0.002759 -0.000150 0.004454 -0.002292
# 2 -0.005139 0.020467 -0.001041 0.004074 0.000936 -0.001194
# 3 -0.002759 -0.001041 0.008130 0.002022 -0.002982 0.000645
# 4 -0.000150 0.004074 0.002022 0.046095 0.003762 -0.000125
# 5 0.004454 0.000936 -0.002982 0.003762 0.074916 0.005791
# 6 -0.002292 -0.001194 0.000645 -0.000125 0.005791 0.022911
#
#
# Mechanical properties :
#
#
# Convention : Reuss Voigt Hill
#
# Bulk Modulus (GPa) = 35.29227 41.81261 38.55244
# Shear Modulus (GPa) = 22.99318 30.04115 26.51717
#
# Velocity S-wave (km/s) = 3.53983 4.04614 3.80142
# Velocity P-wave (km/s) = 5.99501 6.67942 6.34644
#
# Compressibility (1/GPa) = 0.02833482
#
# Stress axis : x y z
#
# Youngs Moduli (GPa) = 56.77064 48.85989 122.99430
#
# Poissons Ratio (x) = 0.25110 0.33929
# Poissons Ratio (y) = 0.29176 0.12800
# Poissons Ratio (z) = 0.15661 0.05085
#
# Static dielectric constant tensor:
#      x y z
#    x 3.333310 -0.125540 0.032390 
#    y -0.125540 3.502650 -0.061990 
#    z 0.032390 -0.061990 3.568860 
# 
# 
# High freq. dielectric constant tensor:
#      x y z
#    x 1.706240 -0.008830 0.000020 
#    y -0.008830 1.722180 -0.002100 
#    z 0.000020 -0.002100 1.717980 
# 
# From -- ./inp_files/401151.got.cif
#   From: 2010.06.25/outbox.cif.g09.slc.cpg/sg2_201_cif.got.tgz:401151.got - 2010.06.27 13:26:56.
