data_PCOD8001753
_publ_section_title
;
Structure prediction by ZEFSAII (Michael W. Deem and Ramdas Pophale) SiO2 
 PCOD8001753
Probable space group: P -1
;
_chemical_formula_sum "Si O2"
_cell_formula_units_Z 16
_cell_length_a 14.489983
_cell_length_b 14.758314
_cell_length_c 8.884865
_cell_angle_alpha 129.939771
_cell_angle_beta 33.293549
_cell_angle_gamma 130.596859
_cell_volume 769.707388
_symmetry_space_group_name_H-M "P -1"
_symmetry_group_IT_number 2
_symmetry_cell_setting 'triclinic'
loop_
_space_group_symop_operation_xyz
x,y,z
-x,-y,-z
loop_
_atom_site_type_symbol
_atom_site_label
_atom_site_fract_x
_atom_site_fract_y
_atom_site_fract_z
Si Si1 0.844540 0.064584 0.282321
Si Si2 0.073897 0.213439 0.353387
Si Si3 0.020009 0.273247 0.807067
Si Si4 0.328716 0.681327 0.619360
Si Si5 0.832313 0.030094 0.933681
Si Si6 0.483305 0.945775 0.798347
Si Si7 0.621613 0.553537 0.528210
Si Si8 0.449941 0.364374 0.982821
O O1 0.797559 0.091596 0.205094
O O2 0.922956 0.187881 0.404812
O O3 0.673117 0.980077 0.502704
O O4 0.000000 0.000000 0.000000
O O5 0.006768 0.283098 0.654307
O O6 0.252801 0.296686 0.128047
O O7 0.108699 0.091335 0.247314
O O8 0.209764 0.355869 0.684286
O O9 0.873932 0.327369 0.140506
O O10 0.989531 0.130674 0.744437
O O11 0.413992 0.797698 0.734542
O O12 0.336743 0.556932 0.555338
O O13 0.421089 0.701796 0.349746
O O14 0.653214 0.998872 0.049002
O O15 0.500000 0.000000 0.000000
O O16 0.500000 0.500000 0.500000
O O17 0.538217 0.632207 0.845956
O O18 0.500000 0.500000 0.000000
#
# Coordination Sequence:
#
# PCOD8001753 Si02
#       8
#     2   2   2   2   2   2   2   2
#     4  10  20  34  55  82 112 148 190 238 287 339
#     4  10  20  37  58  83 113 153 196 239 291 345
#     4  10  21  37  57  82 114 152 191 236 288 345
#     4  10  20  39  59  80 113 153 191 236 287 343
#     4  10  21  35  56  84 118 153 193 242 289 344
#     4  11  23  38  58  87 119 157 195 236 292 348
#     4  10  22  38  60  87 112 147 195 241 287 342
#     4   9  20  38  60  81 111 151 190 232 287 344
#
# _framework density 20.787120000000002
#
# number of rings (size 3 to 8) (size 9 to 14) (size 15 to 20)
#    0.000    2.000    0.000    4.125    0.000    8.000 
#    0.000    3.125    0.000    0.000    0.000    0.000 
#    0.000    0.000    0.000    0.000    0.000    0.000 
#
# Total GULP energy -198299.600271 kJ/mol
# GULP energy per Si atom -12393.725017 kJ/mol
# Density = 2.073981 g / cm^3
# Si number density = 20.787120 Si / 1000 Ang^3
#
#
#
# Elastic Constant Matrix: (Units=GPa)
#
#
# Indices 1 2 3 4 5 6 
#
# 1 124.3824 28.3756 42.2478 -11.5013 11.3193 29.5895
# 2 28.3756 102.2537 41.3786 -23.7541 -3.1756 18.6479
# 3 42.2478 41.3786 130.9493 -27.8242 10.0809 14.2470
# 4 -11.5013 -23.7541 -27.8242 41.3885 3.7888 -3.5354
# 5 11.3193 -3.1756 10.0809 3.7888 27.3277 1.9644
# 6 29.5895 18.6479 14.2470 -3.5354 1.9644 35.2885
#
#
#
# Elastic Compliance Matrix: (Units=1/GPa)
#
#
# Indices 1 2 3 4 5 6 
#
# 1 0.011184 -0.000725 -0.002045 0.000968 -0.003530 -0.007876
# 2 -0.000725 0.013135 -0.002497 0.005014 0.002409 -0.004957
# 3 -0.002045 -0.002497 0.010613 0.005466 -0.004082 -0.000475
# 4 0.000968 0.005014 0.005466 0.031347 -0.006023 -0.002192
# 5 -0.003530 0.002409 -0.004082 -0.006023 0.040642 0.000469
# 6 -0.007876 -0.004957 -0.000475 -0.002192 0.000469 0.037507
#
#
# Mechanical properties :
#
#
# Convention : Reuss Voigt Hill
#
# Bulk Modulus (GPa) = 40.98746 64.62103 52.80424
# Shear Modulus (GPa) = 30.65701 37.17316 33.91509
#
# Velocity S-wave (km/s) = 3.84449 4.23339 4.04362
# Velocity P-wave (km/s) = 6.28230 7.41957 6.87449
#
# Compressibility (1/GPa) = 0.02439771
#
# Stress axis : x y z
#
# Youngs Moduli (GPa) = 89.41368 76.13282 94.22506
#
# Poissons Ratio (x) = 0.05516 0.19270
# Poissons Ratio (y) = 0.06479 0.23532
# Poissons Ratio (z) = 0.18286 0.19014
#
# Static dielectric constant tensor:
#      x y z
#    x 4.060660 0.294130 0.507060 
#    y 0.294130 3.927080 -0.179010 
#    z 0.507060 -0.179010 4.392540 
# 
# 
# High freq. dielectric constant tensor:
#      x y z
#    x 1.794370 0.020210 0.019910 
#    y 0.020210 1.817650 -0.015360 
#    z 0.019910 -0.015360 1.826500 
# 
# From -- ./inp_files/178071.got.cif
#   From: 2010.06.25/outbox.cif.g09.slc.cpg/sg2_90_cif.got.tgz:178071.got - 2010.06.27 13:26:56.
