data_PCOD8001737
_publ_section_title
;
Structure prediction by ZEFSAII (Michael W. Deem and Ramdas Pophale) SiO2 
 PCOD8001737
Probable space group: P -1
;
_chemical_formula_sum "Si O2"
_cell_formula_units_Z 16
_cell_length_a 15.536007
_cell_length_b 9.392023
_cell_length_c 13.948588
_cell_angle_alpha 89.957438
_cell_angle_beta 63.516577
_cell_angle_gamma 36.560192
_cell_volume 805.139361
_symmetry_space_group_name_H-M "P -1"
_symmetry_group_IT_number 2
_symmetry_cell_setting 'triclinic'
loop_
_space_group_symop_operation_xyz
x,y,z
-x,-y,-z
loop_
_atom_site_type_symbol
_atom_site_label
_atom_site_fract_x
_atom_site_fract_y
_atom_site_fract_z
Si Si1 0.672841 0.052003 0.936716
Si Si2 0.098556 0.959268 0.864868
Si Si3 0.140988 0.416130 0.292621
Si Si4 0.074852 0.247174 0.996541
Si Si5 0.986478 0.211612 0.327443
Si Si6 0.832540 0.314952 0.805653
Si Si7 0.292486 0.427285 0.715646
Si Si8 0.758229 0.741890 0.547878
O O1 0.749712 0.799379 0.854846
O O2 0.747625 0.968231 0.009157
O O3 0.415004 0.406171 0.060466
O O4 0.781385 0.031397 0.819381
O O5 0.294041 0.598045 0.728899
O O6 0.923028 0.215846 0.867768
O O7 0.180731 0.006392 0.859900
O O8 0.000000 0.000000 0.000000
O O9 0.140580 0.583546 0.273520
O O10 0.279193 0.192941 0.319567
O O11 0.895939 0.687541 0.432577
O O12 0.859633 0.447767 0.131785
O O13 0.000000 0.500000 0.000000
O O14 0.801193 0.488706 0.340961
O O15 0.891734 0.416056 0.468072
O O16 0.029197 0.988044 0.320507
O O17 0.530388 0.046024 0.606935
#
# Coordination Sequence:
#
# PCOD8001737 Si02
#       8
#     2   2   2   2   2   2   2   2
#     4  10  21  36  57  86 118 149 181 234 299 338
#     4   9  20  36  56  86 114 149 188 229 285 348
#     4  10  23  37  56  84 114 150 199 233 276 342
#     4  10  20  34  54  89 119 141 186 237 281 346
#     4   9  20  38  56  86 112 147 193 235 282 342
#     4  11  21  37  61  86 118 147 188 243 290 332
#     4   9  19  36  60  76 110 154 190 229 286 338
#     4  10  21  40  57  79 113 160 194 228 281 341
#
# _framework density 19.872335
#
# number of rings (size 3 to 8) (size 9 to 14) (size 15 to 20)
#    0.000    2.250    0.000    2.625    5.250    0.500 
#    4.500    3.750    0.000    0.000    0.000    0.000 
#    0.000    0.000    0.000    0.000    0.000    0.000 
#
# Total GULP energy -198322.901462 kJ/mol
# GULP energy per Si atom -12395.181341 kJ/mol
# Density = 1.982710 g / cm^3
# Si number density = 19.872335 Si / 1000 Ang^3
#
#
#
# Elastic Constant Matrix: (Units=GPa)
#
#
# Indices 1 2 3 4 5 6 
#
# 1 125.3485 48.1268 39.8251 12.4978 13.6105 7.9856
# 2 48.1268 85.6072 36.2091 14.2216 -6.7990 3.8714
# 3 39.8251 36.2091 57.8286 14.9066 0.5865 -10.7482
# 4 12.4978 14.2216 14.9066 20.4146 -2.0231 -0.4313
# 5 13.6105 -6.7990 0.5865 -2.0231 24.2078 4.8665
# 6 7.9856 3.8714 -10.7482 -0.4313 4.8665 36.9245
#
#
#
# Elastic Compliance Matrix: (Units=1/GPa)
#
#
# Indices 1 2 3 4 5 6 
#
# 1 0.013008 -0.005149 -0.005975 -0.000878 -0.008094 -0.002956
# 2 -0.005149 0.019940 -0.009108 -0.003258 0.009431 -0.004910
# 3 -0.005975 -0.009108 0.033090 -0.014262 -0.003643 0.012193
# 4 -0.000878 -0.003258 -0.014262 0.062713 0.005902 -0.003665
# 5 -0.008094 0.009431 -0.003643 0.005902 0.050473 -0.006882
# 6 -0.002956 -0.004910 0.012193 -0.003665 -0.006882 0.032650
#
#
# Mechanical properties :
#
#
# Convention : Reuss Voigt Hill
#
# Bulk Modulus (GPa) = 39.10232 57.45623 48.27927
# Shear Modulus (GPa) = 19.16708 25.95092 22.55900
#
# Velocity S-wave (km/s) = 3.10903 3.61762 3.37292
# Velocity P-wave (km/s) = 5.71030 6.81359 6.28620
#
# Compressibility (1/GPa) = 0.02557393
#
# Stress axis : x y z
#
# Youngs Moduli (GPa) = 76.87764 50.14942 30.22031
#
# Poissons Ratio (x) = 0.25820 0.18058
# Poissons Ratio (y) = 0.39581 0.27526
# Poissons Ratio (z) = 0.45937 0.45678
#
# Static dielectric constant tensor:
#      x y z
#    x 4.223510 0.087290 0.357400 
#    y 0.087290 3.490690 0.053520 
#    z 0.357400 0.053520 3.428010 
# 
# 
# High freq. dielectric constant tensor:
#      x y z
#    x 1.793670 0.001820 0.016420 
#    y 0.001820 1.770820 0.006740 
#    z 0.016420 0.006740 1.748140 
# 
# From -- ./inp_files/176626.got.cif
#   From: 2010.06.25/outbox.cif.g09.slc.cpg/sg2_89_cif.got.tgz:176626.got - 2010.06.27 13:26:56.
