data_PCOD8001103
_publ_section_title
;
Structure prediction by ZEFSAII (Michael W. Deem and Ramdas Pophale) SiO2 
 PCOD8001103
Probable space group: P -1
;
_chemical_formula_sum "Si O2"
_cell_formula_units_Z 16
_cell_length_a 14.042545
_cell_length_b 7.267343
_cell_length_c 8.526403
_cell_angle_alpha 56.339331
_cell_angle_beta 87.390803
_cell_angle_gamma 103.974244
_cell_volume 685.260452
_symmetry_space_group_name_H-M "P -1"
_symmetry_group_IT_number 2
_symmetry_cell_setting 'triclinic'
loop_
_space_group_symop_operation_xyz
x,y,z
-x,-y,-z
loop_
_atom_site_type_symbol
_atom_site_label
_atom_site_fract_x
_atom_site_fract_y
_atom_site_fract_z
Si Si1 0.316133 0.188537 0.963066
Si Si2 0.204000 0.427102 0.051856
Si Si3 0.480828 0.621716 0.600778
Si Si4 0.015224 0.809042 0.702997
Si Si5 0.355852 0.840944 0.345958
Si Si6 0.682373 0.597511 0.654034
Si Si7 0.177589 0.139226 0.726116
Si Si8 0.827563 0.387880 0.342342
O O1 0.230725 0.207138 0.081690
O O2 0.377699 0.038085 0.116634
O O3 0.393326 0.441244 0.795034
O O4 0.255110 0.065121 0.870265
O O5 0.281979 0.518245 0.144945
O O6 0.090013 0.362305 0.148335
O O7 0.220703 0.620571 0.823725
O O8 0.500000 0.500000 0.500000
O O9 0.448880 0.854497 0.452357
O O10 0.586672 0.687626 0.659618
O O11 0.067473 0.660610 0.662032
O O12 0.077245 0.923281 0.801931
O O13 0.000000 0.000000 0.500000
O O14 0.346320 0.593623 0.387696
O O15 0.251764 0.817062 0.455298
O O16 0.773183 0.810014 0.475587
O O17 0.151032 0.358522 0.698684
#
# Coordination Sequence:
#
# PCOD8001103 Si02
#       8
#     2   2   2   2   2   2   2   2
#     4  11  22  41  66  94 134 168 219 268 330 398
#     4  11  23  43  61  94 133 170 214 280 326 382
#     4  10  19  41  66  92 132 171 216 270 331 394
#     4  12  24  40  67  97 130 173 224 271 327 396
#     4  10  21  41  64  95 129 175 213 271 326 392
#     4  10  21  40  65  91 130 171 215 271 333 383
#     4  10  22  44  64  96 134 173 215 275 326 390
#     4  10  23  44  63  92 139 173 218 274 327 391
#
# _framework density 23.348783999999998
#
# number of rings (size 3 to 8) (size 9 to 14) (size 15 to 20)
#    0.000    1.500    6.250    1.125    1.750    5.000 
#    2.250    0.625    0.000    0.000    0.000    0.000 
#    0.000    0.000    0.000    0.000    0.000    0.000 
#
# Total GULP energy -198280.908842 kJ/mol
# GULP energy per Si atom -12392.556803 kJ/mol
# Density = 2.329564 g / cm^3
# Si number density = 23.348784 Si / 1000 Ang^3
#
#
#
# Elastic Constant Matrix: (Units=GPa)
#
#
# Indices 1 2 3 4 5 6 
#
# 1 154.8664 34.1495 46.5511 4.3854 14.5941 -7.9525
# 2 34.1495 25.7194 14.3612 12.9224 3.5710 -2.4470
# 3 46.5511 14.3612 125.7421 -0.5990 24.6973 -6.0720
# 4 4.3854 12.9224 -0.5990 24.8717 -9.0713 5.5765
# 5 14.5941 3.5710 24.6973 -9.0713 39.1263 5.3393
# 6 -7.9525 -2.4470 -6.0720 5.5765 5.3393 38.1017
#
#
#
# Elastic Compliance Matrix: (Units=1/GPa)
#
#
# Indices 1 2 3 4 5 6 
#
# 1 0.010381 -0.016090 -0.002085 0.006720 0.000505 -0.000253
# 2 -0.016090 0.090546 -0.001007 -0.052607 -0.015484 0.012166
# 3 -0.002085 -0.001007 0.010163 -0.001637 -0.006230 0.002233
# 4 0.006720 -0.052607 -0.001637 0.078896 0.023959 -0.017142
# 5 0.000505 -0.015484 -0.006230 0.023959 0.037727 -0.010675
# 6 -0.000253 0.012166 0.002233 -0.017142 -0.010675 0.031335
#
#
# Mechanical properties :
#
#
# Convention : Reuss Voigt Hill
#
# Bulk Modulus (GPa) = 13.75001 55.16128 34.45564
# Shear Modulus (GPa) = 15.54464 34.50435 25.02449
#
# Velocity S-wave (km/s) = 2.58303 3.84836 3.27734
# Velocity P-wave (km/s) = 3.84679 6.58959 5.39539
#
# Compressibility (1/GPa) = 0.07272721
#
# Stress axis : x y z
#
# Youngs Moduli (GPa) = 96.32994 11.04409 98.39368
#
# Poissons Ratio (x) = 0.17770 0.20514
# Poissons Ratio (y) = 1.54996 0.09904
# Poissons Ratio (z) = 0.20084 0.01112
#
# Static dielectric constant tensor:
#      x y z
#    x 4.871890 -0.144050 0.093060 
#    y -0.144050 3.823900 0.261280 
#    z 0.093060 0.261280 4.364580 
# 
# 
# High freq. dielectric constant tensor:
#      x y z
#    x 1.938000 -0.013450 0.012990 
#    y -0.013450 1.893240 0.016550 
#    z 0.012990 0.016550 1.928100 
# 
# From -- ./inp_files/242127.got.cif
#   From: 2010.06.25/outbox.cif.g09.slc.cpg/sg2_122_cif.got.tgz:242127.got - 2010.06.27 13:26:56.
