data_PCOD8001326
_publ_section_title
;
Structure prediction by ZEFSAII (Michael W. Deem and Ramdas Pophale) SiO2 
 PCOD8001326
Probable space group: P -1
;
_chemical_formula_sum "Si O2"
_cell_formula_units_Z 14
_cell_length_a 17.932087
_cell_length_b 10.265014
_cell_length_c 5.308394
_cell_angle_alpha 91.574235
_cell_angle_beta 128.993452
_cell_angle_gamma 110.862271
_cell_volume 665.726005
_symmetry_space_group_name_H-M "P -1"
_symmetry_group_IT_number 2
_symmetry_cell_setting 'triclinic'
loop_
_space_group_symop_operation_xyz
x,y,z
-x,-y,-z
loop_
_atom_site_type_symbol
_atom_site_label
_atom_site_fract_x
_atom_site_fract_y
_atom_site_fract_z
Si Si1 0.379431 0.680694 0.224469
Si Si2 0.773543 0.650074 0.112583
Si Si3 0.953831 0.573531 0.597142
Si Si4 0.923939 0.145695 0.816553
Si Si5 0.573840 0.174733 0.164861
Si Si6 0.152895 0.175667 0.207937
Si Si7 0.790245 0.277749 0.394803
O O1 0.448447 0.756246 0.626520
O O2 0.339671 0.504563 0.132795
O O3 0.454159 0.754642 0.137457
O O4 0.276020 0.714310 0.992856
O O5 0.874483 0.619523 0.282461
O O6 0.786562 0.734865 0.407969
O O7 0.774507 0.748384 0.880969
O O8 0.885161 0.448883 0.658646
O O9 0.000000 0.500000 0.500000
O O10 0.051163 0.722626 0.926404
O O11 0.842130 0.167261 0.449849
O O12 0.860899 0.988335 0.813396
O O13 0.033532 0.164277 0.918508
O O14 0.702750 0.218683 0.435184
O O15 0.500000 0.000000 0.000000
#
# Coordination Sequence:
#
# PCOD8001326 Si02
#       7
#     2   2   2   2   2   2   2
#     4   9  20  33  57  81 108 135 174 221 280 327
#     4  10  20  36  53  74 108 144 190 214 262 313
#     4  10  20  30  53  79 113 148 180 222 268 321
#     4  10  21  34  50  76 115 148 190 219 258 307
#     4  10  20  36  56  85 111 131 169 222 289 339
#     4  10  22  36  50  74 109 156 189 220 247 303
#     4   9  21  32  52  81 108 145 174 220 275 322
#
# _framework density 21.029671
#
# number of rings (size 3 to 8) (size 9 to 14) (size 15 to 20)
#    0.857    1.429    0.000    2.571    6.000    6.286 
#    0.000    0.000    0.000    0.000    0.000    6.000 
#    0.000    0.000    0.000    0.000    0.000    0.000 
#
# Total GULP energy -173449.505894 kJ/mol
# GULP energy per Si atom -12389.250421 kJ/mol
# Density = 2.098181 g / cm^3
# Si number density = 21.029671 Si / 1000 Ang^3
#
#
#
# Elastic Constant Matrix: (Units=GPa)
#
#
# Indices 1 2 3 4 5 6 
#
# 1 37.3892 35.5128 31.7417 4.4757 -13.8751 19.2470
# 2 35.5128 168.2696 52.6688 16.6272 -13.2694 35.2690
# 3 31.7417 52.6688 87.7022 13.8713 -28.3036 21.9225
# 4 4.4757 16.6272 13.8713 33.9294 6.5166 1.3296
# 5 -13.8751 -13.2694 -28.3036 6.5166 24.2406 -5.4622
# 6 19.2470 35.2690 21.9225 1.3296 -5.4622 44.9489
#
#
#
# Elastic Compliance Matrix: (Units=1/GPa)
#
#
# Indices 1 2 3 4 5 6 
#
# 1 0.049188 -0.004015 -0.005553 -0.005198 0.017971 -0.012866
# 2 -0.004015 0.008566 -0.002770 -0.002179 -0.001096 -0.003719
# 3 -0.005553 -0.002770 0.029656 -0.016171 0.033058 -0.005417
# 4 -0.005198 -0.002179 -0.016171 0.044004 -0.033424 0.006459
# 5 0.017971 -0.001096 0.033058 -0.033424 0.096208 -0.010278
# 6 -0.012866 -0.003719 -0.005417 0.006459 -0.010278 0.031877
#
#
# Mechanical properties :
#
#
# Convention : Reuss Voigt Hill
#
# Bulk Modulus (GPa) = 15.94078 59.24527 37.59303
# Shear Modulus (GPa) = 16.38874 32.18631 24.28752
#
# Velocity S-wave (km/s) = 2.79465 3.91643 3.40209
# Velocity P-wave (km/s) = 4.24382 6.97744 5.77471
#
# Compressibility (1/GPa) = 0.06273220
#
# Stress axis : x y z
#
# Youngs Moduli (GPa) = 20.33002 116.74272 33.71984
#
# Poissons Ratio (x) = 0.46878 0.18726
# Poissons Ratio (y) = 0.08163 0.09341
# Poissons Ratio (z) = 0.11290 0.32341
#
# Static dielectric constant tensor:
#      x y z
#    x 3.344460 0.230700 -0.004780 
#    y 0.230700 4.046080 0.046070 
#    z -0.004780 0.046070 3.539430 
# 
# 
# High freq. dielectric constant tensor:
#      x y z
#    x 1.775760 0.022660 -0.011590 
#    y 0.022660 1.840540 0.006690 
#    z -0.011590 0.006690 1.802330 
# 
# From -- ./inp_files/70162.got.cif
#   From: 2010.06.25/outbox.cif.g09.slc.cpg/sg2_36_cif.got.tgz:70162.got - 2010.06.27 13:26:56.
