data_PCOD8001836
_publ_section_title
;
Structure prediction by ZEFSAII (Michael W. Deem and Ramdas Pophale) SiO2 
 PCOD8001836
Probable space group: P -1
;
_chemical_formula_sum "Si O2"
_cell_formula_units_Z 16
_cell_length_a 23.090486
_cell_length_b 8.627735
_cell_length_c 9.305147
_cell_angle_alpha 98.167920
_cell_angle_beta 146.151959
_cell_angle_gamma 102.363506
_cell_volume 815.825884
_symmetry_space_group_name_H-M "P -1"
_symmetry_group_IT_number 2
_symmetry_cell_setting 'triclinic'
loop_
_space_group_symop_operation_xyz
x,y,z
-x,-y,-z
loop_
_atom_site_type_symbol
_atom_site_label
_atom_site_fract_x
_atom_site_fract_y
_atom_site_fract_z
Si Si1 0.150493 0.334608 0.146275
Si Si2 0.590756 0.374992 0.808532
Si Si3 0.348821 0.618396 0.383039
Si Si4 0.086470 0.727378 0.239649
Si Si5 0.420035 0.034999 0.586434
Si Si6 0.705781 0.318991 0.279074
Si Si7 0.223211 0.063049 0.359384
Si Si8 0.451008 0.384107 0.034555
O O1 0.206789 0.432575 0.119010
O O2 0.231860 0.506769 0.454367
O O3 0.162083 0.159534 0.170900
O O4 0.996698 0.238056 0.819433
O O5 0.622811 0.437767 0.718281
O O6 0.466350 0.143722 0.540064
O O7 0.551011 0.496481 0.823916
O O8 0.714914 0.409699 0.152438
O O9 0.452443 0.664859 0.723839
O O10 0.351608 0.806972 0.395894
O O11 0.222334 0.784826 0.591574
O O12 0.110955 0.846105 0.158489
O O13 0.000000 0.500000 0.000000
O O14 0.314359 0.057240 0.434336
O O15 0.551172 0.150014 0.972862
O O16 0.306598 0.186874 0.687874
O O17 0.500000 0.500000 0.000000
#
# Coordination Sequence:
#
# PCOD8001836 Si02
#       8
#     2   2   2   2   2   2   2   2
#     4  11  21  37  56  84 114 149 197 233 277 335
#     4  10  21  37  54  84 120 151 184 229 286 347
#     4  12  22  34  56  85 119 155 184 226 289 340
#     4  10  22  36  57  86 112 147 193 242 280 329
#     4  10  20  34  57  86 118 147 186 233 287 345
#     4   9  19  38  56  83 117 144 191 236 286 327
#     4  12  20  36  61  87 113 149 184 241 291 328
#     4  12  20  37  58  88 119 146 184 237 286 345
#
# _framework density 19.612027999999999
#
# number of rings (size 3 to 8) (size 9 to 14) (size 15 to 20)
#    0.750    0.500    3.750    4.125    0.000    1.500 
#    0.000    0.625    0.000    0.750    0.000    0.000 
#    0.000    0.000    0.000    0.000    0.000    0.000 
#
# Total GULP energy -198261.012722 kJ/mol
# GULP energy per Si atom -12391.313295 kJ/mol
# Density = 1.956739 g / cm^3
# Si number density = 19.612028 Si / 1000 Ang^3
#
#
#
# Elastic Constant Matrix: (Units=GPa)
#
#
# Indices 1 2 3 4 5 6 
#
# 1 135.7007 60.4019 36.0667 -11.4309 17.3615 9.8168
# 2 60.4019 99.1199 18.5710 0.9126 11.9163 4.1960
# 3 36.0667 18.5710 26.0290 -5.1420 12.0946 0.5121
# 4 -11.4309 0.9126 -5.1420 26.1235 -3.2244 7.9277
# 5 17.3615 11.9163 12.0946 -3.2244 35.7671 -4.5574
# 6 9.8168 4.1960 0.5121 7.9277 -4.5574 40.9871
#
#
#
# Elastic Compliance Matrix: (Units=1/GPa)
#
#
# Indices 1 2 3 4 5 6 
#
# 1 0.014738 -0.006040 -0.015053 0.004798 -0.000086 -0.003661
# 2 -0.006040 0.014321 -0.001953 -0.003888 -0.001454 0.000595
# 3 -0.015053 -0.001953 0.068493 0.005045 -0.014705 0.000338
# 4 0.004798 -0.003888 0.005045 0.044365 0.000064 -0.009388
# 5 -0.000086 -0.001454 -0.014705 0.000064 0.033988 0.004120
# 6 -0.003661 0.000595 0.000338 -0.009388 0.004120 0.027484
#
#
# Mechanical properties :
#
#
# Convention : Reuss Voigt Hill
#
# Bulk Modulus (GPa) = 19.43229 54.54764 36.98996
# Shear Modulus (GPa) = 18.75243 30.29621 24.52432
#
# Velocity S-wave (km/s) = 3.09555 3.93463 3.54004
# Velocity P-wave (km/s) = 4.76513 6.96531 5.96749
#
# Compressibility (1/GPa) = 0.05146075
#
# Stress axis : x y z
#
# Youngs Moduli (GPa) = 67.85050 69.82979 14.60008
#
# Poissons Ratio (x) = 0.42176 0.21978
# Poissons Ratio (y) = 0.40980 0.02851
# Poissons Ratio (z) = 1.02136 0.13635
#
# Static dielectric constant tensor:
#      x y z
#    x 3.687910 -0.073140 0.405010 
#    y -0.073140 3.842040 -0.140660 
#    z 0.405010 -0.140660 3.529150 
# 
# 
# High freq. dielectric constant tensor:
#      x y z
#    x 1.756660 -0.006720 0.024600 
#    y -0.006720 1.784360 -0.006870 
#    z 0.024600 -0.006870 1.721110 
# 
# From -- ./inp_files/341945.got.cif
#   From: 2010.06.25/outbox.cif.g09.slc.cpg/sg2_171_cif.got.tgz:341945.got - 2010.06.27 13:26:56.
