data_PCOD8001734
_publ_section_title
;
Structure prediction by ZEFSAII (Michael W. Deem and Ramdas Pophale) SiO2 
 PCOD8001734
Probable space group: P -1
;
_chemical_formula_sum "Si O2"
_cell_formula_units_Z 16
_cell_length_a 11.865579
_cell_length_b 9.197120
_cell_length_c 23.849806
_cell_angle_alpha 134.247350
_cell_angle_beta 40.698876
_cell_angle_gamma 102.022832
_cell_volume 883.933898
_symmetry_space_group_name_H-M "P -1"
_symmetry_group_IT_number 2
_symmetry_cell_setting 'triclinic'
loop_
_space_group_symop_operation_xyz
x,y,z
-x,-y,-z
loop_
_atom_site_type_symbol
_atom_site_label
_atom_site_fract_x
_atom_site_fract_y
_atom_site_fract_z
Si Si1 0.372902 0.281957 0.091459
Si Si2 0.619358 0.519470 0.388467
Si Si3 0.140489 0.280143 0.613875
Si Si4 0.788691 0.035879 0.267327
Si Si5 0.830210 0.559944 0.903938
Si Si6 0.883423 0.312197 0.123128
Si Si7 0.610590 0.730783 0.241995
Si Si8 0.687612 0.419668 0.023471
O O1 0.366902 0.229603 0.012993
O O2 0.099187 0.533774 0.283935
O O3 0.505466 0.383989 0.079475
O O4 0.500000 0.000000 0.000000
O O5 0.770081 0.559682 0.378732
O O6 0.690002 0.236502 0.304930
O O7 0.343272 0.785622 0.577817
O O8 0.668195 0.505739 0.300765
O O9 0.064017 0.283908 0.708157
O O10 0.344833 0.965527 0.430321
O O11 0.752790 0.826775 0.214044
O O12 0.063441 0.865300 0.124714
O O13 0.719483 0.486656 0.967858
O O14 0.906656 0.697104 0.946532
O O15 0.765784 0.446115 0.143099
O O16 0.000000 0.000000 0.000000
O O17 0.585665 0.669855 0.171980
#
# Coordination Sequence:
#
# PCOD8001734 Si02
#       8
#     2   2   2   2   2   2   2   2
#     4  10  22  40  64  80 110 154 202 237 274 338
#     4   9  19  34  56  80 119 149 188 234 280 350
#     4   8  20  39  58  84 112 152 199 225 285 343
#     4  10  20  34  54  87 115 150 187 233 295 339
#     4   9  22  39  58  84 111 150 195 232 274 348
#     4  11  22  35  58  86 124 149 189 234 296 346
#     4  11  23  35  59  88 120 150 181 243 299 338
#     4  12  22  35  60  85 116 147 195 238 285 336
#
# _framework density 18.100901
#
# number of rings (size 3 to 8) (size 9 to 14) (size 15 to 20)
#    0.750    1.250    1.250    2.250    5.250    2.000 
#    0.000    0.000    0.000    0.750    0.000    0.000 
#    0.000    0.000    0.000    0.000    0.000    0.000 
#
# Total GULP energy -198310.120465 kJ/mol
# GULP energy per Si atom -12394.382529 kJ/mol
# Density = 1.805970 g / cm^3
# Si number density = 18.100901 Si / 1000 Ang^3
#
#
#
# Elastic Constant Matrix: (Units=GPa)
#
#
# Indices 1 2 3 4 5 6 
#
# 1 68.7592 23.1498 40.8779 2.9693 -7.5262 -3.3286
# 2 23.1498 89.2014 31.9295 6.9701 2.7911 -4.1092
# 3 40.8779 31.9295 95.6383 5.5270 -6.9929 5.6327
# 4 2.9693 6.9701 5.5270 26.1520 -2.2056 -0.3465
# 5 -7.5262 2.7911 -6.9929 -2.2056 25.3182 -6.6294
# 6 -3.3286 -4.1092 5.6327 -0.3465 -6.6294 26.2398
#
#
#
# Elastic Compliance Matrix: (Units=1/GPa)
#
#
# Indices 1 2 3 4 5 6 
#
# 1 0.021090 -0.002548 -0.008095 0.000557 0.005800 0.005487
# 2 -0.002548 0.013555 -0.003600 -0.002794 -0.003026 0.001771
# 3 -0.008095 -0.003600 0.015544 -0.001390 0.000929 -0.004711
# 4 0.000557 -0.002794 -0.001390 0.039563 0.003914 0.001443
# 5 0.005800 -0.003026 0.000929 0.003914 0.045170 0.011526
# 6 0.005487 0.001771 -0.004711 0.001443 0.011526 0.043026
#
#
# Mechanical properties :
#
#
# Convention : Reuss Voigt Hill
#
# Bulk Modulus (GPa) = 46.07825 49.50148 47.78987
# Shear Modulus (GPa) = 23.40064 26.05146 24.72605
#
# Velocity S-wave (km/s) = 3.59944 3.79784 3.69997
# Velocity P-wave (km/s) = 6.54112 6.82923 6.68672
#
# Compressibility (1/GPa) = 0.02170221
#
# Stress axis : x y z
#
# Youngs Moduli (GPa) = 47.41511 73.77212 64.33413
#
# Poissons Ratio (x) = 0.18798 0.52079
# Poissons Ratio (y) = 0.12082 0.23163
# Poissons Ratio (z) = 0.38383 0.26562
#
# Static dielectric constant tensor:
#      x y z
#    x 3.213980 -0.006190 0.005610 
#    y -0.006190 3.343410 -0.156350 
#    z 0.005610 -0.156350 3.437940 
# 
# 
# High freq. dielectric constant tensor:
#      x y z
#    x 1.681800 0.001140 0.000170 
#    y 0.001140 1.705450 -0.009680 
#    z 0.000170 -0.009680 1.700420 
# 
# From -- ./inp_files/447922.got.cif
#   From: 2010.06.25/outbox.cif.g09.slc.cpg/sg2_224_cif.got.tgz:447922.got - 2010.06.27 13:26:56.
