data_PCOD8001428
_publ_section_title
;
Structure prediction by ZEFSAII (Michael W. Deem and Ramdas Pophale) SiO2 
 PCOD8001428
Probable space group: P -1
;
_chemical_formula_sum "Si O2"
_cell_formula_units_Z 14
_cell_length_a 14.909584
_cell_length_b 5.554077
_cell_length_c 11.961335
_cell_angle_alpha 115.762165
_cell_angle_beta 42.490365
_cell_angle_gamma 125.153761
_cell_volume 546.933653
_symmetry_space_group_name_H-M "P -1"
_symmetry_group_IT_number 2
_symmetry_cell_setting 'triclinic'
loop_
_space_group_symop_operation_xyz
x,y,z
-x,-y,-z
loop_
_atom_site_type_symbol
_atom_site_label
_atom_site_fract_x
_atom_site_fract_y
_atom_site_fract_z
Si Si1 0.680021 0.906769 0.362520
Si Si2 0.945554 0.468427 0.715314
Si Si3 0.260806 0.316646 0.960522
Si Si4 0.452485 0.178853 0.190438
Si Si5 0.278155 0.099231 0.125609
Si Si6 0.360205 0.532796 0.507124
Si Si7 0.780623 0.381143 0.628336
O O1 0.759543 0.867078 0.169739
O O2 0.505740 0.736084 0.481008
O O3 0.730078 0.756917 0.390236
O O4 0.724057 0.259739 0.403258
O O5 0.867696 0.326758 0.641477
O O6 0.120907 0.595607 0.568567
O O7 0.872481 0.193303 0.810794
O O8 0.898384 0.719411 0.857549
O O9 0.371248 0.668150 0.916743
O O10 0.336405 0.209260 0.969606
O O11 0.411873 0.089087 0.077316
O O12 0.395144 0.424351 0.333748
O O13 0.377145 0.899767 0.286984
O O14 0.233847 0.319658 0.281461
#
# Coordination Sequence:
#
# PCOD8001428 Si02
#       7
#     2   2   2   2   2   2   2
#     4   9  19  35  56  81 112 151 194 234 280 340
#     4   9  19  35  53  76 109 149 189 224 274 343
#     4  10  21  34  55  84 114 143 181 237 290 336
#     4  10  21  34  55  84 114 143 181 237 290 336
#     4  10  20  32  54  84 112 146 180 230 288 346
#     4   9  19  35  56  81 112 151 194 234 280 340
#     4   9  19  35  53  76 109 149 189 224 274 343
#
# _framework density 25.597252999999998
#
# number of rings (size 3 to 8) (size 9 to 14) (size 15 to 20)
#    0.000    2.571    0.000    0.857    4.000    7.429 
#    0.000    0.000    0.000    1.714    0.000    0.000 
#    0.000    0.000    0.000    0.000    0.000    0.000 
#
# Total GULP energy -173493.241463 kJ/mol
# GULP energy per Si atom -12392.374390 kJ/mol
# Density = 2.553899 g / cm^3
# Si number density = 25.597253 Si / 1000 Ang^3
#
#
#
# Elastic Constant Matrix: (Units=GPa)
#
#
# Indices 1 2 3 4 5 6 
#
# 1 50.3177 16.4449 15.6314 -12.9334 17.0854 -11.5615
# 2 16.4449 91.6241 6.6967 -10.8086 4.6901 -25.6987
# 3 15.6314 6.6967 114.1982 -9.6734 5.1328 -7.5843
# 4 -12.9334 -10.8086 -9.6734 40.2425 5.2986 2.8302
# 5 17.0854 4.6901 5.1328 5.2986 26.6635 -3.9564
# 6 -11.5615 -25.6987 -7.5843 2.8302 -3.9564 27.8902
#
#
#
# Elastic Compliance Matrix: (Units=1/GPa)
#
#
# Indices 1 2 3 4 5 6 
#
# 1 0.033280 -0.001022 -0.001935 0.012298 -0.022037 0.007954
# 2 -0.001022 0.015181 0.000419 0.003012 -0.000726 0.013270
# 3 -0.001935 0.000419 0.009293 0.001685 -0.000684 0.001843
# 4 0.012298 0.003012 0.001685 0.031722 -0.014587 0.003043
# 5 -0.022037 -0.000726 -0.000684 -0.014587 0.054671 -0.000754
# 6 0.007954 0.013270 0.001843 0.003043 -0.000754 0.051465
#
#
# Mechanical properties :
#
#
# Convention : Reuss Voigt Hill
#
# Bulk Modulus (GPa) = 18.98332 37.07620 28.02976
# Shear Modulus (GPa) = 22.90967 33.45038 28.18003
#
# Velocity S-wave (km/s) = 2.99491 3.61888 3.32158
# Velocity P-wave (km/s) = 4.40359 5.65488 5.06800
#
# Compressibility (1/GPa) = 0.05267782
#
# Stress axis : x y z
#
# Youngs Moduli (GPa) = 30.04807 65.86978 107.60960
#
# Poissons Ratio (x) = 0.06732 0.20822
# Poissons Ratio (y) = 0.03071 -0.04506
# Poissons Ratio (z) = 0.05814 -0.02758
#
# Static dielectric constant tensor:
#      x y z
#    x 4.181570 -0.222720 0.068820 
#    y -0.222720 4.760640 -0.080890 
#    z 0.068820 -0.080890 4.651660 
# 
# 
# High freq. dielectric constant tensor:
#      x y z
#    x 1.984810 -0.016010 0.011060 
#    y -0.016010 2.030610 0.009190 
#    z 0.011060 0.009190 2.021730 
# 
# From -- ./inp_files/64970.got.cif
#   From: 2010.06.25/outbox.cif.g09.slc.cpg/sg2_33_cif.got.tgz:64970.got - 2010.06.27 13:26:56.
