data_PCOD8001565
_publ_section_title
;
Structure prediction by ZEFSAII (Michael W. Deem and Ramdas Pophale) SiO2 
 PCOD8001565
Probable space group: P -1
;
_chemical_formula_sum "Si O2"
_cell_formula_units_Z 14
_cell_length_a 12.993040
_cell_length_b 14.219597
_cell_length_c 10.886750
_cell_angle_alpha 52.085106
_cell_angle_beta 33.932061
_cell_angle_gamma 31.722404
_cell_volume 561.100781
_symmetry_space_group_name_H-M "P -1"
_symmetry_group_IT_number 2
_symmetry_cell_setting 'triclinic'
loop_
_space_group_symop_operation_xyz
x,y,z
-x,-y,-z
loop_
_atom_site_type_symbol
_atom_site_label
_atom_site_fract_x
_atom_site_fract_y
_atom_site_fract_z
Si Si1 0.968551 0.278949 0.700247
Si Si2 0.334381 0.693252 0.346411
Si Si3 0.746459 0.900935 0.682114
Si Si4 0.150121 0.294656 0.028118
Si Si5 0.525491 0.662729 0.935282
Si Si6 0.879475 0.963782 0.057471
Si Si7 0.735076 0.298369 0.331396
O O1 0.721824 0.309873 0.876723
O O2 0.197778 0.182980 0.440855
O O3 0.130031 0.155622 0.764848
O O4 0.825775 0.476017 0.723066
O O5 0.539802 0.661187 0.072044
O O6 0.445651 0.498815 0.394859
O O7 0.354323 0.736853 0.431396
O O8 0.001597 0.865757 0.493376
O O9 0.751722 0.787649 0.863681
O O10 0.447025 0.126559 0.790400
O O11 0.921878 0.314653 0.185580
O O12 0.000000 0.500000 0.000000
O O13 0.441381 0.836207 0.829919
O O14 0.089414 0.863766 0.811450
O O15 0.000000 0.000000 0.000000
#
# Coordination Sequence:
#
# PCOD8001565 Si02
#       7
#     2   2   2   2   2   2   2
#     4   9  17  33  53  82 119 150 194 237 283 350
#     4   9  18  37  58  90 119 149 189 256 294 336
#     4   9  20  39  62  85 117 156 196 247 293 350
#     4  10  22  43  61  83 117 162 199 240 295 353
#     4   9  17  31  53  83 120 155 183 234 299 348
#     4  10  20  33  55  88 120 156 188 236 301 350
#     4  10  20  38  59  88 125 149 195 254 289 340
#
# _framework density 24.950956000000001
#
# number of rings (size 3 to 8) (size 9 to 14) (size 15 to 20)
#    0.000    2.571    1.429    0.000    2.000    1.714 
#   28.286    0.714    0.000    1.714    0.000    0.000 
#    0.000    0.000    0.000    0.000    0.000    0.000 
#
# Total GULP energy -173454.317106 kJ/mol
# GULP energy per Si atom -12389.594079 kJ/mol
# Density = 2.489417 g / cm^3
# Si number density = 24.950956 Si / 1000 Ang^3
#
#
#
# Elastic Constant Matrix: (Units=GPa)
#
#
# Indices 1 2 3 4 5 6 
#
# 1 61.9677 37.2878 41.6687 4.0812 34.3905 -7.9497
# 2 37.2878 161.5279 72.8451 42.8697 36.1460 -26.8177
# 3 41.6687 72.8451 141.8969 39.9161 60.4143 -8.3401
# 4 4.0812 42.8697 39.9161 40.7006 -0.5249 5.3074
# 5 34.3905 36.1460 60.4143 -0.5249 60.7415 -5.3102
# 6 -7.9497 -26.8177 -8.3401 5.3074 -5.3102 32.8699
#
#
#
# Elastic Compliance Matrix: (Units=1/GPa)
#
#
# Indices 1 2 3 4 5 6 
#
# 1 0.024966 -0.003066 -0.002120 0.002550 -0.010097 0.000956
# 2 -0.003066 0.016370 0.005794 -0.024875 -0.012578 0.016069
# 3 -0.002120 0.005794 0.027435 -0.034750 -0.028774 0.012138
# 4 0.002550 -0.024875 -0.034750 0.089830 0.045583 -0.035636
# 5 -0.010097 -0.012578 -0.028774 0.045583 0.057092 -0.018142
# 6 0.000956 0.016069 0.012138 -0.035636 -0.018142 0.049667
#
#
# Mechanical properties :
#
#
# Convention : Reuss Voigt Hill
#
# Bulk Modulus (GPa) = 14.28824 74.33284 44.31054
# Shear Modulus (GPa) = 17.39291 41.10178 29.24735
#
# Velocity S-wave (km/s) = 2.64310 4.06310 3.42745
# Velocity P-wave (km/s) = 3.87990 7.20194 5.78453
#
# Compressibility (1/GPa) = 0.06998760
#
# Stress axis : x y z
#
# Youngs Moduli (GPa) = 40.05485 61.08668 36.44929
#
# Poissons Ratio (x) = 0.18728 0.07726
# Poissons Ratio (y) = 0.12280 -0.21117
# Poissons Ratio (z) = 0.08490 -0.35391
#
# Static dielectric constant tensor:
#      x y z
#    x 4.350440 -0.686990 0.419260 
#    y -0.686990 4.919150 0.073050 
#    z 0.419260 0.073050 4.521470 
# 
# 
# High freq. dielectric constant tensor:
#      x y z
#    x 1.970180 -0.026140 0.028670 
#    y -0.026140 1.993480 0.021110 
#    z 0.028670 0.021110 1.992040 
# 
# From -- ./inp_files/455611.got.cif
#   From: 2010.06.25/outbox.cif.g09.slc.cpg/sg2_228_cif.got.tgz:455611.got - 2010.06.27 13:26:56.
