data_PCOD8001592
_publ_section_title
;
Structure prediction by ZEFSAII (Michael W. Deem and Ramdas Pophale) SiO2 
 PCOD8001592
Probable space group: P -1
;
_chemical_formula_sum "Si O2"
_cell_formula_units_Z 16
_cell_length_a 28.901870
_cell_length_b 15.321669
_cell_length_c 8.369253
_cell_angle_alpha 41.437200
_cell_angle_beta 33.752936
_cell_angle_gamma 21.883996
_cell_volume 763.226964
_symmetry_space_group_name_H-M "P -1"
_symmetry_group_IT_number 2
_symmetry_cell_setting 'triclinic'
loop_
_space_group_symop_operation_xyz
x,y,z
-x,-y,-z
loop_
_atom_site_type_symbol
_atom_site_label
_atom_site_fract_x
_atom_site_fract_y
_atom_site_fract_z
Si Si1 0.305710 0.793038 0.200554
Si Si2 0.954674 0.907896 0.950762
Si Si3 0.470901 0.939471 0.809201
Si Si4 0.354550 0.645842 0.620769
Si Si5 0.707160 0.579412 0.864777
Si Si6 0.009392 0.135712 0.460051
Si Si7 0.241474 0.408673 0.949771
Si Si8 0.443497 0.363354 0.272603
O O1 0.363052 0.680923 0.365759
O O2 0.337154 0.631735 0.206011
O O3 0.401337 0.795908 0.868490
O O4 0.129807 0.052068 0.341938
O O5 0.944030 0.896931 0.808982
O O6 0.074288 0.651550 0.036714
O O7 0.013675 0.977533 0.717429
O O8 0.792583 0.096562 0.231619
O O9 0.575887 0.830479 0.809316
O O10 0.510316 0.742474 0.895922
O O11 0.500000 0.000000 0.500000
O O12 0.301322 0.187148 0.018375
O O13 0.500000 0.500000 0.500000
O O14 0.342385 0.504488 0.845127
O O15 0.846403 0.406184 0.583058
O O16 0.755108 0.592259 0.868403
O O17 0.360858 0.358233 0.613056
#
# Coordination Sequence:
#
# PCOD8001592 Si02
#       8
#     2   2   2   2   2   2   2   2
#     4  11  21  35  58  85 123 150 183 237 289 346
#     4  10  21  34  56  85 114 151 189 232 290 337
#     4  10  22  37  59  81 114 154 196 237 275 334
#     4  11  23  35  57  88 124 146 182 240 295 345
#     4  11  21  36  59  87 114 149 197 236 286 336
#     4  10  20  33  57  84 117 147 187 239 287 340
#     4  11  20  39  59  83 118 151 199 235 273 338
#     4  10  21  35  57  85 116 153 191 227 289 333
#
# _framework density 20.963619000000001
#
# number of rings (size 3 to 8) (size 9 to 14) (size 15 to 20)
#    0.000    1.500    2.500    3.375    7.000    2.000 
#    0.000    0.000    0.000   15.000    0.000    0.000 
#    0.000    0.000    0.000    0.000    0.000    0.000 
#
# Total GULP energy -198311.658598 kJ/mol
# GULP energy per Si atom -12394.478662 kJ/mol
# Density = 2.091590 g / cm^3
# Si number density = 20.963619 Si / 1000 Ang^3
#
#
#
# Elastic Constant Matrix: (Units=GPa)
#
#
# Indices 1 2 3 4 5 6 
#
# 1 88.0303 43.1434 24.0844 15.2653 7.7296 -4.0052
# 2 43.1434 117.0063 26.5262 31.8532 9.7641 -16.2493
# 3 24.0844 26.5262 71.6401 24.9769 -3.2367 -3.9265
# 4 15.2653 31.8532 24.9769 31.6555 -1.2505 0.2426
# 5 7.7296 9.7641 -3.2367 -1.2505 28.7398 11.8041
# 6 -4.0052 -16.2493 -3.9265 0.2426 11.8041 39.9787
#
#
#
# Elastic Compliance Matrix: (Units=1/GPa)
#
#
# Indices 1 2 3 4 5 6 
#
# 1 0.014714 -0.004315 -0.003404 -0.000188 -0.002994 0.000271
# 2 -0.004315 0.015946 0.000899 -0.015072 -0.008387 0.008705
# 3 -0.003404 0.000899 0.020218 -0.015168 0.001551 0.001644
# 4 -0.000188 -0.015072 -0.015168 0.059320 0.010615 -0.011129
# 5 -0.002994 -0.008387 0.001551 0.010615 0.046173 -0.017254
# 6 0.000271 0.008705 0.001644 -0.011129 -0.017254 0.033902
#
#
# Mechanical properties :
#
#
# Convention : Reuss Voigt Hill
#
# Bulk Modulus (GPa) = 26.85328 51.57608 39.21468
# Shear Modulus (GPa) = 23.11363 32.26963 27.69163
#
# Velocity S-wave (km/s) = 3.32408 3.92767 3.63841
# Velocity P-wave (km/s) = 5.25071 6.72494 6.03303
#
# Compressibility (1/GPa) = 0.03723939
#
# Stress axis : x y z
#
# Youngs Moduli (GPa) = 67.96469 62.71349 49.46032
#
# Poissons Ratio (x) = 0.27060 0.16834
# Poissons Ratio (y) = 0.29326 -0.04449
# Poissons Ratio (z) = 0.23132 -0.05641
#
# Static dielectric constant tensor:
#      x y z
#    x 4.109810 0.329430 0.142490 
#    y 0.329430 3.944440 0.289830 
#    z 0.142490 0.289830 3.699400 
# 
# 
# High freq. dielectric constant tensor:
#      x y z
#    x 1.822850 -0.005570 0.017420 
#    y -0.005570 1.811290 0.028030 
#    z 0.017420 0.028030 1.808120 
# 
# From -- ./inp_files/270197.got.cif
#   From: 2010.06.25/outbox.cif.g09.slc.cpg/sg2_136_cif.got.tgz:270197.got - 2010.06.27 13:26:56.
