data_PCOD8001263
_publ_section_title
;
Structure prediction by ZEFSAII (Michael W. Deem and Ramdas Pophale) SiO2 
 PCOD8001263
Probable space group: P -1
;
_chemical_formula_sum "Si O2"
_cell_formula_units_Z 16
_cell_length_a 17.966673
_cell_length_b 8.909891
_cell_length_c 9.131692
_cell_angle_alpha 125.073802
_cell_angle_beta 105.331604
_cell_angle_gamma 40.663006
_cell_volume 738.157931
_symmetry_space_group_name_H-M "P -1"
_symmetry_group_IT_number 2
_symmetry_cell_setting 'triclinic'
loop_
_space_group_symop_operation_xyz
x,y,z
-x,-y,-z
loop_
_atom_site_type_symbol
_atom_site_label
_atom_site_fract_x
_atom_site_fract_y
_atom_site_fract_z
Si Si1 0.659206 0.795731 0.774045
Si Si2 0.553324 0.627354 0.703702
Si Si3 0.720529 0.809743 0.111831
Si Si4 0.150477 0.702228 0.615371
Si Si5 0.801003 0.298024 0.027469
Si Si6 0.555512 0.574166 0.002595
Si Si7 0.784484 0.066268 0.395770
Si Si8 0.054170 0.199133 0.393821
O O1 0.627204 0.680004 0.792427
O O2 0.735829 0.613970 0.568369
O O3 0.533458 0.099188 0.819106
O O4 0.723440 0.808986 0.934850
O O5 0.636877 0.361988 0.482852
O O6 0.416023 0.913646 0.740700
O O7 0.559483 0.520389 0.803236
O O8 0.778901 0.517232 0.039427
O O9 0.806169 0.823124 0.208725
O O10 0.157968 0.710785 0.797435
O O11 0.144347 0.913358 0.653808
O O12 0.039062 0.771172 0.560781
O O13 0.683059 0.389018 0.035252
O O14 0.901965 0.980702 0.832600
O O15 0.500000 0.500000 0.000000
O O16 0.833412 0.984951 0.541131
O O17 0.000000 0.500000 0.500000
#
# Coordination Sequence:
#
# PCOD8001263 Si02
#       8
#     2   2   2   2   2   2   2   2
#     4  10  21  43  63  97 137 178 211 268 328 390
#     4  10  19  43  64  97 139 181 210 260 338 396
#     4  11  21  40  71  97 135 180 212 262 338 405
#     4  11  27  43  68 101 133 170 229 275 322 388
#     4  12  24  46  67 100 135 173 224 269 333 395
#     4  11  22  35  68  98 137 172 214 272 328 390
#     4  11  24  43  69 100 131 175 223 276 326 394
#     4  12  27  50  71  89 131 182 224 278 332 386
#
# _framework density 21.675578000000002
#
# number of rings (size 3 to 8) (size 9 to 14) (size 15 to 20)
#    0.000    1.000    3.750    3.375    5.250    1.500 
#    0.000    1.875    0.000    0.000    0.000    0.000 
#    0.000    0.000    0.000    0.000    0.000    0.000 
#
# Total GULP energy -198324.060643 kJ/mol
# GULP energy per Si atom -12395.253790 kJ/mol
# Density = 2.162624 g / cm^3
# Si number density = 21.675578 Si / 1000 Ang^3
#
#
#
# Elastic Constant Matrix: (Units=GPa)
#
#
# Indices 1 2 3 4 5 6 
#
# 1 123.0875 21.9934 51.8946 18.1367 5.0068 8.9289
# 2 21.9934 78.4807 38.9937 10.4685 -2.7842 8.1280
# 3 51.8946 38.9937 122.3356 5.8362 1.6168 1.9792
# 4 18.1367 10.4685 5.8362 32.0424 -0.9114 4.4597
# 5 5.0068 -2.7842 1.6168 -0.9114 30.2854 0.8447
# 6 8.9289 8.1280 1.9792 4.4597 0.8447 23.2793
#
#
#
# Elastic Compliance Matrix: (Units=1/GPa)
#
#
# Indices 1 2 3 4 5 6 
#
# 1 0.010976 -0.000009 -0.004344 -0.005075 -0.001658 -0.002805
# 2 -0.000009 0.016234 -0.004943 -0.003708 0.001774 -0.004599
# 3 -0.004344 -0.004943 0.011483 0.001679 -0.000358 0.002107
# 4 -0.005075 -0.003708 0.001679 0.035557 0.001584 -0.003771
# 5 -0.001658 0.001774 -0.000358 0.001584 0.033564 -0.001475
# 6 -0.002805 -0.004599 0.002107 -0.003771 -0.001475 0.046235
#
#
# Mechanical properties :
#
#
# Convention : Reuss Voigt Hill
#
# Bulk Modulus (GPa) = 49.74657 61.07413 55.41035
# Shear Modulus (GPa) = 27.87984 31.18956 29.53470
#
# Velocity S-wave (km/s) = 3.59030 3.79743 3.69532
# Velocity P-wave (km/s) = 6.33935 6.88948 6.62013
#
# Compressibility (1/GPa) = 0.02010189
#
# Stress axis : x y z
#
# Youngs Moduli (GPa) = 91.10789 61.59821 87.08600
#
# Poissons Ratio (x) = 0.00056 0.37828
# Poissons Ratio (y) = 0.00082 0.43046
# Poissons Ratio (z) = 0.39575 0.30447
#
# Static dielectric constant tensor:
#      x y z
#    x 3.990050 -0.080910 0.076640 
#    y -0.080910 3.687840 0.144750 
#    z 0.076640 0.144750 3.909250 
# 
# 
# High freq. dielectric constant tensor:
#      x y z
#    x 1.860670 -0.000680 0.008260 
#    y -0.000680 1.841390 0.007690 
#    z 0.008260 0.007690 1.853120 
# 
# From -- ./inp_files/329460.got.cif
#   From: 2010.06.25/outbox.cif.g09.slc.cpg/sg2_165_cif.got.tgz:329460.got - 2010.06.27 13:26:56.
