data_PCOD8001086
_publ_section_title
;
Structure prediction by ZEFSAII (Michael W. Deem and Ramdas Pophale) SiO2 
 PCOD8001086
Probable space group: P -1
;
_chemical_formula_sum "Si O2"
_cell_formula_units_Z 14
_cell_length_a 8.801424
_cell_length_b 14.269719
_cell_length_c 11.714765
_cell_angle_alpha 55.795017
_cell_angle_beta 62.395161
_cell_angle_gamma 109.009413
_cell_volume 647.172350
_symmetry_space_group_name_H-M "P -1"
_symmetry_group_IT_number 2
_symmetry_cell_setting 'triclinic'
loop_
_space_group_symop_operation_xyz
x,y,z
-x,-y,-z
loop_
_atom_site_type_symbol
_atom_site_label
_atom_site_fract_x
_atom_site_fract_y
_atom_site_fract_z
Si Si1 0.188523 0.450634 0.555956
Si Si2 0.208131 0.559041 0.230206
Si Si3 0.723910 0.529364 0.952020
Si Si4 0.290639 0.189536 0.492536
Si Si5 0.238788 0.220322 0.739127
Si Si6 0.200231 0.035052 0.319651
Si Si7 0.761480 0.072645 0.409241
O O1 0.159337 0.452138 0.429079
O O2 0.111479 0.280863 0.735065
O O3 0.511496 0.653505 0.340638
O O4 0.964400 0.414976 0.719707
O O5 0.108456 0.441713 0.230635
O O6 0.545801 0.759917 0.964785
O O7 0.945904 0.701931 0.844623
O O8 0.500000 0.500000 0.000000
O O9 0.558643 0.348038 0.207180
O O10 0.380380 0.265394 0.537378
O O11 0.015076 0.121321 0.598359
O O12 0.185065 0.004757 0.640572
O O13 0.000000 0.000000 0.000000
O O14 0.320956 0.998085 0.381343
O O15 0.000000 0.000000 0.500000
O O16 0.500000 0.000000 0.500000
#
# Coordination Sequence:
#
# PCOD8001086 Si02
#       7
#     2   2   2   2   2   2   2
#     4  10  26  46  68 102 133 188 231 289 336 413
#     4  11  22  45  72  99 144 175 237 287 341 409
#     4  12  22  41  73  99 135 185 220 279 351 416
#     4  11  23  43  68  98 132 182 230 271 346 418
#     4  11  25  47  70  95 137 183 238 280 351 408
#     4  10  19  41  65  95 136 175 221 275 336 412
#     4  11  25  38  61 105 139 169 219 285 351 400
#
# _framework density 21.632567999999999
#
# number of rings (size 3 to 8) (size 9 to 14) (size 15 to 20)
#    0.000    1.143    4.286    2.571    2.000    5.143 
#    0.000    2.143    0.000    0.000    0.000    0.000 
#    0.000    0.000    0.000    0.000    0.000    0.000 
#
# Total GULP energy -173550.802551 kJ/mol
# GULP energy per Si atom -12396.485896 kJ/mol
# Density = 2.158333 g / cm^3
# Si number density = 21.632568 Si / 1000 Ang^3
#
#
#
# Elastic Constant Matrix: (Units=GPa)
#
#
# Indices 1 2 3 4 5 6 
#
# 1 131.4441 52.9523 47.7117 -3.8149 -5.4099 -0.1937
# 2 52.9523 129.4979 42.3779 -3.4862 -1.1289 -7.9787
# 3 47.7117 42.3779 102.6558 -8.5699 -0.2457 -16.6487
# 4 -3.8149 -3.4862 -8.5699 47.9977 2.2795 -1.2957
# 5 -5.4099 -1.1289 -0.2457 2.2795 29.1232 -2.8553
# 6 -0.1937 -7.9787 -16.6487 -1.2957 -2.8553 30.2444
#
#
#
# Elastic Compliance Matrix: (Units=1/GPa)
#
#
# Indices 1 2 3 4 5 6 
#
# 1 0.010361 -0.003090 -0.004017 -0.000267 0.001515 -0.002829
# 2 -0.003090 0.009857 -0.002426 0.000075 -0.000097 0.001239
# 3 -0.004017 -0.002426 0.013941 0.002194 -0.000200 0.007084
# 4 -0.000267 0.000075 0.002194 0.021336 -0.001502 0.001998
# 5 0.001515 -0.000097 -0.000200 -0.001502 0.035036 0.003117
# 6 -0.002829 0.001239 0.007084 0.001998 0.003117 0.037652
#
#
# Mechanical properties :
#
#
# Convention : Reuss Voigt Hill
#
# Bulk Modulus (GPa) = 66.25625 72.18685 69.22155
# Shear Modulus (GPa) = 32.83380 36.17679 34.50530
#
# Velocity S-wave (km/s) = 3.90012 4.09385 3.99816
# Velocity P-wave (km/s) = 7.13973 7.46914 7.30629
#
# Compressibility (1/GPa) = 0.01509292
#
# Stress axis : x y z
#
# Youngs Moduli (GPa) = 96.51183 101.44856 71.72864
#
# Poissons Ratio (x) = 0.31352 0.28816
# Poissons Ratio (y) = 0.29826 0.17400
# Poissons Ratio (z) = 0.38772 0.24610
#
# Static dielectric constant tensor:
#      x y z
#    x 4.149150 0.205060 -0.017360 
#    y 0.205060 4.172960 -0.019020 
#    z -0.017360 -0.019020 3.753460 
# 
# 
# High freq. dielectric constant tensor:
#      x y z
#    x 1.850600 0.009850 0.008490 
#    y 0.009850 1.855930 -0.009250 
#    z 0.008490 -0.009250 1.839300 
# 
# From -- ./inp_files/398752.got.cif
#   From: 2010.06.25/outbox.cif.g09.slc.cpg/sg2_200_cif.got.tgz:398752.got - 2010.06.27 13:26:56.
