data_PCOD8001250
_publ_section_title
;
Structure prediction by ZEFSAII (Michael W. Deem and Ramdas Pophale) SiO2 
 PCOD8001250
Probable space group: P -1
;
_chemical_formula_sum "Si O2"
_cell_formula_units_Z 16
_cell_length_a 11.002514
_cell_length_b 9.408250
_cell_length_c 12.272240
_cell_angle_alpha 136.517597
_cell_angle_beta 57.069665
_cell_angle_gamma 117.557868
_cell_volume 728.586128
_symmetry_space_group_name_H-M "P -1"
_symmetry_group_IT_number 2
_symmetry_cell_setting 'triclinic'
loop_
_space_group_symop_operation_xyz
x,y,z
-x,-y,-z
loop_
_atom_site_type_symbol
_atom_site_label
_atom_site_fract_x
_atom_site_fract_y
_atom_site_fract_z
Si Si1 0.494212 0.279021 0.824576
Si Si2 0.409778 0.088159 0.325902
Si Si3 0.821754 0.939201 0.101358
Si Si4 0.907083 0.041527 0.890683
Si Si5 0.911007 0.859591 0.556902
Si Si6 0.350968 0.712155 0.826985
Si Si7 0.800911 0.423145 0.380389
Si Si8 0.531728 0.386795 0.626415
O O1 0.334220 0.152695 0.832396
O O2 0.545176 0.282926 0.678034
O O3 0.606237 0.152637 0.764826
O O4 0.500000 0.500000 0.000000
O O5 0.259516 0.138477 0.378073
O O6 0.531099 0.110834 0.183676
O O7 0.460423 0.224578 0.482243
O O8 0.943351 0.844138 0.063618
O O9 0.849936 0.192881 0.239895
O O10 0.837757 0.886725 0.935177
O O11 0.955908 0.937634 0.699195
O O12 0.787611 0.194743 0.000129
O O13 0.934328 0.612650 0.410167
O O14 0.000000 0.000000 0.500000
O O15 0.293001 0.558654 0.672736
O O16 0.432342 0.575472 0.795981
O O17 0.696219 0.472474 0.558789
#
# Coordination Sequence:
#
# PCOD8001250 Si02
#       8
#     2   2   2   2   2   2   2   2
#     4  12  27  40  65 107 137 169 234 292 336 394
#     4  11  22  45  67  96 140 176 229 285 338 414
#     4  10  23  48  67  95 140 186 227 268 354 414
#     4  10  24  43  69  94 140 188 220 280 338 416
#     4  12  27  42  66 107 138 173 236 286 337 399
#     4  10  19  42  73  95 125 186 232 263 346 413
#     4  10  20  42  71  96 128 182 228 274 335 414
#     4  11  21  39  73  99 129 183 227 282 344 400
#
# _framework density 21.960341
#
# number of rings (size 3 to 8) (size 9 to 14) (size 15 to 20)
#    0.000    1.250    6.250    1.125    5.250    1.000 
#    6.750    3.125    0.000    0.000    0.000    0.000 
#    0.000    0.000    0.000    0.000    0.000    0.000 
#
# Total GULP energy -198256.935912 kJ/mol
# GULP energy per Si atom -12391.058494 kJ/mol
# Density = 2.191036 g / cm^3
# Si number density = 21.960341 Si / 1000 Ang^3
#
#
#
# Elastic Constant Matrix: (Units=GPa)
#
#
# Indices 1 2 3 4 5 6 
#
# 1 51.4999 16.8660 16.2155 -0.7685 -4.8340 0.2776
# 2 16.8660 121.2282 46.4632 4.5393 8.6695 7.9247
# 3 16.2155 46.4632 77.0568 -4.5651 7.3903 1.7891
# 4 -0.7685 4.5393 -4.5651 39.6698 -8.0057 -5.2758
# 5 -4.8340 8.6695 7.3903 -8.0057 29.1920 1.1637
# 6 0.2776 7.9247 1.7891 -5.2758 1.1637 30.2254
#
#
#
# Elastic Compliance Matrix: (Units=1/GPa)
#
#
# Indices 1 2 3 4 5 6 
#
# 1 0.021835 -0.002067 -0.003811 0.001423 0.005561 0.000601
# 2 -0.002067 0.011478 -0.006322 -0.003065 -0.002870 -0.003041
# 3 -0.003811 -0.006322 0.017962 0.002321 -0.002710 0.001139
# 4 0.001423 -0.003065 0.002321 0.028183 0.008078 0.005261
# 5 0.005561 -0.002870 -0.002710 0.008078 0.038900 0.000774
# 6 0.000601 -0.003041 0.001139 0.005261 0.000774 0.034698
#
#
# Mechanical properties :
#
#
# Convention : Reuss Voigt Hill
#
# Bulk Modulus (GPa) = 37.20997 45.43048 41.32023
# Shear Modulus (GPa) = 26.82199 31.16678 28.99439
#
# Velocity S-wave (km/s) = 3.49862 3.77135 3.63754
# Velocity P-wave (km/s) = 5.77074 6.30052 6.04144
#
# Compressibility (1/GPa) = 0.02687452
#
# Stress axis : x y z
#
# Youngs Moduli (GPa) = 45.79900 87.12151 55.67227
#
# Poissons Ratio (x) = 0.18011 0.21218
# Poissons Ratio (y) = 0.09468 0.35195
# Poissons Ratio (z) = 0.17455 0.55076
#
# Static dielectric constant tensor:
#      x y z
#    x 4.047530 -0.121140 -0.103420 
#    y -0.121140 4.023520 0.037980 
#    z -0.103420 0.037980 3.876740 
# 
# 
# High freq. dielectric constant tensor:
#      x y z
#    x 1.857850 -0.013440 -0.007240 
#    y -0.013440 1.854830 -0.001530 
#    z -0.007240 -0.001530 1.857760 
# 
# From -- ./inp_files/419955.got.cif
#   From: 2010.06.25/outbox.cif.g09.slc.cpg/sg2_210_cif.got.tgz:419955.got - 2010.06.27 13:26:56.
