data_PCOD8001253
_publ_section_title
;
Structure prediction by ZEFSAII (Michael W. Deem and Ramdas Pophale) SiO2 
 PCOD8001253
Probable space group: P -1
;
_chemical_formula_sum "Si O2"
_cell_formula_units_Z 16
_cell_length_a 9.135817
_cell_length_b 18.491471
_cell_length_c 14.274258
_cell_angle_alpha 147.720968
_cell_angle_beta 40.430194
_cell_angle_gamma 142.908077
_cell_volume 747.929521
_symmetry_space_group_name_H-M "P -1"
_symmetry_group_IT_number 2
_symmetry_cell_setting 'triclinic'
loop_
_space_group_symop_operation_xyz
x,y,z
-x,-y,-z
loop_
_atom_site_type_symbol
_atom_site_label
_atom_site_fract_x
_atom_site_fract_y
_atom_site_fract_z
Si Si1 0.003731 0.914077 0.763157
Si Si2 0.198572 0.419172 0.552066
Si Si3 0.578830 0.620104 0.014032
Si Si4 0.621680 0.049236 0.097097
Si Si5 0.045660 0.602144 0.681519
Si Si6 0.306008 0.056924 0.613965
Si Si7 0.445841 0.950249 0.266458
Si Si8 0.875405 0.376431 0.849240
O O1 0.880959 0.733340 0.637932
O O2 0.041702 0.942053 0.662669
O O3 0.262515 0.999391 0.789938
O O4 0.821621 0.987224 0.959960
O O5 0.500000 0.500000 0.500000
O O6 0.109489 0.526902 0.657077
O O7 0.064057 0.383847 0.680857
O O8 0.796311 0.620981 0.843139
O O9 0.500000 0.500000 0.000000
O O10 0.652410 0.779788 0.199392
O O11 0.333087 0.573223 0.022984
O O12 0.730757 0.229025 0.255091
O O13 0.413403 0.968867 0.191863
O O14 0.500000 0.000000 0.000000
O O15 0.000000 0.500000 0.500000
O O16 0.500000 0.000000 0.500000
O O17 0.335622 0.055893 0.486530
O O18 0.257912 0.785446 0.213888
O O19 0.000000 0.500000 0.000000
#
# Coordination Sequence:
#
# PCOD8001253 Si02
#       8
#     2   2   2   2   2   2   2   2
#     4  11  21  45  77  99 132 188 248 290 347 436
#     4  12  27  47  72 106 151 191 235 306 371 439
#     4  12  24  45  75 107 144 187 245 308 359 422
#     4  12  27  45  69 104 149 186 234 306 368 423
#     4  12  28  47  71 108 151 193 243 300 371 436
#     4  10  19  42  74 102 131 174 250 297 340 417
#     4  11  23  44  77 102 131 189 253 289 342 441
#     4  12  26  44  71 109 144 187 240 302 370 433
#
# _framework density 21.392389999999999
#
# number of rings (size 3 to 8) (size 9 to 14) (size 15 to 20)
#    0.000    0.500    6.250    2.625    7.000    0.000 
#    0.000    0.625    0.000    0.000    0.000    0.000 
#    0.000    0.000    0.000    0.000    0.000    0.000 
#
# Total GULP energy -198230.996883 kJ/mol
# GULP energy per Si atom -12389.437305 kJ/mol
# Density = 2.134370 g / cm^3
# Si number density = 21.392390 Si / 1000 Ang^3
#
#
#
# Elastic Constant Matrix: (Units=GPa)
#
#
# Indices 1 2 3 4 5 6 
#
# 1 100.1565 64.0418 57.2651 -4.4074 21.5388 -6.5462
# 2 64.0418 160.3875 69.1824 3.3843 10.7399 -12.0180
# 3 57.2651 69.1824 161.1833 10.7937 14.1340 -6.2612
# 4 -4.4074 3.3843 10.7937 41.6667 -5.3909 7.4672
# 5 21.5388 10.7399 14.1340 -5.3909 37.3283 -2.4615
# 6 -6.5462 -12.0180 -6.2612 7.4672 -2.4615 41.7017
#
#
#
# Elastic Compliance Matrix: (Units=1/GPa)
#
#
# Indices 1 2 3 4 5 6 
#
# 1 0.016432 -0.004712 -0.003390 0.002164 -0.006533 -0.000061
# 2 -0.004712 0.009160 -0.002210 -0.000871 0.000912 0.001778
# 3 -0.003390 -0.002210 0.008646 -0.002649 -0.001028 0.000543
# 4 0.002164 -0.000871 -0.002649 0.026299 0.003485 -0.004812
# 5 -0.006533 0.000912 -0.001028 0.003485 0.031210 0.000301
# 6 -0.000061 0.001778 0.000543 -0.004812 0.000301 0.025444
#
#
# Mechanical properties :
#
#
# Convention : Reuss Voigt Hill
#
# Bulk Modulus (GPa) = 73.45384 89.18955 81.32170
# Shear Modulus (GPa) = 35.12431 39.55521 37.33976
#
# Velocity S-wave (km/s) = 4.05644 4.30470 4.18241
# Velocity P-wave (km/s) = 7.50670 8.15414 7.83711
#
# Compressibility (1/GPa) = 0.01361399
#
# Stress axis : x y z
#
# Youngs Moduli (GPa) = 60.85862 109.16827 115.66224
#
# Poissons Ratio (x) = 0.51435 0.39209
# Poissons Ratio (y) = 0.28674 0.25565
# Poissons Ratio (z) = 0.20631 0.24130
#
# Static dielectric constant tensor:
#      x y z
#    x 3.736120 -0.156290 0.131940 
#    y -0.156290 4.296820 -0.271910 
#    z 0.131940 -0.271910 4.374840 
# 
# 
# High freq. dielectric constant tensor:
#      x y z
#    x 1.821380 -0.009960 0.005230 
#    y -0.009960 1.858900 -0.000650 
#    z 0.005230 -0.000650 1.861400 
# 
# From -- ./inp_files/507327.got.cif
#   From: 2010.06.25/outbox.cif.g09.slc.cpg/sg2_254_cif.got.tgz:507327.got - 2010.06.27 13:26:56.
