data_PCOD8001072
_publ_section_title
;
Structure prediction by ZEFSAII (Michael W. Deem and Ramdas Pophale) SiO2 
 PCOD8001072
Probable space group: P -1
;
_chemical_formula_sum "Si O2"
_cell_formula_units_Z 16
_cell_length_a 11.013259
_cell_length_b 21.397934
_cell_length_c 8.213168
_cell_angle_alpha 139.410234
_cell_angle_beta 40.225424
_cell_angle_gamma 138.034129
_cell_volume 748.973443
_symmetry_space_group_name_H-M "P -1"
_symmetry_group_IT_number 2
_symmetry_cell_setting 'triclinic'
loop_
_space_group_symop_operation_xyz
x,y,z
-x,-y,-z
loop_
_atom_site_type_symbol
_atom_site_label
_atom_site_fract_x
_atom_site_fract_y
_atom_site_fract_z
Si Si1 0.082763 0.754213 0.730995
Si Si2 0.079534 0.150995 0.425213
Si Si3 0.601524 0.782464 0.484356
Si Si4 0.043575 0.062938 0.746335
Si Si5 0.071110 0.447883 0.970905
Si Si6 0.820259 0.254793 0.034193
Si Si7 0.625131 0.351040 0.814137
Si Si8 0.752647 0.683355 0.667634
O O1 0.047990 0.713954 0.872698
O O2 0.283335 0.738769 0.427188
O O3 0.886992 0.683683 0.687985
O O4 0.103720 0.874754 0.947550
O O5 0.238937 0.210679 0.524335
O O6 0.173120 0.199682 0.251845
O O7 0.010140 0.026010 0.236042
O O8 0.877204 0.172978 0.708838
O O9 0.718885 0.857827 0.360223
O O10 0.419668 0.806554 0.801772
O O11 0.493615 0.670311 0.281107
O O12 0.000000 0.000000 0.500000
O O13 0.222551 0.394191 0.646434
O O14 0.192056 0.535475 0.153020
O O15 0.000000 0.500000 0.000000
O O16 0.872776 0.361304 0.088408
O O17 0.482239 0.351426 0.112390
#
# Coordination Sequence:
#
# PCOD8001072 Si02
#       8
#     2   2   2   2   2   2   2   2
#     4  11  21  41  64  90 131 157 207 266 301 366
#     4  10  22  40  63  93 129 163 209 253 311 367
#     4  10  21  38  65  90 123 162 211 254 301 372
#     4  10  19  41  64  93 126 165 205 256 309 366
#     4  11  24  43  64  92 127 166 205 260 312 372
#     4  10  22  40  64  90 123 167 204 255 314 360
#     4  11  23  42  63  90 126 168 206 258 311 365
#     4  11  23  42  65  89 130 167 204 257 315 367
#
# _framework density 21.362572
#
# number of rings (size 3 to 8) (size 9 to 14) (size 15 to 20)
#    0.000    1.500    5.000    0.375    1.750    3.000 
#    2.250    3.750    0.000    0.000    0.000    0.000 
#    0.000    0.000    0.000    0.000    0.000    0.000 
#
# Total GULP energy -198259.805199 kJ/mol
# GULP energy per Si atom -12391.237825 kJ/mol
# Density = 2.131395 g / cm^3
# Si number density = 21.362572 Si / 1000 Ang^3
#
#
#
# Elastic Constant Matrix: (Units=GPa)
#
#
# Indices 1 2 3 4 5 6 
#
# 1 61.8345 29.6261 5.2861 0.6461 -6.3130 -4.3120
# 2 29.6261 89.1974 32.9906 1.9745 -21.2186 -15.9869
# 3 5.2861 32.9906 107.3581 -2.5780 -23.1456 1.7962
# 4 0.6461 1.9745 -2.5780 36.9829 7.6912 0.6308
# 5 -6.3130 -21.2186 -23.1456 7.6912 26.0918 3.6578
# 6 -4.3120 -15.9869 1.7962 0.6308 3.6578 36.3778
#
#
#
# Elastic Compliance Matrix: (Units=1/GPa)
#
#
# Indices 1 2 3 4 5 6 
#
# 1 0.019384 -0.007016 0.001261 0.000098 0.000196 -0.000869
# 2 -0.007016 0.018484 -0.003250 -0.003394 0.010547 0.006450
# 3 0.001261 -0.003250 0.012256 -0.000855 0.009178 -0.002792
# 4 0.000098 -0.003394 -0.000855 0.029698 -0.012147 -0.000731
# 5 0.000196 0.010547 0.009178 -0.012147 0.058884 -0.001505
# 6 -0.000869 0.006450 -0.002792 -0.000731 -0.001505 0.030523
#
#
# Mechanical properties :
#
#
# Convention : Reuss Voigt Hill
#
# Bulk Modulus (GPa) = 31.13973 43.79950 37.46961
# Shear Modulus (GPa) = 25.25974 32.58966 28.92470
#
# Velocity S-wave (km/s) = 3.44238 3.91007 3.68365
# Velocity P-wave (km/s) = 5.51438 6.39783 5.97246
#
# Compressibility (1/GPa) = 0.03211332
#
# Stress axis : x y z
#
# Youngs Moduli (GPa) = 51.58827 54.10210 81.59225
#
# Poissons Ratio (x) = 0.37958 -0.10286
# Poissons Ratio (y) = 0.36194 0.26517
# Poissons Ratio (z) = -0.06503 0.17583
#
# Static dielectric constant tensor:
#      x y z
#    x 3.779680 -0.006560 -0.037260 
#    y -0.006560 4.346720 0.079400 
#    z -0.037260 0.079400 4.121710 
# 
# 
# High freq. dielectric constant tensor:
#      x y z
#    x 1.824170 0.002840 0.004080 
#    y 0.002840 1.819880 -0.003190 
#    z 0.004080 -0.003190 1.851530 
# 
# From -- ./inp_files/283320.got.cif
#   From: 2010.06.25/outbox.cif.g09.slc.cpg/sg2_142_cif.got.tgz:283320.got - 2010.06.27 13:26:56.
