data_PCOD8001091
_publ_section_title
;
Structure prediction by ZEFSAII (Michael W. Deem and Ramdas Pophale) SiO2 
 PCOD8001091
Probable space group: P -1
;
_chemical_formula_sum "Si O2"
_cell_formula_units_Z 16
_cell_length_a 13.313065
_cell_length_b 17.842379
_cell_length_c 9.031915
_cell_angle_alpha 124.135991
_cell_angle_beta 92.306194
_cell_angle_gamma 39.860022
_cell_volume 770.316658
_symmetry_space_group_name_H-M "P -1"
_symmetry_group_IT_number 2
_symmetry_cell_setting 'triclinic'
loop_
_space_group_symop_operation_xyz
x,y,z
-x,-y,-z
loop_
_atom_site_type_symbol
_atom_site_label
_atom_site_fract_x
_atom_site_fract_y
_atom_site_fract_z
Si Si1 0.470106 0.531930 0.204263
Si Si2 0.664864 0.276750 0.190471
Si Si3 0.758544 0.802984 0.240391
Si Si4 0.042651 0.274669 0.289542
Si Si5 0.083797 0.809922 0.680561
Si Si6 0.937952 0.599842 0.320719
Si Si7 0.602312 0.602686 0.454443
Si Si8 0.431814 0.928785 0.715012
O O1 0.605431 0.343158 0.090273
O O2 0.198368 0.731715 0.439765
O O3 0.570817 0.546804 0.276339
O O4 0.500000 0.500000 0.000000
O O5 0.699629 0.343244 0.361536
O O6 0.490946 0.346535 0.332088
O O7 0.908846 0.031639 0.933860
O O8 0.918959 0.679404 0.260286
O O9 0.500000 0.000000 0.500000
O O10 0.738279 0.909247 0.254819
O O11 0.863357 0.636417 0.960164
O O12 0.983362 0.406664 0.539469
O O13 0.023359 0.200500 0.306684
O O14 0.868338 0.415263 0.293963
O O15 0.303070 0.070525 0.012871
O O16 0.686990 0.762502 0.524478
O O17 0.455727 0.801899 0.591261
#
# Coordination Sequence:
#
# PCOD8001091 Si02
#       8
#     2   2   2   2   2   2   2   2
#     4  11  23  42  61  91 128 164 202 259 318 375
#     4  10  19  41  66  83 122 163 206 254 316 362
#     4   9  21  46  65  84 125 170 203 255 316 372
#     4  12  22  39  65  96 123 162 216 261 308 369
#     4  10  20  39  65  89 118 163 206 257 309 375
#     4  10  23  43  65  91 129 170 207 257 315 367
#     4  11  22  39  64  91 124 164 209 261 311 371
#     4  11  23  40  63  96 126 165 210 263 312 365
#
# _framework density 20.770679999999999
#
# number of rings (size 3 to 8) (size 9 to 14) (size 15 to 20)
#    0.000    1.500    3.750    1.875    0.000    4.500 
#   11.250    0.000    0.000    0.000    0.000    0.000 
#    0.000    0.000    0.000    0.000    0.000    0.000 
#
# Total GULP energy -198240.503025 kJ/mol
# GULP energy per Si atom -12390.031439 kJ/mol
# Density = 2.072340 g / cm^3
# Si number density = 20.770680 Si / 1000 Ang^3
#
#
#
# Elastic Constant Matrix: (Units=GPa)
#
#
# Indices 1 2 3 4 5 6 
#
# 1 88.5526 59.0282 51.2241 -1.6729 2.8059 18.3621
# 2 59.0282 108.6078 49.9161 -10.4853 11.2262 22.4823
# 3 51.2241 49.9161 135.4024 -7.6628 -9.0118 -0.3423
# 4 -1.6729 -10.4853 -7.6628 33.9254 2.0674 0.7991
# 5 2.8059 11.2262 -9.0118 2.0674 29.5969 5.9973
# 6 18.3621 22.4823 -0.3423 0.7991 5.9973 31.7563
#
#
#
# Elastic Compliance Matrix: (Units=1/GPa)
#
#
# Indices 1 2 3 4 5 6 
#
# 1 0.020797 -0.007990 -0.005010 -0.002484 0.001035 -0.006555
# 2 -0.007990 0.017771 -0.003675 0.004800 -0.006022 -0.006984
# 3 -0.005010 -0.003675 0.010967 0.000726 0.004183 0.004809
# 4 -0.002484 0.004800 0.000726 0.031242 -0.003110 -0.002153
# 5 0.001035 -0.006022 0.004183 -0.003110 0.038157 -0.003418
# 6 -0.006555 -0.006984 0.004809 -0.002153 -0.003418 0.040976
#
#
# Mechanical properties :
#
#
# Convention : Reuss Voigt Hill
#
# Bulk Modulus (GPa) = 61.79143 72.54441 67.16792
# Shear Modulus (GPa) = 25.16917 30.54869 27.85893
#
# Velocity S-wave (km/s) = 3.48482 3.83921 3.66630
# Velocity P-wave (km/s) = 6.78276 7.39289 7.09439
#
# Compressibility (1/GPa) = 0.01618347
#
# Stress axis : x y z
#
# Youngs Moduli (GPa) = 48.08463 56.27189 91.17925
#
# Poissons Ratio (x) = 0.44962 0.45683
# Poissons Ratio (y) = 0.38420 0.33511
# Poissons Ratio (z) = 0.24092 0.20682
#
# Static dielectric constant tensor:
#      x y z
#    x 3.694110 0.328650 -0.171520 
#    y 0.328650 3.855270 0.161860 
#    z -0.171520 0.161860 3.936400 
# 
# 
# High freq. dielectric constant tensor:
#      x y z
#    x 1.800140 0.025350 -0.013630 
#    y 0.025350 1.808680 0.020350 
#    z -0.013630 0.020350 1.827770 
# 
# From -- ./inp_files/279913.got.cif
#   From: 2010.06.25/outbox.cif.g09.slc.cpg/sg2_140_cif.got.tgz:279913.got - 2010.06.27 13:26:56.
