data_PCOD8001272
_publ_section_title
;
Structure prediction by ZEFSAII (Michael W. Deem and Ramdas Pophale) SiO2 
 PCOD8001272
Probable space group: P -1
;
_chemical_formula_sum "Si O2"
_cell_formula_units_Z 16
_cell_length_a 13.910948
_cell_length_b 9.001164
_cell_length_c 13.661831
_cell_angle_alpha 93.440570
_cell_angle_beta 40.795087
_cell_angle_gamma 63.369364
_cell_volume 729.043277
_symmetry_space_group_name_H-M "P -1"
_symmetry_group_IT_number 2
_symmetry_cell_setting 'triclinic'
loop_
_space_group_symop_operation_xyz
x,y,z
-x,-y,-z
loop_
_atom_site_type_symbol
_atom_site_label
_atom_site_fract_x
_atom_site_fract_y
_atom_site_fract_z
Si Si1 0.906784 0.848234 0.026658
Si Si2 0.079607 0.800946 0.493331
Si Si3 0.163570 0.804726 0.654723
Si Si4 0.542275 0.327492 0.125197
Si Si5 0.922760 0.255285 0.903995
Si Si6 0.030586 0.445640 0.171022
Si Si7 0.279807 0.086636 0.137266
Si Si8 0.560242 0.673820 0.587293
O O1 0.880727 0.697628 0.004301
O O2 0.969877 0.895346 0.883417
O O3 0.091164 0.720023 0.965934
O O4 0.676566 0.086994 0.262790
O O5 0.097726 0.823152 0.595276
O O6 0.320269 0.567450 0.254568
O O7 0.893866 0.809319 0.634021
O O8 0.000000 0.000000 0.500000
O O9 0.393239 0.536232 0.488652
O O10 0.155687 0.988825 0.683771
O O11 0.453559 0.300136 0.284361
O O12 0.706093 0.335653 0.032847
O O13 0.660758 0.125153 0.952250
O O14 0.927014 0.412239 0.857392
O O15 0.162269 0.276973 0.153893
O O16 0.763787 0.619454 0.390351
O O17 0.500000 0.000000 0.000000
#
# Coordination Sequence:
#
# PCOD8001272 Si02
#       8
#     2   2   2   2   2   2   2   2
#     4  11  21  44  70  92 135 185 220 257 338 396
#     4  11  24  45  70  98 128 167 224 277 327 389
#     4  10  21  42  64  98 132 162 226 275 314 390
#     4  11  22  47  67  95 134 171 219 275 321 394
#     4  12  24  40  70 102 134 176 217 277 329 381
#     4  11  24  45  60 101 143 163 226 274 320 401
#     4  12  25  46  69  95 131 181 216 270 339 394
#     4  10  19  43  69  83 138 181 209 273 325 384
#
# _framework density 21.946570000000001
#
# number of rings (size 3 to 8) (size 9 to 14) (size 15 to 20)
#    0.000    1.000    7.500    0.750    1.750    3.000 
#   13.500    0.000    0.000    0.000    0.000    0.000 
#    0.000    0.000    0.000    0.000    0.000    0.000 
#
# Total GULP energy -198255.359659 kJ/mol
# GULP energy per Si atom -12390.959979 kJ/mol
# Density = 2.189662 g / cm^3
# Si number density = 21.946570 Si / 1000 Ang^3
#
#
#
# Elastic Constant Matrix: (Units=GPa)
#
#
# Indices 1 2 3 4 5 6 
#
# 1 78.8444 49.4763 39.1295 2.7358 -18.8079 13.3577
# 2 49.4763 139.9644 59.4647 3.3420 -9.8465 21.6476
# 3 39.1295 59.4647 127.1669 22.1467 -11.0948 8.6659
# 4 2.7358 3.3420 22.1467 22.3801 0.9810 7.9097
# 5 -18.8079 -9.8465 -11.0948 0.9810 27.9113 3.1325
# 6 13.3577 21.6476 8.6659 7.9097 3.1325 35.1416
#
#
#
# Elastic Compliance Matrix: (Units=1/GPa)
#
#
# Indices 1 2 3 4 5 6 
#
# 1 0.020792 -0.004097 -0.003616 0.003357 0.011716 -0.006288
# 2 -0.004097 0.011222 -0.004548 0.005241 -0.000189 -0.005397
# 3 -0.003616 -0.004548 0.013297 -0.013439 0.001289 0.003807
# 4 0.003357 0.005241 -0.013439 0.062176 -0.001729 -0.015031
# 5 0.011716 -0.000189 0.001289 -0.001729 0.045160 -0.008291
# 6 -0.006288 -0.005397 0.003807 -0.015031 -0.008291 0.037354
#
#
# Mechanical properties :
#
#
# Convention : Reuss Voigt Hill
#
# Bulk Modulus (GPa) = 48.10489 71.34629 59.72559
# Shear Modulus (GPa) = 22.57826 30.28029 26.42928
#
# Velocity S-wave (km/s) = 3.21094 3.71850 3.47400
# Velocity P-wave (km/s) = 5.97608 7.14255 6.58519
#
# Compressibility (1/GPa) = 0.02078791
#
# Stress axis : x y z
#
# Youngs Moduli (GPa) = 48.09480 89.11463 75.20753
#
# Poissons Ratio (x) = 0.36511 0.27195
# Poissons Ratio (y) = 0.19705 0.34205
# Poissons Ratio (z) = 0.17391 0.40530
#
# Static dielectric constant tensor:
#      x y z
#    x 3.958310 0.117190 0.026660 
#    y 0.117190 4.026150 0.367110 
#    z 0.026660 0.367110 4.423140 
# 
# 
# High freq. dielectric constant tensor:
#      x y z
#    x 1.846690 -0.004030 0.002610 
#    y -0.004030 1.860920 0.020630 
#    z 0.002610 0.020630 1.869900 
# 
# From -- ./inp_files/528571.got.cif
#   From: 2010.06.25/outbox.cif.g09.slc.cpg/sg2_265_cif.got.tgz:528571.got - 2010.06.27 13:26:56.
