data_PCOD8001955
_publ_section_title
;
Structure prediction by ZEFSAII (Michael W. Deem and Ramdas Pophale) SiO2 
 PCOD8001955
Probable space group: P -1
;
_chemical_formula_sum "Si O2"
_cell_formula_units_Z 16
_cell_length_a 17.106305
_cell_length_b 8.191750
_cell_length_c 11.663424
_cell_angle_alpha 59.904509
_cell_angle_beta 24.615453
_cell_angle_gamma 65.361527
_cell_volume 585.540832
_symmetry_space_group_name_H-M "P -1"
_symmetry_group_IT_number 2
_symmetry_cell_setting 'triclinic'
loop_
_space_group_symop_operation_xyz
x,y,z
-x,-y,-z
loop_
_atom_site_type_symbol
_atom_site_label
_atom_site_fract_x
_atom_site_fract_y
_atom_site_fract_z
Si Si1 0.202800 0.953945 0.990749
Si Si2 0.930665 0.133428 0.139645
Si Si3 0.438676 0.767483 0.566392
Si Si4 0.856920 0.524459 0.359347
Si Si5 0.804414 0.203912 0.708803
Si Si6 0.638912 0.819276 0.674481
Si Si7 0.421387 0.590487 0.414188
Si Si8 0.327875 0.115899 0.151125
O O1 0.253829 0.830835 0.855283
O O2 0.402629 0.057836 0.734007
O O3 0.115855 0.824398 0.259327
O O4 0.050405 0.097751 0.108182
O O5 0.961213 0.355172 0.983280
O O6 0.705650 0.047375 0.478466
O O7 0.000000 0.000000 0.000000
O O8 0.360242 0.651405 0.600328
O O9 0.540177 0.628289 0.563081
O O10 0.911019 0.392442 0.439620
O O11 0.716732 0.676436 0.531797
O O12 0.751445 0.385469 0.452064
O O13 0.830901 0.022523 0.655883
O O14 0.583266 0.230184 0.004737
O O15 0.740874 0.791648 0.671924
O O16 0.609916 0.716069 0.078909
O O17 0.500000 0.000000 0.000000
#
# Coordination Sequence:
#
# PCOD8001955 Si02
#       8
#     2   2   2   2   2   2   2   2
#     4  11  22  40  64  94 124 169 214 262 311 378
#     4  10  24  43  63  89 133 170 208 252 327 382
#     4  10  23  33  63  95 126 162 215 271 307 361
#     4  11  21  38  65  94 124 168 211 258 306 386
#     4  11  22  38  68  99 124 156 222 268 306 363
#     4  10  22  39  64  92 127 173 202 254 320 384
#     4  11  19  36  58 100 129 154 216 272 309 358
#     4  10  20  34  60  94 126 159 206 264 311 361
#
# _framework density 27.325164999999998
#
# number of rings (size 3 to 8) (size 9 to 14) (size 15 to 20)
#    0.000    1.500    5.000    1.125    7.000    0.000 
#    0.000    3.750    2.750    1.500    0.000    0.000 
#    0.000    0.000    0.000    0.000    0.000    0.000 
#
# Total GULP energy -198330.648205 kJ/mol
# GULP energy per Si atom -12395.665513 kJ/mol
# Density = 2.726297 g / cm^3
# Si number density = 27.325165 Si / 1000 Ang^3
#
#
#
# Elastic Constant Matrix: (Units=GPa)
#
#
# Indices 1 2 3 4 5 6 
#
# 1 108.1677 21.3394 41.4971 -15.0430 16.5434 -1.0429
# 2 21.3394 71.8761 29.9301 -28.2539 12.6511 -1.8074
# 3 41.4971 29.9301 97.7320 -37.1616 23.8988 -11.7455
# 4 -15.0430 -28.2539 -37.1616 50.9742 -11.2316 12.2085
# 5 16.5434 12.6511 23.8988 -11.2316 47.3312 -5.4750
# 6 -1.0429 -1.8074 -11.7455 12.2085 -5.4750 44.7957
#
#
#
# Elastic Compliance Matrix: (Units=1/GPa)
#
#
# Indices 1 2 3 4 5 6 
#
# 1 0.011363 -0.001635 -0.004366 -0.000881 -0.001644 -0.000907
# 2 -0.001635 0.018829 -0.001464 0.009042 -0.001848 -0.002353
# 3 -0.004366 -0.001464 0.017285 0.009200 -0.004475 0.001317
# 4 -0.000881 0.009042 0.009200 0.032597 0.000276 -0.006094
# 5 -0.001644 -0.001848 -0.004475 0.000276 0.024713 0.001659
# 6 -0.000907 -0.002353 0.001317 -0.006094 0.001659 0.024416
#
#
# Mechanical properties :
#
#
# Convention : Reuss Voigt Hill
#
# Bulk Modulus (GPa) = 30.72636 51.47878 41.10257
# Shear Modulus (GPa) = 32.26184 40.95416 36.60800
#
# Velocity S-wave (km/s) = 3.43981 3.87560 3.66419
# Velocity P-wave (km/s) = 5.20053 6.23757 5.74250
#
# Compressibility (1/GPa) = 0.03254534
#
# Stress axis : x y z
#
# Youngs Moduli (GPa) = 88.00858 53.11020 57.85422
#
# Poissons Ratio (x) = 0.08685 0.25257
# Poissons Ratio (y) = 0.14391 0.08473
# Poissons Ratio (z) = 0.38422 0.07778
#
# Static dielectric constant tensor:
#      x y z
#    x 5.405580 0.046420 0.456980 
#    y 0.046420 5.062650 -0.262840 
#    z 0.456980 -0.262840 5.663180 
# 
# 
# High freq. dielectric constant tensor:
#      x y z
#    x 2.113930 0.005750 0.019370 
#    y 0.005750 2.090450 -0.004670 
#    z 0.019370 -0.004670 2.095560 
# 
# From -- ./inp_files/461059.got.cif
#   From: 2010.06.25/outbox.cif.g09.slc.cpg/sg2_231_cif.got.tgz:461059.got - 2010.06.27 13:26:56.
