data_PCOD8001158
_publ_section_title
;
Structure prediction by ZEFSAII (Michael W. Deem and Ramdas Pophale) SiO2 
 PCOD8001158
Probable space group: P -1
;
_chemical_formula_sum "Si O2"
_cell_formula_units_Z 14
_cell_length_a 9.474723
_cell_length_b 8.071360
_cell_length_c 9.235928
_cell_angle_alpha 98.633006
_cell_angle_beta 59.271309
_cell_angle_gamma 99.116524
_cell_volume 597.477460
_symmetry_space_group_name_H-M "P -1"
_symmetry_group_IT_number 2
_symmetry_cell_setting 'triclinic'
loop_
_space_group_symop_operation_xyz
x,y,z
-x,-y,-z
loop_
_atom_site_type_symbol
_atom_site_label
_atom_site_fract_x
_atom_site_fract_y
_atom_site_fract_z
Si Si1 0.162119 0.433642 0.854064
Si Si2 0.661905 0.458776 0.486916
Si Si3 0.048773 0.054392 0.819538
Si Si4 0.306739 0.503057 0.080694
Si Si5 0.887046 0.649599 0.594928
Si Si6 0.163023 0.846191 0.306955
Si Si7 0.662273 0.088034 0.503993
O O1 0.203271 0.550384 0.709626
O O2 0.141154 0.240551 0.791538
O O3 0.298269 0.466929 0.910124
O O4 0.000000 0.500000 0.000000
O O5 0.500000 0.500000 0.500000
O O6 0.720286 0.610208 0.583899
O O7 0.638749 0.284063 0.559969
O O8 0.890875 0.048532 0.791155
O O9 0.180154 0.931270 0.681052
O O10 0.000000 0.000000 0.000000
O O11 0.188986 0.350310 0.201866
O O12 0.239914 0.679806 0.185888
O O13 0.500000 0.500000 0.000000
O O14 0.000000 0.500000 0.500000
O O15 0.000543 0.810901 0.494318
O O16 0.297317 0.959239 0.354164
O O17 0.500000 0.000000 0.500000
#
# Coordination Sequence:
#
# PCOD8001158 Si02
#       7
#     2   2   2   2   2   2   2
#     4  12  23  42  70 102 135 178 240 287 346 412
#     4  12  23  42  72 102 137 179 237 288 346 413
#     4  12  27  47  70 106 144 185 233 294 363 423
#     4  11  23  39  71 107 139 171 237 303 347 401
#     4  10  19  41  71  99 130 178 244 287 336 413
#     4  11  24  48  70  99 141 195 238 283 353 431
#     4  12  28  47  70 105 149 187 234 291 359 431
#
# _framework density 23.431843000000001
#
# number of rings (size 3 to 8) (size 9 to 14) (size 15 to 20)
#    0.000    0.571    5.714    3.857    4.000    0.000 
#    0.000    0.714    0.000    0.000    0.000    0.000 
#    0.000    0.000    0.000    0.000    0.000    0.000 
#
# Total GULP energy -173447.218546 kJ/mol
# GULP energy per Si atom -12389.087039 kJ/mol
# Density = 2.337851 g / cm^3
# Si number density = 23.431843 Si / 1000 Ang^3
#
#
#
# Elastic Constant Matrix: (Units=GPa)
#
#
# Indices 1 2 3 4 5 6 
#
# 1 169.3937 29.2251 19.3754 2.7082 26.0916 4.9269
# 2 29.2251 52.0378 10.6007 -4.0123 6.9707 2.4729
# 3 19.3754 10.6007 74.6704 -9.8726 17.0803 -9.4190
# 4 2.7082 -4.0123 -9.8726 35.8250 -1.3644 5.7513
# 5 26.0916 6.9707 17.0803 -1.3644 54.6215 9.8060
# 6 4.9269 2.4729 -9.4190 5.7513 9.8060 37.1965
#
#
#
# Elastic Compliance Matrix: (Units=1/GPa)
#
#
# Indices 1 2 3 4 5 6 
#
# 1 0.007043 -0.003514 -0.000890 -0.001269 -0.002664 -0.000026
# 2 -0.003514 0.021904 -0.002099 0.002440 -0.000062 -0.001883
# 3 -0.000890 -0.002099 0.016210 0.003259 -0.005235 0.005238
# 4 -0.001269 0.002440 0.003259 0.029847 0.000735 -0.003978
# 5 -0.002664 -0.000062 -0.005235 0.000735 0.022503 -0.007015
# 6 -0.000026 -0.001883 0.005238 -0.003978 -0.007015 0.030804
#
#
# Mechanical properties :
#
#
# Convention : Reuss Voigt Hill
#
# Bulk Modulus (GPa) = 31.10264 46.05603 38.57933
# Shear Modulus (GPa) = 32.88757 41.32199 37.10478
#
# Velocity S-wave (km/s) = 3.75045 4.20396 3.98366
# Velocity P-wave (km/s) = 5.66189 6.57741 6.13675
#
# Compressibility (1/GPa) = 0.03215161
#
# Stress axis : x y z
#
# Youngs Moduli (GPa) = 141.98727 45.65467 61.68940
#
# Poissons Ratio (x) = 0.16042 0.05492
# Poissons Ratio (y) = 0.49890 0.12947
# Poissons Ratio (z) = 0.12640 0.09581
#
# Static dielectric constant tensor:
#      x y z
#    x 4.947760 -0.058670 0.319100 
#    y -0.058670 4.304430 0.010310 
#    z 0.319100 0.010310 4.435170 
# 
# 
# High freq. dielectric constant tensor:
#      x y z
#    x 1.954590 -0.004680 0.017120 
#    y -0.004680 1.903360 0.009450 
#    z 0.017120 0.009450 1.931520 
# 
# From -- ./inp_files/156586.got.cif
#   From: 2010.06.25/outbox.cif.g09.slc.cpg/sg2_79_cif.got.tgz:156586.got - 2010.06.27 13:26:56.
