data_PCOD8001678
_publ_section_title
;
Structure prediction by ZEFSAII (Michael W. Deem and Ramdas Pophale) SiO2 
 PCOD8001678
Probable space group: P -1
;
_chemical_formula_sum "Si O2"
_cell_formula_units_Z 14
_cell_length_a 4.924372
_cell_length_b 21.028452
_cell_length_c 12.281866
_cell_angle_alpha 30.678336
_cell_angle_beta 81.510549
_cell_angle_gamma 86.833931
_cell_volume 635.272622
_symmetry_space_group_name_H-M "P -1"
_symmetry_group_IT_number 2
_symmetry_cell_setting 'triclinic'
loop_
_space_group_symop_operation_xyz
x,y,z
-x,-y,-z
loop_
_atom_site_type_symbol
_atom_site_label
_atom_site_fract_x
_atom_site_fract_y
_atom_site_fract_z
Si Si1 0.213964 0.581305 0.220875
Si Si2 0.392584 0.165931 0.846915
Si Si3 0.224821 0.296911 0.056448
Si Si4 0.526821 0.897140 0.303158
Si Si5 0.003204 0.848675 0.505881
Si Si6 0.284323 0.038045 0.371067
Si Si7 0.917691 0.317554 0.687846
O O1 0.093742 0.435159 0.443607
O O2 0.204955 0.640559 0.253433
O O3 0.522453 0.589871 0.138235
O O4 0.053099 0.660743 0.032157
O O5 0.340139 0.150544 0.743540
O O6 0.116956 0.210518 0.849912
O O7 0.657315 0.269880 0.698402
O O8 0.446962 0.036325 0.087827
O O9 0.152248 0.249922 0.253339
O O10 0.328282 0.188765 0.132607
O O11 0.761968 0.902132 0.375345
O O12 0.237797 0.798903 0.488612
O O13 0.240128 0.960431 0.376764
O O14 0.500000 0.000000 0.500000
O O15 0.000000 0.000000 0.500000
#
# Coordination Sequence:
#
# PCOD8001678 Si02
#       7
#     2   2   2   2   2   2   2
#     4  11  24  40  64  94 120 165 213 246 316 378
#     4  11  24  43  66  90 124 163 211 270 304 357
#     4  11  22  38  60  90 130 163 196 255 307 378
#     4  11  24  40  65  96 121 166 213 246 320 372
#     4  11  22  38  62  92 132 165 198 254 308 382
#     4  10  20  34  52  86 126 163 195 228 298 374
#     4  11  24  43  65  90 122 163 211 269 308 353
#
# _framework density 22.037783000000001
#
# number of rings (size 3 to 8) (size 9 to 14) (size 15 to 20)
#    0.000    1.143    0.000    7.714    6.000    4.571 
#    0.000    0.000    0.000   17.143    0.000    0.000 
#    0.000    0.000    0.000    0.000    0.000    0.000 
#
# Total GULP energy -173472.077005 kJ/mol
# GULP energy per Si atom -12390.862643 kJ/mol
# Density = 2.198762 g / cm^3
# Si number density = 22.037783 Si / 1000 Ang^3
#
#
#
# Elastic Constant Matrix: (Units=GPa)
#
#
# Indices 1 2 3 4 5 6 
#
# 1 110.5060 19.5906 19.2110 6.9927 -5.9324 20.9982
# 2 19.5906 67.4718 39.8395 10.1835 -0.1169 16.6583
# 3 19.2110 39.8395 84.3205 20.2763 -13.1780 10.7938
# 4 6.9927 10.1835 20.2763 29.5096 -2.4441 4.1317
# 5 -5.9324 -0.1169 -13.1780 -2.4441 48.2117 9.0643
# 6 20.9982 16.6583 10.7938 4.1317 9.0643 35.1656
#
#
#
# Elastic Compliance Matrix: (Units=1/GPa)
#
#
# Indices 1 2 3 4 5 6 
#
# 1 0.010691 -0.001120 -0.000595 -0.000684 0.002277 -0.006177
# 2 -0.001120 0.022561 -0.009797 0.000013 -0.001515 -0.006623
# 3 -0.000595 -0.009797 0.019879 -0.009533 0.005098 -0.001299
# 4 -0.000684 0.000013 -0.009533 0.040756 -0.000367 -0.001365
# 5 0.002277 -0.001515 0.005098 -0.000367 0.023961 -0.008339
# 6 -0.006177 -0.006623 -0.001299 -0.001365 -0.008339 0.037971
#
#
# Mechanical properties :
#
#
# Convention : Reuss Voigt Hill
#
# Bulk Modulus (GPa) = 33.21524 46.62006 39.91765
# Shear Modulus (GPa) = 26.47191 34.82118 30.64654
#
# Velocity S-wave (km/s) = 3.46960 3.97932 3.73317
# Velocity P-wave (km/s) = 5.58171 6.50491 6.06091
#
# Compressibility (1/GPa) = 0.03010666
#
# Stress axis : x y z
#
# Youngs Moduli (GPa) = 93.54038 44.32369 50.30363
#
# Poissons Ratio (x) = 0.04966 0.02995
# Poissons Ratio (y) = 0.10480 0.49280
# Poissons Ratio (z) = 0.05569 0.43422
#
# Static dielectric constant tensor:
#      x y z
#    x 4.098210 -0.116690 -0.121970 
#    y -0.116690 3.938220 0.185940 
#    z -0.121970 0.185940 3.951490 
# 
# 
# High freq. dielectric constant tensor:
#      x y z
#    x 1.893150 0.002360 -0.011570 
#    y 0.002360 1.850870 0.022410 
#    z -0.011570 0.022410 1.865110 
# 
# From -- ./inp_files/369956.got.cif
#   From: 2010.06.25/outbox.cif.g09.slc.cpg/sg2_185_cif.got.tgz:369956.got - 2010.06.27 13:26:56.
