data_PCOD8001861
_publ_section_title
;
Structure prediction by ZEFSAII (Michael W. Deem and Ramdas Pophale) SiO2 
 PCOD8001861
Probable space group: P -1
;
_chemical_formula_sum "Si O2"
_cell_formula_units_Z 16
_cell_length_a 9.564675
_cell_length_b 11.565560
_cell_length_c 11.762486
_cell_angle_alpha 91.642882
_cell_angle_beta 87.190142
_cell_angle_gamma 39.840146
_cell_volume 828.110610
_symmetry_space_group_name_H-M "P -1"
_symmetry_group_IT_number 2
_symmetry_cell_setting 'triclinic'
loop_
_space_group_symop_operation_xyz
x,y,z
-x,-y,-z
loop_
_atom_site_type_symbol
_atom_site_label
_atom_site_fract_x
_atom_site_fract_y
_atom_site_fract_z
Si Si1 0.256119 0.122855 0.607249
Si Si2 0.455167 0.362747 0.085784
Si Si3 0.228251 0.636439 0.898695
Si Si4 0.419683 0.242360 0.499294
Si Si5 0.783302 0.560376 0.267649
Si Si6 0.155739 0.490623 0.309121
Si Si7 0.594763 0.890456 0.168531
Si Si8 0.747086 0.964565 0.982815
O O1 0.292540 0.200789 0.515218
O O2 0.419507 0.038192 0.706482
O O3 0.002900 0.295046 0.663177
O O4 0.324831 0.954406 0.546466
O O5 0.601220 0.370732 0.136208
O O6 0.293580 0.414670 0.187340
O O7 0.612124 0.162475 0.029445
O O8 0.313412 0.501853 0.992435
O O9 0.193477 0.582983 0.784957
O O10 0.996970 0.841459 0.946633
O O11 0.399026 0.326185 0.620415
O O12 0.316843 0.382950 0.406701
O O13 0.707039 0.693619 0.173024
O O14 0.011707 0.464813 0.306037
O O15 0.747049 0.868614 0.078562
O O16 0.354296 0.027853 0.127287
#
# Coordination Sequence:
#
# PCOD8001861 Si02
#       8
#     2   2   2   2   2   2   2   2
#     4   9  17  32  51  84 112 140 168 225 286 318
#     4  11  24  40  55  79 115 149 186 226 270 331
#     4  11  24  39  56  78 115 153 182 222 277 329
#     4   9  18  33  55  81 115 136 177 227 275 324
#     4  10  20  37  57  87 112 143 181 230 277 322
#     4  10  20  34  58  83 107 141 185 227 270 322
#     4   9  19  32  55  89 111 133 181 238 266 318
#     4  11  21  35  56  83 111 146 185 224 274 326
#
# _framework density 19.321092
#
# number of rings (size 3 to 8) (size 9 to 14) (size 15 to 20)
#    0.000    2.250    1.250    4.125    5.250    1.000 
#    2.250    0.625    0.000    0.750    0.000    0.000 
#    0.000    0.000    0.000    0.000    0.000    0.000 
#
# Total GULP energy -198326.957552 kJ/mol
# GULP energy per Si atom -12395.434847 kJ/mol
# Density = 1.927712 g / cm^3
# Si number density = 19.321092 Si / 1000 Ang^3
#
#
#
# Elastic Constant Matrix: (Units=GPa)
#
#
# Indices 1 2 3 4 5 6 
#
# 1 45.9177 22.8833 22.0189 10.6313 7.5934 -0.6561
# 2 22.8833 125.3029 53.0141 22.6183 4.1017 -5.6202
# 3 22.0189 53.0141 89.5288 11.5578 0.6485 6.0570
# 4 10.6313 22.6183 11.5578 35.5691 -0.0548 -3.7172
# 5 7.5934 4.1017 0.6485 -0.0548 7.5989 0.1352
# 6 -0.6561 -5.6202 6.0570 -3.7172 0.1352 17.7298
#
#
#
# Elastic Compliance Matrix: (Units=1/GPa)
#
#
# Indices 1 2 3 4 5 6 
#
# 1 0.032002 -0.000789 -0.006429 -0.006820 -0.031088 0.001938
# 2 -0.000789 0.012265 -0.006757 -0.004833 -0.005383 0.005195
# 3 -0.006429 -0.006757 0.017292 -0.000266 0.008744 -0.008410
# 4 -0.006820 -0.004833 -0.000266 0.033885 0.009596 0.005337
# 5 -0.031088 -0.005383 0.008744 0.009596 0.164983 -0.005091
# 6 0.001938 0.005195 -0.008410 0.005337 -0.005091 0.062152
#
#
# Mechanical properties :
#
#
# Convention : Reuss Voigt Hill
#
# Bulk Modulus (GPa) = 29.75393 50.73133 40.24263
# Shear Modulus (GPa) = 13.82236 23.03509 18.42873
#
# Velocity S-wave (km/s) = 2.67760 3.45661 3.09174
# Velocity P-wave (km/s) = 4.99926 6.49960 5.79816
#
# Compressibility (1/GPa) = 0.03360900
#
# Stress axis : x y z
#
# Youngs Moduli (GPa) = 31.24822 81.53033 57.82988
#
# Poissons Ratio (x) = 0.06429 0.37180
# Poissons Ratio (y) = 0.02464 0.39078
# Poissons Ratio (z) = 0.20090 0.55094
#
# Static dielectric constant tensor:
#      x y z
#    x 3.149670 -0.009870 0.026990 
#    y -0.009870 3.672650 0.071310 
#    z 0.026990 0.071310 3.606900 
# 
# 
# High freq. dielectric constant tensor:
#      x y z
#    x 1.697440 0.000430 -0.000360 
#    y 0.000430 1.765090 0.002930 
#    z -0.000360 0.002930 1.761240 
# 
# From -- ./inp_files/390215.got.cif
#   From: 2010.06.25/outbox.cif.g09.slc.cpg/sg2_196_cif.got.tgz:390215.got - 2010.06.27 13:26:56.
