data_PCOD8001706
_publ_section_title
;
Structure prediction by ZEFSAII (Michael W. Deem and Ramdas Pophale) SiO2 
 PCOD8001706
Probable space group: P -1
;
_chemical_formula_sum "Si O2"
_cell_formula_units_Z 14
_cell_length_a 6.568319
_cell_length_b 23.598299
_cell_length_c 6.823392
_cell_angle_alpha 117.453292
_cell_angle_beta 84.333023
_cell_angle_gamma 58.348926
_cell_volume 713.075740
_symmetry_space_group_name_H-M "P -1"
_symmetry_group_IT_number 2
_symmetry_cell_setting 'triclinic'
loop_
_space_group_symop_operation_xyz
x,y,z
-x,-y,-z
loop_
_atom_site_type_symbol
_atom_site_label
_atom_site_fract_x
_atom_site_fract_y
_atom_site_fract_z
Si Si1 0.662091 0.741401 0.971493
Si Si2 0.754944 0.829869 0.416771
Si Si3 0.159441 0.975121 0.746022
Si Si4 0.981046 0.687449 0.460812
Si Si5 0.938854 0.114470 0.698020
Si Si6 0.884833 0.597452 0.010317
Si Si7 0.427917 0.447693 0.828352
O O1 0.728344 0.789241 0.169759
O O2 0.344223 0.799334 0.070692
O O3 0.782121 0.653394 0.916434
O O4 0.785951 0.724823 0.721348
O O5 0.471924 0.907625 0.658989
O O6 0.927400 0.762189 0.462129
O O7 0.894307 0.864322 0.383091
O O8 0.081601 0.935236 0.542328
O O9 0.089572 0.057184 0.784263
O O10 0.000000 0.000000 0.000000
O O11 0.915168 0.638531 0.258494
O O12 0.289428 0.631263 0.418730
O O13 0.671796 0.584455 0.054973
O O14 0.181166 0.507512 0.794288
O O15 0.500000 0.500000 0.000000
#
# Coordination Sequence:
#
# PCOD8001706 Si02
#       7
#     2   2   2   2   2   2   2
#     4  10  21  35  53  78 105 134 171 211 254 304
#     4  10  21  36  54  77 105 135 170 212 255 302
#     4  10  21  36  54  77 104 135 172 211 254 304
#     4  10  20  34  54  78 102 135 174 209 254 306
#     4  10  21  36  53  76 106 136 169 212 256 301
#     4   9  19  36  53  74 106 136 167 213 257 298
#     4   9  18  35  55  75 104 137 170 211 255 300
#
# _framework density 19.633258000000001
#
# number of rings (size 3 to 8) (size 9 to 14) (size 15 to 20)
#    0.000    2.286    0.000    2.143    0.000    3.429 
#    0.000    6.429    0.000    0.000    0.000    0.000 
#    0.000    0.000    0.000    0.000    0.000    0.000 
#
# Total GULP energy -173565.327770 kJ/mol
# GULP energy per Si atom -12397.523412 kJ/mol
# Density = 1.958857 g / cm^3
# Si number density = 19.633258 Si / 1000 Ang^3
#
#
#
# Elastic Constant Matrix: (Units=GPa)
#
#
# Indices 1 2 3 4 5 6 
#
# 1 101.0360 49.6873 33.5148 8.0125 -30.9446 15.5785
# 2 49.6873 145.7431 53.5654 9.3358 -16.5432 8.5523
# 3 33.5148 53.5654 106.6624 -2.7482 -34.7117 -6.6673
# 4 8.0125 9.3358 -2.7482 22.5895 -4.7730 -13.6868
# 5 -30.9446 -16.5432 -34.7117 -4.7730 20.6214 -1.6890
# 6 15.5785 8.5523 -6.6673 -13.6868 -1.6890 35.6769
#
#
#
# Elastic Compliance Matrix: (Units=1/GPa)
#
#
# Indices 1 2 3 4 5 6 
#
# 1 0.028709 -0.009606 0.018962 0.011531 0.070049 0.001050
# 2 -0.009606 0.014557 -0.018706 -0.021123 -0.040161 -0.012795
# 3 0.018962 -0.018706 0.056879 0.054678 0.124609 0.033709
# 4 0.011531 -0.021123 0.054678 0.119605 0.125162 0.062056
# 5 0.070049 -0.040161 0.124609 0.125162 0.365654 0.067654
# 6 0.001050 -0.012795 0.033709 0.062056 0.067654 0.063947
#
#
# Mechanical properties :
#
#
# Convention : Reuss Voigt Hill
#
# Bulk Modulus (GPa) = 12.27806 69.66405 40.97105
# Shear Modulus (GPa) = 7.19219 30.22250 18.70735
#
# Velocity S-wave (km/s) = 1.91604 3.92771 3.09016
# Velocity P-wave (km/s) = 3.34099 7.49193 5.80048
#
# Compressibility (1/GPa) = 0.08144608
#
# Stress axis : x y z
#
# Youngs Moduli (GPa) = 34.83199 68.69782 17.58115
#
# Poissons Ratio (x) = 0.65991 -0.33338
# Poissons Ratio (y) = 0.33460 0.32887
# Poissons Ratio (z) = -0.66050 1.28505
#
# Static dielectric constant tensor:
#      x y z
#    x 3.712600 -0.199430 -0.202710 
#    y -0.199430 4.144130 0.291350 
#    z -0.202710 0.291350 3.356090 
# 
# 
# High freq. dielectric constant tensor:
#      x y z
#    x 1.768820 0.001960 -0.019260 
#    y 0.001960 1.789590 0.013920 
#    z -0.019260 0.013920 1.744130 
# 
# From -- ./inp_files/7664.got.cif
#   From: 2010.06.25/outbox.cif.g09.slc.cpg/sg2_4_cif.got.tgz:7664.got - 2010.06.27 13:26:56.
