data_PCOD8001727
_publ_section_title
;
Structure prediction by ZEFSAII (Michael W. Deem and Ramdas Pophale) SiO2 
 PCOD8001727
Probable space group: P -1
;
_chemical_formula_sum "Si O2"
_cell_formula_units_Z 16
_cell_length_a 14.246744
_cell_length_b 6.784702
_cell_length_c 8.872595
_cell_angle_alpha 84.275363
_cell_angle_beta 76.183532
_cell_angle_gamma 81.288450
_cell_volume 821.393933
_symmetry_space_group_name_H-M "P -1"
_symmetry_group_IT_number 2
_symmetry_cell_setting 'triclinic'
loop_
_space_group_symop_operation_xyz
x,y,z
-x,-y,-z
loop_
_atom_site_type_symbol
_atom_site_label
_atom_site_fract_x
_atom_site_fract_y
_atom_site_fract_z
Si Si1 0.557205 0.780960 0.513453
Si Si2 0.768090 0.633463 0.518398
Si Si3 0.698808 0.293385 0.749750
Si Si4 0.028993 0.181881 0.071071
Si Si5 0.796474 0.858200 0.777178
Si Si6 0.486967 0.445744 0.747304
Si Si7 0.705931 0.538669 0.012082
Si Si8 0.131735 0.485609 0.813678
O O1 0.671338 0.788028 0.504128
O O2 0.508576 0.667915 0.676327
O O3 0.554090 0.660827 0.370349
O O4 0.500000 0.000000 0.500000
O O5 0.736158 0.419385 0.588909
O O6 0.823556 0.723184 0.629135
O O7 0.843586 0.598435 0.355546
O O8 0.582137 0.314235 0.786931
O O9 0.739761 0.065264 0.727697
O O10 0.735802 0.368490 0.889303
O O11 0.105127 0.104789 0.178409
O O12 0.934928 0.300245 0.181012
O O13 0.074838 0.326138 0.928916
O O14 0.000000 0.000000 0.000000
O O15 0.725629 0.752236 0.922284
O O16 0.407421 0.458048 0.908502
O O17 0.769417 0.482755 0.140415
#
# Coordination Sequence:
#
# PCOD8001727 Si02
#       8
#     2   2   2   2   2   2   2   2
#     4  10  20  35  54  83 122 153 188 235 274 330
#     4  10  21  39  58  84 118 152 188 230 288 338
#     4  10  21  36  56  83 121 153 186 235 277 332
#     4  10  22  41  62  85 111 143 191 241 291 343
#     4  10  22  38  58  84 114 150 190 234 286 342
#     4  10  20  34  54  84 115 154 194 228 279 330
#     4  10  20  37  57  83 115 151 195 231 282 335
#     4  10  21  40  62  83 114 149 186 241 289 337
#
# _framework density 19.479081000000001
#
# number of rings (size 3 to 8) (size 9 to 14) (size 15 to 20)
#    0.000    2.000    1.250    1.875    0.000    4.000 
#    2.250    1.250    0.000    0.000    0.000    0.000 
#    0.000    0.000    0.000    0.000    0.000    0.000 
#
# Total GULP energy -198454.965941 kJ/mol
# GULP energy per Si atom -12403.435371 kJ/mol
# Density = 1.943475 g / cm^3
# Si number density = 19.479081 Si / 1000 Ang^3
#
#
#
# Elastic Constant Matrix: (Units=GPa)
#
#
# Indices 1 2 3 4 5 6 
#
# 1 110.6057 46.7185 41.4219 5.6162 6.7826 -6.8698
# 2 46.7185 97.9790 29.1852 0.5972 -0.1154 -21.1663
# 3 41.4219 29.1852 94.1129 14.3976 -0.2375 -13.1237
# 4 5.6162 0.5972 14.3976 21.4541 -1.2572 7.0413
# 5 6.7826 -0.1154 -0.2375 -1.2572 29.0396 7.8838
# 6 -6.8698 -21.1663 -13.1237 7.0413 7.8838 32.3427
#
#
#
# Elastic Compliance Matrix: (Units=1/GPa)
#
#
# Indices 1 2 3 4 5 6 
#
# 1 0.012932 -0.005282 -0.004344 0.000144 -0.002560 -0.001880
# 2 -0.005282 0.014904 -0.000835 -0.001464 -0.001194 0.008903
# 3 -0.004344 -0.000835 0.015750 -0.012102 -0.001537 0.007931
# 4 0.000144 -0.001464 -0.012102 0.062262 0.008376 -0.021435
# 5 -0.002560 -0.001194 -0.001537 0.008376 0.038983 -0.013275
# 6 -0.001880 0.008903 0.007931 -0.021435 -0.013275 0.047467
#
#
# Mechanical properties :
#
#
# Convention : Reuss Voigt Hill
#
# Bulk Modulus (GPa) = 44.12305 59.70540 51.91423
# Shear Modulus (GPa) = 22.64738 28.92541 25.78640
#
# Velocity S-wave (km/s) = 3.41347 3.85768 3.64235
# Velocity P-wave (km/s) = 6.18356 7.11055 6.66319
#
# Compressibility (1/GPa) = 0.02266389
#
# Stress axis : x y z
#
# Youngs Moduli (GPa) = 77.32618 67.09390 63.49195
#
# Poissons Ratio (x) = 0.35441 0.27584
# Poissons Ratio (y) = 0.40846 0.05299
# Poissons Ratio (z) = 0.33594 0.05600
#
# Static dielectric constant tensor:
#      x y z
#    x 3.643350 0.024880 0.111450 
#    y 0.024880 3.421420 -0.016200 
#    z 0.111450 -0.016200 3.498190 
# 
# 
# High freq. dielectric constant tensor:
#      x y z
#    x 1.765910 0.002000 0.011700 
#    y 0.002000 1.751730 0.003940 
#    z 0.011700 0.003940 1.757200 
# 
# From -- ./inp_files/37402.got.cif
#   From: 2010.06.25/outbox.cif.g09.slc.cpg/sg2_19_cif.got.tgz:37402.got - 2010.06.27 13:26:56.
