data_PCOD8001743
_publ_section_title
;
Structure prediction by ZEFSAII (Michael W. Deem and Ramdas Pophale) SiO2 
 PCOD8001743
Probable space group: P -1
;
_chemical_formula_sum "Si O2"
_cell_formula_units_Z 16
_cell_length_a 15.465141
_cell_length_b 8.595455
_cell_length_c 8.702116
_cell_angle_alpha 63.199848
_cell_angle_beta 120.475554
_cell_angle_gamma 88.742028
_cell_volume 841.317894
_symmetry_space_group_name_H-M "P -1"
_symmetry_group_IT_number 2
_symmetry_cell_setting 'triclinic'
loop_
_space_group_symop_operation_xyz
x,y,z
-x,-y,-z
loop_
_atom_site_type_symbol
_atom_site_label
_atom_site_fract_x
_atom_site_fract_y
_atom_site_fract_z
Si Si1 0.511505 0.845863 0.703656
Si Si2 0.580858 0.563818 0.646982
Si Si3 0.759403 0.186128 0.028340
Si Si4 0.079114 0.306918 0.612766
Si Si5 0.966443 0.014571 0.136511
Si Si6 0.864042 0.927101 0.510423
Si Si7 0.684796 0.852880 0.085847
Si Si8 0.654285 0.867284 0.398274
O O1 0.516620 0.659482 0.700033
O O2 0.500000 0.000000 0.500000
O O3 0.413549 0.926849 0.695698
O O4 0.619969 0.800227 0.916315
O O5 0.500000 0.500000 0.500000
O O6 0.625156 0.705997 0.531742
O O7 0.680380 0.393212 0.868914
O O8 0.858054 0.180444 0.006809
O O9 0.806548 0.108089 0.273531
O O10 0.695700 0.052824 0.968952
O O11 0.061168 0.235941 0.458031
O O12 0.200167 0.304620 0.736348
O O13 0.000000 0.500000 0.500000
O O14 0.057757 0.172317 0.777338
O O15 0.065407 0.024442 0.319866
O O16 0.000000 0.000000 0.000000
O O17 0.776545 0.851285 0.544026
O O18 0.629321 0.856017 0.200152
#
# Coordination Sequence:
#
# PCOD8001743 Si02
#       8
#     2   2   2   2   2   2   2   2
#     4  10  20  34  55  79 106 143 179 219 271 325
#     4  11  23  37  55  83 112 141 180 229 277 322
#     4   9  19  38  57  77 111 148 178 224 272 319
#     4   9  19  36  58  82 110 144 181 224 269 322
#     4  10  21  35  57  84 112 146 183 223 271 320
#     4   9  20  39  57  78 110 150 184 218 271 328
#     4   9  19  37  58  79 107 146 182 218 272 326
#     4   9  20  38  58  78 108 144 183 227 270 324
#
# _framework density 19.017783000000001
#
# number of rings (size 3 to 8) (size 9 to 14) (size 15 to 20)
#    0.000    3.000    0.000    3.375    0.000   10.000 
#    0.000    6.875    0.000    0.000    0.000    0.000 
#    0.000    0.000    0.000    0.000    0.000    0.000 
#
# Total GULP energy -198257.724763 kJ/mol
# GULP energy per Si atom -12391.107798 kJ/mol
# Density = 1.897450 g / cm^3
# Si number density = 19.017783 Si / 1000 Ang^3
#
#
#
# Elastic Constant Matrix: (Units=GPa)
#
#
# Indices 1 2 3 4 5 6 
#
# 1 116.5664 56.5594 45.7290 -4.3205 -5.3527 -18.7390
# 2 56.5594 119.4304 71.4468 0.2632 10.8790 -29.2182
# 3 45.7290 71.4468 88.0484 8.3871 9.4961 -21.6797
# 4 -4.3205 0.2632 8.3871 38.9512 -7.6740 5.5121
# 5 -5.3527 10.8790 9.4961 -7.6740 21.5466 -4.4185
# 6 -18.7390 -29.2182 -21.6797 5.5121 -4.4185 31.4121
#
#
#
# Elastic Compliance Matrix: (Units=1/GPa)
#
#
# Indices 1 2 3 4 5 6 
#
# 1 0.013087 -0.003882 -0.004614 0.004022 0.008999 0.001573
# 2 -0.003882 0.019052 -0.011268 0.000053 -0.004156 0.007035
# 3 -0.004614 -0.011268 0.025847 -0.008431 -0.008859 0.004839
# 4 0.004022 0.000053 -0.008431 0.031786 0.014595 -0.006895
# 5 0.008999 -0.004156 -0.008859 0.014595 0.060111 0.001283
# 6 0.001573 0.007035 0.004839 -0.006895 0.001283 0.044046
#
#
# Mechanical properties :
#
#
# Convention : Reuss Voigt Hill
#
# Bulk Modulus (GPa) = 54.17417 74.61284 64.39351
# Shear Modulus (GPa) = 20.86730 28.40264 24.63497
#
# Velocity S-wave (km/s) = 3.31607 3.86875 3.60302
# Velocity P-wave (km/s) = 6.57341 7.69900 7.15836
#
# Compressibility (1/GPa) = 0.01845898
#
# Stress axis : x y z
#
# Youngs Moduli (GPa) = 76.40973 52.48852 38.68894
#
# Poissons Ratio (x) = 0.20374 0.17850
# Poissons Ratio (y) = 0.29660 0.43596
# Poissons Ratio (z) = 0.35254 0.59145
#
# Static dielectric constant tensor:
#      x y z
#    x 3.942970 -0.373190 0.204040 
#    y -0.373190 3.776130 -0.041620 
#    z 0.204040 -0.041620 3.427260 
# 
# 
# High freq. dielectric constant tensor:
#      x y z
#    x 1.750970 -0.011060 0.007300 
#    y -0.011060 1.729200 0.008730 
#    z 0.007300 0.008730 1.729000 
# 
# From -- ./inp_files/297722.got.cif
#   From: 2010.06.25/outbox.cif.g09.slc.cpg/sg2_149_cif.got.tgz:297722.got - 2010.06.27 13:26:56.
