data_PCOD8001927
_publ_section_title
;
Structure prediction by ZEFSAII (Michael W. Deem and Ramdas Pophale) SiO2 
 PCOD8001927
Probable space group: P -1
;
_chemical_formula_sum "Si O2"
_cell_formula_units_Z 16
_cell_length_a 9.838284
_cell_length_b 21.818313
_cell_length_c 9.468293
_cell_angle_alpha 51.820287
_cell_angle_beta 150.006197
_cell_angle_gamma 129.736979
_cell_volume 770.235906
_symmetry_space_group_name_H-M "P -1"
_symmetry_group_IT_number 2
_symmetry_cell_setting 'triclinic'
loop_
_space_group_symop_operation_xyz
x,y,z
-x,-y,-z
loop_
_atom_site_type_symbol
_atom_site_label
_atom_site_fract_x
_atom_site_fract_y
_atom_site_fract_z
Si Si1 0.025285 0.739809 0.693193
Si Si2 0.880041 0.489070 0.564424
Si Si3 0.677193 0.014972 0.996156
Si Si4 0.683802 0.719356 0.907674
Si Si5 0.927113 0.331217 0.457524
Si Si6 0.605754 0.838977 0.195196
Si Si7 0.300275 0.118701 0.454993
Si Si8 0.250386 0.382695 0.150394
O O1 0.134371 0.704702 0.702534
O O2 0.844042 0.801422 0.397899
O O3 0.817378 0.668373 0.695244
O O4 0.293559 0.783457 0.965940
O O5 0.893290 0.575806 0.520701
O O6 0.562740 0.437716 0.353703
O O7 0.000000 0.500000 0.500000
O O8 0.049513 0.441725 0.879743
O O9 0.998038 0.055914 0.263672
O O10 0.649053 0.925998 0.032771
O O11 0.537881 0.072084 0.692474
O O12 0.500000 0.000000 0.000000
O O13 0.682449 0.810709 0.741955
O O14 0.798930 0.677673 0.940518
O O15 0.367875 0.670336 0.731680
O O16 0.898046 0.720899 0.226437
O O17 0.644336 0.844849 0.390405
#
# Coordination Sequence:
#
# PCOD8001927 Si02
#       8
#     2   2   2   2   2   2   2   2
#     4  12  26  42  63  96 130 171 210 256 316 383
#     4  12  23  42  66  95 124 163 209 270 316 368
#     4  10  20  34  59  99 131 158 203 266 321 357
#     4  12  23  41  67  93 126 166 211 267 311 373
#     4  12  27  43  64  92 131 170 211 255 324 383
#     4  11  21  39  65  91 135 167 203 260 322 370
#     4  11  21  36  64  99 125 158 215 268 305 365
#     4  12  24  40  69  93 121 166 214 262 316 367
#
# _framework density 20.772857999999999
#
# number of rings (size 3 to 8) (size 9 to 14) (size 15 to 20)
#    0.000    0.500    3.750    7.125    1.750    1.000 
#    0.000    0.000    0.000   15.000    0.000    0.000 
#    0.000    0.000    0.000    0.000    0.000    0.000 
#
# Total GULP energy -198476.713548 kJ/mol
# GULP energy per Si atom -12404.794597 kJ/mol
# Density = 2.072558 g / cm^3
# Si number density = 20.772858 Si / 1000 Ang^3
#
#
#
# Elastic Constant Matrix: (Units=GPa)
#
#
# Indices 1 2 3 4 5 6 
#
# 1 62.7596 40.8243 32.2001 -1.3582 -3.2483 -0.0244
# 2 40.8243 116.7750 44.9062 -9.6757 -6.8966 2.2221
# 3 32.2001 44.9062 133.3948 -5.1427 10.0657 2.8024
# 4 -1.3582 -9.6757 -5.1427 48.0853 5.2258 10.0020
# 5 -3.2483 -6.8966 10.0657 5.2258 26.4828 -0.9495
# 6 -0.0244 2.2221 2.8024 10.0020 -0.9495 21.8347
#
#
#
# Elastic Compliance Matrix: (Units=1/GPa)
#
#
# Indices 1 2 3 4 5 6 
#
# 1 0.021964 -0.006360 -0.003481 -0.001760 0.002781 0.002046
# 2 -0.006360 0.012191 -0.002678 0.002020 0.002953 -0.001701
# 3 -0.003481 -0.002678 0.009717 0.001339 -0.005147 -0.001816
# 4 -0.001760 0.002020 0.001339 0.024332 -0.005422 -0.011761
# 5 0.002781 0.002953 -0.005147 -0.005422 0.042064 0.004676
# 6 0.002046 -0.001701 -0.001816 -0.011761 0.004676 0.051798
#
#
# Mechanical properties :
#
#
# Convention : Reuss Voigt Hill
#
# Bulk Modulus (GPa) = 53.10018 60.97674 57.03846
# Shear Modulus (GPa) = 25.85556 32.28049 29.06802
#
# Velocity S-wave (km/s) = 3.53183 3.94632 3.74482
# Velocity P-wave (km/s) = 6.49996 7.08395 6.79823
#
# Compressibility (1/GPa) = 0.01883233
#
# Stress axis : x y z
#
# Youngs Moduli (GPa) = 45.52915 82.02835 102.91725
#
# Poissons Ratio (x) = 0.52172 0.35830
# Poissons Ratio (y) = 0.28957 0.27560
# Poissons Ratio (z) = 0.15851 0.21966
#
# Static dielectric constant tensor:
#      x y z
#    x 3.607320 -0.179220 0.246620 
#    y -0.179220 4.655840 -0.561040 
#    z 0.246620 -0.561040 4.205820 
# 
# 
# High freq. dielectric constant tensor:
#      x y z
#    x 1.779080 0.010210 0.016300 
#    y 0.010210 1.830830 -0.008170 
#    z 0.016300 -0.008170 1.834550 
# 
# From -- ./inp_files/223359.got.cif
#   From: 2010.06.25/outbox.cif.g09.slc.cpg/sg2_112_cif.got.tgz:223359.got - 2010.06.27 13:26:56.
