data_PCOD8001324
_publ_section_title
;
Structure prediction by ZEFSAII (Michael W. Deem and Ramdas Pophale) SiO2 
 PCOD8001324
Probable space group: P -1
;
_chemical_formula_sum "Si O2"
_cell_formula_units_Z 16
_cell_length_a 9.481955
_cell_length_b 21.903999
_cell_length_c 7.796014
_cell_angle_alpha 91.718517
_cell_angle_beta 84.347593
_cell_angle_gamma 147.084213
_cell_volume 871.424414
_symmetry_space_group_name_H-M "P -1"
_symmetry_group_IT_number 2
_symmetry_cell_setting 'triclinic'
loop_
_space_group_symop_operation_xyz
x,y,z
-x,-y,-z
loop_
_atom_site_type_symbol
_atom_site_label
_atom_site_fract_x
_atom_site_fract_y
_atom_site_fract_z
Si Si1 0.824684 0.905072 0.372737
Si Si2 0.685236 0.419187 0.164541
Si Si3 0.858825 0.059046 0.899509
Si Si4 0.524929 0.136649 0.805402
Si Si5 0.270261 0.904611 0.385360
Si Si6 0.304252 0.273326 0.509121
Si Si7 0.395701 0.307422 0.867130
Si Si8 0.247918 0.663862 0.077313
O O1 0.609744 0.875191 0.332582
O O2 0.692395 0.797888 0.465577
O O3 0.013838 0.955869 0.196064
O O4 0.000000 0.000000 0.500000
O O5 0.498913 0.361973 0.342745
O O6 0.956280 0.551576 0.180321
O O7 0.546190 0.398424 0.008627
O O8 0.738383 0.365705 0.113637
O O9 0.696204 0.035499 0.770198
O O10 0.094665 0.187842 0.949809
O O11 0.680916 0.977969 0.073753
O O12 0.723788 0.161999 0.694169
O O13 0.679324 0.238128 0.926090
O O14 0.990604 0.811896 0.505598
O O15 0.500000 0.000000 0.500000
O O16 0.401194 0.341256 0.681522
O O17 0.539717 0.293301 0.823363
#
# Coordination Sequence:
#
# PCOD8001324 Si02
#       8
#     2   2   2   2   2   2   2   2
#     4  10  20  30  51  86 112 136 187 231 276 338
#     4   9  19  36  58  81 115 146 189 229 287 325
#     4  10  21  34  55  82 109 154 174 221 303 328
#     4  12  20  36  56  81 120 141 185 238 276 330
#     4  10  23  39  52  82 116 148 188 222 279 354
#     4  10  20  37  56  79 110 158 181 227 286 332
#     4   8  17  35  51  84 109 134 190 217 279 332
#     4   9  19  35  53  91 108 141 188 245 267 327
#
# _framework density 18.360744
#
# number of rings (size 3 to 8) (size 9 to 14) (size 15 to 20)
#    0.750    1.750    2.500    2.250    5.250    0.500 
#    0.000    0.625    0.000    3.000    0.000    0.000 
#    0.000    0.000    0.000    0.000    0.000    0.000 
#
# Total GULP energy -198233.058407 kJ/mol
# GULP energy per Si atom -12389.566150 kJ/mol
# Density = 1.831895 g / cm^3
# Si number density = 18.360744 Si / 1000 Ang^3
#
#
#
# Elastic Constant Matrix: (Units=GPa)
#
#
# Indices 1 2 3 4 5 6 
#
# 1 83.3741 33.2258 25.6767 -5.0372 1.2422 14.1781
# 2 33.2258 89.1645 44.4904 -4.2911 2.9600 20.3953
# 3 25.6767 44.4904 76.9724 -12.3032 1.8782 12.5162
# 4 -5.0372 -4.2911 -12.3032 26.2580 8.0441 -8.5011
# 5 1.2422 2.9600 1.8782 8.0441 24.8053 7.8416
# 6 14.1781 20.3953 12.5162 -8.5011 7.8416 20.7995
#
#
#
# Elastic Compliance Matrix: (Units=1/GPa)
#
#
# Indices 1 2 3 4 5 6 
#
# 1 0.015067 -0.002630 -0.002621 -0.002425 0.003168 -0.008300
# 2 -0.002630 0.021006 -0.009881 -0.010896 0.008378 -0.020470
# 3 -0.002621 -0.009881 0.020552 0.011136 -0.005693 0.005806
# 4 -0.002425 -0.010896 0.011136 0.067169 -0.035949 0.046642
# 5 0.003168 0.008378 -0.005693 -0.035949 0.065946 -0.046504
# 6 -0.008300 -0.020470 0.005806 0.046642 -0.046504 0.106911
#
#
# Mechanical properties :
#
#
# Convention : Reuss Voigt Hill
#
# Bulk Modulus (GPa) = 37.93667 50.69963 44.31815
# Shear Modulus (GPa) = 14.89414 24.11377 19.50396
#
# Velocity S-wave (km/s) = 2.85124 3.62793 3.26278
# Velocity P-wave (km/s) = 5.61659 6.72474 6.19549
#
# Compressibility (1/GPa) = 0.02635972
#
# Stress axis : x y z
#
# Youngs Moduli (GPa) = 66.36917 47.60621 48.65634
#
# Poissons Ratio (x) = 0.12520 0.12755
# Poissons Ratio (y) = 0.17455 0.48079
# Poissons Ratio (z) = 0.17398 0.47042
#
# Static dielectric constant tensor:
#      x y z
#    x 3.313680 0.191090 -0.011140 
#    y 0.191090 3.214810 0.161400 
#    z -0.011140 0.161400 3.280080 
# 
# 
# High freq. dielectric constant tensor:
#      x y z
#    x 1.693060 0.025010 -0.001490 
#    y 0.025010 1.698430 0.013780 
#    z -0.001490 0.013780 1.704410 
# 
# From -- ./inp_files/222207.got.cif
#   From: 2010.06.25/outbox.cif.g09.slc.cpg/sg2_112_cif.got.tgz:222207.got - 2010.06.27 13:26:56.
