data_PCOD8001185
_publ_section_title
;
Structure prediction by ZEFSAII (Michael W. Deem and Ramdas Pophale) SiO2 
 PCOD8001185
Probable space group: P -1
;
_chemical_formula_sum "Si O2"
_cell_formula_units_Z 14
_cell_length_a 11.541220
_cell_length_b 9.123723
_cell_length_c 18.120625
_cell_angle_alpha 38.781114
_cell_angle_beta 149.361410
_cell_angle_gamma 127.340294
_cell_volume 596.623818
_symmetry_space_group_name_H-M "P -1"
_symmetry_group_IT_number 2
_symmetry_cell_setting 'triclinic'
loop_
_space_group_symop_operation_xyz
x,y,z
-x,-y,-z
loop_
_atom_site_type_symbol
_atom_site_label
_atom_site_fract_x
_atom_site_fract_y
_atom_site_fract_z
Si Si1 0.948952 0.120851 0.641288
Si Si2 0.301596 0.616156 0.176210
Si Si3 0.163619 0.005904 0.218842
Si Si4 0.224062 0.466186 0.455567
Si Si5 0.205392 0.453296 0.708133
Si Si6 0.663407 0.566394 0.898303
Si Si7 0.888683 0.686142 0.698782
O O1 0.191797 0.179306 0.784778
O O2 0.813274 0.383251 0.440174
O O3 0.800544 0.032253 0.659049
O O4 0.967486 0.939224 0.655155
O O5 0.556058 0.651541 0.326981
O O6 0.279942 0.580042 0.090353
O O7 0.270379 0.378221 0.296555
O O8 0.098480 0.841477 0.999618
O O9 0.361771 0.148674 0.243416
O O10 0.208312 0.741378 0.311734
O O11 0.239740 0.310299 0.451034
O O12 0.991074 0.444979 0.379905
O O13 0.457047 0.481395 0.863417
O O14 0.873684 0.508416 0.093717
#
# Coordination Sequence:
#
# PCOD8001185 Si02
#       7
#     2   2   2   2   2   2   2
#     4  10  19  42  64  92 124 163 220 259 307 373
#     4  11  21  41  68 101 120 166 219 267 306 384
#     4  10  21  41  70  95 126 165 214 268 317 362
#     4  11  26  44  61  96 139 166 206 261 323 386
#     4  10  24  40  61  99 126 169 215 254 322 382
#     4  11  21  40  70  97 123 160 224 266 303 388
#     4  11  23  41  67  96 127 166 212 265 323 367
#
# _framework density 23.465371000000001
#
# number of rings (size 3 to 8) (size 9 to 14) (size 15 to 20)
#    0.000    1.429    2.857    3.857    2.000    5.143 
#    7.714    0.000    0.000    0.000    0.000    0.000 
#    0.000    0.000    0.000    0.000    0.000    0.000 
#
# Total GULP energy -173449.559327 kJ/mol
# GULP energy per Si atom -12389.254238 kJ/mol
# Density = 2.341196 g / cm^3
# Si number density = 23.465371 Si / 1000 Ang^3
#
#
#
# Elastic Constant Matrix: (Units=GPa)
#
#
# Indices 1 2 3 4 5 6 
#
# 1 55.2798 29.5457 3.0217 13.7407 7.9196 5.2713
# 2 29.5457 116.7744 6.1059 -1.5056 -0.5986 -0.5356
# 3 3.0217 6.1059 43.1510 13.5261 -4.1679 -6.3311
# 4 13.7407 -1.5056 13.5261 35.8623 3.4961 2.7260
# 5 7.9196 -0.5986 -4.1679 3.4961 28.8030 11.0446
# 6 5.2713 -0.5356 -6.3311 2.7260 11.0446 32.2293
#
#
#
# Elastic Compliance Matrix: (Units=1/GPa)
#
#
# Indices 1 2 3 4 5 6 
#
# 1 0.024749 -0.006501 0.001569 -0.009758 -0.005031 -0.001298
# 2 -0.006501 0.010365 -0.001985 0.003545 0.001239 0.000121
# 3 0.001569 -0.001985 0.028168 -0.012003 0.003063 0.005209
# 4 -0.009758 0.003545 -0.012003 0.036752 -0.002279 -0.003030
# 5 -0.005031 0.001239 0.003063 -0.002279 0.041699 -0.012652
# 6 -0.001298 0.000121 0.005209 -0.003030 -0.012652 0.036857
#
#
# Mechanical properties :
#
#
# Convention : Reuss Voigt Hill
#
# Bulk Modulus (GPa) = 20.22345 32.50575 26.36460
# Shear Modulus (GPa) = 23.93410 31.14772 27.54091
#
# Velocity S-wave (km/s) = 3.19717 3.64729 3.42962
# Velocity P-wave (km/s) = 4.71872 5.62314 5.19067
#
# Compressibility (1/GPa) = 0.04944755
#
# Stress axis : x y z
#
# Youngs Moduli (GPa) = 40.40571 96.47943 35.50112
#
# Poissons Ratio (x) = 0.62726 -0.05571
# Poissons Ratio (y) = 0.26270 0.07047
# Poissons Ratio (z) = -0.06341 0.19152
#
# Static dielectric constant tensor:
#      x y z
#    x 3.974310 0.474660 0.044080 
#    y 0.474660 4.599380 0.078020 
#    z 0.044080 0.078020 4.181520 
# 
# 
# High freq. dielectric constant tensor:
#      x y z
#    x 1.902760 0.021230 -0.000720 
#    y 0.021230 1.930760 0.004580 
#    z -0.000720 0.004580 1.917740 
# 
# From -- ./inp_files/158400.got.cif
#   From: 2010.06.25/outbox.cif.g09.slc.cpg/sg2_80_cif.got.tgz:158400.got - 2010.06.27 13:26:56.
