data_PCOD8001271
_publ_section_title
;
Structure prediction by ZEFSAII (Michael W. Deem and Ramdas Pophale) SiO2 
 PCOD8001271
Probable space group: P -1
;
_chemical_formula_sum "Si O2"
_cell_formula_units_Z 16
_cell_length_a 9.643887
_cell_length_b 24.224176
_cell_length_c 20.534047
_cell_angle_alpha 162.731305
_cell_angle_beta 138.909774
_cell_angle_gamma 32.711337
_cell_volume 731.532264
_symmetry_space_group_name_H-M "P -1"
_symmetry_group_IT_number 2
_symmetry_cell_setting 'triclinic'
loop_
_space_group_symop_operation_xyz
x,y,z
-x,-y,-z
loop_
_atom_site_type_symbol
_atom_site_label
_atom_site_fract_x
_atom_site_fract_y
_atom_site_fract_z
Si Si1 0.072994 0.769181 0.299881
Si Si2 0.655998 0.443439 0.200336
Si Si3 0.192897 0.109732 0.523144
Si Si4 0.369152 0.248519 0.345620
Si Si5 0.926783 0.296414 0.311070
Si Si6 0.687730 0.116497 0.942211
Si Si7 0.987762 0.820383 0.087118
Si Si8 0.920327 0.613417 0.953299
O O1 0.370579 0.618850 0.263171
O O2 0.867563 0.841454 0.366849
O O3 0.000000 0.000000 0.500000
O O4 0.059975 0.611726 0.066041
O O5 0.671784 0.587967 0.424424
O O6 0.692657 0.216138 0.986925
O O7 0.886948 0.348551 0.121710
O O8 0.998907 0.352166 0.684961
O O9 0.500000 0.000000 0.500000
O O10 0.139332 0.930900 0.278068
O O11 0.259477 0.415418 0.429700
O O12 0.172748 0.183242 0.217479
O O13 0.673466 0.020711 0.186661
O O14 0.738216 0.229779 0.147572
O O15 0.073432 0.171575 0.291956
O O16 0.400064 0.177861 0.921313
O O17 0.035695 0.659215 0.983733
#
# Coordination Sequence:
#
# PCOD8001271 Si02
#       8
#     2   2   2   2   2   2   2   2
#     4  12  24  43  67  97 136 181 221 270 327 395
#     4  11  24  42  67  97 136 169 224 272 327 396
#     4  12  26  42  63  99 136 176 226 273 323 386
#     4  10  19  43  68  96 129 173 215 274 335 391
#     4   9  19  37  72  91 126 171 217 272 339 391
#     4  10  20  40  66  98 123 175 220 270 336 391
#     4  12  25  45  66 100 138 175 220 276 325 396
#     4  12  24  43  69  92 137 181 222 269 328 394
#
# _framework density 21.871898999999999
#
# number of rings (size 3 to 8) (size 9 to 14) (size 15 to 20)
#    0.000    1.000    5.000    1.875    3.500    1.000 
#    2.250    6.250    0.000    0.000    0.000    0.000 
#    0.000    0.000    0.000    0.000    0.000    0.000 
#
# Total GULP energy -198383.682852 kJ/mol
# GULP energy per Si atom -12398.980178 kJ/mol
# Density = 2.182212 g / cm^3
# Si number density = 21.871899 Si / 1000 Ang^3
#
#
#
# Elastic Constant Matrix: (Units=GPa)
#
#
# Indices 1 2 3 4 5 6 
#
# 1 126.3610 40.2476 50.7401 23.1853 3.4898 1.5424
# 2 40.2476 105.5863 23.4403 27.6899 8.5636 3.8707
# 3 50.7401 23.4403 65.6680 13.9266 11.0275 14.3146
# 4 23.1853 27.6899 13.9266 35.6243 1.4250 13.3536
# 5 3.4898 8.5636 11.0275 1.4250 45.6704 9.3744
# 6 1.5424 3.8707 14.3146 13.3536 9.3744 37.7486
#
#
#
# Elastic Compliance Matrix: (Units=1/GPa)
#
#
# Indices 1 2 3 4 5 6 
#
# 1 0.013282 -0.001732 -0.009728 -0.005418 0.000793 0.005044
# 2 -0.001732 0.013058 -0.001634 -0.009526 -0.002300 0.003292
# 3 -0.009728 -0.001634 0.025572 0.000978 -0.003382 -0.008638
# 4 -0.005418 -0.009526 0.000978 0.044399 0.003828 -0.015830
# 5 0.000793 -0.002300 -0.003382 0.003828 0.024169 -0.005870
# 6 0.005044 0.003292 -0.008638 -0.015830 -0.005870 0.036280
#
#
# Mechanical properties :
#
#
# Convention : Reuss Voigt Hill
#
# Bulk Modulus (GPa) = 38.87512 58.49682 48.68597
# Shear Modulus (GPa) = 26.10642 36.02115 31.06379
#
# Velocity S-wave (km/s) = 3.45861 4.06262 3.77272
# Velocity P-wave (km/s) = 5.81050 6.98640 6.42541
#
# Compressibility (1/GPa) = 0.02572339
#
# Stress axis : x y z
#
# Youngs Moduli (GPa) = 75.28715 76.58260 39.10544
#
# Poissons Ratio (x) = 0.13262 0.38044
# Poissons Ratio (y) = 0.13037 0.06391
# Poissons Ratio (z) = 0.73243 0.12515
#
# Static dielectric constant tensor:
#      x y z
#    x 4.029910 0.093000 0.358530 
#    y 0.093000 4.186090 0.169060 
#    z 0.358530 0.169060 3.952170 
# 
# 
# High freq. dielectric constant tensor:
#      x y z
#    x 1.855430 -0.003470 0.035710 
#    y -0.003470 1.881670 0.016350 
#    z 0.035710 0.016350 1.843790 
# 
# From -- ./inp_files/315721.got.cif
#   From: 2010.06.25/outbox.cif.g09.slc.cpg/sg2_158_cif.got.tgz:315721.got - 2010.06.27 13:26:56.
