data_PCOD8001691
_publ_section_title
;
Structure prediction by ZEFSAII (Michael W. Deem and Ramdas Pophale) SiO2 
 PCOD8001691
Probable space group: P -1
;
_chemical_formula_sum "Si O2"
_cell_formula_units_Z 16
_cell_length_a 15.039409
_cell_length_b 16.191133
_cell_length_c 13.285106
_cell_angle_alpha 25.222954
_cell_angle_beta 63.356987
_cell_angle_gamma 46.727284
_cell_volume 836.065210
_symmetry_space_group_name_H-M "P -1"
_symmetry_group_IT_number 2
_symmetry_cell_setting 'triclinic'
loop_
_space_group_symop_operation_xyz
x,y,z
-x,-y,-z
loop_
_atom_site_type_symbol
_atom_site_label
_atom_site_fract_x
_atom_site_fract_y
_atom_site_fract_z
Si Si1 0.160170 0.188330 0.269173
Si Si2 0.562736 0.489642 0.634398
Si Si3 0.684383 0.400810 0.463624
Si Si4 0.702195 0.358090 0.104578
Si Si5 0.138481 0.176989 0.068270
Si Si6 0.378316 0.097246 0.029881
Si Si7 0.610766 0.251352 0.080661
Si Si8 0.795529 0.664038 0.725509
O O1 0.214870 0.102000 0.222266
O O2 0.247983 0.205197 0.282736
O O3 0.169311 0.958236 0.564150
O O4 0.000000 0.500000 0.000000
O O5 0.680533 0.383641 0.606204
O O6 0.459342 0.478344 0.648300
O O7 0.467294 0.811213 0.366313
O O8 0.643173 0.282443 0.918088
O O9 0.831207 0.084970 0.696524
O O10 0.688991 0.621907 0.186070
O O11 0.663387 0.341724 0.030872
O O12 0.560997 0.547392 0.039653
O O13 0.762059 0.488234 0.923105
O O14 0.240158 0.185867 0.945054
O O15 0.966381 0.464892 0.835186
O O16 0.500000 0.000000 0.000000
O O17 0.700118 0.923907 0.409222
#
# Coordination Sequence:
#
# PCOD8001691 Si02
#       8
#     2   2   2   2   2   2   2   2
#     4   9  20  35  53  81 112 136 172 223 266 315
#     4   9  18  34  54  82 108 132 174 221 264 314
#     4   9  18  32  55  81 106 133 168 219 272 318
#     4  10  20  36  55  77 104 142 185 218 259 314
#     4  10  20  34  53  81 109 137 175 217 265 318
#     4   9  18  33  55  81 106 133 168 217 269 312
#     4  10  21  36  53  76 108 139 180 226 256 306
#     4  10  22  37  53  75 108 146 179 216 263 313
#
# _framework density 19.137263000000001
#
# number of rings (size 3 to 8) (size 9 to 14) (size 15 to 20)
#    0.000    2.500    0.000    2.625    0.000    8.000 
#    0.000    0.625    0.000    3.750    0.000    0.000 
#    0.000    0.000    0.000    0.000    0.000    0.000 
#
# Total GULP energy -198221.583892 kJ/mol
# GULP energy per Si atom -12388.848993 kJ/mol
# Density = 1.909371 g / cm^3
# Si number density = 19.137263 Si / 1000 Ang^3
#
#
#
# Elastic Constant Matrix: (Units=GPa)
#
#
# Indices 1 2 3 4 5 6 
#
# 1 89.3490 26.9706 58.1458 -1.6693 -22.4640 -5.4896
# 2 26.9706 78.9719 45.9257 -6.9919 4.6910 5.4905
# 3 58.1458 45.9257 152.7398 -9.6347 -10.5227 6.6995
# 4 -1.6693 -6.9919 -9.6347 31.5677 10.0430 -1.4080
# 5 -22.4640 4.6910 -10.5227 10.0430 34.0838 -2.7936
# 6 -5.4896 5.4905 6.6995 -1.4080 -2.7936 22.4844
#
#
#
# Elastic Compliance Matrix: (Units=1/GPa)
#
#
# Indices 1 2 3 4 5 6 
#
# 1 0.021496 -0.006004 -0.006147 -0.006674 0.015891 0.010102
# 2 -0.006004 0.018016 -0.003189 0.005466 -0.009503 -0.005753
# 3 -0.006147 -0.003189 0.010055 0.002350 -0.001509 -0.003759
# 4 -0.006674 0.005466 0.002350 0.038180 -0.015942 -0.003254
# 5 0.015891 -0.009503 -0.001509 -0.015942 0.046287 0.011403
# 6 0.010102 -0.005753 -0.003759 -0.003254 0.011403 0.050680
#
#
# Mechanical properties :
#
#
# Convention : Reuss Voigt Hill
#
# Bulk Modulus (GPa) = 52.94565 64.79389 58.86977
# Shear Modulus (GPa) = 22.55400 30.29509 26.42455
#
# Velocity S-wave (km/s) = 3.43671 3.98306 3.71993
# Velocity P-wave (km/s) = 6.59350 7.42186 7.01991
#
# Compressibility (1/GPa) = 0.01888729
#
# Stress axis : x y z
#
# Youngs Moduli (GPa) = 46.52005 55.50553 99.44917
#
# Poissons Ratio (x) = 0.33323 0.61136
# Poissons Ratio (y) = 0.27929 0.31716
# Poissons Ratio (z) = 0.28598 0.17702
#
# Static dielectric constant tensor:
#      x y z
#    x 3.519120 0.218570 -0.259180 
#    y 0.218570 3.700060 -0.068060 
#    z -0.259180 -0.068060 3.774780 
# 
# 
# High freq. dielectric constant tensor:
#      x y z
#    x 1.728060 0.005300 -0.020010 
#    y 0.005300 1.736390 -0.016230 
#    z -0.020010 -0.016230 1.747410 
# 
# From -- ./inp_files/454364.got.cif
#   From: 2010.06.25/outbox.cif.g09.slc.cpg/sg2_228_cif.got.tgz:454364.got - 2010.06.27 13:26:56.
