data_PCOD8001944
_publ_section_title
;
Structure prediction by ZEFSAII (Michael W. Deem and Ramdas Pophale) SiO2 
 PCOD8001944
Probable space group: P -1
;
_chemical_formula_sum "Si O2"
_cell_formula_units_Z 16
_cell_length_a 8.502764
_cell_length_b 21.296734
_cell_length_c 27.177337
_cell_angle_alpha 11.310535
_cell_angle_beta 129.794399
_cell_angle_gamma 129.317715
_cell_volume 741.014546
_symmetry_space_group_name_H-M "P -1"
_symmetry_group_IT_number 2
_symmetry_cell_setting 'triclinic'
loop_
_space_group_symop_operation_xyz
x,y,z
-x,-y,-z
loop_
_atom_site_type_symbol
_atom_site_label
_atom_site_fract_x
_atom_site_fract_y
_atom_site_fract_z
Si Si1 0.841839 0.004660 0.844513
Si Si2 0.495619 0.234188 0.161471
Si Si3 0.232076 0.299494 0.730191
Si Si4 0.292444 0.217336 0.624622
Si Si5 0.485290 0.866276 0.169891
Si Si6 0.427701 0.680817 0.001359
Si Si7 0.967370 0.836255 0.899864
Si Si8 0.196195 0.232745 0.370504
O O1 0.752172 0.316966 0.559879
O O2 0.999807 0.142526 0.811977
O O3 0.652768 0.763720 0.007464
O O4 0.965977 0.813785 0.975450
O O5 0.564585 0.366300 0.019825
O O6 0.257435 0.138166 0.186776
O O7 0.641518 0.945163 0.426343
O O8 0.500000 0.500000 0.000000
O O9 0.307268 0.171936 0.790162
O O10 0.379363 0.196725 0.882550
O O11 0.322778 0.587994 0.332138
O O12 0.476017 0.138930 0.760114
O O13 0.297852 0.989604 0.752656
O O14 0.076857 0.162213 0.651125
O O15 0.320747 0.354807 0.252715
O O16 0.106886 0.542540 0.139541
O O17 0.000000 0.000000 0.500000
#
# Coordination Sequence:
#
# PCOD8001944 Si02
#       8
#     2   2   2   2   2   2   2   2
#     4  10  20  39  58  92 131 169 212 271 316 366
#     4  11  24  46  69  97 129 166 216 275 337 398
#     4  10  20  34  60  88 128 176 218 259 316 382
#     4  10  20  39  58  92 132 169 214 268 317 371
#     4  10  20  34  60  89 128 176 218 258 315 385
#     4  10  24  41  67  96 132 171 219 274 325 399
#     4  10  22  41  65  92 132 170 215 277 323 389
#     4  11  24  46  69  96 128 169 214 273 339 396
#
# _framework density 21.592020000000002
#
# number of rings (size 3 to 8) (size 9 to 14) (size 15 to 20)
#    0.000    1.750    3.750    0.000    0.000    7.000 
#    0.000    1.250    0.000    0.000    0.000    0.000 
#    0.000    0.000    0.000    0.000    0.000    0.000 
#
# Total GULP energy -198218.801198 kJ/mol
# GULP energy per Si atom -12388.675075 kJ/mol
# Density = 2.154288 g / cm^3
# Si number density = 21.592020 Si / 1000 Ang^3
#
#
#
# Elastic Constant Matrix: (Units=GPa)
#
#
# Indices 1 2 3 4 5 6 
#
# 1 100.6338 34.1604 38.2337 -2.7359 -14.2202 15.2177
# 2 34.1604 77.7390 35.2240 -5.4851 -7.7243 11.7027
# 3 38.2337 35.2240 88.8313 6.6826 -4.4880 13.4397
# 4 -2.7359 -5.4851 6.6826 33.2801 12.9133 -3.9968
# 5 -14.2202 -7.7243 -4.4880 12.9133 40.0542 -7.7492
# 6 15.2177 11.7027 13.4397 -3.9968 -7.7492 45.5612
#
#
#
# Elastic Compliance Matrix: (Units=1/GPa)
#
#
# Indices 1 2 3 4 5 6 
#
# 1 0.013353 -0.003509 -0.003889 -0.000219 0.003338 -0.001863
# 2 -0.003509 0.017312 -0.005402 0.003442 0.000115 -0.001360
# 3 -0.003889 -0.005402 0.015812 -0.004843 0.000461 -0.002324
# 4 -0.000219 0.003442 -0.004843 0.036161 -0.011252 0.001876
# 5 0.003338 0.000115 0.000461 -0.011252 0.030415 0.002905
# 6 -0.001863 -0.001360 -0.002324 0.001876 0.002905 0.024264
#
#
# Mechanical properties :
#
#
# Convention : Reuss Voigt Hill
#
# Bulk Modulus (GPa) = 47.89663 53.60447 50.75055
# Shear Modulus (GPa) = 29.43320 34.41818 31.92569
#
# Velocity S-wave (km/s) = 3.69609 3.99685 3.84941
# Velocity P-wave (km/s) = 6.35968 6.79557 6.58123
#
# Compressibility (1/GPa) = 0.02087829
#
# Stress axis : x y z
#
# Youngs Moduli (GPa) = 74.88884 57.76351 63.24156
#
# Poissons Ratio (x) = 0.20268 0.24594
# Poissons Ratio (y) = 0.26277 0.34162
# Poissons Ratio (z) = 0.29124 0.31203
#
# Static dielectric constant tensor:
#      x y z
#    x 3.884990 0.596110 0.293900 
#    y 0.596110 3.238680 -0.742520 
#    z 0.293900 -0.742520 3.341540 
# 
# 
# High freq. dielectric constant tensor:
#      x y z
#    x 1.863010 0.013310 0.001020 
#    y 0.013310 1.835940 -0.014880 
#    z 0.001020 -0.014880 1.832110 
# 
# From -- ./inp_files/622742.got.cif
#   From: 2010.06.25/outbox.cif.g09.slc.cpg/sg2_312_cif.got.tgz:622742.got - 2010.06.27 13:26:56.
