data_PCOD8001594
_publ_section_title
;
Structure prediction by ZEFSAII (Michael W. Deem and Ramdas Pophale) SiO2 
 PCOD8001594
Probable space group: P -1
;
_chemical_formula_sum "Si O2"
_cell_formula_units_Z 14
_cell_length_a 9.584283
_cell_length_b 16.215347
_cell_length_c 9.769945
_cell_angle_alpha 44.601801
_cell_angle_beta 136.151226
_cell_angle_gamma 108.772313
_cell_volume 678.840058
_symmetry_space_group_name_H-M "P -1"
_symmetry_group_IT_number 2
_symmetry_cell_setting 'triclinic'
loop_
_space_group_symop_operation_xyz
x,y,z
-x,-y,-z
loop_
_atom_site_type_symbol
_atom_site_label
_atom_site_fract_x
_atom_site_fract_y
_atom_site_fract_z
Si Si1 0.637102 0.633038 0.927218
Si Si2 0.238335 0.550593 0.242888
Si Si3 0.453202 0.208993 0.575542
Si Si4 0.075936 0.330085 0.359439
Si Si5 0.171085 0.650614 0.584785
Si Si6 0.116405 0.769172 0.112682
Si Si7 0.354870 0.110349 0.365824
O O1 0.625941 0.656146 0.725321
O O2 0.407599 0.639714 0.817021
O O3 0.685840 0.748989 0.894174
O O4 0.820932 0.493701 0.256107
O O5 0.500000 0.500000 0.500000
O O6 0.164693 0.434819 0.348319
O O7 0.126462 0.653089 0.161030
O O8 0.142761 0.615254 0.953305
O O9 0.275550 0.218573 0.554697
O O10 0.688802 0.183934 0.838415
O O11 0.473929 0.096291 0.615028
O O12 0.007726 0.275456 0.512744
O O13 0.112778 0.731386 0.311557
O O14 0.886353 0.889972 0.782266
O O15 0.500000 0.000000 0.500000
#
# Coordination Sequence:
#
# PCOD8001594 Si02
#       7
#     2   2   2   2   2   2   2
#     4   8  18  35  51  83 113 151 170 232 279 333
#     4  11  21  31  54  83 117 156 191 214 276 348
#     4   9  19  37  54  82 113 146 195 228 273 331
#     4  11  20  34  52  81 122 152 174 236 280 339
#     4  10  20  33  57  85 126 141 173 230 301 345
#     4  11  21  37  57  89 111 150 189 229 282 349
#     4  10  21  39  61  81 106 150 203 241 268 316
#
# _framework density 20.623415999999999
#
# number of rings (size 3 to 8) (size 9 to 14) (size 15 to 20)
#    0.857    1.143    2.857    2.571    4.000    2.857 
#    0.000    0.000    0.000    1.714    0.000    0.000 
#    0.000    0.000    0.000    0.000    0.000    0.000 
#
# Total GULP energy -173476.220011 kJ/mol
# GULP energy per Si atom -12391.158572 kJ/mol
# Density = 2.057648 g / cm^3
# Si number density = 20.623416 Si / 1000 Ang^3
#
#
#
# Elastic Constant Matrix: (Units=GPa)
#
#
# Indices 1 2 3 4 5 6 
#
# 1 113.4861 36.1525 22.4575 4.3770 19.4325 -28.4347
# 2 36.1525 100.7991 30.9557 7.4937 24.9951 -27.3148
# 3 22.4575 30.9557 54.9709 14.7095 31.7203 -1.1488
# 4 4.3770 7.4937 14.7095 30.0305 0.4662 7.3682
# 5 19.4325 24.9951 31.7203 0.4662 34.5469 -3.5243
# 6 -28.4347 -27.3148 -1.1488 7.3682 -3.5243 33.3248
#
#
#
# Elastic Compliance Matrix: (Units=1/GPa)
#
#
# Indices 1 2 3 4 5 6 
#
# 1 0.012896 0.000567 -0.001043 -0.004324 -0.005443 0.011813
# 2 0.000567 0.017327 -0.003121 -0.006458 -0.008360 0.015122
# 3 -0.001043 -0.003121 0.053301 -0.024191 -0.045882 -0.001114
# 4 -0.004324 -0.006458 -0.024191 0.051483 0.026748 -0.018371
# 5 -0.005443 -0.008360 -0.045882 0.026748 0.078736 -0.010666
# 6 0.011813 0.015122 -0.001114 -0.018371 -0.010666 0.055378
#
#
# Mechanical properties :
#
#
# Convention : Reuss Voigt Hill
#
# Bulk Modulus (GPa) = 13.10088 49.82083 31.46086
# Shear Modulus (GPa) = 16.56967 31.55980 24.06474
#
# Velocity S-wave (km/s) = 2.83758 3.91614 3.41965
# Velocity P-wave (km/s) = 4.13546 6.68267 5.55698
#
# Compressibility (1/GPa) = 0.07633073
#
# Stress axis : x y z
#
# Youngs Moduli (GPa) = 77.54331 57.71482 18.76147
#
# Poissons Ratio (x) = -0.03275 0.01957
# Poissons Ratio (y) = -0.04401 0.05855
# Poissons Ratio (z) = 0.08088 0.18012
#
# Static dielectric constant tensor:
#      x y z
#    x 3.826750 -0.013320 0.426230 
#    y -0.013320 3.562420 0.343540 
#    z 0.426230 0.343540 3.507990 
# 
# 
# High freq. dielectric constant tensor:
#      x y z
#    x 1.805520 -0.012510 0.036560 
#    y -0.012510 1.788280 0.028770 
#    z 0.036560 0.028770 1.773450 
# 
# From -- ./inp_files/214800.got.cif
#   From: 2010.06.25/outbox.cif.g09.slc.cpg/sg2_108_cif.got.tgz:214800.got - 2010.06.27 13:26:56.
