data_PCOD8001719
_publ_section_title
;
Structure prediction by ZEFSAII (Michael W. Deem and Ramdas Pophale) SiO2 
 PCOD8001719
Probable space group: P -1
;
_chemical_formula_sum "Si O2"
_cell_formula_units_Z 16
_cell_length_a 9.438487
_cell_length_b 21.156522
_cell_length_c 13.732456
_cell_angle_alpha 28.619905
_cell_angle_beta 141.593569
_cell_angle_gamma 144.424203
_cell_volume 739.906705
_symmetry_space_group_name_H-M "P -1"
_symmetry_group_IT_number 2
_symmetry_cell_setting 'triclinic'
loop_
_space_group_symop_operation_xyz
x,y,z
-x,-y,-z
loop_
_atom_site_type_symbol
_atom_site_label
_atom_site_fract_x
_atom_site_fract_y
_atom_site_fract_z
Si Si1 0.293182 0.925634 0.709548
Si Si2 0.605751 0.291734 0.821738
Si Si3 0.798984 0.983794 0.102647
Si Si4 0.564956 0.875138 0.323457
Si Si5 0.616421 0.429803 0.838754
Si Si6 0.730318 0.432511 0.494033
Si Si7 0.718182 0.034607 0.649180
Si Si8 0.093160 0.727021 0.704137
O O1 0.095312 0.852814 0.612722
O O2 0.278644 0.062054 0.575696
O O3 0.585809 0.991597 0.740344
O O4 0.243601 0.797460 0.934565
O O5 0.328261 0.176636 0.797611
O O6 0.590938 0.400202 0.749718
O O7 0.751205 0.381426 0.684114
O O8 0.752780 0.964823 0.218488
O O9 0.097917 0.047290 0.154577
O O10 0.682695 0.090832 0.854832
O O11 0.464295 0.702007 0.493194
O O12 0.366985 0.440167 0.729601
O O13 0.840016 0.585995 0.768568
O O14 0.666555 0.305894 0.091664
O O15 0.000000 0.500000 0.500000
O O16 0.881035 0.208263 0.478876
O O17 0.500000 0.000000 0.500000
#
# Coordination Sequence:
#
# PCOD8001719 Si02
#       8
#     2   2   2   2   2   2   2   2
#     4   9  19  35  57  83 106 138 181 226 276 317
#     4   9  19  36  57  80 105 141 184 224 270 320
#     4   9  18  35  57  81 109 138 175 225 276 322
#     4   9  19  35  55  79 110 143 173 218 278 328
#     4  10  20  37  59  78 107 150 184 218 265 318
#     4  11  23  35  53  83 114 143 176 220 274 327
#     4  10  20  34  54  82 110 139 181 228 267 309
#     4   9  19  36  58  80 107 142 188 226 258 316
#
# _framework density 21.624348000000001
#
# number of rings (size 3 to 8) (size 9 to 14) (size 15 to 20)
#    0.000    2.500    0.000    2.625    0.000    7.000 
#    0.000    5.625    0.000   12.000    0.000    0.000 
#    0.000    0.000    0.000    0.000    0.000    0.000 
#
# Total GULP energy -198219.128757 kJ/mol
# GULP energy per Si atom -12388.695547 kJ/mol
# Density = 2.157513 g / cm^3
# Si number density = 21.624348 Si / 1000 Ang^3
#
#
#
# Elastic Constant Matrix: (Units=GPa)
#
#
# Indices 1 2 3 4 5 6 
#
# 1 86.5989 37.2420 10.5263 -4.2793 6.2919 -23.4274
# 2 37.2420 77.1812 -4.5344 -6.8626 12.8661 -30.2190
# 3 10.5263 -4.5344 63.3884 -1.6588 -4.9540 -10.9448
# 4 -4.2793 -6.8626 -1.6588 25.2166 0.5097 11.8695
# 5 6.2919 12.8661 -4.9540 0.5097 22.5738 -7.0311
# 6 -23.4274 -30.2190 -10.9448 11.8695 -7.0311 29.3322
#
#
#
# Elastic Compliance Matrix: (Units=1/GPa)
#
#
# Indices 1 2 3 4 5 6 
#
# 1 0.015902 -0.004828 -0.001558 -0.002678 0.000650 0.008385
# 2 -0.004828 0.026670 0.007103 -0.006177 -0.003454 0.027942
# 3 -0.001558 0.007103 0.019832 -0.005174 0.006164 0.017044
# 4 -0.002678 -0.006177 -0.005174 0.053426 -0.008709 -0.034140
# 5 0.000650 -0.003454 0.006164 -0.008709 0.052417 0.015349
# 6 0.008385 0.027942 0.017044 -0.034140 0.015349 0.093430
#
#
# Mechanical properties :
#
#
# Convention : Reuss Voigt Hill
#
# Bulk Modulus (GPa) = 15.66469 34.84848 25.25658
# Shear Modulus (GPa) = 17.76054 27.68680 22.72367
#
# Velocity S-wave (km/s) = 2.86898 3.58208 3.24518
# Velocity P-wave (km/s) = 4.27018 5.76704 5.07411
#
# Compressibility (1/GPa) = 0.06383786
#
# Stress axis : x y z
#
# Youngs Moduli (GPa) = 62.88527 37.49479 50.42418
#
# Poissons Ratio (x) = 0.18103 0.07854
# Poissons Ratio (y) = 0.30362 -0.35814
# Poissons Ratio (z) = 0.09795 -0.26631
#
# Static dielectric constant tensor:
#      x y z
#    x 4.150720 -0.097460 -0.158630 
#    y -0.097460 3.981790 -0.182670 
#    z -0.158630 -0.182670 4.174850 
# 
# 
# High freq. dielectric constant tensor:
#      x y z
#    x 1.837960 -0.008690 0.002190 
#    y -0.008690 1.844090 -0.000960 
#    z 0.002190 -0.000960 1.842820 
# 
# From -- ./inp_files/346172.got.cif
#   From: 2010.06.25/outbox.cif.g09.slc.cpg/sg2_174_cif.got.tgz:346172.got - 2010.06.27 13:26:56.
