data_PCOD8001641
_publ_section_title
;
Structure prediction by ZEFSAII (Michael W. Deem and Ramdas Pophale) SiO2 
 PCOD8001641
Probable space group: P -1
;
_chemical_formula_sum "Si O2"
_cell_formula_units_Z 16
_cell_length_a 10.465805
_cell_length_b 22.550470
_cell_length_c 13.792495
_cell_angle_alpha 142.137189
_cell_angle_beta 150.144436
_cell_angle_gamma 58.721442
_cell_volume 836.047556
_symmetry_space_group_name_H-M "P -1"
_symmetry_group_IT_number 2
_symmetry_cell_setting 'triclinic'
loop_
_space_group_symop_operation_xyz
x,y,z
-x,-y,-z
loop_
_atom_site_type_symbol
_atom_site_label
_atom_site_fract_x
_atom_site_fract_y
_atom_site_fract_z
Si Si1 0.341717 0.910766 0.867644
Si Si2 0.761175 0.683249 0.687279
Si Si3 0.090953 0.191794 0.235087
Si Si4 0.318680 0.499546 0.287923
Si Si5 0.562890 0.169320 0.622686
Si Si6 0.500285 0.047768 0.770357
Si Si7 0.763350 0.313530 0.579374
Si Si8 0.146117 0.033128 0.338750
O O1 0.210140 0.782002 0.580643
O O2 0.070133 0.918485 0.743584
O O3 0.564802 0.936304 0.139725
O O4 0.500000 0.000000 0.000000
O O5 0.823537 0.696779 0.630132
O O6 0.551781 0.550619 0.414209
O O7 0.571679 0.744159 0.665790
O O8 0.076103 0.740931 0.028290
O O9 0.386442 0.225760 0.537370
O O10 0.813963 0.160510 0.084340
O O11 0.000421 0.088879 0.967204
O O12 0.500000 0.500000 0.500000
O O13 0.193917 0.584445 0.332641
O O14 0.035184 0.371363 0.913048
O O15 0.459224 0.124534 0.606909
O O16 0.465255 0.060703 0.349947
O O17 0.219605 0.023273 0.486233
#
# Coordination Sequence:
#
# PCOD8001641 Si02
#       8
#     2   2   2   2   2   2   2   2
#     4  12  25  38  55  85 128 164 186 218 290 371
#     4  10  20  33  62  89 104 139 204 252 279 328
#     4  11  18  34  56  86 118 151 197 243 281 333
#     4   9  21  41  64  84 108 150 198 247 294 322
#     4  11  19  32  61  84 114 153 201 242 279 333
#     4  11  21  34  53  81 124 162 188 234 285 338
#     4   9  23  41  57  87 119 148 191 240 287 347
#     4  11  20  37  52  84 122 160 189 233 288 340
#
# _framework density 19.137665999999999
#
# number of rings (size 3 to 8) (size 9 to 14) (size 15 to 20)
#    0.750    0.750    5.000    2.250    1.750    1.500 
#    0.000    0.000    0.000    1.500    0.000    0.000 
#    0.000    0.000    0.000    0.000    0.000    0.000 
#
# Total GULP energy -198277.751709 kJ/mol
# GULP energy per Si atom -12392.359482 kJ/mol
# Density = 1.909411 g / cm^3
# Si number density = 19.137666 Si / 1000 Ang^3
#
#
#
# Elastic Constant Matrix: (Units=GPa)
#
#
# Indices 1 2 3 4 5 6 
#
# 1 67.3704 18.4240 38.1443 0.5422 -5.4393 15.4520
# 2 18.4240 70.8801 35.3566 -13.5784 -15.6362 20.4855
# 3 38.1443 35.3566 96.2174 -18.8376 -0.1000 8.2990
# 4 0.5422 -13.5784 -18.8376 34.5259 1.1359 -6.9059
# 5 -5.4393 -15.6362 -0.1000 1.1359 34.6985 -3.5899
# 6 15.4520 20.4855 8.2990 -6.9059 -3.5899 32.8977
#
#
#
# Elastic Compliance Matrix: (Units=1/GPa)
#
#
# Indices 1 2 3 4 5 6 
#
# 1 0.022918 0.001394 -0.010183 -0.007534 0.003375 -0.010277
# 2 0.001394 0.023574 -0.007722 0.002352 0.009516 -0.011854
# 3 -0.010183 -0.007722 0.018401 0.008564 -0.004658 0.006239
# 4 -0.007534 0.002352 0.008564 0.036188 -0.000510 0.007455
# 5 0.003375 0.009516 -0.004658 -0.000510 0.033350 -0.002803
# 6 -0.010277 -0.011854 0.006239 0.007455 -0.002803 0.042291
#
#
# Mechanical properties :
#
#
# Convention : Reuss Voigt Hill
#
# Bulk Modulus (GPa) = 31.37739 46.47976 38.92857
# Shear Modulus (GPa) = 22.68936 29.92729 26.30832
#
# Velocity S-wave (km/s) = 3.44697 3.95877 3.71170
# Velocity P-wave (km/s) = 5.68096 6.72574 6.22531
#
# Compressibility (1/GPa) = 0.03187009
#
# Stress axis : x y z
#
# Youngs Moduli (GPa) = 43.63446 42.41971 54.34380
#
# Poissons Ratio (x) = -0.05912 0.55337
# Poissons Ratio (y) = -0.06081 0.41966
# Poissons Ratio (z) = 0.44432 0.32758
#
# Static dielectric constant tensor:
#      x y z
#    x 3.356310 0.181460 0.181990 
#    y 0.181460 3.454750 -0.202820 
#    z 0.181990 -0.202820 3.316170 
# 
# 
# High freq. dielectric constant tensor:
#      x y z
#    x 1.721020 0.023570 0.021090 
#    y 0.023570 1.737990 -0.031320 
#    z 0.021090 -0.031320 1.731760 
# 
# From -- ./inp_files/406905.got.cif
#   From: 2010.06.25/outbox.cif.g09.slc.cpg/sg2_204_cif.got.tgz:406905.got - 2010.06.27 13:26:56.
