data_PCOD8001421
_publ_section_title
;
Structure prediction by ZEFSAII (Michael W. Deem and Ramdas Pophale) SiO2 
 PCOD8001421
Probable space group: P -1
;
_chemical_formula_sum "Si O2"
_cell_formula_units_Z 16
_cell_length_a 9.401252
_cell_length_b 9.757120
_cell_length_c 11.363529
_cell_angle_alpha 85.219428
_cell_angle_beta 58.178794
_cell_angle_gamma 90.801387
_cell_volume 880.547417
_symmetry_space_group_name_H-M "P -1"
_symmetry_group_IT_number 2
_symmetry_cell_setting 'triclinic'
loop_
_space_group_symop_operation_xyz
x,y,z
-x,-y,-z
loop_
_atom_site_type_symbol
_atom_site_label
_atom_site_fract_x
_atom_site_fract_y
_atom_site_fract_z
Si Si1 0.895660 0.435611 0.662140
Si Si2 0.100803 0.219408 0.701841
Si Si3 0.696303 0.236630 0.443701
Si Si4 0.435782 0.571184 0.320858
Si Si5 0.184794 0.356811 0.877512
Si Si6 0.396732 0.265433 0.425521
Si Si7 0.837075 0.977917 0.493052
Si Si8 0.984493 0.395821 0.185473
O O1 0.700551 0.403941 0.721171
O O2 0.000000 0.500000 0.500000
O O3 0.955114 0.289428 0.689208
O O4 0.908258 0.539207 0.758400
O O5 0.097262 0.231994 0.844206
O O6 0.276102 0.305366 0.583272
O O7 0.103420 0.062210 0.663552
O O8 0.634077 0.368538 0.531326
O O9 0.555097 0.190237 0.412933
O O10 0.731749 0.112818 0.526021
O O11 0.867740 0.270872 0.296950
O O12 0.614117 0.646933 0.203047
O O13 0.455808 0.406937 0.325821
O O14 0.134250 0.498971 0.832193
O O15 0.112909 0.336566 0.041016
O O16 0.288062 0.152928 0.398429
O O17 0.000000 0.000000 0.500000
#
# Coordination Sequence:
#
# PCOD8001421 Si02
#       8
#     2   2   2   2   2   2   2   2
#     4  11  18  30  53  84 112 139 180 225 278 323
#     4   9  19  35  53  76 113 145 180 222 278 321
#     4  12  20  34  58  88 105 147 187 228 270 321
#     4  12  19  31  60  83 113 139 180 234 277 317
#     4  10  20  38  52  81 114 149 177 226 274 329
#     4  10  20  32  53  85 108 140 183 227 274 318
#     4  10  22  35  53  83 117 141 179 235 280 320
#     4  10  22  33  55  80 116 144 185 218 275 332
#
# _framework density 18.170515000000002
#
# number of rings (size 3 to 8) (size 9 to 14) (size 15 to 20)
#    0.750    0.750    5.000    2.250    1.750    0.500 
#    0.000    0.625    0.000    0.000    0.000    2.625 
#    0.000    0.000    0.000    0.000    0.000    0.000 
#
# Total GULP energy -198247.595791 kJ/mol
# GULP energy per Si atom -12390.474737 kJ/mol
# Density = 1.812916 g / cm^3
# Si number density = 18.170515 Si / 1000 Ang^3
#
#
#
# Elastic Constant Matrix: (Units=GPa)
#
#
# Indices 1 2 3 4 5 6 
#
# 1 143.8271 33.8232 32.9982 5.3381 -10.5700 5.5468
# 2 33.8232 75.0600 16.2893 1.6329 -2.4443 4.9384
# 3 32.9982 16.2893 88.3495 15.3630 -2.4862 8.8017
# 4 5.3381 1.6329 15.3630 18.1448 4.0263 3.1141
# 5 -10.5700 -2.4443 -2.4862 4.0263 20.8753 4.5915
# 6 5.5468 4.9384 8.8017 3.1141 4.5915 28.1845
#
#
#
# Elastic Compliance Matrix: (Units=1/GPa)
#
#
# Indices 1 2 3 4 5 6 
#
# 1 0.008590 -0.003165 -0.002214 -0.001117 0.004150 -0.000997
# 2 -0.003165 0.015197 -0.001665 0.001237 0.000108 -0.001674
# 3 -0.002214 -0.001665 0.014974 -0.012108 0.003502 -0.003181
# 4 -0.001117 0.001237 -0.012108 0.069129 -0.014882 -0.001429
# 5 0.004150 0.000108 0.003502 -0.014882 0.055351 -0.009302
# 6 -0.000997 -0.001674 -0.003181 -0.001429 -0.009302 0.038637
#
#
# Mechanical properties :
#
#
# Convention : Reuss Voigt Hill
#
# Bulk Modulus (GPa) = 40.53240 52.60645 46.56943
# Shear Modulus (GPa) = 22.30250 28.38266 25.34258
#
# Velocity S-wave (km/s) = 3.50723 3.95652 3.73863
# Velocity P-wave (km/s) = 6.22543 7.06304 6.65742
#
# Compressibility (1/GPa) = 0.02467162
#
# Stress axis : x y z
#
# Youngs Moduli (GPa) = 116.41320 65.80222 66.78411
#
# Poissons Ratio (x) = 0.20828 0.14789
# Poissons Ratio (y) = 0.36847 0.11119
# Poissons Ratio (z) = 0.25779 0.10956
#
# Static dielectric constant tensor:
#      x y z
#    x 3.494370 0.048140 -0.027510 
#    y 0.048140 3.151090 0.187910 
#    z -0.027510 0.187910 3.061330 
# 
# 
# High freq. dielectric constant tensor:
#      x y z
#    x 1.723350 0.005110 -0.004730 
#    y 0.005110 1.688300 0.016390 
#    z -0.004730 0.016390 1.658110 
# 
# From -- ./inp_files/387257.got.cif
#   From: 2010.06.25/outbox.cif.g09.slc.cpg/sg2_194_cif.got.tgz:387257.got - 2010.06.27 13:26:56.
