data_PCOD8001366
_publ_section_title
;
Structure prediction by ZEFSAII (Michael W. Deem and Ramdas Pophale) SiO2 
 PCOD8001366
Probable space group: P -1
;
_chemical_formula_sum "Si O2"
_cell_formula_units_Z 16
_cell_length_a 10.454644
_cell_length_b 8.566871
_cell_length_c 9.180162
_cell_angle_alpha 61.436678
_cell_angle_beta 71.263707
_cell_angle_gamma 72.036556
_cell_volume 671.915475
_symmetry_space_group_name_H-M "P -1"
_symmetry_group_IT_number 2
_symmetry_cell_setting 'triclinic'
loop_
_space_group_symop_operation_xyz
x,y,z
-x,-y,-z
loop_
_atom_site_type_symbol
_atom_site_label
_atom_site_fract_x
_atom_site_fract_y
_atom_site_fract_z
Si Si1 0.210135 0.697104 0.120670
Si Si2 0.909708 0.765248 0.254281
Si Si3 0.421072 0.943437 0.917098
Si Si4 0.851149 0.150350 0.235005
Si Si5 0.089311 0.300884 0.052521
Si Si6 0.407292 0.602643 0.692140
Si Si7 0.643732 0.686692 0.393763
Si Si8 0.356538 0.374980 0.074797
O O1 0.298739 0.492072 0.187199
O O2 0.070659 0.704008 0.263716
O O3 0.294769 0.852991 0.065329
O O4 0.164245 0.722023 0.958923
O O5 0.806132 0.632819 0.404750
O O6 0.851334 0.947726 0.280840
O O7 0.886434 0.785173 0.079613
O O8 0.522790 0.791816 0.852846
O O9 0.373832 0.109541 0.753139
O O10 0.500000 0.000000 0.000000
O O11 0.722206 0.230018 0.349841
O O12 0.999572 0.177022 0.233138
O O13 0.237227 0.292642 0.073909
O O14 0.000000 0.500000 0.000000
O O15 0.544484 0.679372 0.570140
O O16 0.387546 0.447626 0.657535
O O17 0.423068 0.511480 0.885853
#
# Coordination Sequence:
#
# PCOD8001366 Si02
#       8
#     2   2   2   2   2   2   2   2
#     4  10  21  35  56  88 115 148 185 244 282 328
#     4  11  19  33  56  87 116 141 194 242 281 326
#     4  12  23  37  57  86 119 148 190 230 290 341
#     4  10  20  31  56  86 116 140 187 246 280 329
#     4  11  16  31  57  88 111 141 186 241 285 319
#     4  10  21  38  55  86 116 149 191 228 288 341
#     4  11  22  37  59  86 113 152 188 236 285 341
#     4  11  21  37  60  87 116 148 185 235 286 342
#
# _framework density 23.812517
#
# number of rings (size 3 to 8) (size 9 to 14) (size 15 to 20)
#    0.000    1.250    7.500    1.875    1.750    0.500 
#    0.000    0.000    0.000    1.500    0.000    0.000 
#    0.000    0.000    0.000    0.000    0.000    0.000 
#
# Total GULP energy -198239.831380 kJ/mol
# GULP energy per Si atom -12389.989461 kJ/mol
# Density = 2.375832 g / cm^3
# Si number density = 23.812517 Si / 1000 Ang^3
#
#
#
# Elastic Constant Matrix: (Units=GPa)
#
#
# Indices 1 2 3 4 5 6 
#
# 1 101.7029 28.7864 56.3792 -8.1928 -55.9306 -0.8990
# 2 28.7864 129.8454 38.7819 6.4214 -22.2790 -14.9537
# 3 56.3792 38.7819 95.2469 9.3958 -55.3706 -6.5261
# 4 -8.1928 6.4214 9.3958 23.9926 -3.1234 -16.0257
# 5 -55.9306 -22.2790 -55.3706 -3.1234 54.7570 0.8672
# 6 -0.8990 -14.9537 -6.5261 -16.0257 0.8672 36.7925
#
#
#
# Elastic Compliance Matrix: (Units=1/GPa)
#
#
# Indices 1 2 3 4 5 6 
#
# 1 0.027347 -0.001079 -0.001319 0.018676 0.027108 0.007492
# 2 -0.001079 0.009177 -0.003422 0.000688 -0.000843 0.003416
# 3 -0.001319 -0.003422 0.028023 -0.007415 0.025179 -0.000276
# 4 0.018676 0.000688 -0.007415 0.073577 0.015563 0.031102
# 5 0.027108 -0.000843 0.025179 0.015563 0.071801 0.009872
# 6 0.007492 0.003416 -0.000276 0.031102 0.009872 0.042016
#
#
# Mechanical properties :
#
#
# Convention : Reuss Voigt Hill
#
# Bulk Modulus (GPa) = 18.90043 63.85446 41.37744
# Shear Modulus (GPa) = 17.77981 36.63161 27.20571
#
# Velocity S-wave (km/s) = 2.73547 3.92642 3.38375
# Velocity P-wave (km/s) = 4.23456 6.88690 5.71668
#
# Compressibility (1/GPa) = 0.05290886
#
# Stress axis : x y z
#
# Youngs Moduli (GPa) = 36.56678 108.96232 35.68444
#
# Poissons Ratio (x) = 0.11753 0.04706
# Poissons Ratio (y) = 0.03944 0.12212
# Poissons Ratio (z) = 0.04822 0.37291
#
# Static dielectric constant tensor:
#      x y z
#    x 4.761980 -0.263850 -0.893190 
#    y -0.263850 4.731250 0.194080 
#    z -0.893190 0.194080 4.169280 
# 
# 
# High freq. dielectric constant tensor:
#      x y z
#    x 1.950650 0.005900 -0.064390 
#    y 0.005900 1.965920 0.009760 
#    z -0.064390 0.009760 1.889700 
# 
# From -- ./inp_files/257534.got.cif
#   From: 2010.06.25/outbox.cif.g09.slc.cpg/sg2_129_cif.got.tgz:257534.got - 2010.06.27 13:26:56.
