data_PCOD8001886
_publ_section_title
;
Structure prediction by ZEFSAII (Michael W. Deem and Ramdas Pophale) SiO2 
 PCOD8001886
Probable space group: P -1
;
_chemical_formula_sum "Si O2"
_cell_formula_units_Z 14
_cell_length_a 5.506221
_cell_length_b 14.502001
_cell_length_c 12.846468
_cell_angle_alpha 55.024927
_cell_angle_beta 62.004135
_cell_angle_gamma 67.200817
_cell_volume 732.177448
_symmetry_space_group_name_H-M "P -1"
_symmetry_group_IT_number 2
_symmetry_cell_setting 'triclinic'
loop_
_space_group_symop_operation_xyz
x,y,z
-x,-y,-z
loop_
_atom_site_type_symbol
_atom_site_label
_atom_site_fract_x
_atom_site_fract_y
_atom_site_fract_z
Si Si1 0.794379 0.845227 0.538649
Si Si2 0.513917 0.782159 0.147485
Si Si3 0.083733 0.882497 0.998274
Si Si4 0.624552 0.156814 0.646704
Si Si5 0.769291 0.662023 0.504763
Si Si6 0.415581 0.961177 0.705115
Si Si7 0.628648 0.437617 0.615722
O O1 0.694886 0.735252 0.577493
O O2 0.654027 0.866828 0.665752
O O3 0.127914 0.820874 0.494459
O O4 0.732185 0.957779 0.407333
O O5 0.341692 0.810788 0.057054
O O6 0.316428 0.842813 0.241752
O O7 0.564406 0.643700 0.238635
O O8 0.816022 0.820954 0.072153
O O9 0.192754 0.898951 0.849139
O O10 0.000000 0.000000 0.000000
O O11 0.379017 0.263912 0.608878
O O12 0.549051 0.033964 0.716361
O O13 0.679806 0.538117 0.619475
O O14 0.092632 0.645727 0.421152
O O15 0.500000 0.500000 0.500000
#
# Coordination Sequence:
#
# PCOD8001886 Si02
#       7
#     2   2   2   2   2   2   2
#     4  10  20  38  59  87 118 158 204 259 291 363
#     4  12  24  38  61  89 128 154 203 244 305 369
#     4  12  25  40  59  88 127 172 193 245 298 374
#     4  11  19  35  58  91 118 156 196 255 305 363
#     4  10  20  34  58  91 119 148 199 254 319 347
#     4  10  23  36  58  85 122 162 208 238 307 354
#     4  11  21  35  60  89 120 154 194 264 309 352
#
# _framework density 19.121047999999998
#
# number of rings (size 3 to 8) (size 9 to 14) (size 15 to 20)
#    0.000    1.143    4.286    2.571    4.000    0.000 
#    0.000    0.000    0.000    1.714    0.000    0.000 
#    0.000    0.000    0.000    0.000    0.000    0.000 
#
# Total GULP energy -173532.520307 kJ/mol
# GULP energy per Si atom -12395.180022 kJ/mol
# Density = 1.907753 g / cm^3
# Si number density = 19.121048 Si / 1000 Ang^3
#
#
#
# Elastic Constant Matrix: (Units=GPa)
#
#
# Indices 1 2 3 4 5 6 
#
# 1 110.5170 33.9244 47.3895 -10.8110 -15.3938 -3.5616
# 2 33.9244 104.4211 58.7211 0.0865 -12.5489 2.1510
# 3 47.3895 58.7211 107.6226 -1.0065 -21.4956 5.5680
# 4 -10.8110 0.0865 -1.0065 30.3176 0.4811 -9.5481
# 5 -15.3938 -12.5489 -21.4956 0.4811 34.4101 -8.3388
# 6 -3.5616 2.1510 5.5680 -9.5481 -8.3388 29.7224
#
#
#
# Elastic Compliance Matrix: (Units=1/GPa)
#
#
# Indices 1 2 3 4 5 6 
#
# 1 0.012568 -0.001346 -0.004288 0.005971 0.003666 0.005353
# 2 -0.001346 0.013973 -0.007014 -0.000780 0.000104 -0.000080
# 3 -0.004288 -0.007014 0.016120 -0.001733 0.005096 -0.002153
# 4 0.005971 -0.000780 -0.001733 0.039744 0.004408 0.015101
# 5 0.003666 0.000104 0.005096 0.004408 0.036564 0.011151
# 6 0.005353 -0.000080 -0.002153 0.015101 0.011151 0.042675
#
#
# Mechanical properties :
#
#
# Convention : Reuss Voigt Hill
#
# Bulk Modulus (GPa) = 57.58926 66.95900 62.27413
# Shear Modulus (GPa) = 25.94354 31.05840 28.50097
#
# Velocity S-wave (km/s) = 3.68748 4.03464 3.86496
# Velocity P-wave (km/s) = 6.95080 7.53651 7.24957
#
# Compressibility (1/GPa) = 0.01736435
#
# Stress axis : x y z
#
# Youngs Moduli (GPa) = 79.56915 71.56797 62.03563
#
# Poissons Ratio (x) = 0.09634 0.26603
# Poissons Ratio (y) = 0.10711 0.43509
# Poissons Ratio (z) = 0.34122 0.50194
#
# Static dielectric constant tensor:
#      x y z
#    x 3.704500 0.085910 -0.099030 
#    y 0.085910 3.704710 -0.142530 
#    z -0.099030 -0.142530 3.427510 
# 
# 
# High freq. dielectric constant tensor:
#      x y z
#    x 1.759220 0.005870 -0.006010 
#    y 0.005870 1.736050 -0.011260 
#    z -0.006010 -0.011260 1.714370 
# 
# From -- ./inp_files/65557.got.cif
#   From: 2010.06.25/outbox.cif.g09.slc.cpg/sg2_33_cif.got.tgz:65557.got - 2010.06.27 13:26:56.
