data_PCOD8001282
_publ_section_title
;
Structure prediction by ZEFSAII (Michael W. Deem and Ramdas Pophale) SiO2 
 PCOD8001282
Probable space group: P -1
;
_chemical_formula_sum "Si O2"
_cell_formula_units_Z 12
_cell_length_a 8.057986
_cell_length_b 12.011413
_cell_length_c 10.943119
_cell_angle_alpha 106.919477
_cell_angle_beta 57.352049
_cell_angle_gamma 141.300882
_cell_volume 540.321348
_symmetry_space_group_name_H-M "P -1"
_symmetry_group_IT_number 2
_symmetry_cell_setting 'triclinic'
loop_
_space_group_symop_operation_xyz
x,y,z
-x,-y,-z
loop_
_atom_site_type_symbol
_atom_site_label
_atom_site_fract_x
_atom_site_fract_y
_atom_site_fract_z
Si Si1 0.155495 0.566170 0.826511
Si Si2 0.136864 0.855229 0.581436
Si Si3 0.840327 0.956501 0.735167
Si Si4 0.929303 0.247736 0.685334
Si Si5 0.678039 0.007500 0.034674
Si Si6 0.143620 0.355448 0.125179
O O1 0.505599 0.772729 0.753320
O O2 0.163420 0.439487 0.726684
O O3 0.950498 0.552264 0.812933
O O4 0.000000 0.500000 0.000000
O O5 0.007470 0.722946 0.475253
O O6 0.089255 0.970619 0.610986
O O7 0.931471 0.726507 0.737457
O O8 0.500000 0.000000 0.500000
O O9 0.967071 0.134111 0.684476
O O10 0.810051 0.954179 0.895022
O O11 0.578351 0.138430 0.807618
O O12 0.959438 0.206147 0.043835
O O13 0.500000 0.000000 0.000000
O O14 0.500000 0.500000 0.000000
#
# Coordination Sequence:
#
# PCOD8001282 Si02
#       6
#     2   2   2   2   2   2
#     4  12  22  43  73 103 141 185 246 298 343 434
#     4  12  26  45  68 103 151 189 228 303 373 417
#     4  11  23  44  74 102 140 191 244 292 349 437
#     4  11  23  43  74 103 137 191 243 288 360 427
#     4  10  19  43  73  99 133 187 243 281 345 430
#     4  12  26  44  70 112 148 183 239 301 361 424
#
# _framework density 22.209007
#
# number of rings (size 3 to 8) (size 9 to 14) (size 15 to 20)
#    0.000    0.667    6.667    2.500    0.000    3.333 
#    0.000    1.667    0.000    0.000    0.000    0.000 
#    0.000    0.000    0.000    0.000    0.000    0.000 
#
# Total GULP energy -148806.480361 kJ/mol
# GULP energy per Si atom -12400.540030 kJ/mol
# Density = 2.215846 g / cm^3
# Si number density = 22.209007 Si / 1000 Ang^3
#
#
#
# Elastic Constant Matrix: (Units=GPa)
#
#
# Indices 1 2 3 4 5 6 
#
# 1 102.0789 52.2637 54.7839 6.4199 -6.1826 -0.4641
# 2 52.2637 135.7375 53.9438 19.1796 5.6537 0.2551
# 3 54.7839 53.9438 151.6738 18.9131 12.7381 7.1503
# 4 6.4199 19.1796 18.9131 45.4602 4.0198 -3.0187
# 5 -6.1826 5.6537 12.7381 4.0198 42.9649 0.5402
# 6 -0.4641 0.2551 7.1503 -3.0187 0.5402 30.0573
#
#
#
# Elastic Compliance Matrix: (Units=1/GPa)
#
#
# Indices 1 2 3 4 5 6 
#
# 1 0.014364 -0.004184 -0.004233 0.001255 0.003738 0.001323
# 2 -0.004184 0.010076 -0.001611 -0.002888 -0.001180 -0.000036
# 3 -0.004233 -0.001611 0.009372 -0.002529 -0.002908 -0.002483
# 4 0.001255 -0.002888 -0.002529 0.024387 -0.001010 0.003113
# 5 0.003738 -0.001180 -0.002908 -0.001010 0.024922 0.000210
# 6 0.001323 -0.000036 -0.002483 0.003113 0.000210 0.034190
#
#
# Mechanical properties :
#
#
# Convention : Reuss Voigt Hill
#
# Bulk Modulus (GPa) = 72.70261 79.05257 75.87759
# Shear Modulus (GPa) = 35.22338 38.92973 37.07656
#
# Velocity S-wave (km/s) = 3.98678 4.19128 4.09031
# Velocity P-wave (km/s) = 7.34842 7.68730 7.51977
#
# Compressibility (1/GPa) = 0.01375466
#
# Stress axis : x y z
#
# Youngs Moduli (GPa) = 69.61997 99.24824 106.70332
#
# Poissons Ratio (x) = 0.41524 0.45167
# Poissons Ratio (y) = 0.29128 0.17195
# Poissons Ratio (z) = 0.29470 0.15994
#
# Static dielectric constant tensor:
#      x y z
#    x 4.054920 0.116690 -0.372090 
#    y 0.116690 3.654140 1.443250 
#    z -0.372090 1.443250 1.533830 
# 
# 
# High freq. dielectric constant tensor:
#      x y z
#    x 1.863430 0.001440 -0.000160 
#    y 0.001440 1.869190 0.010000 
#    z -0.000160 0.010000 1.892640 
# 
# From -- ./inp_files/330481.got.cif
#   From: 2010.06.25/outbox.cif.g09.slc.cpg/sg2_166_cif.got.tgz:330481.got - 2010.06.27 13:26:56.
