data_PCOD8001248
_publ_section_title
;
Structure prediction by ZEFSAII (Michael W. Deem and Ramdas Pophale) SiO2 
 PCOD8001248
Probable space group: P -1
;
_chemical_formula_sum "Si O2"
_cell_formula_units_Z 12
_cell_length_a 18.104300
_cell_length_b 22.939104
_cell_length_c 7.311712
_cell_angle_alpha 40.952463
_cell_angle_beta 40.015013
_cell_angle_gamma 13.746117
_cell_volume 462.668035
_symmetry_space_group_name_H-M "P -1"
_symmetry_group_IT_number 2
_symmetry_cell_setting 'triclinic'
loop_
_space_group_symop_operation_xyz
x,y,z
-x,-y,-z
loop_
_atom_site_type_symbol
_atom_site_label
_atom_site_fract_x
_atom_site_fract_y
_atom_site_fract_z
Si Si1 0.806481 0.264669 0.357081
Si Si2 0.420897 0.331198 0.319027
Si Si3 0.685683 0.235098 0.353656
Si Si4 0.721407 0.957195 0.821474
Si Si5 0.252061 0.445364 0.960711
Si Si6 0.747099 0.751275 0.696305
O O1 0.500000 0.500000 0.500000
O O2 0.702743 0.321943 0.203942
O O3 0.053703 0.167583 0.142886
O O4 0.960509 0.060967 0.617088
O O5 0.547116 0.330194 0.184041
O O6 0.398403 0.367934 0.061894
O O7 0.089070 0.548522 0.531206
O O8 0.671508 0.069573 0.497718
O O9 0.470520 0.323947 0.673729
O O10 0.897983 0.744012 0.906659
O O11 0.373404 0.183886 0.023762
O O12 0.231357 0.353754 0.216504
O O13 0.500000 0.000000 0.500000
#
# Coordination Sequence:
#
# PCOD8001248 Si02
#       6
#     2   2   2   2   2   2
#     4  10  19  42  72  96 136 181 219 282 345 387
#     4  11  25  45  69 105 134 185 233 265 349 412
#     4  10  23  42  70 100 139 175 225 285 330 406
#     4  11  24  44  70 101 138 180 227 281 340 402
#     4  12  24  45  69 100 141 178 223 286 338 399
#     4  12  25  46  69 100 143 179 226 288 335 403
#
# _framework density 25.936525
#
# number of rings (size 3 to 8) (size 9 to 14) (size 15 to 20)
#    0.000    1.000    6.667    1.000    0.000    2.000 
#    0.000    8.333    0.000    0.000    0.000    0.000 
#    0.000    0.000    0.000    0.000    0.000    0.000 
#
# Total GULP energy -148751.874974 kJ/mol
# GULP energy per Si atom -12395.989581 kJ/mol
# Density = 2.587749 g / cm^3
# Si number density = 25.936525 Si / 1000 Ang^3
#
#
#
# Elastic Constant Matrix: (Units=GPa)
#
#
# Indices 1 2 3 4 5 6 
#
# 1 107.0412 49.8546 2.6867 -17.9603 -3.4012 8.5039
# 2 49.8546 119.2725 4.7975 -2.1066 -8.1092 29.9906
# 3 2.6867 4.7975 37.1304 -12.7561 -5.6654 12.4155
# 4 -17.9603 -2.1066 -12.7561 43.0466 8.2143 -5.7120
# 5 -3.4012 -8.1092 -5.6654 8.2143 43.7887 -7.8718
# 6 8.5039 29.9906 12.4155 -5.7120 -7.8718 44.4260
#
#
#
# Elastic Compliance Matrix: (Units=1/GPa)
#
#
# Indices 1 2 3 4 5 6 
#
# 1 0.012815 -0.005790 0.001102 0.005757 -0.000697 0.001764
# 2 -0.005790 0.012781 0.000576 -0.002875 0.001120 -0.007852
# 3 0.001102 0.000576 0.032827 0.008858 0.001266 -0.008411
# 4 0.005757 -0.002875 0.008858 0.029091 -0.004150 0.001368
# 5 -0.000697 0.001120 0.001266 -0.004150 0.024439 0.002821
# 6 0.001764 -0.007852 -0.008411 0.001368 0.002821 0.030498
#
#
# Mechanical properties :
#
#
# Convention : Reuss Voigt Hill
#
# Bulk Modulus (GPa) = 19.92067 42.01353 30.96710
# Shear Modulus (GPa) = 29.86727 39.99262 34.92994
#
# Velocity S-wave (km/s) = 3.39713 3.93102 3.67379
# Velocity P-wave (km/s) = 4.80464 6.06940 5.47367
#
# Compressibility (1/GPa) = 0.05019912
#
# Stress axis : x y z
#
# Youngs Moduli (GPa) = 78.03337 78.24160 30.46316
#
# Poissons Ratio (x) = 0.45304 -0.03358
# Poissons Ratio (y) = 0.45183 -0.01755
# Poissons Ratio (z) = -0.08603 -0.04508
#
# Static dielectric constant tensor:
#      x y z
#    x 5.096010 -0.006630 -0.294100 
#    y -0.006630 5.107020 -0.069040 
#    z -0.294100 -0.069040 4.371370 
# 
# 
# High freq. dielectric constant tensor:
#      x y z
#    x 2.047370 0.006030 -0.013840 
#    y 0.006030 2.059600 -0.005890 
#    z -0.013840 -0.005890 2.006920 
# 
# From -- ./inp_files/350181.got.cif
#   From: 2010.06.25/outbox.cif.g09.slc.cpg/sg2_176_cif.got.tgz:350181.got - 2010.06.27 13:26:56.
