data_PCOD8001329
_publ_section_title
;
Structure prediction by ZEFSAII (Michael W. Deem and Ramdas Pophale) SiO2 
 PCOD8001329
Probable space group: P -1
;
_chemical_formula_sum "Si O2"
_cell_formula_units_Z 16
_cell_length_a 15.932807
_cell_length_b 12.986594
_cell_length_c 16.829107
_cell_angle_alpha 139.042367
_cell_angle_beta 139.902297
_cell_angle_gamma 27.251748
_cell_volume 993.093731
_symmetry_space_group_name_H-M "P -1"
_symmetry_group_IT_number 2
_symmetry_cell_setting 'triclinic'
loop_
_space_group_symop_operation_xyz
x,y,z
-x,-y,-z
loop_
_atom_site_type_symbol
_atom_site_label
_atom_site_fract_x
_atom_site_fract_y
_atom_site_fract_z
Si Si1 0.887647 0.549306 0.149225
Si Si2 0.788911 0.074207 0.116795
Si Si3 0.171691 0.051249 0.636121
Si Si4 0.040966 0.904121 0.349402
Si Si5 0.388387 0.448392 0.109006
Si Si6 0.412589 0.393096 0.276431
Si Si7 0.163563 0.324246 0.078090
Si Si8 0.024362 0.862715 0.010176
O O1 0.829495 0.760619 0.276939
O O2 0.068772 0.434100 0.158993
O O3 0.697905 0.652481 0.025017
O O4 0.966349 0.327153 0.127395
O O5 0.575150 0.331925 0.124991
O O6 0.944156 0.005643 0.251777
O O7 0.853166 0.046320 0.056346
O O8 0.760778 0.916542 0.020894
O O9 0.081436 0.106150 0.690301
O O10 0.046942 0.071668 0.491056
O O11 0.384600 0.785695 0.634998
O O12 0.258421 0.646300 0.351783
O O13 0.443221 0.419420 0.223427
O O14 0.222861 0.718544 0.118690
O O15 0.342030 0.277917 0.165036
O O16 0.000000 0.500000 0.000000
O O17 0.000000 0.000000 0.000000
#
# Coordination Sequence:
#
# PCOD8001329 Si02
#       8
#     2   2   2   2   2   2   2   2
#     4   9  18  34  46  74 101 127 168 199 254 291
#     4  11  19  33  50  74 102 128 165 206 246 299
#     4  11  22  31  48  70 107 144 169 194 224 296
#     4  11  21  33  45  71 108 143 170 191 232 285
#     4  10  20  30  54  77  95 131 163 203 257 299
#     4  12  19  31  49  73 104 138 171 196 237 292
#     4  11  16  27  49  68 102 134 157 202 244 288
#     4   9  20  37  55  75  97 121 159 223 267 293
#
# _framework density 16.111267999999999
#
# number of rings (size 3 to 8) (size 9 to 14) (size 15 to 20)
#    0.750    0.750    6.250    1.125    0.000    1.500 
#    0.000    0.000    0.000    0.750    0.000    0.875 
#    0.000    0.000    0.000    0.000    0.000    0.000 
#
# Total GULP energy -198222.610036 kJ/mol
# GULP energy per Si atom -12388.913127 kJ/mol
# Density = 1.607460 g / cm^3
# Si number density = 16.111268 Si / 1000 Ang^3
#
#
#
# Elastic Constant Matrix: (Units=GPa)
#
#
# Indices 1 2 3 4 5 6 
#
# 1 87.3055 42.0231 17.1234 0.7908 1.3615 0.6588
# 2 42.0231 65.9775 13.7773 1.0659 6.3808 -9.2074
# 3 17.1234 13.7773 62.3188 2.4273 -0.2611 8.0772
# 4 0.7908 1.0659 2.4273 18.2960 -2.2698 2.5252
# 5 1.3615 6.3808 -0.2611 -2.2698 12.0569 1.5810
# 6 0.6588 -9.2074 8.0772 2.5252 1.5810 33.9712
#
#
#
# Elastic Compliance Matrix: (Units=1/GPa)
#
#
# Indices 1 2 3 4 5 6 
#
# 1 0.017342 -0.011633 -0.001783 0.001231 0.004835 -0.003382
# 2 -0.011633 0.026052 -0.003663 -0.003573 -0.014418 0.009094
# 3 -0.001783 -0.003663 0.018088 -0.000997 0.003043 -0.005327
# 4 0.001231 -0.003573 -0.000997 0.057368 0.013269 -0.005637
# 5 0.004835 -0.014418 0.003043 0.013269 0.093911 -0.010082
# 6 -0.003382 0.009094 -0.005327 -0.005637 -0.010082 0.034122
#
#
# Mechanical properties :
#
#
# Convention : Reuss Voigt Hill
#
# Bulk Modulus (GPa) = 36.59655 40.16106 38.37881
# Shear Modulus (GPa) = 17.23256 22.37667 19.80462
#
# Velocity S-wave (km/s) = 3.27402 3.73082 3.50986
# Velocity P-wave (km/s) = 6.08740 6.59849 6.34809
#
# Compressibility (1/GPa) = 0.02732498
#
# Stress axis : x y z
#
# Youngs Moduli (GPa) = 57.66384 38.38455 55.28481
#
# Poissons Ratio (x) = 0.44652 0.09856
# Poissons Ratio (y) = 0.67079 0.20252
# Poissons Ratio (z) = 0.10280 0.14061
#
# Static dielectric constant tensor:
#      x y z
#    x 2.779410 -0.233480 -0.018990 
#    y -0.233480 2.963520 0.073620 
#    z -0.018990 0.073620 2.810530 
# 
# 
# High freq. dielectric constant tensor:
#      x y z
#    x 1.600000 -0.031490 0.003110 
#    y -0.031490 1.611650 0.002780 
#    z 0.003110 0.002780 1.601550 
# 
# From -- ./inp_files/423779.got.cif
#   From: 2010.06.25/outbox.cif.g09.slc.cpg/sg2_212_cif.got.tgz:423779.got - 2010.06.27 13:26:56.
