data_PCOD8001916
_publ_section_title
;
Structure prediction by ZEFSAII (Michael W. Deem and Ramdas Pophale) SiO2 
 PCOD8001916
Probable space group: P -1
;
_chemical_formula_sum "Si O2"
_cell_formula_units_Z 16
_cell_length_a 11.636833
_cell_length_b 4.946270
_cell_length_c 15.889936
_cell_angle_alpha 112.808560
_cell_angle_beta 122.819519
_cell_angle_gamma 80.084306
_cell_volume 707.668912
_symmetry_space_group_name_H-M "P -1"
_symmetry_group_IT_number 2
_symmetry_cell_setting 'triclinic'
loop_
_space_group_symop_operation_xyz
x,y,z
-x,-y,-z
loop_
_atom_site_type_symbol
_atom_site_label
_atom_site_fract_x
_atom_site_fract_y
_atom_site_fract_z
Si Si1 0.784373 0.765596 0.219138
Si Si2 0.224532 0.724889 0.031446
Si Si3 0.190387 0.092800 0.220199
Si Si4 0.021952 0.619895 0.197636
Si Si5 0.547311 0.595701 0.853579
Si Si6 0.591935 0.030140 0.287392
Si Si7 0.518581 0.832035 0.571894
Si Si8 0.346613 0.860471 0.921882
O O1 0.729180 0.436677 0.180567
O O2 0.947943 0.752625 0.266923
O O3 0.744832 0.001771 0.304509
O O4 0.720721 0.863809 0.116302
O O5 0.291341 0.460874 0.079863
O O6 0.198995 0.997020 0.115091
O O7 0.327378 0.862816 0.016122
O O8 0.083661 0.597027 0.921189
O O9 0.148686 0.428996 0.251645
O O10 0.336062 0.069523 0.319245
O O11 0.074733 0.889194 0.194571
O O12 0.495311 0.712141 0.757468
O O13 0.504353 0.814760 0.940581
O O14 0.482369 0.273241 0.804271
O O15 0.598125 0.089474 0.396762
O O16 0.500000 0.500000 0.500000
O O17 0.500000 0.000000 0.500000
#
# Coordination Sequence:
#
# PCOD8001916 Si02
#       8
#     2   2   2   2   2   2   2   2
#     4   9  19  38  61  86 128 168 212 250 297 368
#     4  11  22  37  60  91 139 177 215 239 295 378
#     4  12  26  42  64  90 132 168 213 260 308 378
#     4  11  24  41  60  94 133 182 207 236 297 378
#     4  10  20  34  59  90 134 167 207 255 304 361
#     4  10  21  40  65  94 121 161 208 269 323 360
#     4  12  26  47  73  95 120 154 209 278 339 373
#     4   9  19  33  53  89 127 176 210 251 294 350
#
# _framework density 22.609442000000001
#
# number of rings (size 3 to 8) (size 9 to 14) (size 15 to 20)
#    0.000    1.500    1.250    4.125    1.750    5.000 
#    0.000    7.500    0.000    4.500    0.000    0.000 
#    0.000    0.000    0.000    0.000    0.000    0.000 
#
# Total GULP energy -198389.921575 kJ/mol
# GULP energy per Si atom -12399.370098 kJ/mol
# Density = 2.255798 g / cm^3
# Si number density = 22.609442 Si / 1000 Ang^3
#
#
#
# Elastic Constant Matrix: (Units=GPa)
#
#
# Indices 1 2 3 4 5 6 
#
# 1 127.3798 27.8687 46.0878 6.0839 -35.9671 -11.2132
# 2 27.8687 100.2609 12.6655 -7.5218 -17.9577 -5.7271
# 3 46.0878 12.6655 78.2698 7.2193 -30.3474 -6.3604
# 4 6.0839 -7.5218 7.2193 33.2569 -0.4281 -2.5064
# 5 -35.9671 -17.9577 -30.3474 -0.4281 39.8517 8.1494
# 6 -11.2132 -5.7271 -6.3604 -2.5064 8.1494 46.1031
#
#
#
# Elastic Compliance Matrix: (Units=1/GPa)
#
#
# Indices 1 2 3 4 5 6 
#
# 1 0.011602 -0.001618 -0.003770 -0.001521 0.006684 0.000837
# 2 -0.001618 0.011310 0.000400 0.002858 0.003861 0.000539
# 3 -0.003770 0.000400 0.019839 -0.003405 0.011935 -0.000425
# 4 -0.001521 0.002858 -0.003405 0.031828 -0.002688 0.001721
# 5 0.006684 0.003861 0.011935 -0.002688 0.042732 -0.003948
# 6 0.000837 0.000539 -0.000425 0.001721 -0.003948 0.022694
#
#
# Mechanical properties :
#
#
# Convention : Reuss Voigt Hill
#
# Bulk Modulus (GPa) = 30.51168 53.23938 41.87553
# Shear Modulus (GPa) = 31.07413 38.46159 34.76786
#
# Velocity S-wave (km/s) = 3.71129 4.12895 3.92568
# Velocity P-wave (km/s) = 5.64707 6.80658 6.25375
#
# Compressibility (1/GPa) = 0.03277434
#
# Stress axis : x y z
#
# Youngs Moduli (GPa) = 86.19132 88.41790 50.40645
#
# Poissons Ratio (x) = 0.14305 0.19004
# Poissons Ratio (y) = 0.13945 -0.02015
# Poissons Ratio (z) = 0.32496 -0.03535
#
# Static dielectric constant tensor:
#      x y z
#    x 4.714140 -0.119840 -0.277700 
#    y -0.119840 4.556920 0.077950 
#    z -0.277700 0.077950 3.614430 
# 
# 
# High freq. dielectric constant tensor:
#      x y z
#    x 1.908580 -0.000330 -0.022790 
#    y -0.000330 1.925190 0.004290 
#    z -0.022790 0.004290 1.835890 
# 
# From -- ./inp_files/510517.got.cif
#   From: 2010.06.25/outbox.cif.g09.slc.cpg/sg2_256_cif.got.tgz:510517.got - 2010.06.27 13:26:56.
