data_PCOD8001080
_publ_section_title
;
Structure prediction by ZEFSAII (Michael W. Deem and Ramdas Pophale) SiO2 
 PCOD8001080
Probable space group: P -1
;
_chemical_formula_sum "Si O2"
_cell_formula_units_Z 16
_cell_length_a 11.239636
_cell_length_b 11.292690
_cell_length_c 23.194373
_cell_angle_alpha 146.157604
_cell_angle_beta 149.439824
_cell_angle_gamma 43.010069
_cell_volume 832.267056
_symmetry_space_group_name_H-M "P -1"
_symmetry_group_IT_number 2
_symmetry_cell_setting 'triclinic'
loop_
_space_group_symop_operation_xyz
x,y,z
-x,-y,-z
loop_
_atom_site_type_symbol
_atom_site_label
_atom_site_fract_x
_atom_site_fract_y
_atom_site_fract_z
Si Si1 0.417672 0.676631 0.490643
Si Si2 0.095393 0.378890 0.776832
Si Si3 0.333705 0.528266 0.771442
Si Si4 0.216046 0.731617 0.692682
Si Si5 0.157530 0.409633 0.445069
Si Si6 0.403587 0.161537 0.910812
Si Si7 0.407573 0.142349 0.719024
Si Si8 0.771388 0.151460 0.968187
O O1 0.500000 0.500000 0.500000
O O2 0.618471 0.703835 0.537836
O O3 0.185104 0.610542 0.334511
O O4 0.360583 0.900768 0.587868
O O5 0.192101 0.294196 0.844333
O O6 0.197203 0.231360 0.708125
O O7 0.179531 0.613129 0.895416
O O8 0.378309 0.584817 0.745504
O O9 0.418077 0.285453 0.723412
O O10 0.050056 0.549858 0.672705
O O11 0.468896 0.690060 0.931950
O O12 0.228944 0.632547 0.593843
O O13 0.945726 0.735748 0.605320
O O14 0.298796 0.969182 0.823948
O O15 0.589595 0.061588 0.901687
O O16 0.658320 0.156102 0.859695
O O17 0.000000 0.000000 0.000000
#
# Coordination Sequence:
#
# PCOD8001080 Si02
#       8
#     2   2   2   2   2   2   2   2
#     4  12  26  38  64  97 126 160 212 261 314 366
#     4  11  23  40  59  98 128 162 203 254 319 377
#     4  10  19  41  65  86 121 161 216 243 307 374
#     4   9  22  40  69  88 120 172 210 247 313 363
#     4   9  23  42  61  91 125 160 213 254 306 365
#     4  11  21  39  67  91 121 168 212 247 308 383
#     4  11  22  40  61  92 127 166 201 257 318 367
#     4  11  23  38  62  93 133 158 199 265 317 361
#
# _framework density 19.224596999999999
#
# number of rings (size 3 to 8) (size 9 to 14) (size 15 to 20)
#    0.750    0.750    2.500    3.000    8.750    0.000 
#    0.000    2.500    0.000    2.250    0.000    0.000 
#    0.000    0.000    0.000    0.000    0.000    0.000 
#
# Total GULP energy -198350.305931 kJ/mol
# GULP energy per Si atom -12396.894121 kJ/mol
# Density = 1.918084 g / cm^3
# Si number density = 19.224597 Si / 1000 Ang^3
#
#
#
# Elastic Constant Matrix: (Units=GPa)
#
#
# Indices 1 2 3 4 5 6 
#
# 1 69.3841 39.8169 27.2912 -4.1843 6.6010 4.4518
# 2 39.8169 107.8132 45.5812 -9.2116 10.5910 11.6367
# 3 27.2912 45.5812 115.9136 -13.2332 2.8351 13.6144
# 4 -4.1843 -9.2116 -13.2332 41.2590 1.9696 8.8606
# 5 6.6010 10.5910 2.8351 1.9696 25.8507 -2.4853
# 6 4.4518 11.6367 13.6144 8.8606 -2.4853 27.8519
#
#
#
# Elastic Compliance Matrix: (Units=1/GPa)
#
#
# Indices 1 2 3 4 5 6 
#
# 1 0.018794 -0.005880 -0.002101 -0.000045 -0.002127 0.000304
# 2 -0.005880 0.013949 -0.003136 0.002721 -0.004521 -0.004624
# 3 -0.002101 -0.003136 0.011411 0.003870 -0.000223 -0.005183
# 4 -0.000045 0.002721 0.003870 0.029047 -0.004962 -0.012705
# 5 -0.002127 -0.004521 -0.000223 -0.004962 0.042220 0.007684
# 6 0.000304 -0.004624 -0.005183 -0.012705 0.007684 0.045048
#
#
# Mechanical properties :
#
#
# Convention : Reuss Voigt Hill
#
# Bulk Modulus (GPa) = 45.62524 57.60996 51.61760
# Shear Modulus (GPa) = 26.31435 31.02043 28.66739
#
# Velocity S-wave (km/s) = 3.70372 4.02130 3.86577
# Velocity P-wave (km/s) = 6.48648 7.18282 6.84351
#
# Compressibility (1/GPa) = 0.02191769
#
# Stress axis : x y z
#
# Youngs Moduli (GPa) = 53.20982 71.69221 87.63269
#
# Poissons Ratio (x) = 0.42155 0.18416
# Poissons Ratio (y) = 0.31287 0.27485
# Poissons Ratio (z) = 0.11182 0.22485
#
# Static dielectric constant tensor:
#      x y z
#    x 2.781170 0.724200 -0.022150 
#    y 0.724200 2.832300 -0.077430 
#    z -0.022150 -0.077430 3.657320 
# 
# 
# High freq. dielectric constant tensor:
#      x y z
#    x 1.726400 0.013720 0.001100 
#    y 0.013720 1.739200 -0.006370 
#    z 0.001100 -0.006370 1.768600 
# 
# From -- ./inp_files/610377.got.cif
#   From: 2010.06.25/outbox.cif.g09.slc.cpg/sg2_306_cif.got.tgz:610377.got - 2010.06.27 13:26:56.
