data_PCOD8001452
_publ_section_title
;
Structure prediction by ZEFSAII (Michael W. Deem and Ramdas Pophale) SiO2 
 PCOD8001452
Probable space group: P -1
;
_chemical_formula_sum "Si O2"
_cell_formula_units_Z 14
_cell_length_a 8.876981
_cell_length_b 20.683879
_cell_length_c 5.294180
_cell_angle_alpha 72.051702
_cell_angle_beta 74.890482
_cell_angle_gamma 122.886399
_cell_volume 655.723439
_symmetry_space_group_name_H-M "P -1"
_symmetry_group_IT_number 2
_symmetry_cell_setting 'triclinic'
loop_
_space_group_symop_operation_xyz
x,y,z
-x,-y,-z
loop_
_atom_site_type_symbol
_atom_site_label
_atom_site_fract_x
_atom_site_fract_y
_atom_site_fract_z
Si Si1 0.819834 0.285641 0.082705
Si Si2 0.677128 0.744831 0.207880
Si Si3 0.531071 0.588936 0.783597
Si Si4 0.116157 0.059050 0.128112
Si Si5 0.701920 0.611463 0.177624
Si Si6 0.133830 0.548400 0.132858
Si Si7 0.413626 0.792770 0.222045
O O1 0.726489 0.225987 0.452609
O O2 0.759182 0.346489 0.037819
O O3 0.709677 0.220312 0.961746
O O4 0.073418 0.351564 0.876333
O O5 0.656549 0.696856 0.539295
O O6 0.711861 0.697361 0.035576
O O7 0.460325 0.724624 0.278644
O O8 0.876221 0.855944 0.990787
O O9 0.524781 0.546962 0.561880
O O10 0.648087 0.573949 0.955902
O O11 0.304643 0.538980 0.060703
O O12 0.358125 0.101705 0.982970
O O13 0.000000 0.000000 0.500000
O O14 0.000000 0.000000 0.000000
O O15 0.000000 0.500000 0.500000
O O16 0.000000 0.500000 0.000000
#
# Coordination Sequence:
#
# PCOD8001452 Si02
#       7
#     2   2   2   2   2   2   2
#     4  12  21  40  58  89 109 146 200 227 283 330
#     4   8  21  34  62  80 111 147 193 229 277 314
#     4  10  20  40  56  83 111 150 196 220 282 335
#     4  10  20  32  57  90 114 142 188 233 283 326
#     4  10  21  35  63  80 111 148 196 234 262 339
#     4  12  24  38  60  85 116 146 183 240 289 329
#     4  10  21  35  63  82 114 147 193 242 262 329
#
# _framework density 21.350462
#
# number of rings (size 3 to 8) (size 9 to 14) (size 15 to 20)
#    1.714    0.000    1.429    4.286    2.000    0.000 
#    0.000    4.286    0.000    5.143    0.000    0.000 
#    0.000    0.000    0.000    0.000    0.000    0.000 
#
# Total GULP energy -173456.016835 kJ/mol
# GULP energy per Si atom -12389.715488 kJ/mol
# Density = 2.130187 g / cm^3
# Si number density = 21.350462 Si / 1000 Ang^3
#
#
#
# Elastic Constant Matrix: (Units=GPa)
#
#
# Indices 1 2 3 4 5 6 
#
# 1 100.9989 22.9482 52.1163 18.7260 -1.8671 22.4905
# 2 22.9482 84.8371 62.5149 24.7877 17.3063 20.1508
# 3 52.1163 62.5149 196.4932 18.1205 4.9433 19.6273
# 4 18.7260 24.7877 18.1205 37.2070 1.4247 12.6491
# 5 -1.8671 17.3063 4.9433 1.4247 41.5749 4.5605
# 6 22.4905 20.1508 19.6273 12.6491 4.5605 44.9969
#
#
#
# Elastic Compliance Matrix: (Units=1/GPa)
#
#
# Indices 1 2 3 4 5 6 
#
# 1 0.013021 0.000558 -0.002839 -0.004059 0.001324 -0.004513
# 2 0.000558 0.020844 -0.005297 -0.010036 -0.007267 -0.003745
# 3 -0.002839 -0.005297 0.007370 0.001292 0.001146 0.000097
# 4 -0.004059 -0.010036 0.001292 0.036419 0.003097 -0.004592
# 5 0.001324 -0.007267 0.001146 0.003097 0.027062 -0.001521
# 6 -0.004513 -0.003745 0.000097 -0.004592 -0.001521 0.027559
#
#
# Mechanical properties :
#
#
# Convention : Reuss Voigt Hill
#
# Bulk Modulus (GPa) = 38.34670 73.05424 55.70047
# Shear Modulus (GPa) = 32.02548 41.07242 36.54895
#
# Velocity S-wave (km/s) = 3.87717 4.39079 4.14195
# Velocity P-wave (km/s) = 6.16789 7.74573 7.00140
#
# Compressibility (1/GPa) = 0.02607786
#
# Stress axis : x y z
#
# Youngs Moduli (GPa) = 76.79610 47.97527 135.68649
#
# Poissons Ratio (x) = -0.02675 0.38526
# Poissons Ratio (y) = -0.04283 0.71875
# Poissons Ratio (z) = 0.21805 0.25413
#
# Static dielectric constant tensor:
#      x y z
#    x 3.955810 -0.118150 -0.410530 
#    y -0.118150 3.820530 0.165500 
#    z -0.410530 0.165500 4.587400 
# 
# 
# High freq. dielectric constant tensor:
#      x y z
#    x 1.822110 0.003900 0.008290 
#    y 0.003900 1.828510 0.015230 
#    z 0.008290 0.015230 1.856170 
# 
# From -- ./inp_files/51276.got.cif
#   From: 2010.06.25/outbox.cif.g09.slc.cpg/sg2_26_cif.got.tgz:51276.got - 2010.06.27 13:26:56.
