data_PCOD8001763
_publ_section_title
;
Structure prediction by ZEFSAII (Michael W. Deem and Ramdas Pophale) SiO2 
 PCOD8001763
Probable space group: P -1
;
_chemical_formula_sum "Si O2"
_cell_formula_units_Z 16
_cell_length_a 10.147583
_cell_length_b 11.651388
_cell_length_c 17.307373
_cell_angle_alpha 141.269260
_cell_angle_beta 41.078364
_cell_angle_gamma 139.248633
_cell_volume 766.436936
_symmetry_space_group_name_H-M "P -1"
_symmetry_group_IT_number 2
_symmetry_cell_setting 'triclinic'
loop_
_space_group_symop_operation_xyz
x,y,z
-x,-y,-z
loop_
_atom_site_type_symbol
_atom_site_label
_atom_site_fract_x
_atom_site_fract_y
_atom_site_fract_z
Si Si1 0.658437 0.073989 0.862700
Si Si2 0.789474 0.220325 0.042796
Si Si3 0.573849 0.387279 0.654656
Si Si4 0.941955 0.464149 0.659289
Si Si5 0.760861 0.760016 0.151388
Si Si6 0.159785 0.560017 0.131232
Si Si7 0.229043 0.842661 0.647758
Si Si8 0.861209 0.767721 0.643458
O O1 0.721933 0.213339 0.832660
O O2 0.402703 0.918484 0.887492
O O3 0.811514 0.952919 0.734816
O O4 0.689018 0.215754 0.999278
O O5 0.914942 0.446957 0.140892
O O6 0.972047 0.127539 0.904114
O O7 0.737159 0.413936 0.667421
O O8 0.331793 0.315294 0.760670
O O9 0.582247 0.217039 0.502893
O O10 0.640481 0.596979 0.689696
O O11 0.856067 0.428883 0.765034
O O12 0.110290 0.697298 0.695092
O O13 0.070340 0.324737 0.510418
O O14 0.670592 0.923409 0.245953
O O15 0.695713 0.567320 0.021673
O O16 0.059020 0.829473 0.648499
#
# Coordination Sequence:
#
# PCOD8001763 Si02
#       8
#     2   2   2   2   2   2   2   2
#     4  11  20  38  62  78 112 148 186 235 277 319
#     4   9  23  36  56  85 110 143 189 234 271 326
#     4   9  19  33  59  83 109 144 190 225 274 328
#     4   9  20  38  54  79 119 145 181 229 273 337
#     4  10  20  34  55  86 112 139 190 232 277 325
#     4  10  23  37  54  87 117 143 187 224 277 342
#     4   9  17  36  57  82 109 144 186 232 270 325
#     4   9  18  35  60  81 103 151 189 226 276 320
#
# _framework density 20.875820999999998
#
# number of rings (size 3 to 8) (size 9 to 14) (size 15 to 20)
#    0.750    1.750    1.250    2.250    3.500    1.500 
#    2.250    0.625    0.000    0.000    0.000    0.000 
#    0.000    0.000    0.000    0.000    0.000    0.000 
#
# Total GULP energy -198268.900775 kJ/mol
# GULP energy per Si atom -12391.806298 kJ/mol
# Density = 2.082831 g / cm^3
# Si number density = 20.875821 Si / 1000 Ang^3
#
#
#
# Elastic Constant Matrix: (Units=GPa)
#
#
# Indices 1 2 3 4 5 6 
#
# 1 26.1787 22.8535 25.3927 -3.5438 4.1581 -10.9555
# 2 22.8535 127.9717 67.9486 -7.3892 2.6456 -26.7513
# 3 25.3927 67.9486 115.7633 -6.0763 0.1026 -27.0366
# 4 -3.5438 -7.3892 -6.0763 36.8455 -5.1059 -3.2148
# 5 4.1581 2.6456 0.1026 -5.1059 17.1686 -8.9085
# 6 -10.9555 -26.7513 -27.0366 -3.2148 -8.9085 32.6899
#
#
#
# Elastic Compliance Matrix: (Units=1/GPa)
#
#
# Indices 1 2 3 4 5 6 
#
# 1 0.053416 -0.003691 -0.007944 0.002483 -0.008320 0.006288
# 2 -0.003691 0.012403 -0.005036 0.002156 0.002594 0.005666
# 3 -0.007944 -0.005036 0.015402 0.002553 0.007672 0.008297
# 4 0.002483 0.002156 0.002553 0.031253 0.014423 0.011711
# 5 -0.008320 0.002594 0.007672 0.014423 0.078952 0.028614
# 6 0.006288 0.005666 0.008297 0.011711 0.028614 0.053146
#
#
# Mechanical properties :
#
#
# Convention : Reuss Voigt Hill
#
# Bulk Modulus (GPa) = 20.88668 55.81148 38.34908
# Shear Modulus (GPa) = 17.01422 27.58874 22.30148
#
# Velocity S-wave (km/s) = 2.85795 3.63928 3.27202
# Velocity P-wave (km/s) = 4.57356 6.66724 5.71706
#
# Compressibility (1/GPa) = 0.04787741
#
# Stress axis : x y z
#
# Youngs Moduli (GPa) = 18.72109 80.62749 64.92845
#
# Poissons Ratio (x) = 0.29764 0.51578
# Poissons Ratio (y) = 0.06911 0.32698
# Poissons Ratio (z) = 0.14872 0.40604
#
# Static dielectric constant tensor:
#      x y z
#    x 3.166490 0.064650 -0.109860 
#    y 0.064650 3.962140 0.024720 
#    z -0.109860 0.024720 3.894800 
# 
# 
# High freq. dielectric constant tensor:
#      x y z
#    x 1.760590 0.003720 -0.010320 
#    y 0.003720 1.826200 -0.001150 
#    z -0.010320 -0.001150 1.823310 
# 
# From -- ./inp_files/294883.got.cif
#   From: 2010.06.25/outbox.cif.g09.slc.cpg/sg2_148_cif.got.tgz:294883.got - 2010.06.27 13:26:56.
