data_PCOD8001394
_publ_section_title
;
Structure prediction by ZEFSAII (Michael W. Deem and Ramdas Pophale) SiO2 
 PCOD8001394
Probable space group: P -1
;
_chemical_formula_sum "Si O2"
_cell_formula_units_Z 14
_cell_length_a 18.394078
_cell_length_b 26.882468
_cell_length_c 9.067626
_cell_angle_alpha 31.577177
_cell_angle_beta 139.439955
_cell_angle_gamma 160.046024
_cell_volume 779.811568
_symmetry_space_group_name_H-M "P -1"
_symmetry_group_IT_number 2
_symmetry_cell_setting 'triclinic'
loop_
_space_group_symop_operation_xyz
x,y,z
-x,-y,-z
loop_
_atom_site_type_symbol
_atom_site_label
_atom_site_fract_x
_atom_site_fract_y
_atom_site_fract_z
Si Si1 0.837364 0.001204 0.651709
Si Si2 0.438131 0.020085 0.719906
Si Si3 0.848631 0.265792 0.252021
Si Si4 0.736409 0.315109 0.207321
Si Si5 0.128977 0.286523 0.631444
Si Si6 0.980485 0.005691 0.283873
Si Si7 0.450548 0.284346 0.817831
O O1 0.725714 0.017021 0.386325
O O2 0.051022 0.179802 0.629169
O O3 0.909214 0.000225 0.618593
O O4 0.671249 0.814592 0.962421
O O5 0.330188 0.877777 0.786376
O O6 0.658988 0.227071 0.472187
O O7 0.500000 0.000000 0.000000
O O8 0.730875 0.220890 0.328438
O O9 0.965426 0.252507 0.506286
O O10 0.020774 0.468008 0.945313
O O11 0.574075 0.276583 0.989087
O O12 0.377813 0.503420 0.447316
O O13 0.110229 0.197318 0.960615
O O14 0.724446 0.825914 0.302245
O O15 0.000000 0.000000 0.500000
#
# Coordination Sequence:
#
# PCOD8001394 Si02
#       7
#     2   2   2   2   2   2   2
#     4   9  20  36  51  73  99 129 170 206 237 288
#     4  10  20  32  51  76 103 132 160 198 251 298
#     4   9  18  33  53  76 100 129 168 206 238 285
#     4   9  18  33  53  76 100 129 168 206 238 285
#     4   9  18  35  56  73  95 133 172 201 238 291
#     4  11  23  34  48  75 106 127 158 210 255 292
#     4   9  18  35  56  73  95 133 172 201 238 291
#
# _framework density 17.953054000000002
#
# number of rings (size 3 to 8) (size 9 to 14) (size 15 to 20)
#    0.000    2.571    0.000    3.000    0.000    5.714 
#    0.000    0.000    0.000    0.000    0.000    0.000 
#    0.000    0.000    0.000    0.000    0.000    0.000 
#
# Total GULP energy -173609.385647 kJ/mol
# GULP energy per Si atom -12400.670403 kJ/mol
# Density = 1.791219 g / cm^3
# Si number density = 17.953054 Si / 1000 Ang^3
#
#
#
# Elastic Constant Matrix: (Units=GPa)
#
#
# Indices 1 2 3 4 5 6 
#
# 1 108.5208 23.3621 47.8640 3.1520 0.1680 -2.9986
# 2 23.3621 78.0687 59.9963 -5.9265 -9.9770 0.6617
# 3 47.8640 59.9963 129.2512 4.0911 -5.1116 -13.1428
# 4 3.1520 -5.9265 4.0911 35.8480 -5.6477 -1.5940
# 5 0.1680 -9.9770 -5.1116 -5.6477 22.4710 -0.4613
# 6 -2.9986 0.6617 -13.1428 -1.5940 -0.4613 17.2535
#
#
#
# Elastic Compliance Matrix: (Units=1/GPa)
#
#
# Indices 1 2 3 4 5 6 
#
# 1 0.011094 -0.000436 -0.004065 -0.000868 -0.001445 -0.001270
# 2 -0.000436 0.023497 -0.011485 0.006291 0.009222 -0.008898
# 3 -0.004065 -0.011485 0.015750 -0.003155 -0.002045 0.011385
# 4 -0.000868 0.006291 -0.003155 0.030941 0.009865 0.000327
# 5 -0.001445 0.009222 -0.002045 0.009865 0.050623 0.000102
# 6 -0.001270 -0.008898 0.011385 0.000327 0.000102 0.066785
#
#
# Mechanical properties :
#
#
# Convention : Reuss Voigt Hill
#
# Bulk Modulus (GPa) = 54.43635 64.25396 59.34516
# Shear Modulus (GPa) = 21.11625 27.42238 24.26931
#
# Velocity S-wave (km/s) = 3.43329 3.91250 3.68070
# Velocity P-wave (km/s) = 6.78999 7.50186 7.15478
#
# Compressibility (1/GPa) = 0.01837008
#
# Stress axis : x y z
#
# Youngs Moduli (GPa) = 90.14052 42.55802 63.49252
#
# Poissons Ratio (x) = 0.01855 0.25808
# Poissons Ratio (y) = 0.03929 0.72920
# Poissons Ratio (z) = 0.36640 0.48877
#
# Static dielectric constant tensor:
#      x y z
#    x 3.307360 0.152330 0.196530 
#    y 0.152330 3.357810 -0.236170 
#    z 0.196530 -0.236170 3.395620 
# 
# 
# High freq. dielectric constant tensor:
#      x y z
#    x 1.693070 0.016420 0.016530 
#    y 0.016420 1.690570 -0.015300 
#    z 0.016530 -0.015300 1.694820 
# 
# From -- ./inp_files/251484.got.cif
#   From: 2010.06.25/outbox.cif.g09.slc.cpg/sg2_126_cif.got.tgz:251484.got - 2010.06.27 13:26:56.
