data_PCOD8001457
_publ_section_title
;
Structure prediction by ZEFSAII (Michael W. Deem and Ramdas Pophale) SiO2 
 PCOD8001457
Probable space group: P -1
;
_chemical_formula_sum "Si O2"
_cell_formula_units_Z 14
_cell_length_a 12.880755
_cell_length_b 11.653382
_cell_length_c 10.092157
_cell_angle_alpha 78.618257
_cell_angle_beta 145.251439
_cell_angle_gamma 81.077621
_cell_volume 696.802070
_symmetry_space_group_name_H-M "P -1"
_symmetry_group_IT_number 2
_symmetry_cell_setting 'triclinic'
loop_
_space_group_symop_operation_xyz
x,y,z
-x,-y,-z
loop_
_atom_site_type_symbol
_atom_site_label
_atom_site_fract_x
_atom_site_fract_y
_atom_site_fract_z
Si Si1 0.469744 0.846282 0.569256
Si Si2 0.166978 0.898147 0.808958
Si Si3 0.746265 0.942951 0.938521
Si Si4 0.478871 0.598482 0.236790
Si Si5 0.213761 0.719169 0.393621
Si Si6 0.219304 0.348243 0.284465
Si Si7 0.921834 0.260833 0.055930
O O1 0.355074 0.785378 0.546289
O O2 0.676308 0.723004 0.730269
O O3 0.566951 0.903841 0.763811
O O4 0.289603 0.971529 0.254762
O O5 0.291228 0.963163 0.992380
O O6 0.034687 0.880046 0.794381
O O7 0.000000 0.000000 0.500000
O O8 0.344595 0.739587 0.968202
O O9 0.996867 0.802330 0.238496
O O10 0.635849 0.447198 0.364005
O O11 0.611192 0.637974 0.459716
O O12 0.292913 0.599061 0.130990
O O13 0.142584 0.731228 0.165325
O O14 0.144260 0.256899 0.303066
O O15 0.000000 0.500000 0.000000
#
# Coordination Sequence:
#
# PCOD8001457 Si02
#       7
#     2   2   2   2   2   2   2
#     4  11  21  31  55  88 125 141 173 238 302 342
#     4  10  23  43  59  75 115 166 197 228 272 337
#     4  11  22  35  56  85 119 147 184 239 288 349
#     4  10  21  36  56  85 120 148 186 241 281 339
#     4  12  19  34  58  92 114 143 183 240 309 334
#     4  12  18  30  55  92 120 142 177 229 301 351
#     4  10  20  32  58  84 116 147 185 231 285 340
#
# _framework density 20.091788999999999
#
# number of rings (size 3 to 8) (size 9 to 14) (size 15 to 20)
#    0.857    0.286    7.143    1.714    0.000    0.000 
#    0.000    1.429    0.000    0.857    0.000    0.000 
#    0.000    0.000    0.000    0.000    0.000    0.000 
#
# Total GULP energy -173466.435781 kJ/mol
# GULP energy per Si atom -12390.459699 kJ/mol
# Density = 2.004606 g / cm^3
# Si number density = 20.091789 Si / 1000 Ang^3
#
#
#
# Elastic Constant Matrix: (Units=GPa)
#
#
# Indices 1 2 3 4 5 6 
#
# 1 18.3500 13.2505 21.6630 -0.3515 9.0822 6.1176
# 2 13.2505 123.1262 49.5457 -2.0833 -1.3318 7.0970
# 3 21.6630 49.5457 102.0194 -18.4916 -1.4037 1.9197
# 4 -0.3515 -2.0833 -18.4916 45.4037 0.9087 12.8992
# 5 9.0822 -1.3318 -1.4037 0.9087 28.4738 -5.3846
# 6 6.1176 7.0970 1.9197 12.8992 -5.3846 17.1403
#
#
#
# Elastic Compliance Matrix: (Units=1/GPa)
#
#
# Indices 1 2 3 4 5 6 
#
# 1 0.144484 -0.000466 -0.027428 0.013348 -0.062640 -0.078026
# 2 -0.000466 0.010346 -0.004992 -0.000676 -0.000179 -0.003106
# 3 -0.027428 -0.004992 0.018749 0.004063 0.011244 0.010231
# 4 0.013348 -0.000676 0.004063 0.033603 -0.011564 -0.033860
# 5 -0.062640 -0.000179 0.011244 -0.011564 0.065559 0.050470
# 6 -0.078026 -0.003106 0.010231 -0.033860 0.050470 0.127668
#
#
# Mechanical properties :
#
#
# Convention : Reuss Voigt Hill
#
# Bulk Modulus (GPa) = 9.27587 45.82379 27.54983
# Shear Modulus (GPa) = 9.95782 28.80598 19.38190
#
# Velocity S-wave (km/s) = 2.22866 3.79056 3.10928
# Velocity P-wave (km/s) = 3.35400 6.48186 5.16061
#
# Compressibility (1/GPa) = 0.10780660
#
# Stress axis : x y z
#
# Youngs Moduli (GPa) = 6.92119 96.65127 53.33541
#
# Poissons Ratio (x) = 0.04507 1.46288
# Poissons Ratio (y) = 0.00323 0.26627
# Poissons Ratio (z) = 0.18983 0.48251
#
# Static dielectric constant tensor:
#      x y z
#    x 3.140800 0.186970 0.262800 
#    y 0.186970 4.101180 -0.172300 
#    z 0.262800 -0.172300 3.261750 
# 
# 
# High freq. dielectric constant tensor:
#      x y z
#    x 1.720940 0.011700 0.041340 
#    y 0.011700 1.803600 -0.007990 
#    z 0.041340 -0.007990 1.780340 
# 
# From -- ./inp_files/450033.got.cif
#   From: 2010.06.25/outbox.cif.g09.slc.cpg/sg2_226_cif.got.tgz:450033.got - 2010.06.27 13:26:56.
