data_PCOD8001470
_publ_section_title
;
Structure prediction by ZEFSAII (Michael W. Deem and Ramdas Pophale) SiO2 
 PCOD8001470
Probable space group: P -1
;
_chemical_formula_sum "Si O2"
_cell_formula_units_Z 16
_cell_length_a 11.396808
_cell_length_b 15.673158
_cell_length_c 9.190425
_cell_angle_alpha 103.072296
_cell_angle_beta 120.635536
_cell_angle_gamma 38.920893
_cell_volume 842.223594
_symmetry_space_group_name_H-M "P -1"
_symmetry_group_IT_number 2
_symmetry_cell_setting 'triclinic'
loop_
_space_group_symop_operation_xyz
x,y,z
-x,-y,-z
loop_
_atom_site_type_symbol
_atom_site_label
_atom_site_fract_x
_atom_site_fract_y
_atom_site_fract_z
Si Si1 0.890576 0.871606 0.218690
Si Si2 0.669035 0.900761 0.348600
Si Si3 0.642003 0.666656 0.846939
Si Si4 0.476649 0.837789 0.077855
Si Si5 0.193568 0.866872 0.466603
Si Si6 0.820112 0.038070 0.813844
Si Si7 0.039605 0.336775 0.997702
Si Si8 0.184608 0.160577 0.273205
O O1 0.770965 0.925625 0.321986
O O2 0.923789 0.758593 0.131963
O O3 0.128110 0.799973 0.359018
O O4 0.739196 0.007483 0.071087
O O5 0.665615 0.814875 0.215196
O O6 0.819401 0.806760 0.549418
O O7 0.424512 0.052629 0.306567
O O8 0.431690 0.749107 0.647984
O O9 0.813579 0.500357 0.876047
O O10 0.568292 0.713726 0.986974
O O11 0.751858 0.702641 0.883003
O O12 0.409976 0.833231 0.191949
O O13 0.212622 0.914937 0.352662
O O14 0.000000 0.000000 0.500000
O O15 0.893538 0.899749 0.805997
O O16 0.000000 0.000000 0.000000
O O17 0.014618 0.307353 0.131524
#
# Coordination Sequence:
#
# PCOD8001470 Si02
#       8
#     2   2   2   2   2   2   2   2
#     4  12  20  38  64  89 122 159 204 253 298 368
#     4  10  20  32  60  94 114 149 212 252 299 344
#     4  11  25  41  60  91 127 166 203 248 311 364
#     4  11  20  36  61  91 117 160 202 256 297 356
#     4  12  24  38  64  97 125 157 205 261 301 357
#     4  11  20  36  58  92 125 153 199 254 313 349
#     4  11  23  42  62  86 130 167 200 248 308 374
#     4  10  21  34  59  92 119 156 198 268 294 358
#
# _framework density 18.997330999999999
#
# number of rings (size 3 to 8) (size 9 to 14) (size 15 to 20)
#    0.000    1.000    6.250    1.875    5.250    0.500 
#    0.000    1.875    0.000    9.000    0.000    0.000 
#    0.000    0.000    0.000    0.000    0.000    0.000 
#
# Total GULP energy -198384.211707 kJ/mol
# GULP energy per Si atom -12399.013232 kJ/mol
# Density = 1.895409 g / cm^3
# Si number density = 18.997331 Si / 1000 Ang^3
#
#
#
# Elastic Constant Matrix: (Units=GPa)
#
#
# Indices 1 2 3 4 5 6 
#
# 1 124.9863 29.5508 59.0693 -3.9692 -6.2527 6.0892
# 2 29.5508 69.0583 31.9616 1.6032 4.0569 1.8088
# 3 59.0693 31.9616 131.5094 3.9090 2.4874 1.9142
# 4 -3.9692 1.6032 3.9090 22.7314 -2.8180 -0.2262
# 5 -6.2527 4.0569 2.4874 -2.8180 45.0915 6.5646
# 6 6.0892 1.8088 1.9142 -0.2262 6.5646 22.4098
#
#
#
# Elastic Compliance Matrix: (Units=1/GPa)
#
#
# Indices 1 2 3 4 5 6 
#
# 1 0.011162 -0.002885 -0.004413 0.003216 0.002716 -0.003186
# 2 -0.002885 0.017150 -0.002795 -0.001467 -0.001907 0.000182
# 3 -0.004413 -0.002795 0.010350 -0.002495 -0.001214 0.000871
# 4 0.003216 -0.001467 -0.002495 0.045537 0.003733 -0.001176
# 5 0.002716 -0.001907 -0.001214 0.003733 0.024118 -0.007508
# 6 -0.003186 0.000182 0.000871 -0.001176 -0.007508 0.047587
#
#
# Mechanical properties :
#
#
# Convention : Reuss Voigt Hill
#
# Bulk Modulus (GPa) = 54.12484 62.96859 58.54671
# Shear Modulus (GPa) = 27.43500 31.71136 29.57318
#
# Velocity S-wave (km/s) = 3.80432 4.09008 3.94979
# Velocity P-wave (km/s) = 6.91735 7.45138 7.18932
#
# Compressibility (1/GPa) = 0.01847581
#
# Stress axis : x y z
#
# Youngs Moduli (GPa) = 89.59229 58.30926 96.61837
#
# Poissons Ratio (x) = 0.16820 0.42637
# Poissons Ratio (y) = 0.25843 0.27009
# Poissons Ratio (z) = 0.39537 0.16300
#
# Static dielectric constant tensor:
#      x y z
#    x 3.896240 0.079430 -0.089110 
#    y 0.079430 3.213620 0.274380 
#    z -0.089110 0.274380 3.781510 
# 
# 
# High freq. dielectric constant tensor:
#      x y z
#    x 1.752420 0.009370 -0.004180 
#    y 0.009370 1.699070 0.027850 
#    z -0.004180 0.027850 1.751110 
# 
# From -- ./inp_files/262039.got.cif
#   From: 2010.06.25/outbox.cif.g09.slc.cpg/sg2_132_cif.got.tgz:262039.got - 2010.06.27 13:26:56.
