data_PCOD8001239
_publ_section_title
;
Structure prediction by ZEFSAII (Michael W. Deem and Ramdas Pophale) SiO2 
 PCOD8001239
Probable space group: P -1
;
_chemical_formula_sum "Si O2"
_cell_formula_units_Z 16
_cell_length_a 9.148394
_cell_length_b 9.204246
_cell_length_c 21.881284
_cell_angle_alpha 153.974362
_cell_angle_beta 56.550018
_cell_angle_gamma 123.163307
_cell_volume 667.770107
_symmetry_space_group_name_H-M "P -1"
_symmetry_group_IT_number 2
_symmetry_cell_setting 'triclinic'
loop_
_space_group_symop_operation_xyz
x,y,z
-x,-y,-z
loop_
_atom_site_type_symbol
_atom_site_label
_atom_site_fract_x
_atom_site_fract_y
_atom_site_fract_z
Si Si1 0.029294 0.516860 0.842626
Si Si2 0.573120 0.721185 0.230994
Si Si3 0.669991 0.671345 0.937597
Si Si4 0.234449 0.897425 0.032971
Si Si5 0.308397 0.599241 0.589164
Si Si6 0.660684 0.490646 0.680636
Si Si7 0.987444 0.237941 0.457419
Si Si8 0.366067 0.728120 0.762496
O O1 0.046019 0.733542 0.984024
O O2 0.214718 0.596730 0.795822
O O3 0.874436 0.634737 0.883433
O O4 0.998113 0.120535 0.711432
O O5 0.439534 0.688536 0.190282
O O6 0.685353 0.421922 0.082989
O O7 0.468068 0.707737 0.314224
O O8 0.700103 0.070382 0.325317
O O9 0.642941 0.899054 0.970009
O O10 0.594803 0.864346 0.084918
O O11 0.223827 0.162654 0.190503
O O12 0.500000 0.500000 0.500000
O O13 0.150142 0.320132 0.498318
O O14 0.285059 0.644813 0.683690
O O15 0.544115 0.570262 0.678508
O O16 0.799640 0.242276 0.536390
O O17 0.000000 0.500000 0.500000
#
# Coordination Sequence:
#
# PCOD8001239 Si02
#       8
#     2   2   2   2   2   2   2   2
#     4  11  24  41  73 100 145 182 228 282 353 409
#     4  11  21  44  73 102 134 188 225 282 345 415
#     4  10  20  39  71 105 140 168 235 287 343 413
#     4  10  19  42  71 108 129 178 232 286 334 416
#     4  12  29  46  65 100 151 181 231 287 348 405
#     4  11  23  44  80 100 136 179 238 281 342 419
#     4  12  29  49  66 104 142 185 235 287 336 413
#     4  11  23  43  71 107 133 184 228 290 348 407
#
# _framework density 23.960343999999999
#
# number of rings (size 3 to 8) (size 9 to 14) (size 15 to 20)
#    0.000    1.000    3.750    4.500    7.000    1.500 
#    2.250    1.250    0.000    0.000    0.000    0.000 
#    0.000    0.000    0.000    0.000    0.000    0.000 
#
# Total GULP energy -198316.889616 kJ/mol
# GULP energy per Si atom -12394.805601 kJ/mol
# Density = 2.390581 g / cm^3
# Si number density = 23.960344 Si / 1000 Ang^3
#
#
#
# Elastic Constant Matrix: (Units=GPa)
#
#
# Indices 1 2 3 4 5 6 
#
# 1 104.0326 14.6546 9.6086 -3.2374 -0.5899 -3.4785
# 2 14.6546 44.2647 9.0847 9.1630 9.3709 -9.1878
# 3 9.6086 9.0847 56.2359 10.1356 6.0623 -8.1130
# 4 -3.2374 9.1630 10.1356 32.5332 -1.1029 1.4386
# 5 -0.5899 9.3709 6.0623 -1.1029 43.8961 -3.3671
# 6 -3.4785 -9.1878 -8.1130 1.4386 -3.3671 29.0826
#
#
#
# Elastic Compliance Matrix: (Units=1/GPa)
#
#
# Indices 1 2 3 4 5 6 
#
# 1 0.010430 -0.004041 -0.001854 0.002821 0.001289 -0.000537
# 2 -0.004041 0.028807 -0.000553 -0.008901 -0.005719 0.008241
# 3 -0.001854 -0.000553 0.020439 -0.006717 -0.002488 0.005349
# 4 0.002821 -0.008901 -0.006717 0.035985 0.003329 -0.005743
# 5 0.001289 -0.005719 -0.002488 0.003329 0.024471 0.000322
# 6 -0.000537 0.008241 0.005349 -0.005743 0.000322 0.038738
#
#
# Mechanical properties :
#
#
# Convention : Reuss Voigt Hill
#
# Bulk Modulus (GPa) = 21.37698 30.13656 25.75677
# Shear Modulus (GPa) = 26.68670 32.51474 29.60072
#
# Velocity S-wave (km/s) = 3.34096 3.68778 3.51865
# Velocity P-wave (km/s) = 4.88097 5.54418 5.22311
#
# Compressibility (1/GPa) = 0.04677929
#
# Stress axis : x y z
#
# Youngs Moduli (GPa) = 95.87776 34.71425 48.92590
#
# Poissons Ratio (x) = 0.14027 0.09071
# Poissons Ratio (y) = 0.38740 0.02708
# Poissons Ratio (z) = 0.17777 0.01921
#
# Static dielectric constant tensor:
#      x y z
#    x 4.749980 0.033100 0.513730 
#    y 0.033100 3.996730 0.181110 
#    z 0.513730 0.181110 4.905130 
# 
# 
# High freq. dielectric constant tensor:
#      x y z
#    x 1.972410 -0.004700 0.016050 
#    y -0.004700 1.914410 0.015870 
#    z 0.016050 0.015870 1.958300 
# 
# From -- ./inp_files/495532.got.cif
#   From: 2010.06.25/outbox.cif.g09.slc.cpg/sg2_248_cif.got.tgz:495532.got - 2010.06.27 13:26:56.
