data_PCOD8001009
_publ_section_title
;
Structure prediction by ZEFSAII (Michael W. Deem and Ramdas Pophale) SiO2 
 PCOD8001009
Probable space group: P -1
;
_chemical_formula_sum "Si O2"
_cell_formula_units_Z 16
_cell_length_a 13.032674
_cell_length_b 10.792792
_cell_length_c 14.046420
_cell_angle_alpha 110.959919
_cell_angle_beta 133.368962
_cell_angle_gamma 35.389403
_cell_volume 729.674899
_symmetry_space_group_name_H-M "P -1"
_symmetry_group_IT_number 2
_symmetry_cell_setting 'triclinic'
loop_
_space_group_symop_operation_xyz
x,y,z
-x,-y,-z
loop_
_atom_site_type_symbol
_atom_site_label
_atom_site_fract_x
_atom_site_fract_y
_atom_site_fract_z
Si Si1 0.923795 0.650040 0.170156
Si Si2 0.421794 0.166185 0.694900
Si Si3 0.450133 0.238048 0.307723
Si Si4 0.397862 0.622426 0.865637
Si Si5 0.961877 0.601058 0.647012
Si Si6 0.539655 0.161589 0.134819
Si Si7 0.169783 0.994398 0.350382
Si Si8 0.274112 0.831326 0.167303
O O1 0.148821 0.515657 0.203466
O O2 0.065868 0.445169 0.281482
O O3 0.806166 0.873901 0.204948
O O4 0.702608 0.746440 0.999348
O O5 0.241253 0.312570 0.526918
O O6 0.667964 0.066872 0.807540
O O7 0.255802 0.352496 0.729127
O O8 0.521449 0.942717 0.721528
O O9 0.550768 0.210875 0.262440
O O10 0.615613 0.178660 0.478610
O O11 0.497825 0.691110 0.924466
O O12 0.498918 0.443817 0.799633
O O13 0.087750 0.868069 0.732907
O O14 0.500000 0.500000 0.000000
O O15 0.892263 0.809053 0.671001
O O16 0.271241 0.830874 0.279946
O O17 0.000000 0.000000 0.000000
#
# Coordination Sequence:
#
# PCOD8001009 Si02
#       8
#     2   2   2   2   2   2   2   2
#     4  11  23  42  69  96 137 171 222 279 332 390
#     4  10  21  37  69 102 131 171 220 271 336 378
#     4  11  24  44  69  98 137 172 227 280 327 395
#     4  12  26  47  68  94 136 174 218 279 333 402
#     4  10  19  40  69  98 133 171 217 280 323 386
#     4  11  27  44  65  98 132 181 222 268 344 399
#     4  11  24  43  68 102 131 181 224 271 336 386
#     4  12  25  39  66 102 134 173 220 271 327 393
#
# _framework density 21.927575000000001
#
# number of rings (size 3 to 8) (size 9 to 14) (size 15 to 20)
#    0.000    1.000    3.750    2.625    1.750    4.500 
#    0.000    1.250    0.000    0.000    0.000    0.000 
#    0.000    0.000    0.000    0.000    0.000    0.000 
#
# Total GULP energy -198519.389773 kJ/mol
# GULP energy per Si atom -12407.461861 kJ/mol
# Density = 2.187767 g / cm^3
# Si number density = 21.927575 Si / 1000 Ang^3
#
#
#
# Elastic Constant Matrix: (Units=GPa)
#
#
# Indices 1 2 3 4 5 6 
#
# 1 103.3647 44.9505 50.2737 2.1600 -0.1941 -15.5896
# 2 44.9505 114.7685 45.3858 4.9524 -6.1514 -39.5801
# 3 50.2737 45.3858 100.6942 5.2394 2.9113 -11.1595
# 4 2.1600 4.9524 5.2394 33.9745 -6.6376 -2.1526
# 5 -0.1941 -6.1514 2.9113 -6.6376 43.0437 -2.1137
# 6 -15.5896 -39.5801 -11.1595 -2.1526 -2.1137 34.4312
#
#
#
# Elastic Compliance Matrix: (Units=1/GPa)
#
#
# Indices 1 2 3 4 5 6 
#
# 1 0.013739 -0.002773 -0.005497 0.000495 0.000177 0.001293
# 2 -0.002773 0.018318 -0.004950 0.000196 0.003876 0.018448
# 3 -0.005497 -0.004950 0.014659 -0.001850 -0.002190 -0.003678
# 4 0.000495 0.000196 -0.001850 0.030768 0.005002 0.002080
# 5 0.000177 0.003876 -0.002190 0.005002 0.024985 0.005673
# 6 0.001293 0.018448 -0.003678 0.002080 0.005673 0.050122
#
#
# Mechanical properties :
#
#
# Convention : Reuss Voigt Hill
#
# Bulk Modulus (GPa) = 49.32008 66.67195 57.99602
# Shear Modulus (GPa) = 26.91220 34.17104 30.54162
#
# Velocity S-wave (km/s) = 3.50712 3.95189 3.73613
# Velocity P-wave (km/s) = 6.24027 7.16204 6.71698
#
# Compressibility (1/GPa) = 0.02027572
#
# Stress axis : x y z
#
# Youngs Moduli (GPa) = 72.78481 54.59081 68.21929
#
# Poissons Ratio (x) = 0.15139 0.37502
# Poissons Ratio (y) = 0.20184 0.33767
# Poissons Ratio (z) = 0.40011 0.27021
#
# Static dielectric constant tensor:
#      x y z
#    x 3.933910 -0.252780 0.080840 
#    y -0.252780 4.068210 0.083580 
#    z 0.080840 0.083580 3.911500 
# 
# 
# High freq. dielectric constant tensor:
#      x y z
#    x 1.858350 -0.020350 0.002990 
#    y -0.020350 1.869070 0.004180 
#    z 0.002990 0.004180 1.860240 
# 
# From -- ./inp_files/519748.got.cif
#   From: 2010.06.25/outbox.cif.g09.slc.cpg/sg2_260_cif.got.tgz:519748.got - 2010.06.27 13:26:56.
