data_PCOD8001011
_publ_section_title
;
Structure prediction by ZEFSAII (Michael W. Deem and Ramdas Pophale) SiO2 
 PCOD8001011
Probable space group: P -1
;
_chemical_formula_sum "Si O2"
_cell_formula_units_Z 16
_cell_length_a 13.264302
_cell_length_b 20.611180
_cell_length_c 8.874549
_cell_angle_alpha 32.647250
_cell_angle_beta 131.601759
_cell_angle_gamma 143.706051
_cell_volume 773.936410
_symmetry_space_group_name_H-M "P -1"
_symmetry_group_IT_number 2
_symmetry_cell_setting 'triclinic'
loop_
_space_group_symop_operation_xyz
x,y,z
-x,-y,-z
loop_
_atom_site_type_symbol
_atom_site_label
_atom_site_fract_x
_atom_site_fract_y
_atom_site_fract_z
Si Si1 0.591738 0.199022 0.425861
Si Si2 0.291148 0.181432 0.597024
Si Si3 0.310940 0.923623 0.016581
Si Si4 0.350127 0.270843 0.146366
Si Si5 0.746399 0.126697 0.269848
Si Si6 0.047400 0.973980 0.258539
Si Si7 0.428166 0.531931 0.509450
Si Si8 0.803224 0.393588 0.969295
O O1 0.733068 0.209550 0.651731
O O2 0.510392 0.268886 0.292747
O O3 0.445087 0.020930 0.591262
O O4 0.685053 0.294430 0.184916
O O5 0.311257 0.262380 0.300983
O O6 0.435565 0.295700 0.636868
O O7 0.112231 0.122927 0.601345
O O8 0.295391 0.040851 0.856801
O O9 0.199597 0.863729 0.870997
O O10 0.500000 0.000000 0.000000
O O11 0.189171 0.133567 0.164696
O O12 0.392593 0.424325 0.823365
O O13 0.878659 0.119443 0.512210
O O14 0.769912 0.279091 0.029457
O O15 0.000000 0.000000 0.000000
O O16 0.500000 0.500000 0.500000
O O17 0.254429 0.506649 0.341461
O O18 0.000000 0.500000 0.000000
#
# Coordination Sequence:
#
# PCOD8001011 Si02
#       8
#     2   2   2   2   2   2   2   2
#     4  10  21  42  71  95 131 170 228 276 335 395
#     4  12  24  42  73  98 131 182 223 279 337 402
#     4  10  19  40  69  99 125 165 228 281 327 395
#     4  11  23  44  67 100 134 178 226 277 334 404
#     4  10  23  43  68  96 134 170 226 279 333 400
#     4  11  25  40  68 103 137 169 227 284 338 388
#     4  12  26  45  68  94 141 184 224 271 341 411
#     4  12  28  44  65 100 136 181 222 276 344 397
#
# _framework density 20.673535000000001
#
# number of rings (size 3 to 8) (size 9 to 14) (size 15 to 20)
#    0.000    1.000    5.000    3.375    7.000    0.000 
#    0.000    0.625    0.000    0.000    0.000    0.000 
#    0.000    0.000    0.000    0.000    0.000    0.000 
#
# Total GULP energy -198413.395928 kJ/mol
# GULP energy per Si atom -12400.837246 kJ/mol
# Density = 2.062648 g / cm^3
# Si number density = 20.673535 Si / 1000 Ang^3
#
#
#
# Elastic Constant Matrix: (Units=GPa)
#
#
# Indices 1 2 3 4 5 6 
#
# 1 107.5175 49.4909 50.1025 3.3863 -4.7728 -4.9859
# 2 49.4909 86.5151 38.8769 10.9927 3.6322 -1.4627
# 3 50.1025 38.8769 150.3403 22.4508 4.7874 -0.2158
# 4 3.3863 10.9927 22.4508 36.3140 -1.5178 -0.7786
# 5 -4.7728 3.6322 4.7874 -1.5178 31.7798 6.8099
# 6 -4.9859 -1.4627 -0.2158 -0.7786 6.8099 32.4889
#
#
#
# Elastic Compliance Matrix: (Units=1/GPa)
#
#
# Indices 1 2 3 4 5 6 
#
# 1 0.014332 -0.007146 -0.003507 0.003162 0.003387 0.001220
# 2 -0.007146 0.016845 -0.001320 -0.003739 -0.003020 0.000196
# 3 -0.003507 -0.001320 0.008952 -0.004893 -0.001903 -0.000256
# 4 0.003162 -0.003739 -0.004893 0.031536 0.003060 0.000399
# 5 0.003387 -0.003020 -0.001903 0.003060 0.034194 -0.006723
# 6 0.001220 0.000196 -0.000256 0.000399 -0.006723 0.032393
#
#
# Mechanical properties :
#
#
# Convention : Reuss Voigt Hill
#
# Bulk Modulus (GPa) = 61.78855 69.03484 65.41169
# Shear Modulus (GPa) = 29.83460 33.84339 31.83899
#
# Velocity S-wave (km/s) = 3.80298 4.05042 3.92865
# Velocity P-wave (km/s) = 7.01685 7.43908 7.23105
#
# Compressibility (1/GPa) = 0.01618423
#
# Stress axis : x y z
#
# Youngs Moduli (GPa) = 69.77621 59.36577 111.70183
#
# Poissons Ratio (x) = 0.42423 0.39169
# Poissons Ratio (y) = 0.49862 0.14741
# Poissons Ratio (z) = 0.24468 0.07834
#
# Static dielectric constant tensor:
#      x y z
#    x 3.790710 -0.053430 -0.024370 
#    y -0.053430 3.834620 0.370120 
#    z -0.024370 0.370120 4.248430 
# 
# 
# High freq. dielectric constant tensor:
#      x y z
#    x 1.812300 -0.006710 0.005140 
#    y -0.006710 1.796660 0.019130 
#    z 0.005140 0.019130 1.823940 
# 
# From -- ./inp_files/282658.got.cif
#   From: 2010.06.25/outbox.cif.g09.slc.cpg/sg2_142_cif.got.tgz:282658.got - 2010.06.27 13:26:56.
