data_PCOD8001987
_publ_section_title
;
Structure prediction by ZEFSAII (Michael W. Deem and Ramdas Pophale) SiO2 
 PCOD8001987
Probable space group: P -1
;
_chemical_formula_sum "Si O2"
_cell_formula_units_Z 16
_cell_length_a 15.336485
_cell_length_b 11.719727
_cell_length_c 19.864240
_cell_angle_alpha 28.867577
_cell_angle_beta 30.903461
_cell_angle_gamma 27.366499
_cell_volume 738.673880
_symmetry_space_group_name_H-M "P -1"
_symmetry_group_IT_number 2
_symmetry_cell_setting 'triclinic'
loop_
_space_group_symop_operation_xyz
x,y,z
-x,-y,-z
loop_
_atom_site_type_symbol
_atom_site_label
_atom_site_fract_x
_atom_site_fract_y
_atom_site_fract_z
Si Si1 0.190681 0.304418 0.303351
Si Si2 0.289597 0.672801 0.288904
Si Si3 0.999310 0.527926 0.172810
Si Si4 0.121058 0.720218 0.245139
Si Si5 0.378575 0.945931 0.907798
Si Si6 0.670466 0.857707 0.018454
Si Si7 0.764389 0.351871 0.145133
Si Si8 0.997631 0.007421 0.418441
O O1 0.041778 0.462703 0.256942
O O2 0.096520 0.511153 0.322566
O O3 0.189676 0.020522 0.466096
O O4 0.413770 0.230532 0.179404
O O5 0.187942 0.577589 0.349541
O O6 0.530974 0.447519 0.247502
O O7 0.197473 0.729474 0.395832
O O8 0.210860 0.986998 0.148525
O O9 0.782276 0.816446 0.159300
O O10 0.987326 0.292047 0.259439
O O11 0.176342 0.560361 0.008771
O O12 0.904334 0.019270 0.237166
O O13 0.300996 0.746321 0.082524
O O14 0.415453 0.082151 0.879319
O O15 0.799894 0.519202 0.094869
O O16 0.500000 0.000000 0.000000
O O17 0.000000 0.000000 0.500000
#
# Coordination Sequence:
#
# PCOD8001987 Si02
#       8
#     2   2   2   2   2   2   2   2
#     4  11  23  41  55  81 127 159 193 230 282 348
#     4  10  20  37  59  87 115 148 191 242 291 341
#     4  10  21  38  59  90 115 149 196 243 289 338
#     4  10  23  37  59  90 113 153 195 234 291 348
#     4  10  22  35  63  90 114 153 191 243 293 340
#     4   9  17  31  59  90 115 140 183 240 302 329
#     4  10  20  34  62  91 114 144 185 249 297 334
#     4  10  23  38  60  83 116 159 195 234 288 346
#
# _framework density 21.660439
#
# number of rings (size 3 to 8) (size 9 to 14) (size 15 to 20)
#    0.000    2.000    1.250    2.625    7.000    5.500 
#    0.000    3.125    0.000    0.000    0.000    0.000 
#    0.000    0.000    0.000    0.000    0.000    0.000 
#
# Total GULP energy -198239.491400 kJ/mol
# GULP energy per Si atom -12389.968212 kJ/mol
# Density = 2.161114 g / cm^3
# Si number density = 21.660439 Si / 1000 Ang^3
#
#
#
# Elastic Constant Matrix: (Units=GPa)
#
#
# Indices 1 2 3 4 5 6 
#
# 1 121.3552 51.0895 23.3224 5.6369 -6.3690 16.3548
# 2 51.0895 105.5434 26.6518 14.6640 -0.3619 12.7731
# 3 23.3224 26.6518 47.5000 12.0860 -2.4957 0.1437
# 4 5.6369 14.6640 12.0860 22.3688 9.5854 -4.6705
# 5 -6.3690 -0.3619 -2.4957 9.5854 22.1873 -3.7707
# 6 16.3548 12.7731 0.1437 -4.6705 -3.7707 32.3062
#
#
#
# Elastic Compliance Matrix: (Units=1/GPa)
#
#
# Indices 1 2 3 4 5 6 
#
# 1 0.011209 -0.004177 -0.002965 -0.000252 0.002283 -0.003780
# 2 -0.004177 0.014037 -0.003866 -0.007428 0.001062 -0.004368
# 3 -0.002965 -0.003866 0.029364 -0.016421 0.009766 0.001665
# 4 -0.000252 -0.007428 -0.016421 0.074565 -0.032535 0.010120
# 5 0.002283 0.001062 0.009766 -0.032535 0.061034 0.000801
# 6 -0.003780 -0.004368 0.001665 0.010120 0.000801 0.036144
#
#
# Mechanical properties :
#
#
# Convention : Reuss Voigt Hill
#
# Bulk Modulus (GPa) = 30.67993 52.94733 41.81363
# Shear Modulus (GPa) = 19.28756 26.92812 23.10784
#
# Velocity S-wave (km/s) = 2.98728 3.52972 3.26977
# Velocity P-wave (km/s) = 5.10815 6.41165 5.79666
#
# Compressibility (1/GPa) = 0.03259460
#
# Stress axis : x y z
#
# Youngs Moduli (GPa) = 89.21020 71.23845 34.05530
#
# Poissons Ratio (x) = 0.29757 0.10096
# Poissons Ratio (y) = 0.37264 0.13167
# Poissons Ratio (z) = 0.26447 0.27544
#
# Static dielectric constant tensor:
#      x y z
#    x 4.072000 0.324500 -0.189640 
#    y 0.324500 3.807910 -0.046970 
#    z -0.189640 -0.046970 4.014840 
# 
# 
# High freq. dielectric constant tensor:
#      x y z
#    x 1.853680 0.018370 -0.006890 
#    y 0.018370 1.835740 0.010340 
#    z -0.006890 0.010340 1.835060 
# 
# From -- ./inp_files/428686.got.cif
#   From: 2010.06.25/outbox.cif.g09.slc.cpg/sg2_215_cif.got.tgz:428686.got - 2010.06.27 13:26:56.
