data_PCOD8001739
_publ_section_title
;
Structure prediction by ZEFSAII (Michael W. Deem and Ramdas Pophale) SiO2 
 PCOD8001739
Probable space group: P -1
;
_chemical_formula_sum "Si O2"
_cell_formula_units_Z 14
_cell_length_a 7.030192
_cell_length_b 9.892269
_cell_length_c 17.116735
_cell_angle_alpha 110.106041
_cell_angle_beta 132.442497
_cell_angle_gamma 75.921150
_cell_volume 824.800428
_symmetry_space_group_name_H-M "P -1"
_symmetry_group_IT_number 2
_symmetry_cell_setting 'triclinic'
loop_
_space_group_symop_operation_xyz
x,y,z
-x,-y,-z
loop_
_atom_site_type_symbol
_atom_site_label
_atom_site_fract_x
_atom_site_fract_y
_atom_site_fract_z
Si Si1 0.699103 0.845113 0.697963
Si Si2 0.265611 0.888242 0.331805
Si Si3 0.242582 0.952501 0.508208
Si Si4 0.066366 0.594360 0.156033
Si Si5 0.871791 0.854646 0.910481
Si Si6 0.912653 0.364788 0.181639
Si Si7 0.339679 0.367425 0.079804
O O1 0.413563 0.830738 0.578385
O O2 0.668888 0.885299 0.789826
O O3 0.871235 0.697659 0.709365
O O4 0.849416 0.975690 0.722275
O O5 0.203077 0.743235 0.240866
O O6 0.148311 0.888184 0.386774
O O7 0.577491 0.907412 0.428257
O O8 0.000000 0.000000 0.500000
O O9 0.267181 0.497889 0.143310
O O10 0.994503 0.520727 0.203801
O O11 0.804945 0.619701 0.040127
O O12 0.727494 0.785040 0.930057
O O13 0.094130 0.743887 0.916928
O O14 0.000000 0.000000 0.000000
O O15 0.642238 0.374449 0.151316
#
# Coordination Sequence:
#
# PCOD8001739 Si02
#       7
#     2   2   2   2   2   2   2
#     4   8  18  36  52  78 108 131 170 226 262 301
#     4   9  19  37  56  79 106 134 179 225 262 311
#     4   9  19  37  57  79 102 136 177 225 270 313
#     4  10  20  36  53  79 110 145 177 212 254 319
#     4   9  18  33  49  80 109 136 176 217 255 310
#     4   9  20  35  51  78 111 140 174 213 262 309
#     4  10  20  34  55  74 116 148 173 207 258 316
#
# _framework density 16.973803
#
# number of rings (size 3 to 8) (size 9 to 14) (size 15 to 20)
#    1.714    1.143    0.000    1.286    0.000    2.857 
#    2.571    0.714    0.000    1.714    0.000    0.000 
#    0.000    0.000    0.000    0.000    0.000    0.000 
#
# Total GULP energy -173440.031433 kJ/mol
# GULP energy per Si atom -12388.573674 kJ/mol
# Density = 1.693517 g / cm^3
# Si number density = 16.973803 Si / 1000 Ang^3
#
#
#
# Elastic Constant Matrix: (Units=GPa)
#
#
# Indices 1 2 3 4 5 6 
#
# 1 103.3817 35.2142 33.2432 -13.1049 11.6208 3.6084
# 2 35.2142 95.2135 44.3899 -18.4646 -3.5886 16.5315
# 3 33.2432 44.3899 64.8121 -17.4175 -2.1381 -0.6922
# 4 -13.1049 -18.4646 -17.4175 31.9999 -2.0045 -3.6008
# 5 11.6208 -3.5886 -2.1381 -2.0045 23.7253 -5.1752
# 6 3.6084 16.5315 -0.6922 -3.6008 -5.1752 19.6398
#
#
#
# Elastic Compliance Matrix: (Units=1/GPa)
#
#
# Indices 1 2 3 4 5 6 
#
# 1 0.013182 -0.001973 -0.005597 0.000387 -0.007873 -0.002962
# 2 -0.001973 0.020494 -0.012643 0.002173 -0.000619 -0.017098
# 3 -0.005597 -0.012643 0.029807 0.008978 0.007860 0.016438
# 4 0.000387 0.002173 0.008978 0.038700 0.005751 0.007027
# 5 -0.007873 -0.000619 0.007860 0.005751 0.050742 0.016670
# 6 -0.002962 -0.017098 0.016438 0.007027 0.016670 0.072113
#
#
# Mechanical properties :
#
#
# Convention : Reuss Voigt Hill
#
# Bulk Modulus (GPa) = 43.37332 54.34463 48.85898
# Shear Modulus (GPa) = 18.30487 25.11034 21.70761
#
# Velocity S-wave (km/s) = 3.28749 3.85042 3.58004
# Velocity P-wave (km/s) = 6.32603 7.20096 6.77763
#
# Compressibility (1/GPa) = 0.02305565
#
# Stress axis : x y z
#
# Youngs Moduli (GPa) = 75.85927 48.79572 33.54903
#
# Poissons Ratio (x) = 0.09629 0.18778
# Poissons Ratio (y) = 0.14970 0.42416
# Poissons Ratio (z) = 0.42461 0.61693
#
# Static dielectric constant tensor:
#      x y z
#    x 3.002330 0.153360 -0.158650 
#    y 0.153360 3.167930 -0.217890 
#    z -0.158650 -0.217890 2.988380 
# 
# 
# High freq. dielectric constant tensor:
#      x y z
#    x 1.643600 0.012900 -0.010700 
#    y 0.012900 1.651200 -0.015410 
#    z -0.010700 -0.015410 1.636260 
# 
# From -- ./inp_files/548663.got.cif
#   From: 2010.06.25/outbox.cif.g09.slc.cpg/sg2_275_cif.got.tgz:548663.got - 2010.06.27 13:26:56.
