data_PCOD8001561
_publ_section_title
;
Structure prediction by ZEFSAII (Michael W. Deem and Ramdas Pophale) SiO2 
 PCOD8001561
Probable space group: P -1
;
_chemical_formula_sum "Si O2"
_cell_formula_units_Z 14
_cell_length_a 15.286256
_cell_length_b 12.358819
_cell_length_c 12.146810
_cell_angle_alpha 45.918136
_cell_angle_beta 27.232298
_cell_angle_gamma 39.563401
_cell_volume 668.423277
_symmetry_space_group_name_H-M "P -1"
_symmetry_group_IT_number 2
_symmetry_cell_setting 'triclinic'
loop_
_space_group_symop_operation_xyz
x,y,z
-x,-y,-z
loop_
_atom_site_type_symbol
_atom_site_label
_atom_site_fract_x
_atom_site_fract_y
_atom_site_fract_z
Si Si1 0.287313 0.134348 0.200364
Si Si2 0.525791 0.337868 0.333132
Si Si3 0.413306 0.987413 0.384117
Si Si4 0.207118 0.478999 0.144785
Si Si5 0.716584 0.664436 0.605289
Si Si6 0.713806 0.492838 0.316623
Si Si7 0.847696 0.772886 0.936649
O O1 0.305813 0.302343 0.094238
O O2 0.114377 0.171199 0.268893
O O3 0.253876 0.051020 0.409692
O O4 0.500000 0.000000 0.000000
O O5 0.626209 0.153084 0.408566
O O6 0.454583 0.336189 0.289387
O O7 0.321571 0.466524 0.542334
O O8 0.708320 0.398341 0.089823
O O9 0.351412 0.141344 0.427779
O O10 0.662984 0.920936 0.112213
O O11 0.282093 0.442871 0.213572
O O12 0.950543 0.576393 0.350338
O O13 0.500000 0.500000 0.500000
O O14 0.922236 0.307358 0.201175
O O15 0.766973 0.631863 0.101622
#
# Coordination Sequence:
#
# PCOD8001561 Si02
#       7
#     2   2   2   2   2   2   2
#     4   9  17  35  60  83 114 153 186 227 288 342
#     4  11  21  35  58  84 112 148 191 238 283 334
#     4   9  20  35  57  85 117 155 191 233 282 337
#     4  10  21  36  60  84 110 151 194 237 281 336
#     4  10  21  39  57  81 115 153 193 232 285 340
#     4  10  20  33  55  86 111 139 187 237 282 333
#     4   9  18  35  57  79 111 151 183 225 284 337
#
# _framework density 20.944814000000001
#
# number of rings (size 3 to 8) (size 9 to 14) (size 15 to 20)
#    0.000    2.286    0.000    2.571    0.000    2.857 
#    0.000    2.857    0.000   65.143    0.000    0.000 
#    0.000    0.000    0.000    0.000    0.000    0.000 
#
# Total GULP energy -173491.582544 kJ/mol
# GULP energy per Si atom -12392.255896 kJ/mol
# Density = 2.089714 g / cm^3
# Si number density = 20.944814 Si / 1000 Ang^3
#
#
#
# Elastic Constant Matrix: (Units=GPa)
#
#
# Indices 1 2 3 4 5 6 
#
# 1 89.2856 35.7141 26.5458 5.7637 1.5073 -10.7260
# 2 35.7141 120.2448 44.3380 12.3556 -3.4807 0.6445
# 3 26.5458 44.3380 70.3399 -1.9591 -1.3782 -6.5608
# 4 5.7637 12.3556 -1.9591 30.2202 -0.0480 6.6384
# 5 1.5073 -3.4807 -1.3782 -0.0480 27.9962 5.3471
# 6 -10.7260 0.6445 -6.5608 6.6384 5.3471 27.8280
#
#
#
# Elastic Compliance Matrix: (Units=1/GPa)
#
#
# Indices 1 2 3 4 5 6 
#
# 1 0.014240 -0.002856 -0.003146 -0.003077 -0.002430 0.006014
# 2 -0.002856 0.012239 -0.006941 -0.004399 0.001768 -0.002311
# 3 -0.003146 -0.006941 0.020147 0.004139 -0.000220 0.002753
# 4 -0.003077 -0.004399 0.004139 0.037824 0.001694 -0.009457
# 5 -0.002430 0.001768 -0.000220 0.001694 0.037720 -0.008682
# 6 0.006014 -0.002311 0.002753 -0.009457 -0.008682 0.042880
#
#
# Mechanical properties :
#
#
# Convention : Reuss Voigt Hill
#
# Bulk Modulus (GPa) = 48.21448 54.78510 51.49979
# Shear Modulus (GPa) = 25.27183 28.76037 27.01610
#
# Velocity S-wave (km/s) = 3.47737 3.70962 3.59537
# Velocity P-wave (km/s) = 6.26040 6.67548 6.47127
#
# Compressibility (1/GPa) = 0.02074066
#
# Stress axis : x y z
#
# Youngs Moduli (GPa) = 70.22528 81.70392 49.63563
#
# Poissons Ratio (x) = 0.23331 0.15617
# Poissons Ratio (y) = 0.20054 0.34450
# Poissons Ratio (z) = 0.22096 0.56708
#
# Static dielectric constant tensor:
#      x y z
#    x 4.184180 -0.307990 0.445000 
#    y -0.307990 4.022740 0.081660 
#    z 0.445000 0.081660 3.586960 
# 
# 
# High freq. dielectric constant tensor:
#      x y z
#    x 1.824610 -0.012170 0.028630 
#    y -0.012170 1.829130 0.010550 
#    z 0.028630 0.010550 1.792780 
# 
# From -- ./inp_files/410385.got.cif
#   From: 2010.06.25/outbox.cif.g09.slc.cpg/sg2_206_cif.got.tgz:410385.got - 2010.06.27 13:26:56.
