data_PCOD8001644
_publ_section_title
;
Structure prediction by ZEFSAII (Michael W. Deem and Ramdas Pophale) SiO2 
 PCOD8001644
Probable space group: P -1
;
_chemical_formula_sum "Si O2"
_cell_formula_units_Z 16
_cell_length_a 10.465734
_cell_length_b 13.280658
_cell_length_c 12.849056
_cell_angle_alpha 125.269720
_cell_angle_beta 67.432023
_cell_angle_gamma 147.017837
_cell_volume 773.159919
_symmetry_space_group_name_H-M "P -1"
_symmetry_group_IT_number 2
_symmetry_cell_setting 'triclinic'
loop_
_space_group_symop_operation_xyz
x,y,z
-x,-y,-z
loop_
_atom_site_type_symbol
_atom_site_label
_atom_site_fract_x
_atom_site_fract_y
_atom_site_fract_z
Si Si1 0.369170 0.732820 0.793328
Si Si2 0.816104 0.463456 0.490024
Si Si3 0.022758 0.879701 0.678362
Si Si4 0.691025 0.895709 0.066699
Si Si5 0.194015 0.844566 0.987269
Si Si6 0.425326 0.349763 0.226676
Si Si7 0.539108 0.695166 0.330726
Si Si8 0.662108 0.496683 0.933286
O O1 0.292103 0.666366 0.659690
O O2 0.183525 0.688205 0.886296
O O3 0.376900 0.604959 0.769825
O O4 0.635445 0.988794 0.871780
O O5 0.584760 0.312003 0.546812
O O6 0.000000 0.500000 0.500000
O O7 0.969521 0.698751 0.562685
O O8 0.767967 0.766572 0.689565
O O9 0.116511 0.964162 0.817166
O O10 0.204063 0.064027 0.644160
O O11 0.430148 0.682602 0.073016
O O12 0.695736 0.026929 0.080727
O O13 0.725113 0.808099 0.921253
O O14 0.937032 0.721544 0.013323
O O15 0.576460 0.583009 0.292578
O O16 0.346672 0.553313 0.212734
O O17 0.500000 0.500000 0.000000
#
# Coordination Sequence:
#
# PCOD8001644 Si02
#       8
#     2   2   2   2   2   2   2   2
#     4  10  23  41  65  85 121 169 199 248 311 363
#     4  11  23  44  63  83 120 163 207 252 299 358
#     4  10  22  35  60  92 122 157 204 248 292 361
#     4  10  20  33  62  93 120 160 197 249 307 348
#     4  10  22  42  60  92 125 155 204 253 305 363
#     4  10  20  36  59  84 126 158 198 248 305 352
#     4  10  22  37  59  96 121 157 207 244 299 359
#     4  11  21  34  64  95 124 153 201 254 300 352
#
# _framework density 20.694295
#
# number of rings (size 3 to 8) (size 9 to 14) (size 15 to 20)
#    0.000    1.750    1.250    3.375    7.000    2.500 
#    0.000   13.125    0.000    0.000    0.000    0.000 
#    0.000    0.000    0.000    0.000    0.000    0.000 
#
# Total GULP energy -198307.996218 kJ/mol
# GULP energy per Si atom -12394.249764 kJ/mol
# Density = 2.064719 g / cm^3
# Si number density = 20.694295 Si / 1000 Ang^3
#
#
#
# Elastic Constant Matrix: (Units=GPa)
#
#
# Indices 1 2 3 4 5 6 
#
# 1 138.2210 65.0701 56.0222 1.0125 -13.2749 0.8129
# 2 65.0701 130.6508 43.5830 0.8291 -2.2011 -4.5955
# 3 56.0222 43.5830 120.0715 2.3765 2.0055 2.1788
# 4 1.0125 0.8291 2.3765 18.1217 0.5087 -0.5239
# 5 -13.2749 -2.2011 2.0055 0.5087 31.7080 4.4989
# 6 0.8129 -4.5955 2.1788 -0.5239 4.4989 26.8068
#
#
#
# Elastic Compliance Matrix: (Units=1/GPa)
#
#
# Indices 1 2 3 4 5 6 
#
# 1 0.011271 -0.004342 -0.003733 -0.000125 0.004883 -0.001605
# 2 -0.004342 0.010474 -0.001798 0.000102 -0.001304 0.002294
# 3 -0.003733 -0.001798 0.010795 -0.001082 -0.002251 -0.000716
# 4 -0.000125 0.000102 -0.001082 0.055396 -0.001060 0.001370
# 5 0.004883 -0.001304 -0.002251 -0.001060 0.034502 -0.006000
# 6 -0.001605 0.002294 -0.000716 0.001370 -0.006000 0.038838
#
#
# Mechanical properties :
#
#
# Convention : Reuss Voigt Hill
#
# Bulk Modulus (GPa) = 78.15645 79.81043 78.98344
# Shear Modulus (GPa) = 26.98531 30.27849 28.63190
#
# Velocity S-wave (km/s) = 3.61501 3.82924 3.72367
# Velocity P-wave (km/s) = 7.43462 7.62895 7.53241
#
# Compressibility (1/GPa) = 0.01279485
#
# Stress axis : x y z
#
# Youngs Moduli (GPa) = 88.72350 95.47262 92.63841
#
# Poissons Ratio (x) = 0.41451 0.34580
# Poissons Ratio (y) = 0.38521 0.16657
# Poissons Ratio (z) = 0.33119 0.17166
#
# Static dielectric constant tensor:
#      x y z
#    x 3.727450 -0.149820 -0.053470 
#    y -0.149820 3.749850 0.042580 
#    z -0.053470 0.042580 3.787090 
# 
# 
# High freq. dielectric constant tensor:
#      x y z
#    x 1.806800 -0.006760 -0.006990 
#    y -0.006760 1.799280 0.003540 
#    z -0.006990 0.003540 1.807280 
# 
# From -- ./inp_files/433209.got.cif
#   From: 2010.06.25/outbox.cif.g09.slc.cpg/sg2_217_cif.got.tgz:433209.got - 2010.06.27 13:26:56.
