data_PCOD8001537
_publ_section_title
;
Structure prediction by ZEFSAII (Michael W. Deem and Ramdas Pophale) SiO2 
 PCOD8001537
Probable space group: P -1
;
_chemical_formula_sum "Si O2"
_cell_formula_units_Z 16
_cell_length_a 20.176664
_cell_length_b 20.787664
_cell_length_c 8.587572
_cell_angle_alpha 140.272254
_cell_angle_beta 49.684913
_cell_angle_gamma 159.367222
_cell_volume 767.692899
_symmetry_space_group_name_H-M "P -1"
_symmetry_group_IT_number 2
_symmetry_cell_setting 'triclinic'
loop_
_space_group_symop_operation_xyz
x,y,z
-x,-y,-z
loop_
_atom_site_type_symbol
_atom_site_label
_atom_site_fract_x
_atom_site_fract_y
_atom_site_fract_z
Si Si1 0.226525 0.769164 0.635957
Si Si2 0.005758 0.916431 0.456088
Si Si3 0.506211 0.291434 0.667783
Si Si4 0.850172 0.690274 0.689100
Si Si5 0.672912 0.449855 0.212876
Si Si6 0.705368 0.955868 0.791663
Si Si7 0.230022 0.173594 0.915972
Si Si8 0.494266 0.867724 0.363376
O O1 0.377604 0.835163 0.569604
O O2 0.000000 0.500000 0.500000
O O3 0.295660 0.877115 0.557547
O O4 0.249485 0.882301 0.934213
O O5 0.104768 0.917620 0.241169
O O6 0.775017 0.646992 0.330536
O O7 0.120208 0.069265 0.721965
O O8 0.000000 0.000000 0.500000
O O9 0.742233 0.535590 0.720936
O O10 0.442618 0.339895 0.898119
O O11 0.456499 0.167850 0.655784
O O12 0.371637 0.118807 0.406459
O O13 0.810243 0.571981 0.385407
O O14 0.741665 0.684280 0.798124
O O15 0.085060 0.956149 0.846137
O O16 0.456962 0.259845 0.245846
O O17 0.651309 0.326448 0.912769
#
# Coordination Sequence:
#
# PCOD8001537 Si02
#       8
#     2   2   2   2   2   2   2   2
#     4  10  21  41  61  79 110 141 180 230 288 329
#     4  10  20  33  54  82 112 146 186 226 263 318
#     4  10  20  35  56  79 111 142 182 227 272 322
#     4   9  18  35  54  72 111 155 180 219 269 319
#     4   9  19  37  51  78 111 143 181 223 269 320
#     4   9  20  39  57  78 109 148 177 221 282 328
#     4   9  19  35  50  77 113 150 186 222 268 316
#     4  10  22  37  58  87 106 140 187 232 274 331
#
# _framework density 20.841669
#
# number of rings (size 3 to 8) (size 9 to 14) (size 15 to 20)
#    0.000    2.500    0.000    1.125    1.750    2.000 
#   13.500    0.625    0.000    0.000    0.000    0.000 
#    0.000    0.000    0.000    0.000    0.000    0.000 
#
# Total GULP energy -198256.353902 kJ/mol
# GULP energy per Si atom -12391.022119 kJ/mol
# Density = 2.079423 g / cm^3
# Si number density = 20.841669 Si / 1000 Ang^3
#
#
#
# Elastic Constant Matrix: (Units=GPa)
#
#
# Indices 1 2 3 4 5 6 
#
# 1 70.8443 20.9232 21.0034 -3.9766 -8.5755 -10.8161
# 2 20.9232 104.4797 25.1329 10.9337 4.9866 -17.3275
# 3 21.0034 25.1329 90.6059 -7.3608 -14.0844 5.4584
# 4 -3.9766 10.9337 -7.3608 35.9781 3.3059 -11.9927
# 5 -8.5755 4.9866 -14.0844 3.3059 12.7781 1.4571
# 6 -10.8161 -17.3275 5.4584 -11.9927 1.4571 25.3504
#
#
#
# Elastic Compliance Matrix: (Units=1/GPa)
#
#
# Indices 1 2 3 4 5 6 
#
# 1 0.018037 -0.002621 -0.002239 0.004150 0.008690 0.007850
# 2 -0.002621 0.014193 -0.006412 -0.001066 -0.015268 0.010337
# 3 -0.002239 -0.006412 0.017245 -0.000173 0.021233 -0.010354
# 4 0.004150 -0.001066 -0.000173 0.035398 -0.008234 0.018298
# 5 0.008690 -0.015268 0.021233 -0.008234 0.118089 -0.021983
# 6 0.007850 0.010337 -0.010354 0.018298 -0.021983 0.062011
#
#
# Mechanical properties :
#
#
# Convention : Reuss Voigt Hill
#
# Bulk Modulus (GPa) = 37.13222 44.44986 40.79104
# Shear Modulus (GPa) = 16.86374 28.07936 22.47155
#
# Velocity S-wave (km/s) = 2.84762 3.67450 3.28716
# Velocity P-wave (km/s) = 5.35415 6.27505 5.83280
#
# Compressibility (1/GPa) = 0.02693079
#
# Stress axis : x y z
#
# Youngs Moduli (GPa) = 55.44265 70.45638 57.98855
#
# Poissons Ratio (x) = 0.18464 0.12984
# Poissons Ratio (y) = 0.14529 0.37184
# Poissons Ratio (z) = 0.12414 0.45179
#
# Static dielectric constant tensor:
#      x y z
#    x 3.220580 -0.132950 -0.130370 
#    y -0.132950 4.221440 -0.122830 
#    z -0.130370 -0.122830 3.952950 
# 
# 
# High freq. dielectric constant tensor:
#      x y z
#    x 1.760580 -0.013650 -0.011690 
#    y -0.013650 1.843090 -0.004680 
#    z -0.011690 -0.004680 1.820300 
# 
# From -- ./inp_files/200637.got.cif
#   From: 2010.06.25/outbox.cif.g09.slc.cpg/sg2_101_cif.got.tgz:200637.got - 2010.06.27 13:26:56.
