data_PCOD8001161
_publ_section_title
;
Structure prediction by ZEFSAII (Michael W. Deem and Ramdas Pophale) SiO2 
 PCOD8001161
Probable space group: P -1
;
_chemical_formula_sum "Si O2"
_cell_formula_units_Z 16
_cell_length_a 15.592143
_cell_length_b 11.794551
_cell_length_c 7.817204
_cell_angle_alpha 83.508121
_cell_angle_beta 86.911185
_cell_angle_gamma 27.691455
_cell_volume 660.448985
_symmetry_space_group_name_H-M "P -1"
_symmetry_group_IT_number 2
_symmetry_cell_setting 'triclinic'
loop_
_space_group_symop_operation_xyz
x,y,z
-x,-y,-z
loop_
_atom_site_type_symbol
_atom_site_label
_atom_site_fract_x
_atom_site_fract_y
_atom_site_fract_z
Si Si1 0.082614 0.025732 0.956985
Si Si2 0.192350 0.482733 0.268969
Si Si3 0.673515 0.203425 0.335169
Si Si4 0.126647 0.319480 0.171459
Si Si5 0.833331 0.536934 0.353377
Si Si6 0.400629 0.963654 0.633342
Si Si7 0.343466 0.746299 0.292146
Si Si8 0.501356 0.797698 0.265032
O O1 0.920809 0.305989 0.885897
O O2 0.215937 0.856510 0.808312
O O3 0.189426 0.941777 0.129482
O O4 0.000000 0.000000 0.000000
O O5 0.142359 0.567132 0.459064
O O6 0.409122 0.246802 0.244308
O O7 0.140480 0.412171 0.273450
O O8 0.693125 0.047130 0.310520
O O9 0.456015 0.495724 0.299280
O O10 0.751311 0.138263 0.529086
O O11 0.034984 0.321338 0.285547
O O12 0.328729 0.043616 0.124563
O O13 0.000000 0.500000 0.000000
O O14 0.740455 0.769979 0.351641
O O15 0.701261 0.616605 0.225738
O O16 0.451099 0.908655 0.437652
O O17 0.500267 0.661954 0.282121
#
# Coordination Sequence:
#
# PCOD8001161 Si02
#       8
#     2   2   2   2   2   2   2   2
#     4  12  26  44  66 102 139 174 231 287 339 409
#     4  11  22  41  65  97 128 170 224 278 338 400
#     4  10  23  44  73  94 131 184 228 279 349 403
#     4  12  24  38  59  98 138 171 219 277 336 400
#     4  11  22  41  70  95 131 182 224 271 342 405
#     4  10  19  41  72  93 127 175 227 275 331 412
#     4  10  23  45  68  99 134 178 230 281 341 407
#     4  10  21  41  63  98 136 168 223 279 329 406
#
# _framework density 24.225943999999998
#
# number of rings (size 3 to 8) (size 9 to 14) (size 15 to 20)
#    0.000    1.250    2.500    3.750    3.500    2.000 
#    6.750    0.000    0.000    0.000    0.000    0.000 
#    0.000    0.000    0.000    0.000    0.000    0.000 
#
# Total GULP energy -198397.376136 kJ/mol
# GULP energy per Si atom -12399.836008 kJ/mol
# Density = 2.417081 g / cm^3
# Si number density = 24.225944 Si / 1000 Ang^3
#
#
#
# Elastic Constant Matrix: (Units=GPa)
#
#
# Indices 1 2 3 4 5 6 
#
# 1 142.3923 21.5178 42.5802 1.6139 -2.8443 -16.0431
# 2 21.5178 47.8680 37.6143 -14.6157 2.4913 -5.2663
# 3 42.5802 37.6143 132.3872 -22.9875 -0.1295 -8.8107
# 4 1.6139 -14.6157 -22.9875 38.4066 -1.9956 -6.4803
# 5 -2.8443 2.4913 -0.1295 -1.9956 37.0093 -2.8115
# 6 -16.0431 -5.2663 -8.8107 -6.4803 -2.8115 35.3206
#
#
#
# Elastic Compliance Matrix: (Units=1/GPa)
#
#
# Indices 1 2 3 4 5 6 
#
# 1 0.008382 -0.002453 -0.002195 -0.002119 0.000883 0.002575
# 2 -0.002453 0.029656 -0.005990 0.008267 -0.001516 0.003210
# 3 -0.002195 -0.005990 0.010885 0.004654 0.000655 0.001732
# 4 -0.002119 0.008267 0.004654 0.033445 0.001685 0.007702
# 5 0.000883 -0.001516 0.000655 0.001685 0.027499 0.002837
# 6 0.002575 0.003210 0.001732 0.007702 0.002837 0.032031
#
#
# Mechanical properties :
#
#
# Convention : Reuss Voigt Hill
#
# Bulk Modulus (GPa) = 36.16758 58.45244 47.31001
# Shear Modulus (GPa) = 29.00442 36.87633 32.94037
#
# Velocity S-wave (km/s) = 3.46388 3.90575 3.69143
# Velocity P-wave (km/s) = 5.56414 6.67235 6.14328
#
# Compressibility (1/GPa) = 0.02764907
#
# Stress axis : x y z
#
# Youngs Moduli (GPa) = 119.30944 33.72004 91.86760
#
# Poissons Ratio (x) = 0.08271 0.20160
# Poissons Ratio (y) = 0.29264 0.55025
# Poissons Ratio (z) = 0.26183 0.20197
#
# Static dielectric constant tensor:
#      x y z
#    x 4.370330 0.079550 -0.179490 
#    y 0.079550 3.968520 0.063020 
#    z -0.179490 0.063020 4.184540 
# 
# 
# High freq. dielectric constant tensor:
#      x y z
#    x 1.965310 -0.000400 0.002990 
#    y -0.000400 1.952430 -0.023190 
#    z 0.002990 -0.023190 1.958250 
# 
# From -- ./inp_files/307332.got.cif
#   From: 2010.06.25/outbox.cif.g09.slc.cpg/sg2_154_cif.got.tgz:307332.got - 2010.06.27 13:26:56.
