data_PCOD8001234
_publ_section_title
;
Structure prediction by ZEFSAII (Michael W. Deem and Ramdas Pophale) SiO2 
 PCOD8001234
Probable space group: P -1
;
_chemical_formula_sum "Si O2"
_cell_formula_units_Z 16
_cell_length_a 20.390155
_cell_length_b 23.015610
_cell_length_c 11.852235
_cell_angle_alpha 154.669198
_cell_angle_beta 152.028401
_cell_angle_gamma 18.505194
_cell_volume 741.264989
_symmetry_space_group_name_H-M "P -1"
_symmetry_group_IT_number 2
_symmetry_cell_setting 'triclinic'
loop_
_space_group_symop_operation_xyz
x,y,z
-x,-y,-z
loop_
_atom_site_type_symbol
_atom_site_label
_atom_site_fract_x
_atom_site_fract_y
_atom_site_fract_z
Si Si1 0.810261 0.336431 0.790523
Si Si2 0.040438 0.873945 0.018965
Si Si3 0.902253 0.743759 0.423548
Si Si4 0.640691 0.593912 0.560876
Si Si5 0.661035 0.661830 0.966711
Si Si6 0.328083 0.892601 0.418707
Si Si7 0.562997 0.539601 0.990300
Si Si8 0.791303 0.054370 0.180366
O O1 0.784880 0.446619 0.834684
O O2 0.653868 0.509571 0.952351
O O3 0.744811 0.228043 0.480817
O O4 0.053934 0.158787 0.889292
O O5 0.906042 0.875934 0.737313
O O6 0.114232 0.959595 0.223891
O O7 0.249023 0.642032 0.962352
O O8 0.894260 0.019190 0.156709
O O9 0.130162 0.531859 0.356101
O O10 0.750771 0.896529 0.356528
O O11 0.802348 0.692717 0.252048
O O12 0.617213 0.665756 0.776621
O O13 0.463352 0.794608 0.566776
O O14 0.611595 0.452385 0.266135
O O15 0.434330 0.853458 0.016919
O O16 0.462598 0.743435 0.253783
#
# Coordination Sequence:
#
# PCOD8001234 Si02
#       8
#     2   2   2   2   2   2   2   2
#     4  10  23  42  68  94 124 161 211 262 306 366
#     4  10  21  41  66  95 126 155 217 263 303 368
#     4  12  26  40  61  96 127 171 207 249 316 376
#     4  11  23  43  64  92 127 159 212 265 307 367
#     4  12  27  41  62  94 132 170 201 250 318 381
#     4  11  23  40  70  92 121 166 212 267 306 354
#     4  10  19  42  70  93 118 160 213 268 309 349
#     4  10  23  42  66  96 122 164 210 257 310 369
#
# _framework density 21.584724000000001
#
# number of rings (size 3 to 8) (size 9 to 14) (size 15 to 20)
#    0.000    1.250    3.750    1.875    5.250    2.000 
#    0.000    1.250    0.000    0.000    0.000    0.000 
#    0.000    0.000    0.000    0.000    0.000    0.000 
#
# Total GULP energy -198447.282154 kJ/mol
# GULP energy per Si atom -12402.955135 kJ/mol
# Density = 2.153560 g / cm^3
# Si number density = 21.584724 Si / 1000 Ang^3
#
#
#
# Elastic Constant Matrix: (Units=GPa)
#
#
# Indices 1 2 3 4 5 6 
#
# 1 101.4390 54.9492 41.4886 -0.6914 2.2161 -0.1972
# 2 54.9492 115.3872 36.5877 -8.7615 20.2382 -5.1068
# 3 41.4886 36.5877 45.7121 -7.1461 13.8937 3.2852
# 4 -0.6914 -8.7615 -7.1461 13.9704 -5.4789 2.6004
# 5 2.2161 20.2382 13.8937 -5.4789 36.3789 -2.3447
# 6 -0.1972 -5.1068 3.2852 2.6004 -2.3447 38.4685
#
#
#
# Elastic Compliance Matrix: (Units=1/GPa)
#
#
# Indices 1 2 3 4 5 6 
#
# 1 0.019793 -0.005928 -0.016973 -0.008873 0.007355 0.001812
# 2 -0.005928 0.013957 -0.003632 0.004248 -0.005278 0.001524
# 3 -0.016973 -0.003632 0.047250 0.017244 -0.012816 -0.006551
# 4 -0.008873 0.004248 0.017244 0.085416 0.004038 -0.006482
# 5 0.007355 -0.005278 -0.012816 0.004038 0.035630 0.002330
# 6 0.001812 0.001524 -0.006551 -0.006482 0.002330 0.027346
#
#
# Mechanical properties :
#
#
# Convention : Reuss Voigt Hill
#
# Bulk Modulus (GPa) = 35.79779 58.73214 47.26496
# Shear Modulus (GPa) = 17.13688 26.39775 21.76732
#
# Velocity S-wave (km/s) = 2.82074 3.50091 3.17907
# Velocity P-wave (km/s) = 5.21820 6.60386 5.95149
#
# Compressibility (1/GPa) = 0.02793469
#
# Stress axis : x y z
#
# Youngs Moduli (GPa) = 50.52209 71.65015 21.16414
#
# Poissons Ratio (x) = 0.42471 0.35922
# Poissons Ratio (y) = 0.29947 0.07687
# Poissons Ratio (z) = 0.85750 0.26025
#
# Static dielectric constant tensor:
#      x y z
#    x 3.986500 -0.002620 -0.052430 
#    y -0.002620 4.022550 -0.194500 
#    z -0.052430 -0.194500 3.587830 
# 
# 
# High freq. dielectric constant tensor:
#      x y z
#    x 1.854540 -0.001590 -0.009110 
#    y -0.001590 1.863620 -0.008860 
#    z -0.009110 -0.008860 1.812870 
# 
# From -- ./inp_files/427637.got.cif
#   From: 2010.06.25/outbox.cif.g09.slc.cpg/sg2_214_cif.got.tgz:427637.got - 2010.06.27 13:26:56.
