data_PCOD8001566
_publ_section_title
;
Structure prediction by ZEFSAII (Michael W. Deem and Ramdas Pophale) SiO2 
 PCOD8001566
Probable space group: P -1
;
_chemical_formula_sum "Si O2"
_cell_formula_units_Z 14
_cell_length_a 12.256769
_cell_length_b 14.180443
_cell_length_c 5.213346
_cell_angle_alpha 94.876119
_cell_angle_beta 90.983826
_cell_angle_gamma 48.908697
_cell_volume 679.528314
_symmetry_space_group_name_H-M "P -1"
_symmetry_group_IT_number 2
_symmetry_cell_setting 'triclinic'
loop_
_space_group_symop_operation_xyz
x,y,z
-x,-y,-z
loop_
_atom_site_type_symbol
_atom_site_label
_atom_site_fract_x
_atom_site_fract_y
_atom_site_fract_z
Si Si1 0.958615 0.811130 0.410948
Si Si2 0.415776 0.778719 0.158029
Si Si3 0.252285 0.687816 0.096048
Si Si4 0.913714 0.453804 0.523401
Si Si5 0.274471 0.465395 0.971680
Si Si6 0.270214 0.930133 0.663418
Si Si7 0.931267 0.105378 0.233946
O O1 0.107166 0.759367 0.273318
O O2 0.966397 0.696764 0.458241
O O3 0.947060 0.889393 0.670461
O O4 0.810096 0.920836 0.275841
O O5 0.363564 0.702213 0.214850
O O6 0.387097 0.862528 0.422418
O O7 0.587599 0.680077 0.095867
O O8 0.340004 0.864659 0.923412
O O9 0.328580 0.542052 0.041257
O O10 0.203130 0.753407 0.833317
O O11 0.811328 0.523791 0.782063
O O12 0.000000 0.500000 0.500000
O O13 0.174590 0.520709 0.729152
O O14 0.143466 0.925598 0.576190
O O15 0.000000 0.000000 0.000000
#
# Coordination Sequence:
#
# PCOD8001566 Si02
#       7
#     2   2   2   2   2   2   2
#     4  11  20  36  57  89 123 153 206 251 293 335
#     4  11  23  36  56  88 129 168 191 221 294 380
#     4  10  20  33  55  88 124 164 197 235 290 356
#     4  11  25  44  69  88 109 152 209 269 307 331
#     4  11  23  42  62  86 123 155 201 248 298 360
#     4  11  22  33  56  87 129 163 194 231 289 361
#     4  11  18  31  51  86 128 158 187 235 292 350
#
# _framework density 20.602525
#
# number of rings (size 3 to 8) (size 9 to 14) (size 15 to 20)
#    0.000    1.143    4.286    3.857    0.000    0.000 
#    0.000    4.286    0.000    5.143    0.000    0.000 
#    0.000    0.000    0.000    0.000    0.000    0.000 
#
# Total GULP energy -173497.835808 kJ/mol
# GULP energy per Si atom -12392.702558 kJ/mol
# Density = 2.055563 g / cm^3
# Si number density = 20.602525 Si / 1000 Ang^3
#
#
#
# Elastic Constant Matrix: (Units=GPa)
#
#
# Indices 1 2 3 4 5 6 
#
# 1 69.7072 55.1543 29.7099 -2.5965 -14.5861 13.5816
# 2 55.1543 127.6019 36.7645 1.9998 -13.5499 7.5947
# 3 29.7099 36.7645 104.4120 7.0563 -20.6631 1.7046
# 4 -2.5965 1.9998 7.0563 27.9716 -4.2690 -6.8698
# 5 -14.5861 -13.5499 -20.6631 -4.2690 22.8726 0.4301
# 6 13.5816 7.5947 1.7046 -6.8698 0.4301 25.2952
#
#
#
# Elastic Compliance Matrix: (Units=1/GPa)
#
#
# Indices 1 2 3 4 5 6 
#
# 1 0.027180 -0.009342 -0.002397 0.002651 0.010336 -0.011083
# 2 -0.009342 0.012263 -0.001693 -0.001101 -0.000450 0.001157
# 3 -0.002397 -0.001693 0.012674 -0.001926 0.008553 0.000273
# 4 0.002651 -0.001101 -0.001926 0.039967 0.006574 0.009780
# 5 0.010336 -0.000450 0.008553 0.006574 0.059098 -0.005211
# 6 -0.011083 0.001157 0.000273 0.009780 -0.005211 0.047863
#
#
# Mechanical properties :
#
#
# Convention : Reuss Voigt Hill
#
# Bulk Modulus (GPa) = 39.59948 60.55317 50.07632
# Shear Modulus (GPa) = 21.33770 27.23403 24.28586
#
# Velocity S-wave (km/s) = 3.22170 3.63971 3.43706
# Velocity P-wave (km/s) = 5.75339 6.86427 6.33324
#
# Compressibility (1/GPa) = 0.02525286
#
# Stress axis : x y z
#
# Youngs Moduli (GPa) = 36.79182 81.54413 78.90022
#
# Poissons Ratio (x) = 0.76177 0.18914
# Poissons Ratio (y) = 0.34370 0.13360
# Poissons Ratio (z) = 0.08820 0.13808
#
# Static dielectric constant tensor:
#      x y z
#    x 3.433920 0.053040 -0.147140 
#    y 0.053040 4.043450 -0.033580 
#    z -0.147140 -0.033580 3.812350 
# 
# 
# High freq. dielectric constant tensor:
#      x y z
#    x 1.748010 -0.002180 -0.016880 
#    y -0.002180 1.823110 -0.003520 
#    z -0.016880 -0.003520 1.813250 
# 
# From -- ./inp_files/74830.got.cif
#   From: 2010.06.25/outbox.cif.g09.slc.cpg/sg2_38_cif.got.tgz:74830.got - 2010.06.27 13:26:56.
