data_PCOD8001496
_publ_section_title
;
Structure prediction by ZEFSAII (Michael W. Deem and Ramdas Pophale) SiO2 
 PCOD8001496
Probable space group: P -1
;
_chemical_formula_sum "Si O2"
_cell_formula_units_Z 16
_cell_length_a 20.319479
_cell_length_b 29.514035
_cell_length_c 14.697296
_cell_angle_alpha 158.175421
_cell_angle_beta 162.482909
_cell_angle_gamma 20.363964
_cell_volume 872.278554
_symmetry_space_group_name_H-M "P -1"
_symmetry_group_IT_number 2
_symmetry_cell_setting 'triclinic'
loop_
_space_group_symop_operation_xyz
x,y,z
-x,-y,-z
loop_
_atom_site_type_symbol
_atom_site_label
_atom_site_fract_x
_atom_site_fract_y
_atom_site_fract_z
Si Si1 0.237597 0.210259 0.513964
Si Si2 0.099977 0.630276 0.190474
Si Si3 0.986460 0.495440 0.624698
Si Si4 0.367831 0.371414 0.745211
Si Si5 0.439718 0.333307 0.156945
Si Si6 0.523632 0.090532 0.493981
Si Si7 0.884879 0.198721 0.163416
Si Si8 0.771948 0.789199 0.212911
O O1 0.035241 0.350847 0.462650
O O2 0.401947 0.098390 0.447078
O O3 0.096955 0.143758 0.263120
O O4 0.414763 0.244983 0.876251
O O5 0.255737 0.494138 0.201117
O O6 0.276818 0.696918 0.521076
O O7 0.865247 0.737499 0.138476
O O8 0.985784 0.600830 0.895117
O O9 0.197033 0.475287 0.791351
O O10 0.721050 0.563607 0.350593
O O11 0.352215 0.226155 0.461135
O O12 0.649872 0.338857 0.077077
O O13 0.366451 0.291449 0.078002
O O14 0.570975 0.950854 0.246065
O O15 0.792294 0.085934 0.854233
O O16 0.988280 0.238324 0.462502
#
# Coordination Sequence:
#
# PCOD8001496 Si02
#       8
#     2   2   2   2   2   2   2   2
#     4   9  17  32  51  77 100 127 163 206 248 288
#     4  10  20  33  52  71 101 134 163 197 251 290
#     4   9  17  35  54  71  99 132 163 209 244 286
#     4   8  18  34  53  75  96 128 167 205 250 279
#     4   9  20  32  49  75 101 130 163 205 240 296
#     4   9  19  32  49  73 106 129 161 203 245 291
#     4   9  19  30  51  79  99 126 162 204 248 294
#     4  11  20  32  50  77 104 132 160 198 247 300
#
# _framework density 18.342765
#
# number of rings (size 3 to 8) (size 9 to 14) (size 15 to 20)
#    0.750    2.000    0.000    1.500    3.500    3.500 
#    0.000    0.625    0.000    0.750    0.000    0.000 
#    0.000    0.000    0.000    0.000    0.000    0.000 
#
# Total GULP energy -198313.351589 kJ/mol
# GULP energy per Si atom -12394.584474 kJ/mol
# Density = 1.830102 g / cm^3
# Si number density = 18.342765 Si / 1000 Ang^3
#
#
#
# Elastic Constant Matrix: (Units=GPa)
#
#
# Indices 1 2 3 4 5 6 
#
# 1 106.8539 28.7509 36.9891 8.6126 -3.6841 -22.3558
# 2 28.7509 59.8913 14.8731 2.1064 -15.5969 -15.9335
# 3 36.9891 14.8731 42.6733 10.5773 5.2089 -8.4877
# 4 8.6126 2.1064 10.5773 18.6931 0.4351 -9.7268
# 5 -3.6841 -15.5969 5.2089 0.4351 31.6621 0.0439
# 6 -22.3558 -15.9335 -8.4877 -9.7268 0.0439 26.4485
#
#
#
# Elastic Compliance Matrix: (Units=1/GPa)
#
#
# Indices 1 2 3 4 5 6 
#
# 1 0.016195 -0.000729 -0.013496 0.005948 0.003648 0.011100
# 2 -0.000729 0.027624 -0.010321 0.011520 0.015039 0.016925
# 3 -0.013496 -0.010321 0.043758 -0.023393 -0.013515 -0.012163
# 4 0.005948 0.011520 -0.023393 0.080130 0.009067 0.033914
# 5 0.003648 0.015039 -0.013515 0.009067 0.041500 0.011073
# 6 0.011100 0.016925 -0.012163 0.033914 0.011073 0.065939
#
#
# Mechanical properties :
#
#
# Convention : Reuss Voigt Hill
#
# Bulk Modulus (GPa) = 25.98325 41.18275 33.58300
# Shear Modulus (GPa) = 14.83396 23.94777 19.39087
#
# Velocity S-wave (km/s) = 2.84687 3.61719 3.25490
# Velocity P-wave (km/s) = 5.00023 6.32028 5.69861
#
# Compressibility (1/GPa) = 0.03848633
#
# Stress axis : x y z
#
# Youngs Moduli (GPa) = 61.74659 36.20053 22.85311
#
# Poissons Ratio (x) = 0.02639 0.30842
# Poissons Ratio (y) = 0.04502 0.23586
# Poissons Ratio (z) = 0.83331 0.37361
#
# Static dielectric constant tensor:
#      x y z
#    x 3.344370 -0.004550 0.114240 
#    y -0.004550 3.220770 0.011680 
#    z 0.114240 0.011680 3.120400 
# 
# 
# High freq. dielectric constant tensor:
#      x y z
#    x 1.711640 -0.008250 0.012880 
#    y -0.008250 1.699540 0.005670 
#    z 0.012880 0.005670 1.680620 
# 
# From -- ./inp_files/436020.got.cif
#   From: 2010.06.25/outbox.cif.g09.slc.cpg/sg2_219_cif.got.tgz:436020.got - 2010.06.27 13:26:56.
