data_PCOD8001825
_publ_section_title
;
Structure prediction by ZEFSAII (Michael W. Deem and Ramdas Pophale) SiO2 
 PCOD8001825
Probable space group: P -1
;
_chemical_formula_sum "Si O2"
_cell_formula_units_Z 16
_cell_length_a 14.602075
_cell_length_b 13.931622
_cell_length_c 11.614261
_cell_angle_alpha 53.945577
_cell_angle_beta 44.229007
_cell_angle_gamma 29.762448
_cell_volume 814.264587
_symmetry_space_group_name_H-M "P -1"
_symmetry_group_IT_number 2
_symmetry_cell_setting 'triclinic'
loop_
_space_group_symop_operation_xyz
x,y,z
-x,-y,-z
loop_
_atom_site_type_symbol
_atom_site_label
_atom_site_fract_x
_atom_site_fract_y
_atom_site_fract_z
Si Si1 0.882377 0.188476 0.400403
Si Si2 0.449186 0.687222 0.260955
Si Si3 0.188520 0.769783 0.997462
Si Si4 0.920129 0.291621 0.076147
Si Si5 0.419207 0.957130 0.187651
Si Si6 0.851250 0.640371 0.140443
Si Si7 0.962543 0.340478 0.382565
Si Si8 0.661372 0.415346 0.760502
O O1 0.632683 0.329758 0.542150
O O2 0.948846 0.153389 0.230187
O O3 0.915166 0.297000 0.342761
O O4 0.000000 0.000000 0.500000
O O5 0.704912 0.511539 0.157847
O O6 0.357704 0.887154 0.212832
O O7 0.357424 0.690176 0.225657
O O8 0.222398 0.699772 0.144611
O O9 0.104646 0.725148 0.022444
O O10 0.424237 0.643930 0.828900
O O11 0.000000 0.000000 0.000000
O O12 0.115712 0.244374 0.940565
O O13 0.603211 0.793585 0.228190
O O14 0.217225 0.143652 0.314883
O O15 0.500000 0.000000 0.000000
O O16 0.911657 0.514845 0.282982
O O17 0.000000 0.500000 0.000000
O O18 0.817754 0.401216 0.575494
#
# Coordination Sequence:
#
# PCOD8001825 Si02
#       8
#     2   2   2   2   2   2   2   2
#     4  11  20  31  54  91 121 146 189 242 304 370
#     4  10  20  34  57  84 122 152 190 243 306 360
#     4  10  23  41  66  86 116 157 204 258 306 348
#     4  11  22  39  57  85 121 159 197 246 303 353
#     4  12  21  33  56  89 125 167 196 228 300 370
#     4  12  22  38  56  84 129 162 198 235 288 367
#     4  11  22  38  59  87 126 160 195 247 298 360
#     4   9  23  42  59  91 117 150 207 257 303 348
#
# _framework density 19.649633000000001
#
# number of rings (size 3 to 8) (size 9 to 14) (size 15 to 20)
#    0.000    1.250    5.000    0.375    3.500    3.000 
#    0.000    0.625    0.000    1.500    0.000    0.000 
#    0.000    0.000    0.000    0.000    0.000    0.000 
#
# Total GULP energy -198302.284115 kJ/mol
# GULP energy per Si atom -12393.892757 kJ/mol
# Density = 1.960491 g / cm^3
# Si number density = 19.649633 Si / 1000 Ang^3
#
#
#
# Elastic Constant Matrix: (Units=GPa)
#
#
# Indices 1 2 3 4 5 6 
#
# 1 91.6841 36.7190 56.9226 -9.9771 -1.0594 -7.9194
# 2 36.7190 128.5577 60.1898 2.9182 4.3916 -8.5237
# 3 56.9226 60.1898 138.8744 -0.6420 -3.0409 -1.8814
# 4 -9.9771 2.9182 -0.6420 34.5007 -2.8215 -4.4424
# 5 -1.0594 4.3916 -3.0409 -2.8215 24.7639 -5.1868
# 6 -7.9194 -8.5237 -1.8814 -4.4424 -5.1868 21.5447
#
#
#
# Elastic Compliance Matrix: (Units=1/GPa)
#
#
# Indices 1 2 3 4 5 6 
#
# 1 0.016455 -0.001750 -0.005818 0.005843 0.002352 0.006619
# 2 -0.001750 0.010294 -0.003763 -0.001310 -0.002021 0.002344
# 3 -0.005818 -0.003763 0.011197 -0.001414 0.001070 -0.002683
# 4 0.005843 -0.001310 -0.001414 0.032496 0.006034 0.009659
# 5 0.002352 -0.002021 0.001070 0.006034 0.044181 0.012039
# 6 0.006619 0.002344 -0.002683 0.009659 0.012039 0.054431
#
#
# Mechanical properties :
#
#
# Convention : Reuss Voigt Hill
#
# Bulk Modulus (GPa) = 65.42688 74.08656 69.75672
# Shear Modulus (GPa) = 25.40510 29.84754 27.62632
#
# Velocity S-wave (km/s) = 3.59960 3.90165 3.75366
# Velocity P-wave (km/s) = 7.11654 7.62121 7.37319
#
# Compressibility (1/GPa) = 0.01528424
#
# Stress axis : x y z
#
# Youngs Moduli (GPa) = 60.77301 97.13962 89.31078
#
# Poissons Ratio (x) = 0.17000 0.51960
# Poissons Ratio (y) = 0.10636 0.33607
# Poissons Ratio (z) = 0.35357 0.36553
#
# Static dielectric constant tensor:
#      x y z
#    x 3.585430 -0.162780 -0.167350 
#    y -0.162780 3.848380 0.124930 
#    z -0.167350 0.124930 3.870680 
# 
# 
# High freq. dielectric constant tensor:
#      x y z
#    x 1.743820 -0.017240 -0.017000 
#    y -0.017240 1.774010 0.005140 
#    z -0.017000 0.005140 1.764780 
# 
# From -- ./inp_files/454611.got.cif
#   From: 2010.06.25/outbox.cif.g09.slc.cpg/sg2_228_cif.got.tgz:454611.got - 2010.06.27 13:26:56.
