data_PCOD8001014
_publ_section_title
;
Structure prediction by ZEFSAII (Michael W. Deem and Ramdas Pophale) SiO2 
 PCOD8001014
Probable space group: P -1
;
_chemical_formula_sum "Si O2"
_cell_formula_units_Z 16
_cell_length_a 10.840913
_cell_length_b 18.855741
_cell_length_c 9.400202
_cell_angle_alpha 30.446915
_cell_angle_beta 132.612930
_cell_angle_gamma 127.633388
_cell_volume 714.729034
_symmetry_space_group_name_H-M "P -1"
_symmetry_group_IT_number 2
_symmetry_cell_setting 'triclinic'
loop_
_space_group_symop_operation_xyz
x,y,z
-x,-y,-z
loop_
_atom_site_type_symbol
_atom_site_label
_atom_site_fract_x
_atom_site_fract_y
_atom_site_fract_z
Si Si1 0.522002 0.866859 0.841930
Si Si2 0.658857 0.597578 0.799127
Si Si3 0.781098 0.674438 0.338731
Si Si4 0.862615 0.609047 0.198103
Si Si5 0.066428 0.850337 0.779363
Si Si6 0.451593 0.862559 0.112471
Si Si7 0.656191 0.427436 0.838235
Si Si8 0.000247 0.678636 0.760286
O O1 0.500000 0.000000 0.500000
O O2 0.703314 0.823191 0.012516
O O3 0.518911 0.907569 0.932885
O O4 0.386609 0.735448 0.942573
O O5 0.542026 0.727670 0.474265
O O6 0.586674 0.463979 0.879137
O O7 0.837186 0.622159 0.817398
O O8 0.695991 0.557458 0.062567
O O9 0.817872 0.624968 0.297642
O O10 0.627079 0.561603 0.476420
O O11 0.944808 0.711750 0.498911
O O12 0.000000 0.500000 0.500000
O O13 0.935428 0.750770 0.937705
O O14 0.068612 0.814480 0.673662
O O15 0.251617 0.830916 0.018188
O O16 0.000000 0.000000 0.500000
O O17 0.500000 0.000000 0.000000
O O18 0.860569 0.435944 0.950968
#
# Coordination Sequence:
#
# PCOD8001014 Si02
#       8
#     2   2   2   2   2   2   2   2
#     4  12  28  45  68 103 137 181 233 289 344 404
#     4  10  22  41  72 104 134 185 229 279 345 415
#     4  11  23  42  71 100 139 174 224 291 341 408
#     4  11  24  44  67 108 142 172 230 289 340 401
#     4  11  25  44  72  95 134 189 233 276 350 423
#     4  12  25  48  73  95 142 189 232 280 350 420
#     4  11  21  44  72  99 134 182 229 274 350 418
#     4  10  19  40  70 100 129 177 229 277 344 411
#
# _framework density 22.386104
#
# number of rings (size 3 to 8) (size 9 to 14) (size 15 to 20)
#    0.000    1.000    3.750    5.625    3.500    0.000 
#    4.500    2.500    0.000    0.000    0.000    0.000 
#    0.000    0.000    0.000    0.000    0.000    0.000 
#
# Total GULP energy -198235.962781 kJ/mol
# GULP energy per Si atom -12389.747674 kJ/mol
# Density = 2.233515 g / cm^3
# Si number density = 22.386104 Si / 1000 Ang^3
#
#
#
# Elastic Constant Matrix: (Units=GPa)
#
#
# Indices 1 2 3 4 5 6 
#
# 1 58.7740 39.7375 23.9200 -1.9798 -1.5179 -31.3345
# 2 39.7375 163.6452 57.2471 8.2001 -6.1628 -42.8125
# 3 23.9200 57.2471 149.4259 -6.7587 0.2128 -20.3970
# 4 -1.9798 8.2001 -6.7587 40.2009 -14.3280 -3.1585
# 5 -1.5179 -6.1628 0.2128 -14.3280 32.2835 0.0979
# 6 -31.3345 -42.8125 -20.3970 -3.1585 0.0979 45.5383
#
#
#
# Elastic Compliance Matrix: (Units=1/GPa)
#
#
# Indices 1 2 3 4 5 6 
#
# 1 0.028291 -0.002014 -0.001225 0.003894 0.002629 0.017289
# 2 -0.002014 0.009134 -0.002429 -0.001559 0.000955 0.006003
# 3 -0.001225 -0.002429 0.007985 0.001922 0.000277 0.000583
# 4 0.003894 -0.001559 0.001922 0.030870 0.013561 0.004187
# 5 0.002629 0.000955 0.000277 0.013561 0.037287 0.003692
# 6 0.017289 0.006003 0.000583 0.004187 0.003692 0.040043
#
#
# Mechanical properties :
#
#
# Convention : Reuss Voigt Hill
#
# Bulk Modulus (GPa) = 29.34835 68.18382 48.76608
# Shear Modulus (GPa) = 28.35975 40.33389 34.34682
#
# Velocity S-wave (km/s) = 3.56314 4.24929 3.92125
# Velocity P-wave (km/s) = 5.48329 7.38915 6.50638
#
# Compressibility (1/GPa) = 0.03407347
#
# Stress axis : x y z
#
# Youngs Moduli (GPa) = 35.34681 109.47553 125.23195
#
# Poissons Ratio (x) = 0.22053 0.15338
# Poissons Ratio (y) = 0.07120 0.30425
# Poissons Ratio (z) = 0.04329 0.26597
#
# Static dielectric constant tensor:
#      x y z
#    x 3.981160 -0.267740 0.368660 
#    y -0.267740 4.756580 0.275850 
#    z 0.368660 0.275850 4.000600 
# 
# 
# High freq. dielectric constant tensor:
#      x y z
#    x 1.886910 -0.011170 0.034570 
#    y -0.011170 1.905780 0.009970 
#    z 0.034570 0.009970 1.881210 
# 
# From -- ./inp_files/278703.got.cif
#   From: 2010.06.25/outbox.cif.g09.slc.cpg/sg2_140_cif.got.tgz:278703.got - 2010.06.27 13:26:56.
