data_PCOD8001672
_publ_section_title
;
Structure prediction by ZEFSAII (Michael W. Deem and Ramdas Pophale) SiO2 
 PCOD8001672
Probable space group: P -1
;
_chemical_formula_sum "Si O2"
_cell_formula_units_Z 14
_cell_length_a 26.390721
_cell_length_b 26.475515
_cell_length_c 17.071476
_cell_angle_alpha 159.962253
_cell_angle_beta 19.697496
_cell_angle_gamma 169.403275
_cell_volume 720.115810
_symmetry_space_group_name_H-M "P -1"
_symmetry_group_IT_number 2
_symmetry_cell_setting 'triclinic'
loop_
_space_group_symop_operation_xyz
x,y,z
-x,-y,-z
loop_
_atom_site_type_symbol
_atom_site_label
_atom_site_fract_x
_atom_site_fract_y
_atom_site_fract_z
Si Si1 0.024389 0.176428 0.180968
Si Si2 0.612840 0.218149 0.096190
Si Si3 0.239052 0.193525 0.755508
Si Si4 0.885104 0.297216 0.030214
Si Si5 0.738600 0.645168 0.584988
Si Si6 0.206058 0.282442 0.569382
Si Si7 0.477601 0.755468 0.444758
O O1 0.305276 0.491051 0.261794
O O2 0.059843 0.170936 0.029088
O O3 0.737738 0.027225 0.405105
O O4 0.000000 0.000000 0.000000
O O5 0.668281 0.412680 0.346482
O O6 0.919238 0.438651 0.928818
O O7 0.500000 0.000000 0.000000
O O8 0.348700 0.008321 0.113847
O O9 0.465934 0.477168 0.786261
O O10 0.403829 0.217437 0.608342
O O11 0.032312 0.922517 0.607370
O O12 0.721792 0.270032 0.286538
O O13 0.105639 0.368120 0.854090
O O14 0.763062 0.730531 0.586662
O O15 0.500000 0.500000 0.500000
O O16 0.000000 0.000000 0.500000
#
# Coordination Sequence:
#
# PCOD8001672 Si02
#       7
#     2   2   2   2   2   2   2
#     4  10  20  34  52  79 116 157 188 216 256 313
#     4  11  22  35  50  80 120 149 173 216 269 339
#     4  11  20  35  55  83 118 151 184 224 264 326
#     4  11  23  37  56  82 108 148 190 223 276 335
#     4  11  22  36  56  83 109 148 190 224 278 333
#     4  11  23  42  60  79 107 140 188 246 286 331
#     4  11  21  35  54  82 118 153 184 219 262 325
#
# _framework density 19.441319
#
# number of rings (size 3 to 8) (size 9 to 14) (size 15 to 20)
#    0.000    1.143    0.000   10.714    0.000    4.571 
#    0.000    0.000    0.000    0.000    0.000   20.000 
#    0.000    0.000    0.000    0.000    0.000    0.000 
#
# Total GULP energy -173501.422576 kJ/mol
# GULP energy per Si atom -12392.958755 kJ/mol
# Density = 1.939707 g / cm^3
# Si number density = 19.441319 Si / 1000 Ang^3
#
#
#
# Elastic Constant Matrix: (Units=GPa)
#
#
# Indices 1 2 3 4 5 6 
#
# 1 103.4785 59.2575 56.2228 -1.8627 17.2247 -5.8769
# 2 59.2575 150.8791 38.0265 -6.3341 7.8777 -2.2621
# 3 56.2228 38.0265 92.1738 -20.0886 11.0901 -1.6606
# 4 -1.8627 -6.3341 -20.0886 44.4110 -2.6357 13.2240
# 5 17.2247 7.8777 11.0901 -2.6357 14.3339 -0.5698
# 6 -5.8769 -2.2621 -1.6606 13.2240 -0.5698 51.6288
#
#
#
# Elastic Compliance Matrix: (Units=1/GPa)
#
#
# Indices 1 2 3 4 5 6 
#
# 1 0.020508 -0.004971 -0.009916 -0.006197 -0.015252 0.003217
# 2 -0.004971 0.008659 -0.000543 0.001021 0.001805 -0.000445
# 3 -0.009916 -0.000543 0.019150 0.008951 -0.001069 -0.002841
# 4 -0.006197 0.001021 0.008951 0.029059 0.004995 -0.007761
# 5 -0.015252 0.001805 -0.001069 0.004995 0.088767 -0.001991
# 6 0.003217 -0.000445 -0.002841 -0.007761 -0.001991 0.021590
#
#
# Mechanical properties :
#
#
# Convention : Reuss Voigt Hill
#
# Bulk Modulus (GPa) = 57.28350 72.61609 64.94980
# Shear Modulus (GPa) = 22.28055 34.94305 28.61180
#
# Velocity S-wave (km/s) = 3.38900 4.24413 3.84044
# Velocity P-wave (km/s) = 6.69646 7.83896 7.29013
#
# Compressibility (1/GPa) = 0.01745703
#
# Stress axis : x y z
#
# Youngs Moduli (GPa) = 48.76144 115.48782 52.22006
#
# Poissons Ratio (x) = 0.57408 0.51781
# Poissons Ratio (y) = 0.24239 0.02835
# Poissons Ratio (z) = 0.48352 0.06269
#
# Static dielectric constant tensor:
#      x y z
#    x 3.715140 -0.200280 0.531230 
#    y -0.200280 4.473750 -0.388700 
#    z 0.531230 -0.388700 3.650010 
# 
# 
# High freq. dielectric constant tensor:
#      x y z
#    x 1.723170 -0.001330 0.034900 
#    y -0.001330 1.799610 -0.009970 
#    z 0.034900 -0.009970 1.734530 
# 
# From -- ./inp_files/477204.got.cif
#   From: 2010.06.25/outbox.cif.g09.slc.cpg/sg2_239_cif.got.tgz:477204.got - 2010.06.27 13:26:56.
