data_PCOD8001002
_publ_section_title
;
Structure prediction by ZEFSAII (Michael W. Deem and Ramdas Pophale) SiO2 
 PCOD8001002
Probable space group: P -1
;
_chemical_formula_sum "Si O2"
_cell_formula_units_Z 16
_cell_length_a 8.971819
_cell_length_b 16.312989
_cell_length_c 8.830704
_cell_angle_alpha 39.564112
_cell_angle_beta 109.247666
_cell_angle_gamma 99.102931
_cell_volume 767.239241
_symmetry_space_group_name_H-M "P -1"
_symmetry_group_IT_number 2
_symmetry_cell_setting 'triclinic'
loop_
_space_group_symop_operation_xyz
x,y,z
-x,-y,-z
loop_
_atom_site_type_symbol
_atom_site_label
_atom_site_fract_x
_atom_site_fract_y
_atom_site_fract_z
Si Si1 0.121507 0.444394 0.488663
Si Si2 0.259430 0.557789 0.093795
Si Si3 0.740016 0.910481 0.293735
Si Si4 0.270632 0.878397 0.251621
Si Si5 0.467578 0.326652 0.828527
Si Si6 0.459061 0.300225 0.533624
Si Si7 0.032353 0.733767 0.537898
Si Si8 0.495874 0.976822 0.705709
O O1 0.158365 0.552049 0.224045
O O2 0.282716 0.384271 0.718518
O O3 0.000000 0.500000 0.500000
O O4 0.053598 0.334128 0.526830
O O5 0.412553 0.628613 0.073216
O O6 0.325337 0.412435 0.255963
O O7 0.151478 0.631143 0.821532
O O8 0.613746 0.833870 0.271913
O O9 0.906310 0.812261 0.501244
O O10 0.668049 0.946492 0.384666
O O11 0.765241 0.043465 0.028794
O O12 0.384189 0.738290 0.461503
O O13 0.113353 0.844249 0.325297
O O14 0.348735 0.972200 0.252947
O O15 0.505538 0.366996 0.611116
O O16 0.494416 0.173338 0.049503
O O17 0.500000 0.000000 0.500000
#
# Coordination Sequence:
#
# PCOD8001002 Si02
#       8
#     2   2   2   2   2   2   2   2
#     4  11  25  42  66  95 131 173 216 265 324 392
#     4  11  25  42  65  95 136 169 218 266 338 379
#     4  11  21  42  68  90 128 179 215 268 321 380
#     4  11  22  40  67  95 126 173 230 256 319 395
#     4  11  21  43  66  92 128 174 220 262 316 393
#     4  10  19  40  69  88 122 177 221 264 308 397
#     4  12  25  42  64 102 137 169 212 276 335 382
#     4  11  22  40  65  98 127 168 223 271 323 380
#
# _framework density 20.85399
#
# number of rings (size 3 to 8) (size 9 to 14) (size 15 to 20)
#    0.000    1.000    5.000    3.750    3.500    1.500 
#    2.250    2.500    0.000    0.000    0.000    0.000 
#    0.000    0.000    0.000    0.000    0.000    0.000 
#
# Total GULP energy -198338.260429 kJ/mol
# GULP energy per Si atom -12396.141277 kJ/mol
# Density = 2.080653 g / cm^3
# Si number density = 20.853990 Si / 1000 Ang^3
#
#
#
# Elastic Constant Matrix: (Units=GPa)
#
#
# Indices 1 2 3 4 5 6 
#
# 1 129.8516 62.8037 37.6165 -6.0737 5.0263 -5.5247
# 2 62.8037 82.5562 35.5485 -6.1611 -1.6013 -12.1644
# 3 37.6165 35.5485 81.2849 0.6570 10.5490 -7.0516
# 4 -6.0737 -6.1611 0.6570 25.5099 -1.6419 2.1955
# 5 5.0263 -1.6013 10.5490 -1.6419 26.5129 -4.8776
# 6 -5.5247 -12.1644 -7.0516 2.1955 -4.8776 36.6883
#
#
#
# Elastic Compliance Matrix: (Units=1/GPa)
#
#
# Indices 1 2 3 4 5 6 
#
# 1 0.012696 -0.009192 -0.001688 0.000840 -0.002579 -0.001854
# 2 -0.009192 0.023037 -0.006244 0.003484 0.006894 0.005762
# 3 -0.001688 -0.006244 0.016741 -0.002796 -0.006864 0.000148
# 4 0.000840 0.003484 -0.002796 0.040642 0.003454 -0.001229
# 5 -0.002579 0.006894 -0.006864 0.003454 0.042680 0.006046
# 6 -0.001854 0.005762 0.000148 -0.001229 0.006046 0.029794
#
#
# Mechanical properties :
#
#
# Convention : Reuss Voigt Hill
#
# Bulk Modulus (GPa) = 54.86926 62.84779 58.85852
# Shear Modulus (GPa) = 24.28205 28.25714 26.26959
#
# Velocity S-wave (km/s) = 3.41601 3.68503 3.55306
# Velocity P-wave (km/s) = 6.47511 6.95042 6.71697
#
# Compressibility (1/GPa) = 0.01822514
#
# Stress axis : x y z
#
# Youngs Moduli (GPa) = 78.76357 43.40830 59.73476
#
# Poissons Ratio (x) = 0.39901 0.10085
# Poissons Ratio (y) = 0.72399 0.37299
# Poissons Ratio (z) = 0.13298 0.27104
#
# Static dielectric constant tensor:
#      x y z
#    x 3.940390 -0.018940 0.049160 
#    y -0.018940 3.712690 -0.206790 
#    z 0.049160 -0.206790 3.937920 
# 
# 
# High freq. dielectric constant tensor:
#      x y z
#    x 1.821560 -0.000420 0.002820 
#    y -0.000420 1.809710 -0.019290 
#    z 0.002820 -0.019290 1.814180 
# 
# From -- ./inp_files/176724.got.cif
#   From: 2010.06.25/outbox.cif.g09.slc.cpg/sg2_89_cif.got.tgz:176724.got - 2010.06.27 13:26:56.
