data_PCOD8001869
_publ_section_title
;
Structure prediction by ZEFSAII (Michael W. Deem and Ramdas Pophale) SiO2 
 PCOD8001869
Probable space group: P -1
;
_chemical_formula_sum "Si O2"
_cell_formula_units_Z 14
_cell_length_a 10.797795
_cell_length_b 13.503136
_cell_length_c 11.805804
_cell_angle_alpha 33.192596
_cell_angle_beta 135.952481
_cell_angle_gamma 136.126605
_cell_volume 622.111820
_symmetry_space_group_name_H-M "P -1"
_symmetry_group_IT_number 2
_symmetry_cell_setting 'triclinic'
loop_
_space_group_symop_operation_xyz
x,y,z
-x,-y,-z
loop_
_atom_site_type_symbol
_atom_site_label
_atom_site_fract_x
_atom_site_fract_y
_atom_site_fract_z
Si Si1 0.441661 0.279685 0.636643
Si Si2 0.252490 0.780254 0.612391
Si Si3 0.806906 0.660101 0.777958
Si Si4 0.283641 0.397646 0.975196
Si Si5 0.692146 0.933944 0.811706
Si Si6 0.800632 0.236762 0.160797
Si Si7 0.609280 0.997337 0.941277
O O1 0.500000 0.500000 0.500000
O O2 0.307496 0.248558 0.469363
O O3 0.626578 0.211983 0.792401
O O4 0.331508 0.141167 0.799068
O O5 0.473296 0.852335 0.716950
O O6 0.146684 0.803336 0.636525
O O7 0.203334 0.891729 0.368366
O O8 0.179813 0.556789 0.743131
O O9 0.751138 0.700245 0.829888
O O10 0.028388 0.763060 0.807932
O O11 0.754300 0.435368 0.935863
O O12 0.213447 0.231678 0.993231
O O13 0.500000 0.500000 0.000000
O O14 0.725386 0.002235 0.897948
O O15 0.615638 0.078762 0.149157
#
# Coordination Sequence:
#
# PCOD8001869 Si02
#       7
#     2   2   2   2   2   2   2
#     4  11  23  37  55  80 112 152 184 221 272 326
#     4   8  16  28  47  76 108 136 164 221 275 311
#     4  10  20  34  58  85 114 144 177 229 280 320
#     4   9  18  29  49  81 108 135 175 223 273 321
#     4   9  17  30  51  77 107 135 177 226 267 314
#     4   9  18  36  55  85 115 137 183 230 276 328
#     4  10  22  37  56  84 111 143 188 226 268 328
#
# _framework density 22.503995
#
# number of rings (size 3 to 8) (size 9 to 14) (size 15 to 20)
#    0.000    2.571    1.429    0.857    8.000    0.571 
#    0.000    0.000    0.000    0.857    0.000    5.000 
#    0.000    0.000    0.000    0.000    0.000    0.000 
#
# Total GULP energy -173487.144161 kJ/mol
# GULP energy per Si atom -12391.938869 kJ/mol
# Density = 2.245277 g / cm^3
# Si number density = 22.503995 Si / 1000 Ang^3
#
#
#
# Elastic Constant Matrix: (Units=GPa)
#
#
# Indices 1 2 3 4 5 6 
#
# 1 125.5788 23.2193 43.2259 -0.4349 -32.7574 -27.2072
# 2 23.2193 34.1828 24.6014 -16.5987 1.0419 -20.8617
# 3 43.2259 24.6014 128.8071 -13.1996 -29.3654 -19.0059
# 4 -0.4349 -16.5987 -13.1996 24.8042 -8.2528 4.4056
# 5 -32.7574 1.0419 -29.3654 -8.2528 36.9611 2.6337
# 6 -27.2072 -20.8617 -19.0059 4.4056 2.6337 38.5428
#
#
#
# Elastic Compliance Matrix: (Units=1/GPa)
#
#
# Indices 1 2 3 4 5 6 
#
# 1 0.013286 -0.007228 0.000046 -0.001697 0.011286 0.004912
# 2 -0.007228 0.075199 -0.004650 0.040854 -0.005164 0.028990
# 3 0.000046 -0.004650 0.012176 0.006746 0.011210 0.001982
# 4 -0.001697 0.040854 0.006746 0.074762 0.018368 0.014441
# 5 0.011286 -0.005164 0.011210 0.018368 0.049842 0.005194
# 6 0.004912 0.028990 0.001982 0.014441 0.005194 0.044075
#
#
# Mechanical properties :
#
#
# Convention : Reuss Voigt Hill
#
# Bulk Modulus (GPa) = 12.98774 52.29574 32.64174
# Shear Modulus (GPa) = 15.69020 33.22976 24.45998
#
# Velocity S-wave (km/s) = 2.64335 3.84685 3.30042
# Velocity P-wave (km/s) = 3.88591 6.55895 5.39074
#
# Compressibility (1/GPa) = 0.07699566
#
# Stress axis : x y z
#
# Youngs Moduli (GPa) = 75.26607 13.29805 82.12937
#
# Poissons Ratio (x) = 0.09612 -0.00376
# Poissons Ratio (y) = 0.54405 0.38191
# Poissons Ratio (z) = -0.00345 0.06184
#
# Static dielectric constant tensor:
#      x y z
#    x 4.164750 -0.484750 -0.214570 
#    y -0.484750 3.802910 -0.386160 
#    z -0.214570 -0.386160 4.260980 
# 
# 
# High freq. dielectric constant tensor:
#      x y z
#    x 1.880720 -0.037480 -0.017720 
#    y -0.037480 1.851260 -0.028080 
#    z -0.017720 -0.028080 1.890800 
# 
# From -- ./inp_files/430848.got.cif
#   From: 2010.06.25/outbox.cif.g09.slc.cpg/sg2_216_cif.got.tgz:430848.got - 2010.06.27 13:26:56.
