data_PCOD8001400
_publ_section_title
;
Structure prediction by ZEFSAII (Michael W. Deem and Ramdas Pophale) SiO2 
 PCOD8001400
Probable space group: P -1
;
_chemical_formula_sum "Si O2"
_cell_formula_units_Z 16
_cell_length_a 8.435551
_cell_length_b 28.813442
_cell_length_c 9.586609
_cell_angle_alpha 138.217570
_cell_angle_beta 31.383547
_cell_angle_gamma 139.562787
_cell_volume 754.650895
_symmetry_space_group_name_H-M "P -1"
_symmetry_group_IT_number 2
_symmetry_cell_setting 'triclinic'
loop_
_space_group_symop_operation_xyz
x,y,z
-x,-y,-z
loop_
_atom_site_type_symbol
_atom_site_label
_atom_site_fract_x
_atom_site_fract_y
_atom_site_fract_z
Si Si1 0.900572 0.462177 0.340763
Si Si2 0.704410 0.085285 0.011226
Si Si3 0.669486 0.630512 0.280017
Si Si4 0.341730 0.295041 0.961954
Si Si5 0.047835 0.798356 0.428083
Si Si6 0.130196 0.618352 0.428815
Si Si7 0.754134 0.818242 0.983331
Si Si8 0.158640 0.154542 0.590464
O O1 0.536065 0.400663 0.492368
O O2 0.000000 0.500000 0.500000
O O3 0.922995 0.529716 0.369372
O O4 0.154269 0.425366 0.020936
O O5 0.484946 0.135576 0.310704
O O6 0.000483 0.112935 0.960320
O O7 0.855090 0.093010 0.759604
O O8 0.500000 0.000000 0.000000
O O9 0.428088 0.635103 0.350133
O O10 0.939947 0.710975 0.281450
O O11 0.348764 0.258536 0.024198
O O12 0.101237 0.340490 0.247584
O O13 0.709573 0.349657 0.769633
O O14 0.218190 0.232942 0.795845
O O15 0.912905 0.809425 0.701509
O O16 0.925148 0.841460 0.499074
O O17 0.436023 0.836639 0.228353
#
# Coordination Sequence:
#
# PCOD8001400 Si02
#       8
#     2   2   2   2   2   2   2   2
#     4  10  20  32  51  87 124 157 206 268 316 366
#     4  11  24  47  71  95 129 167 203 247 303 374
#     4  11  21  34  56  86 126 160 202 260 331 353
#     4  11  21  37  62  88 122 161 215 263 307 360
#     4  12  24  40  64  94 133 162 206 264 312 366
#     4  11  19  33  60  87 118 157 219 267 308 358
#     4  11  25  41  62  94 129 164 204 254 317 373
#     4  11  23  40  69  98 124 163 215 252 300 366
#
# _framework density 21.201858000000001
#
# number of rings (size 3 to 8) (size 9 to 14) (size 15 to 20)
#    0.000    1.000    1.250    9.375    1.750    0.000 
#    0.000    3.750    0.000   15.000    0.000    0.000 
#    0.000    0.000    0.000    0.000    0.000    0.000 
#
# Total GULP energy -198432.147333 kJ/mol
# GULP energy per Si atom -12402.009208 kJ/mol
# Density = 2.115360 g / cm^3
# Si number density = 21.201858 Si / 1000 Ang^3
#
#
#
# Elastic Constant Matrix: (Units=GPa)
#
#
# Indices 1 2 3 4 5 6 
#
# 1 96.3982 38.9868 49.1791 -9.2740 4.8443 -7.5216
# 2 38.9868 110.2361 22.1834 -22.4621 5.5632 -4.6090
# 3 49.1791 22.1834 133.7501 -24.9755 -4.3378 -6.1801
# 4 -9.2740 -22.4621 -24.9755 41.1467 -8.7465 6.0632
# 5 4.8443 5.5632 -4.3378 -8.7465 41.5328 -14.1856
# 6 -7.5216 -4.6090 -6.1801 6.0632 -14.1856 26.2010
#
#
#
# Elastic Compliance Matrix: (Units=1/GPa)
#
#
# Indices 1 2 3 4 5 6 
#
# 1 0.014865 -0.004653 -0.005209 -0.002990 -0.001582 0.002056
# 2 -0.004653 0.011736 0.000872 0.005981 0.000206 -0.000338
# 3 -0.005209 0.000872 0.010596 0.006234 0.003451 0.001583
# 4 -0.002990 0.005981 0.006234 0.032355 0.006163 -0.002486
# 5 -0.001582 0.000206 0.003451 0.006163 0.031335 0.015935
# 6 0.002056 -0.000338 0.001583 -0.002486 0.015935 0.048274
#
#
# Mechanical properties :
#
#
# Convention : Reuss Voigt Hill
#
# Bulk Modulus (GPa) = 52.03327 62.34255 57.18791
# Shear Modulus (GPa) = 28.81093 37.11175 32.96134
#
# Velocity S-wave (km/s) = 3.69031 4.18832 3.94718
# Velocity P-wave (km/s) = 6.53857 7.27031 6.91413
#
# Compressibility (1/GPa) = 0.01921847
#
# Stress axis : x y z
#
# Youngs Moduli (GPa) = 67.27280 85.21143 94.37122
#
# Poissons Ratio (x) = 0.39645 0.49156
# Poissons Ratio (y) = 0.31299 -0.08231
# Poissons Ratio (z) = 0.35041 -0.07432
#
# Static dielectric constant tensor:
#      x y z
#    x 3.684170 -0.260160 0.055930 
#    y -0.260160 4.592360 -0.484330 
#    z 0.055930 -0.484330 4.023230 
# 
# 
# High freq. dielectric constant tensor:
#      x y z
#    x 1.809970 -0.013470 -0.006350 
#    y -0.013470 1.835180 -0.020160 
#    z -0.006350 -0.020160 1.850700 
# 
# From -- ./inp_files/227995.got.cif
#   From: 2010.06.25/outbox.cif.g09.slc.cpg/sg2_114_cif.got.tgz:227995.got - 2010.06.27 13:26:56.
