data_PCOD8001381
_publ_section_title
;
Structure prediction by ZEFSAII (Michael W. Deem and Ramdas Pophale) SiO2 
 PCOD8001381
Probable space group: P -1
;
_chemical_formula_sum "Si O2"
_cell_formula_units_Z 16
_cell_length_a 14.057093
_cell_length_b 23.493597
_cell_length_c 20.824699
_cell_angle_alpha 168.647657
_cell_angle_beta 139.287192
_cell_angle_gamma 40.602641
_cell_volume 876.058758
_symmetry_space_group_name_H-M "P -1"
_symmetry_group_IT_number 2
_symmetry_cell_setting 'triclinic'
loop_
_space_group_symop_operation_xyz
x,y,z
-x,-y,-z
loop_
_atom_site_type_symbol
_atom_site_label
_atom_site_fract_x
_atom_site_fract_y
_atom_site_fract_z
Si Si1 0.892007 0.526513 0.415459
Si Si2 0.853219 0.131655 0.273514
Si Si3 0.435787 0.697313 0.626348
Si Si4 0.374871 0.485371 0.868307
Si Si5 0.424932 0.239838 0.485923
Si Si6 0.447290 0.592517 0.765673
Si Si7 0.161235 0.530062 0.485866
Si Si8 0.182711 0.000655 0.281690
O O1 0.750484 0.756420 0.609916
O O2 0.000000 0.500000 0.500000
O O3 0.989325 0.643290 0.536998
O O4 0.843062 0.211438 0.025407
O O5 0.743425 0.248236 0.403823
O O6 0.800669 0.348204 0.428250
O O7 0.026102 0.128368 0.375444
O O8 0.816052 0.817630 0.886532
O O9 0.500000 0.500000 0.500000
O O10 0.474761 0.551482 0.416597
O O11 0.500000 0.000000 0.000000
O O12 0.452704 0.384261 0.728724
O O13 0.264204 0.262363 0.586902
O O14 0.500000 0.500000 0.000000
O O15 0.283289 0.806679 0.170642
O O16 0.494140 0.409079 0.650764
O O17 0.498772 0.907615 0.152870
O O18 0.270678 0.624441 0.700916
#
# Coordination Sequence:
#
# PCOD8001381 Si02
#       8
#     2   2   2   2   2   2   2   2
#     4  10  20  32  49  78 115 157 174 209 269 335
#     4  11  20  37  51  76 112 147 193 237 254 312
#     4  12  22  35  53  76 109 164 206 223 262 313
#     4  11  23  43  64  84 110 143 186 242 298 351
#     4  11  23  36  51  80 113 142 190 230 276 340
#     4  12  22  34  50  77 112 152 193 226 262 317
#     4  11  21  31  50  72 109 158 190 216 259 307
#     4  10  22  37  57  88 110 143 193 231 279 342
#
# _framework density 18.263615999999999
#
# number of rings (size 3 to 8) (size 9 to 14) (size 15 to 20)
#    0.000    1.000    3.750    5.625    1.750    1.500 
#    0.000    0.000    0.000    0.000    0.000    5.250 
#    0.000    0.000    0.000    0.000    0.000    0.000 
#
# Total GULP energy -198346.471900 kJ/mol
# GULP energy per Si atom -12396.654494 kJ/mol
# Density = 1.822205 g / cm^3
# Si number density = 18.263616 Si / 1000 Ang^3
#
#
#
# Elastic Constant Matrix: (Units=GPa)
#
#
# Indices 1 2 3 4 5 6 
#
# 1 114.2853 59.3877 71.0105 30.3637 -8.7913 13.5609
# 2 59.3877 66.0690 -9.3188 -44.9050 -0.7293 6.4331
# 3 71.0105 -9.3188 22.0804 -32.9343 6.5978 1.7090
# 4 30.3637 -44.9050 -32.9343 -16.2883 10.3287 -7.0952
# 5 -8.7913 -0.7293 6.5978 10.3287 29.4520 7.6678
# 6 13.5609 6.4331 1.7090 -7.0952 7.6678 23.9451
#
#
#
# Elastic Compliance Matrix: (Units=1/GPa)
#
#
# Indices 1 2 3 4 5 6 
#
# 1 0.006307 0.001616 -0.002400 0.011236 -0.001471 -0.000034
# 2 0.001616 0.010528 -0.007856 -0.003978 0.005492 -0.006120
# 3 -0.002400 -0.007856 0.020025 -0.019593 0.002678 -0.004623
# 4 0.011236 -0.003978 -0.019593 0.012845 0.003451 -0.001195
# 5 -0.001471 0.005492 0.002678 0.003451 0.034682 -0.010917
# 6 -0.000034 -0.006120 -0.004623 -0.001195 -0.010917 0.046898
#
#
# Mechanical properties :
#
#
# Convention : Reuss Voigt Hill
#
# Bulk Modulus (GPa) = 51.07156 49.39927 50.23542
# Shear Modulus (GPa) = 32.23942 12.84546 22.54244
#
# Velocity S-wave (km/s) = 4.20602 2.65493 3.51705
# Velocity P-wave (km/s) = 7.18413 6.04192 6.63764
#
# Compressibility (1/GPa) = 0.01958037
#
# Stress axis : x y z
#
# Youngs Moduli (GPa) = 158.55381 94.98889 49.93879
#
# Poissons Ratio (x) = -0.15352 0.11984
# Poissons Ratio (y) = -0.25625 0.39230
# Poissons Ratio (z) = 0.38050 0.74620
#
# Static dielectric constant tensor:
#      x y z
#    x 4.137630 -0.199670 0.006090 
#    y -0.199670 3.336560 0.233930 
#    z 0.006090 0.233930 3.423490 
# 
# 
# High freq. dielectric constant tensor:
#      x y z
#    x 1.713300 0.006750 0.012090 
#    y 0.006750 1.679210 0.031140 
#    z 0.012090 0.031140 1.705000 
# 
# From -- ./inp_files/533972.got.cif
#   From: 2010.06.25/outbox.cif.g09.slc.cpg/sg2_267_cif.got.tgz:533972.got - 2010.06.27 13:26:56.
