data_PCOD8001882
_publ_section_title
;
Structure prediction by ZEFSAII (Michael W. Deem and Ramdas Pophale) SiO2 
 PCOD8001882
Probable space group: P -1
;
_chemical_formula_sum "Si O2"
_cell_formula_units_Z 16
_cell_length_a 11.670516
_cell_length_b 12.075339
_cell_length_c 21.154279
_cell_angle_alpha 149.724488
_cell_angle_beta 41.956058
_cell_angle_gamma 116.775236
_cell_volume 826.413878
_symmetry_space_group_name_H-M "P -1"
_symmetry_group_IT_number 2
_symmetry_cell_setting 'triclinic'
loop_
_space_group_symop_operation_xyz
x,y,z
-x,-y,-z
loop_
_atom_site_type_symbol
_atom_site_label
_atom_site_fract_x
_atom_site_fract_y
_atom_site_fract_z
Si Si1 0.102052 0.014294 0.608362
Si Si2 0.425397 0.700548 0.210346
Si Si3 0.840651 0.643547 0.031573
Si Si4 0.560072 0.608247 0.447758
Si Si5 0.692814 0.112719 0.785487
Si Si6 0.444678 0.874002 0.756230
Si Si7 0.017473 0.229706 0.079615
Si Si8 0.351730 0.975254 0.595234
O O1 0.921888 0.963647 0.648981
O O2 0.274106 0.871814 0.413413
O O3 0.218183 0.898043 0.570722
O O4 0.001157 0.328190 0.803419
O O5 0.611731 0.741302 0.147678
O O6 0.293687 0.807594 0.252498
O O7 0.524414 0.386637 0.026562
O O8 0.812195 0.741274 0.163749
O O9 0.934317 0.777484 0.018557
O O10 0.427340 0.804077 0.655862
O O11 0.534895 0.363210 0.328245
O O12 0.491663 0.753790 0.480702
O O13 0.797294 0.508408 0.319618
O O14 0.631365 0.901455 0.710462
O O15 0.223801 0.167349 0.001911
O O16 0.000000 0.000000 0.000000
O O17 0.500000 0.000000 0.500000
#
# Coordination Sequence:
#
# PCOD8001882 Si02
#       8
#     2   2   2   2   2   2   2   2
#     4  11  24  36  57  87 118 163 199 234 295 356
#     4  10  20  38  55  85 119 153 199 247 290 349
#     4  11  21  37  58  89 122 152 194 246 299 346
#     4  10  22  37  61  91 117 152 197 239 299 349
#     4  10  21  36  58  83 117 158 197 246 292 346
#     4  10  20  40  61  87 121 149 192 253 292 345
#     4  10  20  34  58  89 116 148 191 240 300 350
#     4  12  22  39  60  87 124 160 194 242 293 352
#
# _framework density 19.360761
#
# number of rings (size 3 to 8) (size 9 to 14) (size 15 to 20)
#    0.000    1.500    3.750    1.500    1.750    1.000 
#    0.000    0.625    0.000    0.750    0.000    0.000 
#    0.000    0.000    0.000    0.000    0.000    0.000 
#
# Total GULP energy -198239.229900 kJ/mol
# GULP energy per Si atom -12389.951869 kJ/mol
# Density = 1.931669 g / cm^3
# Si number density = 19.360761 Si / 1000 Ang^3
#
#
#
# Elastic Constant Matrix: (Units=GPa)
#
#
# Indices 1 2 3 4 5 6 
#
# 1 114.7325 39.4975 34.2566 2.4948 -9.9882 4.0687
# 2 39.4975 109.5059 38.3205 -3.5194 -1.8949 2.1402
# 3 34.2566 38.3205 111.4656 -4.4776 -0.2057 -3.6467
# 4 2.4948 -3.5194 -4.4776 20.8200 -5.1148 -0.7016
# 5 -9.9882 -1.8949 -0.2057 -5.1148 31.1352 -1.0591
# 6 4.0687 2.1402 -3.6467 -0.7016 -1.0591 30.4266
#
#
#
# Elastic Compliance Matrix: (Units=1/GPa)
#
#
# Indices 1 2 3 4 5 6 
#
# 1 0.010820 -0.003040 -0.002388 -0.001648 0.002950 -0.001455
# 2 -0.003040 0.011312 -0.002913 0.001610 -0.000066 -0.000703
# 3 -0.002388 -0.002913 0.010850 0.002075 -0.000468 0.001856
# 4 -0.001648 0.001610 0.002075 0.050978 0.008019 0.001810
# 5 0.002950 -0.000066 -0.000468 0.008019 0.034406 0.000937
# 6 -0.001455 -0.000703 0.001856 0.001810 0.000937 0.033407
#
#
# Mechanical properties :
#
#
# Convention : Reuss Voigt Hill
#
# Bulk Modulus (GPa) = 61.35470 62.20592 61.78031
# Shear Modulus (GPa) = 28.75381 31.38497 30.06939
#
# Velocity S-wave (km/s) = 3.85796 4.03061 3.94523
# Velocity P-wave (km/s) = 7.18360 7.33899 7.26171
#
# Compressibility (1/GPa) = 0.01629867
#
# Stress axis : x y z
#
# Youngs Moduli (GPa) = 92.42175 88.39920 92.16493
#
# Poissons Ratio (x) = 0.26876 0.22013
# Poissons Ratio (y) = 0.28099 0.26849
# Poissons Ratio (z) = 0.22074 0.25752
#
# Static dielectric constant tensor:
#      x y z
#    x 3.698410 0.123930 -0.235530 
#    y 0.123930 3.472340 -0.110020 
#    z -0.235530 -0.110020 3.868880 
# 
# 
# High freq. dielectric constant tensor:
#      x y z
#    x 1.735620 0.007200 -0.019050 
#    y 0.007200 1.739480 -0.008000 
#    z -0.019050 -0.008000 1.767560 
# 
# From -- ./inp_files/472774.got.cif
#   From: 2010.06.25/outbox.cif.g09.slc.cpg/sg2_237_cif.got.tgz:472774.got - 2010.06.27 13:26:56.
