data_PCOD8001328
_publ_section_title
;
Structure prediction by ZEFSAII (Michael W. Deem and Ramdas Pophale) SiO2 
 PCOD8001328
Probable space group: P -1
;
_chemical_formula_sum "Si O2"
_cell_formula_units_Z 16
_cell_length_a 9.433280
_cell_length_b 15.353438
_cell_length_c 12.152591
_cell_angle_alpha 46.238059
_cell_angle_beta 130.679768
_cell_angle_gamma 130.787906
_cell_volume 895.769042
_symmetry_space_group_name_H-M "P -1"
_symmetry_group_IT_number 2
_symmetry_cell_setting 'triclinic'
loop_
_space_group_symop_operation_xyz
x,y,z
-x,-y,-z
loop_
_atom_site_type_symbol
_atom_site_label
_atom_site_fract_x
_atom_site_fract_y
_atom_site_fract_z
Si Si1 0.811374 0.799512 0.200716
Si Si2 0.026878 0.452898 0.712363
Si Si3 0.705650 0.347007 0.472378
Si Si4 0.806305 0.996179 0.682211
Si Si5 0.400113 0.005987 0.058920
Si Si6 0.480696 0.045031 0.612486
Si Si7 0.335653 0.480478 0.526076
Si Si8 0.963621 0.802662 0.029819
O O1 0.712930 0.654919 0.320362
O O2 0.869536 0.808113 0.095709
O O3 0.004850 0.874410 0.308025
O O4 0.644181 0.863021 0.073888
O O5 0.233116 0.571587 0.682145
O O6 0.921763 0.369520 0.620968
O O7 0.867222 0.507269 0.640537
O O8 0.077765 0.345065 0.903352
O O9 0.578899 0.199669 0.510951
O O10 0.579587 0.407299 0.435713
O O11 0.735578 0.004553 0.513983
O O12 0.623865 0.979601 0.687182
O O13 0.864401 0.869375 0.833579
O O14 0.552678 0.000763 0.237704
O O15 0.201845 0.879545 0.088267
O O16 0.500000 0.000000 0.000000
O O17 0.500000 0.500000 0.500000
#
# Coordination Sequence:
#
# PCOD8001328 Si02
#       8
#     2   2   2   2   2   2   2   2
#     4  11  19  36  56  82 109 140 190 220 268 326
#     4   9  16  30  54  74 102 136 177 221 268 306
#     4   9  17  31  53  78 101 142 170 229 263 312
#     4  10  21  32  57  83 108 150 174 224 273 323
#     4  11  22  32  56  82 111 143 177 234 266 315
#     4  11  19  36  53  83 117 135 182 225 273 322
#     4  10  20  30  53  84 104 135 182 234 267 307
#     4  11  17  37  54  79 107 142 189 220 267 322
#
# _framework density 17.861746
#
# number of rings (size 3 to 8) (size 9 to 14) (size 15 to 20)
#    0.750    1.000    5.000    1.500    3.500    0.000 
#    0.000    3.125    0.000    0.000    0.000    1.750 
#    0.000    0.000    0.000    0.000    0.000    0.000 
#
# Total GULP energy -198299.773503 kJ/mol
# GULP energy per Si atom -12393.735844 kJ/mol
# Density = 1.782109 g / cm^3
# Si number density = 17.861746 Si / 1000 Ang^3
#
#
#
# Elastic Constant Matrix: (Units=GPa)
#
#
# Indices 1 2 3 4 5 6 
#
# 1 109.3153 5.7025 32.2613 0.8616 -1.6535 -16.6536
# 2 5.7025 39.2713 30.5887 -1.5213 3.6190 -4.0172
# 3 32.2613 30.5887 103.3334 4.0372 0.9273 -9.7542
# 4 0.8616 -1.5213 4.0372 29.4580 -7.1176 3.6837
# 5 -1.6535 3.6190 0.9273 -7.1176 20.3726 -3.5676
# 6 -16.6536 -4.0172 -9.7542 3.6837 -3.5676 15.2388
#
#
#
# Elastic Compliance Matrix: (Units=1/GPa)
#
#
# Indices 1 2 3 4 5 6 
#
# 1 0.011872 0.001605 -0.003019 -0.000731 0.002710 0.012276
# 2 0.001605 0.034039 -0.010355 0.001742 -0.004372 0.002654
# 3 -0.003019 -0.010355 0.014147 -0.002701 0.000679 0.003839
# 4 -0.000731 0.001742 -0.002701 0.038315 0.011633 -0.008607
# 5 0.002710 -0.004372 0.000679 0.011633 0.056325 0.012618
# 6 0.012276 0.002654 0.003839 -0.008607 0.012618 0.087230
#
#
# Mechanical properties :
#
#
# Convention : Reuss Voigt Hill
#
# Bulk Modulus (GPa) = 27.38261 43.22500 35.30381
# Shear Modulus (GPa) = 18.00901 25.23838 21.62370
#
# Velocity S-wave (km/s) = 3.17873 3.76305 3.48316
# Velocity P-wave (km/s) = 5.36992 6.56757 5.99871
#
# Compressibility (1/GPa) = 0.03651953
#
# Stress axis : x y z
#
# Youngs Moduli (GPa) = 84.23204 29.37844 70.68624
#
# Poissons Ratio (x) = -0.04715 0.21337
# Poissons Ratio (y) = -0.13519 0.73199
# Poissons Ratio (z) = 0.25426 0.30423
#
# Static dielectric constant tensor:
#      x y z
#    x 2.793600 -0.211490 0.337630 
#    y -0.211490 3.104590 -0.181110 
#    z 0.337630 -0.181110 3.274690 
# 
# 
# High freq. dielectric constant tensor:
#      x y z
#    x 1.672320 -0.004780 0.009030 
#    y -0.004780 1.668810 -0.035330 
#    z 0.009030 -0.035330 1.688100 
# 
# From -- ./inp_files/397138.got.cif
#   From: 2010.06.25/outbox.cif.g09.slc.cpg/sg2_199_cif.got.tgz:397138.got - 2010.06.27 13:26:56.
