data_PCOD8001058
_publ_section_title
;
Structure prediction by ZEFSAII (Michael W. Deem and Ramdas Pophale) SiO2 
 PCOD8001058
Probable space group: P -1
;
_chemical_formula_sum "Si O2"
_cell_formula_units_Z 16
_cell_length_a 12.358828
_cell_length_b 9.889721
_cell_length_c 22.655416
_cell_angle_alpha 40.772065
_cell_angle_beta 30.647298
_cell_angle_gamma 33.209247
_cell_volume 766.089419
_symmetry_space_group_name_H-M "P -1"
_symmetry_group_IT_number 2
_symmetry_cell_setting 'triclinic'
loop_
_space_group_symop_operation_xyz
x,y,z
-x,-y,-z
loop_
_atom_site_type_symbol
_atom_site_label
_atom_site_fract_x
_atom_site_fract_y
_atom_site_fract_z
Si Si1 0.084917 0.953211 0.791572
Si Si2 0.184604 0.339001 0.646063
Si Si3 0.376818 0.886354 0.397067
Si Si4 0.576920 0.597362 0.205835
Si Si5 0.400053 0.298787 0.187768
Si Si6 0.445848 0.679035 0.108935
Si Si7 0.818978 0.282978 0.557078
Si Si8 0.669677 0.006563 0.043366
O O1 0.236842 0.694531 0.770296
O O2 0.258473 0.059992 0.689467
O O3 0.858088 0.156940 0.788112
O O4 0.958051 0.928375 0.919808
O O5 0.395731 0.314314 0.600488
O O6 0.184757 0.475273 0.541082
O O7 0.899820 0.507986 0.751774
O O8 0.356213 0.746229 0.397431
O O9 0.446553 0.075931 0.279968
O O10 0.104127 0.036119 0.509088
O O11 0.590639 0.621384 0.121223
O O12 0.301923 0.682122 0.332907
O O13 0.670621 0.760766 0.136758
O O14 0.516762 0.426957 0.126596
O O15 0.560884 0.191608 0.088123
O O16 0.505925 0.838565 0.983182
#
# Coordination Sequence:
#
# PCOD8001058 Si02
#       8
#     2   2   2   2   2   2   2   2
#     4   9  23  39  60  87 127 156 201 249 291 366
#     4  10  21  40  62  91 120 157 200 255 301 355
#     4  10  20  41  60  93 120 155 202 256 301 357
#     4  12  21  42  60  91 122 167 195 245 311 358
#     4  10  19  41  62  91 123 155 205 252 296 351
#     4   9  22  37  61  87 124 160 196 247 296 359
#     4  10  23  37  64  87 126 155 201 254 299 360
#     4  10  21  41  63  87 127 160 201 254 293 352
#
# _framework density 20.885289
#
# number of rings (size 3 to 8) (size 9 to 14) (size 15 to 20)
#    0.750    1.250    1.250    2.250    0.000    1.500 
#    4.500   10.000    0.000    0.000    0.000    0.000 
#    0.000    0.000    0.000    0.000    0.000    0.000 
#
# Total GULP energy -198296.861411 kJ/mol
# GULP energy per Si atom -12393.553838 kJ/mol
# Density = 2.083775 g / cm^3
# Si number density = 20.885289 Si / 1000 Ang^3
#
#
#
# Elastic Constant Matrix: (Units=GPa)
#
#
# Indices 1 2 3 4 5 6 
#
# 1 43.6368 13.1350 -2.9097 -2.4680 -1.4951 2.9663
# 2 13.1350 98.0738 30.8713 -6.3412 -0.4174 24.4678
# 3 -2.9097 30.8713 73.2996 -2.8837 -4.1703 22.1934
# 4 -2.4680 -6.3412 -2.8837 30.7435 6.9863 -4.5106
# 5 -1.4951 -0.4174 -4.1703 6.9863 27.9193 -1.4807
# 6 2.9663 24.4678 22.1934 -4.5106 -1.4807 25.7887
#
#
#
# Elastic Compliance Matrix: (Units=1/GPa)
#
#
# Indices 1 2 3 4 5 6 
#
# 1 0.024490 -0.003791 0.003214 0.000908 0.001415 -0.001745
# 2 -0.003791 0.014331 -0.003066 0.001129 -0.001281 -0.010398
# 3 0.003214 -0.003066 0.019490 -0.001232 0.002587 -0.014300
# 4 0.000908 0.001129 -0.001232 0.035518 -0.008709 0.005597
# 5 0.001415 -0.001281 0.002587 -0.008709 0.038414 -0.000492
# 6 -0.001745 -0.010398 -0.014300 0.005597 -0.000492 0.062100
#
#
# Mechanical properties :
#
#
# Convention : Reuss Voigt Hill
#
# Bulk Modulus (GPa) = 19.59886 33.02262 26.31074
# Shear Modulus (GPa) = 22.86865 28.48454 25.67660
#
# Velocity S-wave (km/s) = 3.31261 3.69705 3.51010
# Velocity P-wave (km/s) = 4.90262 5.83695 5.39007
#
# Compressibility (1/GPa) = 0.05102339
#
# Stress axis : x y z
#
# Youngs Moduli (GPa) = 40.83226 69.77802 51.30779
#
# Poissons Ratio (x) = 0.26456 -0.16489
# Poissons Ratio (y) = 0.15481 0.15733
# Poissons Ratio (z) = -0.13122 0.21397
#
# Static dielectric constant tensor:
#      x y z
#    x 3.321520 0.031950 -0.065010 
#    y 0.031950 3.799720 -0.165610 
#    z -0.065010 -0.165610 3.772150 
# 
# 
# High freq. dielectric constant tensor:
#      x y z
#    x 1.784070 0.005220 -0.006250 
#    y 0.005220 1.822520 -0.016200 
#    z -0.006250 -0.016200 1.818910 
# 
# From -- ./inp_files/593951.got.cif
#   From: 2010.06.25/outbox.cif.g09.slc.cpg/sg2_297_cif.got.tgz:593951.got - 2010.06.27 13:26:56.
