data_PCOD8001590
_publ_section_title
;
Structure prediction by ZEFSAII (Michael W. Deem and Ramdas Pophale) SiO2 
 PCOD8001590
Probable space group: P -1
;
_chemical_formula_sum "Si O2"
_cell_formula_units_Z 16
_cell_length_a 14.569005
_cell_length_b 14.284033
_cell_length_c 11.080447
_cell_angle_alpha 47.123460
_cell_angle_beta 30.306284
_cell_angle_gamma 44.375127
_cell_volume 800.560486
_symmetry_space_group_name_H-M "P -1"
_symmetry_group_IT_number 2
_symmetry_cell_setting 'triclinic'
loop_
_space_group_symop_operation_xyz
x,y,z
-x,-y,-z
loop_
_atom_site_type_symbol
_atom_site_label
_atom_site_fract_x
_atom_site_fract_y
_atom_site_fract_z
Si Si1 0.453670 0.151705 0.962403
Si Si2 0.137641 0.845989 0.467666
Si Si3 0.625354 0.619546 0.346822
Si Si4 0.247868 0.642945 0.141521
Si Si5 0.053755 0.269666 0.419018
Si Si6 0.790317 0.368009 0.236377
Si Si7 0.978461 0.427746 0.747520
Si Si8 0.377434 0.384379 0.366978
O O1 0.640807 0.167105 0.802941
O O2 0.385788 0.250246 0.836561
O O3 0.281215 0.181719 0.230261
O O4 0.500000 0.000000 0.000000
O O5 0.138425 0.779466 0.655057
O O6 0.058316 0.760596 0.541174
O O7 0.000000 0.000000 0.500000
O O8 0.797029 0.488286 0.213974
O O9 0.428581 0.587161 0.600412
O O10 0.662677 0.640387 0.426255
O O11 0.162586 0.560933 0.214783
O O12 0.352832 0.541223 0.222270
O O13 0.060919 0.762422 0.305798
O O14 0.403081 0.702663 0.850610
O O15 0.037763 0.425836 0.309561
O O16 0.925974 0.346222 0.986334
O O17 0.205659 0.348632 0.523965
#
# Coordination Sequence:
#
# PCOD8001590 Si02
#       8
#     2   2   2   2   2   2   2   2
#     4  11  23  40  63  87 122 159 198 250 303 364
#     4  11  24  39  58  88 122 157 201 245 303 359
#     4  10  20  36  58  92 119 150 199 249 313 346
#     4  10  22  38  53  90 128 158 201 239 300 354
#     4  11  22  37  61  86 119 162 198 242 299 355
#     4  10  20  34  58  89 123 151 191 257 303 350
#     4  11  21  35  59  91 125 157 198 243 299 362
#     4  10  20  33  57  81 124 160 189 243 293 353
#
# _framework density 19.985997999999999
#
# number of rings (size 3 to 8) (size 9 to 14) (size 15 to 20)
#    0.000    1.500    3.750    3.000    1.750    5.000 
#    0.000    0.000    0.000    3.000    0.000    6.125 
#    0.000    0.000    0.000    0.000    0.000    0.000 
#
# Total GULP energy -198211.303619 kJ/mol
# GULP energy per Si atom -12388.206476 kJ/mol
# Density = 1.994051 g / cm^3
# Si number density = 19.985998 Si / 1000 Ang^3
#
#
#
# Elastic Constant Matrix: (Units=GPa)
#
#
# Indices 1 2 3 4 5 6 
#
# 1 80.8271 30.5806 39.9065 12.5195 -7.7579 -3.9489
# 2 30.5806 82.5673 45.6155 9.3695 0.5974 -6.3546
# 3 39.9065 45.6155 113.6197 34.5234 -5.5290 -2.7839
# 4 12.5195 9.3695 34.5234 35.2231 -0.8511 -0.6756
# 5 -7.7579 0.5974 -5.5290 -0.8511 37.9524 0.8373
# 6 -3.9489 -6.3546 -2.7839 -0.6756 0.8373 20.4711
#
#
#
# Elastic Compliance Matrix: (Units=1/GPa)
#
#
# Indices 1 2 3 4 5 6 
#
# 1 0.016085 -0.003732 -0.003670 -0.001035 0.002760 0.001298
# 2 -0.003732 0.017035 -0.006500 0.003193 -0.001992 0.003871
# 3 -0.003670 -0.006500 0.016839 -0.013452 0.001524 -0.000942
# 4 -0.001035 0.003193 -0.013452 0.041069 -0.001309 0.000371
# 5 0.002760 -0.001992 0.001524 -0.001309 0.027160 -0.001033
# 6 0.001298 0.003871 -0.000942 0.000371 -0.001033 0.050228
#
#
# Mechanical properties :
#
#
# Convention : Reuss Voigt Hill
#
# Bulk Modulus (GPa) = 45.14183 56.57991 50.86087
# Shear Modulus (GPa) = 24.55731 29.45675 27.00703
#
# Velocity S-wave (km/s) = 3.50912 3.84327 3.67999
# Velocity P-wave (km/s) = 6.24935 6.93293 6.59999
#
# Compressibility (1/GPa) = 0.02215240
#
# Stress axis : x y z
#
# Youngs Moduli (GPa) = 62.16944 58.70303 59.38758
#
# Poissons Ratio (x) = 0.21910 0.21798
# Poissons Ratio (y) = 0.23203 0.38604
# Poissons Ratio (z) = 0.22819 0.38159
#
# Static dielectric constant tensor:
#      x y z
#    x 3.690590 -0.075400 -0.125090 
#    y -0.075400 3.421320 0.512670 
#    z -0.125090 0.512670 4.346280 
# 
# 
# High freq. dielectric constant tensor:
#      x y z
#    x 1.777380 -0.009720 -0.009760 
#    y -0.009720 1.729910 0.025410 
#    z -0.009760 0.025410 1.803950 
# 
# From -- ./inp_files/438291.got.cif
#   From: 2010.06.25/outbox.cif.g09.slc.cpg/sg2_220_cif.got.tgz:438291.got - 2010.06.27 13:26:56.
