data_PCOD8001597
_publ_section_title
;
Structure prediction by ZEFSAII (Michael W. Deem and Ramdas Pophale) SiO2 
 PCOD8001597
Probable space group: P -1
;
_chemical_formula_sum "Si O2"
_cell_formula_units_Z 12
_cell_length_a 14.923964
_cell_length_b 11.765496
_cell_length_c 7.156994
_cell_angle_alpha 108.582157
_cell_angle_beta 84.730232
_cell_angle_gamma 35.059617
_cell_volume 521.289665
_symmetry_space_group_name_H-M "P -1"
_symmetry_group_IT_number 2
_symmetry_cell_setting 'triclinic'
loop_
_space_group_symop_operation_xyz
x,y,z
-x,-y,-z
loop_
_atom_site_type_symbol
_atom_site_label
_atom_site_fract_x
_atom_site_fract_y
_atom_site_fract_z
Si Si1 0.547872 0.932332 0.172432
Si Si2 0.007868 0.697397 0.218714
Si Si3 0.909953 0.010710 0.665659
Si Si4 0.407666 0.921366 0.480270
Si Si5 0.841461 0.108589 0.270897
Si Si6 0.530167 0.506918 0.217233
O O1 0.419346 0.977527 0.310447
O O2 0.493803 0.119975 0.390080
O O3 0.784460 0.622577 0.000465
O O4 0.500000 0.000000 0.000000
O O5 0.985157 0.789019 0.475552
O O6 0.829213 0.814977 0.290095
O O7 0.995280 0.811497 0.113590
O O8 0.658592 0.307945 0.901882
O O9 0.000000 0.000000 0.500000
O O10 0.027679 0.921910 0.784426
O O11 0.530011 0.650788 0.298023
O O12 0.685896 0.271178 0.220430
O O13 0.697269 0.274706 0.578937
#
# Coordination Sequence:
#
# PCOD8001597 Si02
#       6
#     2   2   2   2   2   2
#     4  11  25  44  66  89 119 168 220 263 306 366
#     4  10  22  41  61  95 125 163 201 257 316 365
#     4  10  20  33  57  90 126 158 194 246 302 378
#     4  10  23  44  65  89 128 164 207 266 308 365
#     4   9  20  36  60  92 127 161 198 247 309 380
#     4  10  20  38  61  95 125 163 201 248 320 373
#
# _framework density 23.019832999999998
#
# number of rings (size 3 to 8) (size 9 to 14) (size 15 to 20)
#    0.000    2.000    0.000    3.000    2.333    8.000 
#    9.000    0.000    0.000    0.000    0.000    0.000 
#    0.000    0.000    0.000    0.000    0.000    0.000 
#
# Total GULP energy -148749.772716 kJ/mol
# GULP energy per Si atom -12395.814393 kJ/mol
# Density = 2.296744 g / cm^3
# Si number density = 23.019833 Si / 1000 Ang^3
#
#
#
# Elastic Constant Matrix: (Units=GPa)
#
#
# Indices 1 2 3 4 5 6 
#
# 1 104.3799 18.8964 19.3921 -0.3822 -7.1865 7.6234
# 2 18.8964 90.7826 6.6069 -2.9219 2.9690 7.4612
# 3 19.3921 6.6069 75.9010 6.9468 1.5709 6.0691
# 4 -0.3822 -2.9219 6.9468 33.6382 -1.8093 1.4458
# 5 -7.1865 2.9690 1.5709 -1.8093 41.9979 5.9157
# 6 7.6234 7.4612 6.0691 1.4458 5.9157 24.2137
#
#
#
# Elastic Compliance Matrix: (Units=1/GPa)
#
#
# Indices 1 2 3 4 5 6 
#
# 1 0.010764 -0.001885 -0.002477 0.000727 0.002499 -0.002841
# 2 -0.001885 0.011729 -0.000406 0.001165 -0.000689 -0.002820
# 3 -0.002477 -0.000406 0.014315 -0.002959 -0.000730 -0.002328
# 4 0.000727 0.001165 -0.002959 0.030634 0.001769 -0.002108
# 5 0.002499 -0.000689 -0.000730 0.001769 0.025332 -0.006686
# 6 -0.002841 -0.002820 -0.002328 -0.002108 -0.006686 0.045405
#
#
# Mechanical properties :
#
#
# Convention : Reuss Voigt Hill
#
# Bulk Modulus (GPa) = 36.66808 40.09490 38.38149
# Shear Modulus (GPa) = 31.88607 35.04783 33.46695
#
# Velocity S-wave (km/s) = 3.72581 3.90616 3.81705
# Velocity P-wave (km/s) = 5.87131 6.14813 6.01132
#
# Compressibility (1/GPa) = 0.02727168
#
# Stress axis : x y z
#
# Youngs Moduli (GPa) = 92.90134 85.25806 69.85496
#
# Poissons Ratio (x) = 0.16072 0.17304
# Poissons Ratio (y) = 0.17513 0.02838
# Poissons Ratio (z) = 0.23013 0.03464
#
# Static dielectric constant tensor:
#      x y z
#    x 4.699270 -0.634460 -0.149990 
#    y -0.634460 4.451510 -0.298310 
#    z -0.149990 -0.298310 4.567430 
# 
# 
# High freq. dielectric constant tensor:
#      x y z
#    x 1.918180 -0.028740 -0.015650 
#    y -0.028740 1.907750 -0.010650 
#    z -0.015650 -0.010650 1.932620 
# 
# From -- ./inp_files/303650.got.cif
#   From: 2010.06.25/outbox.cif.g09.slc.cpg/sg2_152_cif.got.tgz:303650.got - 2010.06.27 13:26:56.
