data_PCOD8001035
_publ_section_title
;
Structure prediction by ZEFSAII (Michael W. Deem and Ramdas Pophale) SiO2 
 PCOD8001035
Probable space group: P -1
;
_chemical_formula_sum "Si O2"
_cell_formula_units_Z 16
_cell_length_a 8.562264
_cell_length_b 24.181297
_cell_length_c 9.114340
_cell_angle_alpha 30.536042
_cell_angle_beta 62.705193
_cell_angle_gamma 52.348778
_cell_volume 748.335976
_symmetry_space_group_name_H-M "P -1"
_symmetry_group_IT_number 2
_symmetry_cell_setting 'triclinic'
loop_
_space_group_symop_operation_xyz
x,y,z
-x,-y,-z
loop_
_atom_site_type_symbol
_atom_site_label
_atom_site_fract_x
_atom_site_fract_y
_atom_site_fract_z
Si Si1 0.147668 0.265598 0.326214
Si Si2 0.051264 0.110359 0.223260
Si Si3 0.125830 0.639168 0.160168
Si Si4 0.336002 0.127245 0.846512
Si Si5 0.254586 0.370980 0.786489
Si Si6 0.436273 0.793405 0.203468
Si Si7 0.284934 0.040804 0.569707
Si Si8 0.704292 0.371120 0.193637
O O1 0.221453 0.236963 0.527557
O O2 0.219330 0.132680 0.524749
O O3 0.906715 0.359970 0.208118
O O4 0.268677 0.325769 0.052320
O O5 0.134220 0.111721 0.344573
O O6 0.190402 0.083979 0.084111
O O7 0.000000 0.000000 0.500000
O O8 0.887094 0.256828 0.954302
O O9 0.229733 0.507580 0.496973
O O10 0.918101 0.649835 0.166837
O O11 0.258204 0.647408 0.952697
O O12 0.415411 0.183448 0.809297
O O13 0.500000 0.000000 0.000000
O O14 0.451405 0.294787 0.779473
O O15 0.322707 0.739608 0.473547
O O16 0.272820 0.921207 0.908045
O O17 0.500000 0.000000 0.500000
O O18 0.500000 0.500000 0.000000
#
# Coordination Sequence:
#
# PCOD8001035 Si02
#       8
#     2   2   2   2   2   2   2   2
#     4  11  23  41  68 101 135 172 225 279 334 396
#     4  12  26  42  67  98 137 175 216 280 342 399
#     4  10  20  42  67  94 126 173 232 264 331 401
#     4  12  25  42  62 104 139 171 219 281 341 393
#     4  10  19  40  73  91 122 183 226 267 320 415
#     4  12  23  39  70  97 135 173 224 275 336 399
#     4  12  20  42  67  97 128 177 232 263 330 414
#     4  11  24  42  67 100 130 172 226 281 329 392
#
# _framework density 21.380772
#
# number of rings (size 3 to 8) (size 9 to 14) (size 15 to 20)
#    0.000    0.750    8.750    0.000    3.500    0.500 
#    0.000    2.500    0.000    2.250    0.000    0.000 
#    0.000    0.000    0.000    0.000    0.000    0.000 
#
# Total GULP energy -198255.303894 kJ/mol
# GULP energy per Si atom -12390.956493 kJ/mol
# Density = 2.133211 g / cm^3
# Si number density = 21.380772 Si / 1000 Ang^3
#
#
#
# Elastic Constant Matrix: (Units=GPa)
#
#
# Indices 1 2 3 4 5 6 
#
# 1 30.7311 24.6636 19.8680 3.3097 3.4647 -1.1073
# 2 24.6636 125.0554 67.5203 -1.6636 -9.0691 -12.5445
# 3 19.8680 67.5203 197.5706 10.8604 -16.0777 -0.0480
# 4 3.3097 -1.6636 10.8604 51.7836 -2.6435 -2.4168
# 5 3.4647 -9.0691 -16.0777 -2.6435 39.7104 3.1317
# 6 -1.1073 -12.5445 -0.0480 -2.4168 3.1317 26.6758
#
#
#
# Elastic Compliance Matrix: (Units=1/GPa)
#
#
# Indices 1 2 3 4 5 6 
#
# 1 0.040845 -0.007705 -0.001817 -0.002859 -0.006133 -0.001470
# 2 -0.007705 0.011966 -0.003272 0.001900 0.001792 0.005263
# 3 -0.001817 -0.003272 0.006612 -0.001358 0.002154 -0.001978
# 4 -0.002859 0.001900 -0.001358 0.020018 0.001274 0.002437
# 5 -0.006133 0.001792 0.002154 0.001274 0.027280 -0.002495
# 6 -0.001470 0.005263 -0.001978 0.002437 -0.002495 0.040411
#
#
# Mechanical properties :
#
#
# Convention : Reuss Voigt Hill
#
# Bulk Modulus (GPa) = 29.55469 64.16232 46.85851
# Shear Modulus (GPa) = 27.17429 39.72100 33.44764
#
# Velocity S-wave (km/s) = 3.56893 4.31489 3.95951
# Velocity P-wave (km/s) = 5.55302 7.40937 6.54732
#
# Compressibility (1/GPa) = 0.03383557
#
# Stress axis : x y z
#
# Youngs Moduli (GPa) = 24.48295 83.57181 151.24548
#
# Poissons Ratio (x) = 0.64392 0.27474
# Poissons Ratio (y) = 0.18864 0.49486
# Poissons Ratio (z) = 0.04447 0.27344
#
# Static dielectric constant tensor:
#      x y z
#    x 3.548810 -0.144170 0.098780 
#    y -0.144170 4.036840 0.188100 
#    z 0.098780 0.188100 4.528780 
# 
# 
# High freq. dielectric constant tensor:
#      x y z
#    x 1.792380 -0.010180 0.003190 
#    y -0.010180 1.849900 0.005590 
#    z 0.003190 0.005590 1.871060 
# 
# From -- ./inp_files/178766.got.cif
#   From: 2010.06.25/outbox.cif.g09.slc.cpg/sg2_90_cif.got.tgz:178766.got - 2010.06.27 13:26:56.
