data_PCOD8001037
_publ_section_title
;
Structure prediction by ZEFSAII (Michael W. Deem and Ramdas Pophale) SiO2 
 PCOD8001037
Probable space group: P -1
;
_chemical_formula_sum "Si O2"
_cell_formula_units_Z 16
_cell_length_a 11.446457
_cell_length_b 12.432467
_cell_length_c 8.589002
_cell_angle_alpha 93.519382
_cell_angle_beta 55.802035
_cell_angle_gamma 56.493592
_cell_volume 710.077963
_symmetry_space_group_name_H-M "P -1"
_symmetry_group_IT_number 2
_symmetry_cell_setting 'triclinic'
loop_
_space_group_symop_operation_xyz
x,y,z
-x,-y,-z
loop_
_atom_site_type_symbol
_atom_site_label
_atom_site_fract_x
_atom_site_fract_y
_atom_site_fract_z
Si Si1 0.218792 0.102512 0.624715
Si Si2 0.570968 0.052016 0.840143
Si Si3 0.005331 0.123261 0.515641
Si Si4 0.599448 0.607468 0.637879
Si Si5 0.916889 0.590306 0.229941
Si Si6 0.230828 0.888794 0.774092
Si Si7 0.636037 0.350052 0.610847
Si Si8 0.329474 0.398812 0.059914
O O1 0.024115 0.160008 0.681377
O O2 0.187349 0.240242 0.720864
O O3 0.410050 0.000791 0.356182
O O4 0.266013 0.995840 0.720762
O O5 0.790231 0.960953 0.737598
O O6 0.419033 0.232043 0.967982
O O7 0.500000 0.000000 0.000000
O O8 0.810744 0.280175 0.598129
O O9 0.000000 0.000000 0.500000
O O10 0.762004 0.590013 0.421520
O O11 0.378223 0.778129 0.795517
O O12 0.597739 0.484863 0.563974
O O13 0.644043 0.573503 0.783335
O O14 0.093552 0.518436 0.213075
O O15 0.000000 0.500000 0.000000
O O16 0.291405 0.782070 0.572073
O O17 0.000000 0.000000 0.000000
O O18 0.437161 0.418818 0.856762
#
# Coordination Sequence:
#
# PCOD8001037 Si02
#       8
#     2   2   2   2   2   2   2   2
#     4  10  24  47  70 104 150 181 242 302 355 429
#     4  10  22  40  75 104 144 179 243 300 355 419
#     4  10  19  40  74 103 139 179 237 291 357 411
#     4  12  30  46  72 111 145 193 244 289 364 437
#     4  12  29  50  74 102 150 196 238 293 370 432
#     4  12  28  45  74 108 149 188 245 298 360 428
#     4  12  24  48  73 106 147 188 239 304 360 426
#     4  12  25  48  75 105 144 186 246 299 360 429
#
# _framework density 22.532737999999998
#
# number of rings (size 3 to 8) (size 9 to 14) (size 15 to 20)
#    0.750    0.000    3.750    3.375    8.750    0.500 
#    2.250    0.000    0.000    0.000    0.000    0.000 
#    0.000    0.000    0.000    0.000    0.000    0.000 
#
# Total GULP energy -198348.890004 kJ/mol
# GULP energy per Si atom -12396.805625 kJ/mol
# Density = 2.248145 g / cm^3
# Si number density = 22.532738 Si / 1000 Ang^3
#
#
#
# Elastic Constant Matrix: (Units=GPa)
#
#
# Indices 1 2 3 4 5 6 
#
# 1 79.5381 40.9824 32.8258 -7.3363 -10.1707 2.9486
# 2 40.9824 169.7347 54.0741 -6.8026 -21.2746 35.8884
# 3 32.8258 54.0741 133.4483 -12.3431 -18.3156 21.5385
# 4 -7.3363 -6.8026 -12.3431 37.1690 6.7632 -4.9619
# 5 -10.1707 -21.2746 -18.3156 6.7632 49.2399 6.2628
# 6 2.9486 35.8884 21.5385 -4.9619 6.2628 51.2268
#
#
#
# Elastic Compliance Matrix: (Units=1/GPa)
#
#
# Indices 1 2 3 4 5 6 
#
# 1 0.015519 -0.003382 -0.002703 0.001895 0.000125 0.002781
# 2 -0.003382 0.008794 -0.001392 -0.000937 0.003462 -0.005895
# 3 -0.002703 -0.001392 0.009735 0.001544 0.002648 -0.003137
# 4 0.001895 -0.000937 0.001544 0.028728 -0.003785 0.003144
# 5 0.000125 0.003462 0.002648 -0.003785 0.024209 -0.006872
# 6 0.002781 -0.005895 -0.003137 0.003144 -0.006872 0.025955
#
#
# Mechanical properties :
#
#
# Convention : Reuss Voigt Hill
#
# Bulk Modulus (GPa) = 52.37336 70.94283 61.65809
# Shear Modulus (GPa) = 37.24160 44.51640 40.87900
#
# Velocity S-wave (km/s) = 4.06985 4.44963 4.26397
# Velocity P-wave (km/s) = 6.73636 7.61260 7.18784
#
# Compressibility (1/GPa) = 0.01909368
#
# Stress axis : x y z
#
# Youngs Moduli (GPa) = 64.43890 113.70860 102.72281
#
# Poissons Ratio (x) = 0.38459 0.27769
# Poissons Ratio (y) = 0.21795 0.14295
# Poissons Ratio (z) = 0.17420 0.15824
#
# Static dielectric constant tensor:
#      x y z
#    x 3.797290 0.592230 0.512720 
#    y 0.592230 2.977180 -1.100230 
#    z 0.512720 -1.100230 2.924410 
# 
# 
# High freq. dielectric constant tensor:
#      x y z
#    x 1.890160 0.006780 -0.006500 
#    y 0.006780 1.906170 0.004590 
#    z -0.006500 0.004590 1.885460 
# 
# From -- ./inp_files/262454.got.cif
#   From: 2010.06.25/outbox.cif.g09.slc.cpg/sg2_132_cif.got.tgz:262454.got - 2010.06.27 13:26:56.
