data_PCOD8001031
_publ_section_title
;
Structure prediction by ZEFSAII (Michael W. Deem and Ramdas Pophale) SiO2 
 PCOD8001031
Probable space group: P -1
;
_chemical_formula_sum "Si O2"
_cell_formula_units_Z 16
_cell_length_a 15.558151
_cell_length_b 24.590147
_cell_length_c 9.571761
_cell_angle_alpha 152.113108
_cell_angle_beta 49.189127
_cell_angle_gamma 149.795346
_cell_volume 761.140892
_symmetry_space_group_name_H-M "P -1"
_symmetry_group_IT_number 2
_symmetry_cell_setting 'triclinic'
loop_
_space_group_symop_operation_xyz
x,y,z
-x,-y,-z
loop_
_atom_site_type_symbol
_atom_site_label
_atom_site_fract_x
_atom_site_fract_y
_atom_site_fract_z
Si Si1 0.441193 0.735182 0.279254
Si Si2 0.461171 0.812591 0.742903
Si Si3 0.044146 0.491758 0.087291
Si Si4 0.413271 0.398321 0.212365
Si Si5 0.434443 0.343076 0.611189
Si Si6 0.888633 0.229555 0.178696
Si Si7 0.994894 0.071440 0.805957
Si Si8 0.774456 0.175335 0.870395
O O1 0.394333 0.753871 0.520561
O O2 0.244634 0.589752 0.073194
O O3 0.612509 0.943561 0.490725
O O4 0.500902 0.651751 0.046775
O O5 0.452077 0.677802 0.511729
O O6 0.319306 0.776103 0.897698
O O7 0.672975 0.042202 0.041459
O O8 0.029169 0.585428 0.423704
O O9 0.000000 0.500000 0.000000
O O10 0.896616 0.277105 0.827465
O O11 0.500000 0.500000 0.500000
O O12 0.493272 0.567448 0.415907
O O13 0.178471 0.197851 0.998879
O O14 0.500000 0.500000 0.000000
O O15 0.204396 0.128802 0.361024
O O16 0.900123 0.244640 0.031512
O O17 0.006380 0.215503 0.075441
O O18 0.000000 0.000000 0.500000
#
# Coordination Sequence:
#
# PCOD8001031 Si02
#       8
#     2   2   2   2   2   2   2   2
#     4  11  23  46  64  96 136 161 219 280 319 388
#     4  10  19  40  72  97 127 161 222 279 319 382
#     4  12  27  40  62  98 134 173 209 261 335 400
#     4  12  28  45  66  99 139 181 221 271 335 401
#     4  11  22  41  69 100 129 178 223 275 328 388
#     4  10  21  41  66  98 127 160 224 274 316 387
#     4  11  23  42  71  98 131 173 232 278 323 393
#     4  11  22  41  70  97 121 173 214 269 334 377
#
# _framework density 21.021075
#
# number of rings (size 3 to 8) (size 9 to 14) (size 15 to 20)
#    0.000    1.000    5.000    2.625    3.500    3.000 
#    4.500    0.000    0.000    0.000    0.000    0.000 
#    0.000    0.000    0.000    0.000    0.000    0.000 
#
# Total GULP energy -198401.465963 kJ/mol
# GULP energy per Si atom -12400.091623 kJ/mol
# Density = 2.097323 g / cm^3
# Si number density = 21.021075 Si / 1000 Ang^3
#
#
#
# Elastic Constant Matrix: (Units=GPa)
#
#
# Indices 1 2 3 4 5 6 
#
# 1 130.5247 50.4274 31.7059 20.5305 3.0726 2.6655
# 2 50.4274 82.4460 30.7959 21.9968 9.2024 -18.5750
# 3 31.7059 30.7959 53.1052 18.3646 -2.4928 0.5163
# 4 20.5305 21.9968 18.3646 26.1770 1.9996 -7.2146
# 5 3.0726 9.2024 -2.4928 1.9996 41.3438 2.0039
# 6 2.6655 -18.5750 0.5163 -7.2146 2.0039 46.3340
#
#
#
# Elastic Compliance Matrix: (Units=1/GPa)
#
#
# Indices 1 2 3 4 5 6 
#
# 1 0.011031 -0.006066 -0.001857 -0.003298 0.000752 -0.003592
# 2 -0.006066 0.023066 -0.007956 -0.006171 -0.005299 0.008953
# 3 -0.001857 -0.007956 0.029982 -0.014890 0.004725 -0.005940
# 4 -0.003298 -0.006171 -0.014890 0.058566 -0.002456 0.007107
# 5 0.000752 -0.005299 0.004725 -0.002456 0.025895 -0.003722
# 6 -0.003592 0.008953 -0.005940 0.007107 -0.003722 0.026712
#
#
# Mechanical properties :
#
#
# Convention : Reuss Voigt Hill
#
# Bulk Modulus (GPa) = 30.94086 54.65938 42.80012
# Shear Modulus (GPa) = 22.95847 32.98073 27.96960
#
# Velocity S-wave (km/s) = 3.30838 3.96528 3.65163
# Velocity P-wave (km/s) = 5.41708 6.85735 6.17932
#
# Compressibility (1/GPa) = 0.03231973
#
# Stress axis : x y z
#
# Youngs Moduli (GPa) = 90.65672 43.35296 33.35378
#
# Poissons Ratio (x) = 0.26300 0.06194
# Poissons Ratio (y) = 0.54996 0.26537
# Poissons Ratio (z) = 0.16835 0.34492
#
# Static dielectric constant tensor:
#      x y z
#    x 4.358340 0.037270 -0.133260 
#    y 0.037270 4.347560 0.661420 
#    z -0.133260 0.661420 4.326990 
# 
# 
# High freq. dielectric constant tensor:
#      x y z
#    x 1.836540 0.008360 -0.017350 
#    y 0.008360 1.820150 0.018540 
#    z -0.017350 0.018540 1.814680 
# 
# From -- ./inp_files/320354.got.cif
#   From: 2010.06.25/outbox.cif.g09.slc.cpg/sg2_161_cif.got.tgz:320354.got - 2010.06.27 13:26:56.
