data_PCOD8001878
_publ_section_title
;
Structure prediction by ZEFSAII (Michael W. Deem and Ramdas Pophale) SiO2 
 PCOD8001878
Probable space group: P -1
;
_chemical_formula_sum "Si O2"
_cell_formula_units_Z 14
_cell_length_a 8.209634
_cell_length_b 8.749207
_cell_length_c 21.958246
_cell_angle_alpha 52.571602
_cell_angle_beta 138.127455
_cell_angle_gamma 98.175418
_cell_volume 677.708278
_symmetry_space_group_name_H-M "P -1"
_symmetry_group_IT_number 2
_symmetry_cell_setting 'triclinic'
loop_
_space_group_symop_operation_xyz
x,y,z
-x,-y,-z
loop_
_atom_site_type_symbol
_atom_site_label
_atom_site_fract_x
_atom_site_fract_y
_atom_site_fract_z
Si Si1 0.157450 0.964827 0.116970
Si Si2 0.432029 0.809066 0.032340
Si Si3 0.703843 0.353058 0.281845
Si Si4 0.453833 0.441770 0.322264
Si Si5 0.138510 0.538562 0.860344
Si Si6 0.714636 0.663871 0.921310
Si Si7 0.194286 0.032534 0.414434
O O1 0.412649 0.685516 0.266797
O O2 0.320170 0.096145 0.128197
O O3 0.920867 0.065433 0.082945
O O4 0.000000 0.000000 0.000000
O O5 0.609050 0.620766 0.182461
O O6 0.552557 0.656674 0.041179
O O7 0.500000 0.000000 0.000000
O O8 0.602325 0.333035 0.324277
O O9 0.567307 0.275846 0.210383
O O10 0.056361 0.163824 0.410087
O O11 0.124714 0.494580 0.219706
O O12 0.699804 0.240762 0.487104
O O13 0.024550 0.804214 0.742292
O O14 0.234880 0.494371 0.967652
O O15 0.000000 0.500000 0.000000
O O16 0.500000 0.000000 0.500000
#
# Coordination Sequence:
#
# PCOD8001878 Si02
#       7
#     2   2   2   2   2   2   2
#     4  12  20  36  59  88 122 155 196 243 294 352
#     4  11  19  31  53  87 122 144 188 244 295 341
#     4  11  22  37  62  90 116 158 199 239 302 346
#     4  11  19  38  61  85 116 154 204 241 279 357
#     4  10  20  34  58  87 120 148 197 243 295 341
#     4  12  21  38  59  91 123 154 190 249 300 354
#     4   9  22  38  57  88 116 157 200 243 285 349
#
# _framework density 20.657857
#
# number of rings (size 3 to 8) (size 9 to 14) (size 15 to 20)
#    0.000    1.143    7.143    0.429    0.000    2.286 
#    0.000    0.714    0.000    0.857    3.714    0.000 
#    0.000    0.000    0.000    0.000    0.000    0.000 
#
# Total GULP energy -173437.879807 kJ/mol
# GULP energy per Si atom -12388.419986 kJ/mol
# Density = 2.061084 g / cm^3
# Si number density = 20.657857 Si / 1000 Ang^3
#
#
#
# Elastic Constant Matrix: (Units=GPa)
#
#
# Indices 1 2 3 4 5 6 
#
# 1 134.0843 31.1567 51.1592 -8.7987 -0.7197 -16.2784
# 2 31.1567 90.8673 58.2337 -23.1627 -16.4699 12.1247
# 3 51.1592 58.2337 121.1713 -39.4088 -16.7126 -3.7227
# 4 -8.7987 -23.1627 -39.4088 37.0302 6.0849 -4.8469
# 5 -0.7197 -16.4699 -16.7126 6.0849 42.4523 -9.2248
# 6 -16.2784 12.1247 -3.7227 -4.8469 -9.2248 36.3738
#
#
#
# Elastic Compliance Matrix: (Units=1/GPa)
#
#
# Indices 1 2 3 4 5 6 
#
# 1 0.009793 -0.002240 -0.003876 -0.002496 -0.000968 0.004154
# 2 -0.002240 0.018125 -0.006950 0.002107 0.002468 -0.006849
# 3 -0.003876 -0.006950 0.018687 0.014724 0.003654 0.005383
# 4 -0.002496 0.002107 0.014724 0.043919 0.001566 0.005937
# 5 -0.000968 0.002468 0.003654 0.001566 0.027056 0.006188
# 6 0.004154 -0.006849 0.005383 0.005937 0.006188 0.034546
#
#
# Mechanical properties :
#
#
# Convention : Reuss Voigt Hill
#
# Bulk Modulus (GPa) = 48.84285 69.69133 59.26709
# Shear Modulus (GPa) = 27.01516 36.87615 31.94565
#
# Velocity S-wave (km/s) = 3.62020 4.22962 3.93672
# Velocity P-wave (km/s) = 6.41634 7.59356 7.02964
#
# Compressibility (1/GPa) = 0.02047382
#
# Stress axis : x y z
#
# Youngs Moduli (GPa) = 102.11775 55.17155 53.51278
#
# Poissons Ratio (x) = 0.12358 0.20740
# Poissons Ratio (y) = 0.22874 0.37191
# Poissons Ratio (z) = 0.39578 0.38344
#
# Static dielectric constant tensor:
#      x y z
#    x 4.365460 0.140110 -0.255990 
#    y 0.140110 3.648070 -0.783760 
#    z -0.255990 -0.783760 4.218300 
# 
# 
# High freq. dielectric constant tensor:
#      x y z
#    x 1.846450 0.008980 0.003020 
#    y 0.008980 1.767570 -0.038340 
#    z 0.003020 -0.038340 1.796360 
# 
# From -- ./inp_files/174943.got.cif
#   From: 2010.06.25/outbox.cif.g09.slc.cpg/sg2_88_cif.got.tgz:174943.got - 2010.06.27 13:26:56.
