data_PCOD8001333
_publ_section_title
;
Structure prediction by ZEFSAII (Michael W. Deem and Ramdas Pophale) SiO2 
 PCOD8001333
Probable space group: P -1
;
_chemical_formula_sum "Si O2"
_cell_formula_units_Z 16
_cell_length_a 13.560209
_cell_length_b 22.295756
_cell_length_c 5.112149
_cell_angle_alpha 82.489041
_cell_angle_beta 85.471276
_cell_angle_gamma 30.199599
_cell_volume 768.983552
_symmetry_space_group_name_H-M "P -1"
_symmetry_group_IT_number 2
_symmetry_cell_setting 'triclinic'
loop_
_space_group_symop_operation_xyz
x,y,z
-x,-y,-z
loop_
_atom_site_type_symbol
_atom_site_label
_atom_site_fract_x
_atom_site_fract_y
_atom_site_fract_z
Si Si1 0.891903 0.886249 0.383849
Si Si2 0.275548 0.656662 0.174895
Si Si3 0.415811 0.821261 0.212994
Si Si4 0.517231 0.090099 0.033573
Si Si5 0.001691 0.060262 0.306380
Si Si6 0.496854 0.577659 0.672057
Si Si7 0.573280 0.260823 0.224182
Si Si8 0.321164 0.091251 0.289164
O O1 0.673344 0.023810 0.268867
O O2 0.980042 0.890914 0.546151
O O3 0.873644 0.830330 0.568513
O O4 0.044306 0.794937 0.166127
O O5 0.400397 0.630485 0.373048
O O6 0.311943 0.566387 0.285678
O O7 0.337735 0.635523 0.877042
O O8 0.431404 0.787410 0.521131
O O9 0.184675 0.959846 0.121313
O O10 0.503461 0.728635 0.033336
O O11 0.538113 0.819411 0.162780
O O12 0.314931 0.163539 0.131927
O O13 0.638068 0.978643 0.903103
O O14 0.787439 0.175900 0.151698
O O15 0.000000 0.000000 0.500000
O O16 0.559865 0.612397 0.724996
O O17 0.500000 0.000000 0.500000
#
# Coordination Sequence:
#
# PCOD8001333 Si02
#       8
#     2   2   2   2   2   2   2   2
#     4  11  20  34  54  79 110 147 184 217 273 322
#     4  10  22  35  58  77 106 148 186 227 269 308
#     4  11  22  34  51  77 105 150 181 213 262 327
#     4  10  20  34  53  76 112 137 181 225 271 324
#     4  10  20  31  45  75 110 146 177 208 244 316
#     4  10  21  39  52  78 109 145 189 229 261 305
#     4  11  22  34  52  74 111 147 185 216 260 309
#     4   9  20  35  52  75 106 140 176 230 273 320
#
# _framework density 20.806688000000001
#
# number of rings (size 3 to 8) (size 9 to 14) (size 15 to 20)
#    0.000    1.750    2.500    2.625    7.000    0.000 
#    0.000    0.000    0.000    0.000    0.000    1.750 
#    0.000    0.000    0.000    0.000    0.000    0.000 
#
# Total GULP energy -198241.094815 kJ/mol
# GULP energy per Si atom -12390.068426 kJ/mol
# Density = 2.075933 g / cm^3
# Si number density = 20.806688 Si / 1000 Ang^3
#
#
#
# Elastic Constant Matrix: (Units=GPa)
#
#
# Indices 1 2 3 4 5 6 
#
# 1 117.0439 14.1162 15.7145 10.4187 -19.0382 17.0063
# 2 14.1162 46.5897 -5.8617 11.0372 3.7121 16.9935
# 3 15.7145 -5.8617 61.4973 14.4653 -2.5535 -0.6428
# 4 10.4187 11.0372 14.4653 22.5919 2.6084 2.9309
# 5 -19.0382 3.7121 -2.5535 2.6084 29.1628 2.9973
# 6 17.0063 16.9935 -0.6428 2.9309 2.9973 22.4082
#
#
#
# Elastic Compliance Matrix: (Units=1/GPa)
#
#
# Indices 1 2 3 4 5 6 
#
# 1 0.012081 -0.000034 -0.001839 -0.004149 0.009116 -0.009872
# 2 -0.000034 0.035961 0.007750 -0.019371 0.000333 -0.024534
# 3 -0.001839 0.007750 0.021400 -0.016553 0.001361 -0.001885
# 4 -0.004149 -0.019371 -0.016553 0.065950 -0.008607 0.009889
# 5 0.009116 0.000333 0.001361 -0.008607 0.042287 -0.011663
# 6 -0.009872 -0.024534 -0.001885 0.009889 -0.011663 0.070937
#
#
# Mechanical properties :
#
#
# Convention : Reuss Voigt Hill
#
# Bulk Modulus (GPa) = 12.31607 30.34099 21.32853
# Shear Modulus (GPa) = 18.94458 28.24337 23.59397
#
# Velocity S-wave (km/s) = 3.02073 3.68831 3.37109
# Velocity P-wave (km/s) = 4.25424 5.72295 5.04236
#
# Compressibility (1/GPa) = 0.08119476
#
# Stress axis : x y z
#
# Youngs Moduli (GPa) = 82.77118 27.80829 46.72909
#
# Poissons Ratio (x) = 0.00096 0.08595
# Poissons Ratio (y) = 0.00285 -0.36216
# Poissons Ratio (z) = 0.15224 -0.21552
#
# Static dielectric constant tensor:
#      x y z
#    x 4.229670 0.217140 -0.414930 
#    y 0.217140 3.631160 0.229920 
#    z -0.414930 0.229920 3.728360 
# 
# 
# High freq. dielectric constant tensor:
#      x y z
#    x 1.816060 0.038830 -0.011050 
#    y 0.038830 1.748690 0.014600 
#    z -0.011050 0.014600 1.827470 
# 
# From -- ./inp_files/76448.got.cif
#   From: 2010.06.25/outbox.cif.g09.slc.cpg/sg2_39_cif.got.tgz:76448.got - 2010.06.27 13:26:56.
