data_PCOD8001673
_publ_section_title
;
Structure prediction by ZEFSAII (Michael W. Deem and Ramdas Pophale) SiO2 
 PCOD8001673
Probable space group: P -1
;
_chemical_formula_sum "Si O2"
_cell_formula_units_Z 14
_cell_length_a 12.926874
_cell_length_b 13.971306
_cell_length_c 9.326445
_cell_angle_alpha 68.931404
_cell_angle_beta 92.058693
_cell_angle_gamma 32.677040
_cell_volume 628.522898
_symmetry_space_group_name_H-M "P -1"
_symmetry_group_IT_number 2
_symmetry_cell_setting 'triclinic'
loop_
_space_group_symop_operation_xyz
x,y,z
-x,-y,-z
loop_
_atom_site_type_symbol
_atom_site_label
_atom_site_fract_x
_atom_site_fract_y
_atom_site_fract_z
Si Si1 0.999034 0.911801 0.756233
Si Si2 0.227597 0.505516 0.077923
Si Si3 0.393156 0.673550 0.735742
Si Si4 0.042723 0.682232 0.286516
Si Si5 0.462753 0.135902 0.080676
Si Si6 0.265153 0.309093 0.666592
Si Si7 0.259187 0.706507 0.273641
O O1 0.274175 0.711076 0.833535
O O2 0.801724 0.121985 0.510765
O O3 0.917944 0.032490 0.843703
O O4 0.027143 0.763611 0.846848
O O5 0.502772 0.313314 0.207156
O O6 0.095298 0.598009 0.172060
O O7 0.291211 0.344412 0.082630
O O8 0.640654 0.388734 0.833955
O O9 0.262433 0.423007 0.530975
O O10 0.096635 0.752418 0.279490
O O11 0.745837 0.928967 0.180494
O O12 0.502578 0.979904 0.211609
O O13 0.285059 0.306105 0.839536
O O14 0.000000 0.500000 0.500000
O O15 0.500000 0.500000 0.500000
#
# Coordination Sequence:
#
# PCOD8001673 Si02
#       7
#     2   2   2   2   2   2   2
#     4  10  20  34  52  79 118 158 198 238 280 336
#     4  11  23  35  57  91 117 150 197 240 290 348
#     4   9  20  35  51  78 116 158 198 238 283 333
#     4  10  22  39  61  89 120 156 197 241 292 345
#     4  10  22  41  64  88 116 151 194 245 298 352
#     4   9  21  44  66  86 115 151 193 244 302 357
#     4   9  19  35  55  82 118 159 196 232 279 336
#
# _framework density 22.274446000000001
#
# number of rings (size 3 to 8) (size 9 to 14) (size 15 to 20)
#    0.000    2.286    0.000    1.286    0.000   13.143 
#    0.000    6.429    0.000    0.000    0.000    0.000 
#    0.000    0.000    0.000    0.000    0.000    0.000 
#
# Total GULP energy -173502.726566 kJ/mol
# GULP energy per Si atom -12393.051898 kJ/mol
# Density = 2.222375 g / cm^3
# Si number density = 22.274446 Si / 1000 Ang^3
#
#
#
# Elastic Constant Matrix: (Units=GPa)
#
#
# Indices 1 2 3 4 5 6 
#
# 1 38.2573 13.3505 15.4505 -4.1922 2.8715 11.0256
# 2 13.3505 118.5862 40.5537 -7.9629 -9.2110 27.3660
# 3 15.4505 40.5537 95.7820 -14.1089 -10.7266 6.2010
# 4 -4.1922 -7.9629 -14.1089 26.3848 1.3740 -0.4437
# 5 2.8715 -9.2110 -10.7266 1.3740 36.9722 -1.4438
# 6 11.0256 27.3660 6.2010 -0.4437 -1.4438 40.7136
#
#
#
# Elastic Compliance Matrix: (Units=1/GPa)
#
#
# Indices 1 2 3 4 5 6 
#
# 1 0.030814 -0.000371 -0.004421 0.002510 -0.004156 -0.007542
# 2 -0.000371 0.011698 -0.004116 0.001077 0.001433 -0.007073
# 3 -0.004421 -0.004116 0.013918 0.005363 0.003235 0.002017
# 4 0.002510 0.001077 0.005363 0.041461 0.000019 -0.001768
# 5 -0.004156 0.001433 0.003235 0.000019 0.028692 0.000687
# 6 -0.007542 -0.007073 0.002017 -0.001768 0.000687 0.031056
#
#
# Mechanical properties :
#
#
# Convention : Reuss Voigt Hill
#
# Bulk Modulus (GPa) = 25.89736 43.48166 34.68951
# Shear Modulus (GPa) = 26.54958 33.03220 29.79089
#
# Velocity S-wave (km/s) = 3.45618 3.85510 3.66108
# Velocity P-wave (km/s) = 5.25154 6.27527 5.78609
#
# Compressibility (1/GPa) = 0.03861397
#
# Stress axis : x y z
#
# Youngs Moduli (GPa) = 32.45249 85.48610 71.84966
#
# Poissons Ratio (x) = 0.03172 0.31765
# Poissons Ratio (y) = 0.01204 0.29573
# Poissons Ratio (z) = 0.14347 0.35186
#
# Static dielectric constant tensor:
#      x y z
#    x 4.000250 0.121990 -0.119530 
#    y 0.121990 4.420920 -0.124870 
#    z -0.119530 -0.124870 4.366750 
# 
# 
# High freq. dielectric constant tensor:
#      x y z
#    x 1.861790 0.007120 0.007750 
#    y 0.007120 1.876120 -0.008340 
#    z 0.007750 -0.008340 1.905990 
# 
# From -- ./inp_files/314900.got.cif
#   From: 2010.06.25/outbox.cif.g09.slc.cpg/sg2_158_cif.got.tgz:314900.got - 2010.06.27 13:26:56.
