data_PCOD8001820
_publ_section_title
;
Structure prediction by ZEFSAII (Michael W. Deem and Ramdas Pophale) SiO2 
 PCOD8001820
Probable space group: P -1
;
_chemical_formula_sum "Si O2"
_cell_formula_units_Z 16
_cell_length_a 12.437696
_cell_length_b 7.940988
_cell_length_c 7.961879
_cell_angle_alpha 116.053199
_cell_angle_beta 80.079169
_cell_angle_gamma 91.464789
_cell_volume 694.788941
_symmetry_space_group_name_H-M "P -1"
_symmetry_group_IT_number 2
_symmetry_cell_setting 'triclinic'
loop_
_space_group_symop_operation_xyz
x,y,z
-x,-y,-z
loop_
_atom_site_type_symbol
_atom_site_label
_atom_site_fract_x
_atom_site_fract_y
_atom_site_fract_z
Si Si1 0.240455 0.447068 0.484965
Si Si2 0.765585 0.860679 0.222114
Si Si3 0.061246 0.238382 0.574900
Si Si4 0.440193 0.769845 0.039520
Si Si5 0.659132 0.945072 0.599121
Si Si6 0.664463 0.569779 0.895693
Si Si7 0.747397 0.200946 0.138386
Si Si8 0.864936 0.132689 0.747764
O O1 0.111910 0.411691 0.537430
O O2 0.312806 0.253200 0.405813
O O3 0.266321 0.511684 0.317681
O O4 0.273925 0.603324 0.674625
O O5 0.863429 0.813575 0.305172
O O6 0.655112 0.912156 0.385202
O O7 0.790820 0.037109 0.178923
O O8 0.747541 0.679911 0.035159
O O9 0.936736 0.283086 0.692720
O O10 0.062068 0.064700 0.365981
O O11 0.378297 0.597918 0.058516
O O12 0.448368 0.945074 0.245956
O O13 0.562320 0.707007 0.923454
O O14 0.369595 0.844965 0.930860
O O15 0.750393 0.097829 0.675852
O O16 0.842158 0.209870 0.975411
#
# Coordination Sequence:
#
# PCOD8001820 Si02
#       8
#     2   2   2   2   2   2   2   2
#     4  10  21  35  55  79 113 145 184 225 268 322
#     4  10  20  34  57  82 113 146 180 222 275 326
#     4   9  18  37  59  82 110 145 182 229 276 323
#     4  10  22  38  59  80 108 143 184 231 280 325
#     4   9  19  38  59  83 111 145 181 229 275 323
#     4  11  22  38  57  82 109 144 184 229 278 329
#     4  11  21  36  56  83 113 148 185 225 269 326
#     4   8  17  34  60  81 109 144 184 224 275 322
#
# _framework density 23.028576000000001
#
# number of rings (size 3 to 8) (size 9 to 14) (size 15 to 20)
#    0.000    2.500    0.000    4.500    0.000    4.000 
#    0.000    2.500    0.000   15.750    0.000    0.000 
#    0.000    0.000    0.000    0.000    0.000    0.000 
#
# Total GULP energy -198243.358556 kJ/mol
# GULP energy per Si atom -12390.209910 kJ/mol
# Density = 2.297616 g / cm^3
# Si number density = 23.028576 Si / 1000 Ang^3
#
#
#
# Elastic Constant Matrix: (Units=GPa)
#
#
# Indices 1 2 3 4 5 6 
#
# 1 48.2743 17.1319 27.8420 -2.2761 0.3731 -1.1856
# 2 17.1319 53.4017 17.8417 -5.3116 -6.1376 7.6631
# 3 27.8420 17.8417 160.4509 2.6043 -3.3855 6.9259
# 4 -2.2761 -5.3116 2.6043 36.7817 0.6586 -6.2796
# 5 0.3731 -6.1376 -3.3855 0.6586 16.8024 2.3154
# 6 -1.1856 7.6631 6.9259 -6.2796 2.3154 15.9331
#
#
#
# Elastic Compliance Matrix: (Units=1/GPa)
#
#
# Indices 1 2 3 4 5 6 
#
# 1 0.026811 -0.009106 -0.004249 0.002483 -0.006269 0.010111
# 2 -0.009106 0.025126 -0.000379 0.000495 0.011218 -0.014032
# 3 -0.004249 -0.000379 0.007263 -0.001589 0.002063 -0.004217
# 4 0.002483 0.000495 -0.001589 0.029771 -0.003129 0.012825
# 5 -0.006269 0.011218 0.002063 -0.003129 0.066728 -0.017689
# 6 0.010111 -0.014032 -0.004217 0.012825 -0.017689 0.079722
#
#
# Mechanical properties :
#
#
# Convention : Reuss Voigt Hill
#
# Bulk Modulus (GPa) = 31.51418 43.08424 37.29921
# Shear Modulus (GPa) = 18.28368 27.19085 22.73726
#
# Velocity S-wave (km/s) = 2.82078 3.43992 3.14562
# Velocity P-wave (km/s) = 4.93190 5.87597 5.42451
#
# Compressibility (1/GPa) = 0.03173175
#
# Stress axis : x y z
#
# Youngs Moduli (GPa) = 37.29813 39.79872 137.67990
#
# Poissons Ratio (x) = 0.36242 0.58497
# Poissons Ratio (y) = 0.33964 0.05225
# Poissons Ratio (z) = 0.15847 0.01510
#
# Static dielectric constant tensor:
#      x y z
#    x 3.994110 0.150110 -0.353040 
#    y 0.150110 4.033160 -0.017190 
#    z -0.353040 -0.017190 4.567900 
# 
# 
# High freq. dielectric constant tensor:
#      x y z
#    x 1.876910 0.008880 -0.014540 
#    y 0.008880 1.905080 0.001000 
#    z -0.014540 0.001000 1.925620 
# 
# From -- ./inp_files/296397.got.cif
#   From: 2010.06.25/outbox.cif.g09.slc.cpg/sg2_149_cif.got.tgz:296397.got - 2010.06.27 13:26:56.
