data_PCOD8001624
_publ_section_title
;
Structure prediction by ZEFSAII (Michael W. Deem and Ramdas Pophale) SiO2 
 PCOD8001624
Probable space group: P -1
;
_chemical_formula_sum "Si O2"
_cell_formula_units_Z 16
_cell_length_a 8.444435
_cell_length_b 12.456687
_cell_length_c 15.282350
_cell_angle_alpha 48.388673
_cell_angle_beta 44.586127
_cell_angle_gamma 47.890535
_cell_volume 781.637434
_symmetry_space_group_name_H-M "P -1"
_symmetry_group_IT_number 2
_symmetry_cell_setting 'triclinic'
loop_
_space_group_symop_operation_xyz
x,y,z
-x,-y,-z
loop_
_atom_site_type_symbol
_atom_site_label
_atom_site_fract_x
_atom_site_fract_y
_atom_site_fract_z
Si Si1 0.479039 0.767233 0.493871
Si Si2 0.276668 0.871041 0.221444
Si Si3 0.452177 0.918484 0.951234
Si Si4 0.777519 0.128573 0.291084
Si Si5 0.548141 0.048440 0.258583
Si Si6 0.001695 0.734818 0.637633
Si Si7 0.961432 0.656964 0.884657
Si Si8 0.302389 0.564145 0.467402
O O1 0.429083 0.841787 0.570181
O O2 0.224620 0.794231 0.529485
O O3 0.667088 0.586939 0.521362
O O4 0.618470 0.863880 0.338655
O O5 0.343017 0.692829 0.319492
O O6 0.488518 0.926199 0.143421
O O7 0.259929 0.900462 0.106575
O O8 0.011622 0.974991 0.307882
O O9 0.354879 0.918531 0.891120
O O10 0.693892 0.770765 0.951899
O O11 0.672838 0.117518 0.243835
O O12 0.848150 0.278429 0.182940
O O13 0.255086 0.123651 0.341274
O O14 0.045759 0.637432 0.581750
O O15 0.005585 0.629869 0.777635
O O16 0.000000 0.500000 0.000000
O O17 0.500000 0.500000 0.500000
#
# Coordination Sequence:
#
# PCOD8001624 Si02
#       8
#     2   2   2   2   2   2   2   2
#     4  10  20  35  59  84 111 148 189 235 281 323
#     4  10  20  38  56  84 114 146 193 229 281 334
#     4   9  20  34  60  82 108 153 187 234 273 332
#     4  10  22  37  57  84 111 156 183 231 284 336
#     4  11  20  38  57  82 117 148 195 222 281 341
#     4   9  19  35  57  86 108 145 189 233 277 329
#     4   9  19  36  60  82 111 144 189 233 279 332
#     4  10  20  33  59  87 111 138 187 244 277 318
#
# _framework density 20.469849
#
# number of rings (size 3 to 8) (size 9 to 14) (size 15 to 20)
#    0.000    2.250    0.000    3.750    5.250    0.500 
#    2.250    5.000    0.000    0.000    0.000    0.000 
#    0.000    0.000    0.000    0.000    0.000    0.000 
#
# Total GULP energy -198320.637533 kJ/mol
# GULP energy per Si atom -12395.039846 kJ/mol
# Density = 2.042326 g / cm^3
# Si number density = 20.469849 Si / 1000 Ang^3
#
#
#
# Elastic Constant Matrix: (Units=GPa)
#
#
# Indices 1 2 3 4 5 6 
#
# 1 63.4100 19.9475 23.4087 -5.2109 18.8559 12.8603
# 2 19.9475 116.4133 67.2762 -8.6709 14.6279 11.3257
# 3 23.4087 67.2762 114.9851 -13.0134 19.7158 6.8979
# 4 -5.2109 -8.6709 -13.0134 42.8541 2.5800 9.4256
# 5 18.8559 14.6279 19.7158 2.5800 21.3138 6.0573
# 6 12.8603 11.3257 6.8979 9.4256 6.0573 13.8799
#
#
#
# Elastic Compliance Matrix: (Units=1/GPa)
#
#
# Indices 1 2 3 4 5 6 
#
# 1 0.026701 0.000971 -0.000318 0.009723 -0.018361 -0.023964
# 2 0.000971 0.013965 -0.007187 0.003098 -0.001248 -0.010282
# 3 -0.000318 -0.007187 0.014902 0.003505 -0.009092 0.000341
# 4 0.009723 0.003098 0.003505 0.033871 -0.008858 -0.032414
# 5 -0.018361 -0.001248 -0.009092 -0.008858 0.074640 -0.004009
# 6 -0.023964 -0.010282 0.000341 -0.032414 -0.004009 0.126233
#
#
# Mechanical properties :
#
#
# Convention : Reuss Voigt Hill
#
# Bulk Modulus (GPa) = 23.52899 57.34146 40.43523
# Shear Modulus (GPa) = 15.74575 27.88795 21.81685
#
# Velocity S-wave (km/s) = 2.77648 3.69506 3.26821
# Velocity P-wave (km/s) = 4.66882 6.80280 5.83421
#
# Compressibility (1/GPa) = 0.04250076
#
# Stress axis : x y z
#
# Youngs Moduli (GPa) = 37.45121 71.60730 67.10695
#
# Poissons Ratio (x) = -0.06955 0.02133
# Poissons Ratio (y) = -0.03637 0.48230
# Poissons Ratio (z) = 0.01190 0.51464
#
# Static dielectric constant tensor:
#      x y z
#    x 3.381070 0.114320 0.225310 
#    y 0.114320 4.376210 0.307150 
#    z 0.225310 0.307150 3.777320 
# 
# 
# High freq. dielectric constant tensor:
#      x y z
#    x 1.763170 0.005000 0.019830 
#    y 0.005000 1.805890 0.010930 
#    z 0.019830 0.010930 1.801800 
# 
# From -- ./inp_files/226305.got.cif
#   From: 2010.06.25/outbox.cif.g09.slc.cpg/sg2_114_cif.got.tgz:226305.got - 2010.06.27 13:26:56.
