data_PCOD8001606
_publ_section_title
;
Structure prediction by ZEFSAII (Michael W. Deem and Ramdas Pophale) SiO2 
 PCOD8001606
Probable space group: P -1
;
_chemical_formula_sum "Si O2"
_cell_formula_units_Z 16
_cell_length_a 27.007225
_cell_length_b 5.198921
_cell_length_c 11.704044
_cell_angle_alpha 111.926865
_cell_angle_beta 30.722341
_cell_angle_gamma 105.134390
_cell_volume 772.565677
_symmetry_space_group_name_H-M "P -1"
_symmetry_group_IT_number 2
_symmetry_cell_setting 'triclinic'
loop_
_space_group_symop_operation_xyz
x,y,z
-x,-y,-z
loop_
_atom_site_type_symbol
_atom_site_label
_atom_site_fract_x
_atom_site_fract_y
_atom_site_fract_z
Si Si1 0.959886 0.386048 0.236282
Si Si2 0.323070 0.199086 0.326582
Si Si3 0.296547 0.827809 0.533923
Si Si4 0.924720 0.167903 0.020621
Si Si5 0.411120 0.684860 0.959012
Si Si6 0.620101 0.102026 0.176954
Si Si7 0.565713 0.211752 0.547479
Si Si8 0.755548 0.652829 0.718109
O O1 0.861764 0.505573 0.519665
O O2 0.026762 0.630417 0.127265
O O3 0.926563 0.268249 0.163526
O O4 0.018824 0.143876 0.155060
O O5 0.346491 0.513124 0.353373
O O6 0.237420 0.208541 0.400179
O O7 0.291452 0.053123 0.479774
O O8 0.415174 0.001108 0.051812
O O9 0.359634 0.931937 0.530017
O O10 0.186989 0.820656 0.794567
O O11 0.382543 0.664652 0.877861
O O12 0.518181 0.516976 0.736925
O O13 0.323716 0.563750 0.179791
O O14 0.623789 0.237152 0.317064
O O15 0.520788 0.970081 0.331821
O O16 0.715932 0.876666 0.930628
#
# Coordination Sequence:
#
# PCOD8001606 Si02
#       8
#     2   2   2   2   2   2   2   2
#     4  10  20  33  58  83 116 155 188 240 285 342
#     4  11  22  37  57  89 125 154 191 231 299 361
#     4  12  24  39  59  86 130 158 188 241 295 361
#     4  10  21  33  54  87 117 152 194 229 289 358
#     4  10  20  38  62  88 117 155 196 250 284 355
#     4   9  21  41  62  87 113 151 215 242 285 347
#     4  10  23  40  60  86 117 161 197 248 291 339
#     4  10  20  37  62  88 120 154 195 249 288 343
#
# _framework density 20.710214000000001
#
# number of rings (size 3 to 8) (size 9 to 14) (size 15 to 20)
#    0.000    1.750    2.500    1.125    8.750    1.000 
#    0.000    0.000    0.000    1.500    0.000    0.000 
#    0.000    0.000    0.000    0.000    0.000    0.000 
#
# Total GULP energy -198322.624528 kJ/mol
# GULP energy per Si atom -12395.164033 kJ/mol
# Density = 2.066308 g / cm^3
# Si number density = 20.710214 Si / 1000 Ang^3
#
#
#
# Elastic Constant Matrix: (Units=GPa)
#
#
# Indices 1 2 3 4 5 6 
#
# 1 76.1625 27.4138 55.3308 5.2753 -0.0513 -15.1613
# 2 27.4138 94.0011 36.2764 9.8677 -2.3212 -22.8353
# 3 55.3308 36.2764 120.3920 11.1248 -5.3443 -10.0532
# 4 5.2753 9.8677 11.1248 25.1793 -10.5524 0.2502
# 5 -0.0513 -2.3212 -5.3443 -10.5524 16.4558 1.0399
# 6 -15.1613 -22.8353 -10.0532 0.2502 1.0399 19.9241
#
#
#
# Elastic Compliance Matrix: (Units=1/GPa)
#
#
# Indices 1 2 3 4 5 6 
#
# 1 0.022693 0.000486 -0.009402 -0.003421 -0.005957 0.013435
# 2 0.000486 0.016903 -0.003302 -0.007367 -0.004574 0.018408
# 3 -0.009402 -0.003302 0.013532 -0.001265 0.003358 -0.004271
# 4 -0.003421 -0.007367 -0.001265 0.059884 0.037851 -0.014412
# 5 -0.005957 -0.004574 0.003358 0.037851 0.086293 -0.013060
# 6 0.013435 0.018408 -0.004271 -0.014412 -0.013060 0.080219
#
#
# Mechanical properties :
#
#
# Convention : Reuss Voigt Hill
#
# Bulk Modulus (GPa) = 34.85366 58.73308 46.79337
# Shear Modulus (GPa) = 15.94780 23.74749 19.84765
#
# Velocity S-wave (km/s) = 2.77798 3.38990 3.09908
# Velocity P-wave (km/s) = 5.21108 6.61385 5.95392
#
# Compressibility (1/GPa) = 0.02869139
#
# Stress axis : x y z
#
# Youngs Moduli (GPa) = 44.06683 59.16244 73.90095
#
# Poissons Ratio (x) = -0.02877 0.69484
# Poissons Ratio (y) = -0.02143 0.24400
# Poissons Ratio (z) = 0.41433 0.19534
#
# Static dielectric constant tensor:
#      x y z
#    x 3.450960 -0.341210 0.109000 
#    y -0.341210 3.893530 0.175180 
#    z 0.109000 0.175180 3.869350 
# 
# 
# High freq. dielectric constant tensor:
#      x y z
#    x 1.764440 -0.027940 0.000500 
#    y -0.027940 1.814980 0.011070 
#    z 0.000500 0.011070 1.808660 
# 
# From -- ./inp_files/118144.got.cif
#   From: 2010.06.25/outbox.cif.g09.slc.cpg/sg2_60_cif.got.tgz:118144.got - 2010.06.27 13:26:56.
