data_PCOD8001946
_publ_section_title
;
Structure prediction by ZEFSAII (Michael W. Deem and Ramdas Pophale) SiO2 
 PCOD8001946
Probable space group: P -1
;
_chemical_formula_sum "Si O2"
_cell_formula_units_Z 14
_cell_length_a 18.114313
_cell_length_b 8.907340
_cell_length_c 21.075489
_cell_angle_alpha 36.729823
_cell_angle_beta 161.481942
_cell_angle_gamma 141.000099
_cell_volume 643.251985
_symmetry_space_group_name_H-M "P -1"
_symmetry_group_IT_number 2
_symmetry_cell_setting 'triclinic'
loop_
_space_group_symop_operation_xyz
x,y,z
-x,-y,-z
loop_
_atom_site_type_symbol
_atom_site_label
_atom_site_fract_x
_atom_site_fract_y
_atom_site_fract_z
Si Si1 0.851096 0.115353 0.995031
Si Si2 0.305574 0.923785 0.251382
Si Si3 0.952876 0.532552 0.761710
Si Si4 0.468425 0.462633 0.188187
Si Si5 0.352888 0.401411 0.973071
Si Si6 0.743307 0.639135 0.689289
Si Si7 0.914942 0.709671 0.537322
O O1 0.855503 0.015318 0.960237
O O2 0.739494 0.383285 0.814681
O O3 0.112818 0.144296 0.225711
O O4 0.701602 0.895798 0.986103
O O5 0.130865 0.770357 0.210609
O O6 0.482177 0.718099 0.441838
O O7 0.444213 0.186074 0.297401
O O8 0.869933 0.635154 0.726014
O O9 0.845748 0.669687 0.568301
O O10 0.232123 0.589033 0.968311
O O11 0.686307 0.637138 0.333339
O O12 0.500059 0.439186 0.145752
O O13 0.114607 0.535495 0.738234
O O14 0.500000 0.500000 0.000000
O O15 0.000000 0.000000 0.500000
#
# Coordination Sequence:
#
# PCOD8001946 Si02
#       7
#     2   2   2   2   2   2   2
#     4   9  19  35  56  87 117 144 188 235 284 333
#     4  10  20  37  60  89 118 149 193 235 282 343
#     4  10  22  37  58  88 118 154 190 230 288 346
#     4  10  23  41  59  84 120 152 186 240 292 339
#     4  10  23  41  62  84 111 150 196 240 284 340
#     4  10  20  34  60  89 118 151 187 235 282 336
#     4  11  26  42  58  84 116 154 198 238 285 342
#
# _framework density 21.764410000000002
#
# number of rings (size 3 to 8) (size 9 to 14) (size 15 to 20)
#    0.000    2.000    0.000    3.000    0.000   14.857 
#    0.000    0.000    0.000    0.000    0.000    0.000 
#    0.000    0.000    0.000    0.000    0.000    0.000 
#
# Total GULP energy -173513.993364 kJ/mol
# GULP energy per Si atom -12393.856669 kJ/mol
# Density = 2.171487 g / cm^3
# Si number density = 21.764410 Si / 1000 Ang^3
#
#
#
# Elastic Constant Matrix: (Units=GPa)
#
#
# Indices 1 2 3 4 5 6 
#
# 1 100.8240 59.0856 53.3560 5.7779 -6.6714 22.5991
# 2 59.0856 166.3606 49.9746 27.3806 -20.7521 21.0428
# 3 53.3560 49.9746 106.6799 27.1941 -10.4026 -0.7752
# 4 5.7779 27.3806 27.1941 32.4138 -0.5347 0.2189
# 5 -6.6714 -20.7521 -10.4026 -0.5347 27.3194 -8.1864
# 6 22.5991 21.0428 -0.7752 0.2189 -8.1864 36.0004
#
#
#
# Elastic Compliance Matrix: (Units=1/GPa)
#
#
# Indices 1 2 3 4 5 6 
#
# 1 0.020146 -0.004738 -0.010988 0.009607 -0.006142 -0.011569
# 2 -0.004738 0.009741 0.000277 -0.007511 0.005796 -0.001349
# 3 -0.010988 0.000277 0.019146 -0.014279 0.007196 0.008872
# 4 0.009607 -0.007511 -0.014279 0.047341 -0.009165 -0.004320
# 5 -0.006142 0.005796 0.007196 -0.009165 0.045362 0.010994
# 6 -0.011569 -0.001349 0.008872 -0.004320 0.010994 0.038546
#
#
# Mechanical properties :
#
#
# Convention : Reuss Voigt Hill
#
# Bulk Modulus (GPa) = 55.14727 77.63298 66.39012
# Shear Modulus (GPa) = 23.01740 33.24326 28.13033
#
# Velocity S-wave (km/s) = 3.25556 3.91245 3.59902
# Velocity P-wave (km/s) = 6.28688 7.49379 6.91671
#
# Compressibility (1/GPa) = 0.01813326
#
# Stress axis : x y z
#
# Youngs Moduli (GPa) = 49.63682 102.66169 52.22970
#
# Poissons Ratio (x) = 0.48646 0.57393
# Poissons Ratio (y) = 0.23520 -0.01447
# Poissons Ratio (z) = 0.54543 -0.02843
#
# Static dielectric constant tensor:
#      x y z
#    x 3.791380 0.066150 -0.217110 
#    y 0.066150 4.141990 0.035030 
#    z -0.217110 0.035030 3.951270 
# 
# 
# High freq. dielectric constant tensor:
#      x y z
#    x 1.840270 0.003660 -0.007870 
#    y 0.003660 1.863570 0.005050 
#    z -0.007870 0.005050 1.858740 
# 
# From -- ./inp_files/299656.got.cif
#   From: 2010.06.25/outbox.cif.g09.slc.cpg/sg2_150_cif.got.tgz:299656.got - 2010.06.27 13:26:56.
