data_PCOD8001619
_publ_section_title
;
Structure prediction by ZEFSAII (Michael W. Deem and Ramdas Pophale) SiO2 
 PCOD8001619
Probable space group: P -1
;
_chemical_formula_sum "Si O2"
_cell_formula_units_Z 16
_cell_length_a 12.387895
_cell_length_b 14.902171
_cell_length_c 11.294006
_cell_angle_alpha 54.132783
_cell_angle_beta 64.598331
_cell_angle_gamma 29.315132
_cell_volume 809.424096
_symmetry_space_group_name_H-M "P -1"
_symmetry_group_IT_number 2
_symmetry_cell_setting 'triclinic'
loop_
_space_group_symop_operation_xyz
x,y,z
-x,-y,-z
loop_
_atom_site_type_symbol
_atom_site_label
_atom_site_fract_x
_atom_site_fract_y
_atom_site_fract_z
Si Si1 0.838014 0.656298 0.119453
Si Si2 0.015015 0.105129 0.561835
Si Si3 0.163938 0.198119 0.314552
Si Si4 0.152470 0.034956 0.970325
Si Si5 0.529306 0.023503 0.154482
Si Si6 0.791690 0.256895 0.797294
Si Si7 0.990229 0.262467 0.105297
Si Si8 0.710471 0.319471 0.323016
O O1 0.958664 0.444479 0.243266
O O2 0.699492 0.799320 0.191127
O O3 0.664991 0.785192 0.992538
O O4 0.034168 0.593598 0.046384
O O5 0.151032 0.115147 0.486487
O O6 0.948553 0.133515 0.704513
O O7 0.795772 0.284951 0.440787
O O8 0.175226 0.881956 0.617305
O O9 0.407535 0.067612 0.294377
O O10 0.144414 0.147310 0.238718
O O11 0.913637 0.232291 0.861588
O O12 0.330788 0.978599 0.870607
O O13 0.124212 0.084624 0.083687
O O14 0.247813 0.836626 0.065840
O O15 0.553672 0.497870 0.691738
O O16 0.760008 0.381485 0.159113
#
# Coordination Sequence:
#
# PCOD8001619 Si02
#       8
#     2   2   2   2   2   2   2   2
#     4   9  18  31  54  90 111 140 180 233 286 331
#     4  10  22  40  54  86 114 142 194 232 268 344
#     4  10  20  33  59  84 113 143 183 232 280 334
#     4  10  22  37  57  82 120 144 190 232 270 340
#     4   9  18  34  53  82 115 143 179 234 283 318
#     4  11  23  39  55  83 112 158 188 224 276 333
#     4   9  17  35  55  86 115 135 184 240 276 326
#     4  10  21  37  61  80 112 152 182 236 287 313
#
# _framework density 19.767140999999999
#
# number of rings (size 3 to 8) (size 9 to 14) (size 15 to 20)
#    0.000    2.250    1.250    2.625    5.250    1.500 
#    0.000    0.625    0.000    3.750    0.000    0.000 
#    0.000    0.000    0.000    0.000    0.000    0.000 
#
# Total GULP energy -198339.182630 kJ/mol
# GULP energy per Si atom -12396.198914 kJ/mol
# Density = 1.972215 g / cm^3
# Si number density = 19.767141 Si / 1000 Ang^3
#
#
#
# Elastic Constant Matrix: (Units=GPa)
#
#
# Indices 1 2 3 4 5 6 
#
# 1 102.2704 42.3255 37.1944 -5.2847 -24.9650 -11.1024
# 2 42.3255 78.5115 31.6697 0.4511 -6.9038 -7.8301
# 3 37.1944 31.6697 61.7206 1.1035 -17.3397 -8.5980
# 4 -5.2847 0.4511 1.1035 17.2233 -7.5020 -3.8454
# 5 -24.9650 -6.9038 -17.3397 -7.5020 25.6778 6.0038
# 6 -11.1024 -7.8301 -8.5980 -3.8454 6.0038 23.4471
#
#
#
# Elastic Compliance Matrix: (Units=1/GPa)
#
#
# Indices 1 2 3 4 5 6 
#
# 1 0.019700 -0.007747 -0.002272 0.015570 0.019259 0.003530
# 2 -0.007747 0.019330 -0.007657 -0.006290 -0.009677 0.001425
# 3 -0.002272 -0.007657 0.025685 0.004492 0.013683 0.003018
# 4 0.015570 -0.006290 0.004492 0.081561 0.037828 0.010609
# 5 0.019259 -0.009677 0.013683 0.037828 0.075903 -0.002326
# 6 0.003530 0.001425 0.003018 0.010609 -0.002326 0.048239
#
#
# Mechanical properties :
#
#
# Convention : Reuss Voigt Hill
#
# Bulk Modulus (GPa) = 34.05963 51.65351 42.85657
# Shear Modulus (GPa) = 15.84497 22.02381 18.93439
#
# Velocity S-wave (km/s) = 2.83429 3.34153 3.09831
# Velocity P-wave (km/s) = 5.28950 6.40902 5.87598
#
# Compressibility (1/GPa) = 0.02936027
#
# Stress axis : x y z
#
# Youngs Moduli (GPa) = 50.76179 51.73383 38.93383
#
# Poissons Ratio (x) = 0.40081 0.08847
# Poissons Ratio (y) = 0.39328 0.29812
# Poissons Ratio (z) = 0.11535 0.39613
#
# Static dielectric constant tensor:
#      x y z
#    x 3.764150 -0.140180 -0.326300 
#    y -0.140180 3.478930 0.253400 
#    z -0.326300 0.253400 3.485760 
# 
# 
# High freq. dielectric constant tensor:
#      x y z
#    x 1.766690 0.000630 -0.029200 
#    y 0.000630 1.764250 0.015720 
#    z -0.029200 0.015720 1.742860 
# 
# From -- ./inp_files/425415.got.cif
#   From: 2010.06.25/outbox.cif.g09.slc.cpg/sg2_213_cif.got.tgz:425415.got - 2010.06.27 13:26:56.
