data_PCOD8001275
_publ_section_title
;
Structure prediction by ZEFSAII (Michael W. Deem and Ramdas Pophale) SiO2 
 PCOD8001275
Probable space group: P -1
;
_chemical_formula_sum "Si O2"
_cell_formula_units_Z 16
_cell_length_a 12.881508
_cell_length_b 11.740724
_cell_length_c 8.197199
_cell_angle_alpha 63.516926
_cell_angle_beta 94.750215
_cell_angle_gamma 47.377486
_cell_volume 662.669385
_symmetry_space_group_name_H-M "P -1"
_symmetry_group_IT_number 2
_symmetry_cell_setting 'triclinic'
loop_
_space_group_symop_operation_xyz
x,y,z
-x,-y,-z
loop_
_atom_site_type_symbol
_atom_site_label
_atom_site_fract_x
_atom_site_fract_y
_atom_site_fract_z
Si Si1 0.726264 0.468959 0.591418
Si Si2 0.046632 0.318204 0.687477
Si Si3 0.161489 0.767954 0.910347
Si Si4 0.679021 0.141612 0.016970
Si Si5 0.165486 0.305358 0.040909
Si Si6 0.760008 0.174800 0.654081
Si Si7 0.354578 0.376093 0.998223
Si Si8 0.430641 0.853358 0.500615
O O1 0.673435 0.399792 0.515464
O O2 0.564774 0.719360 0.450280
O O3 0.878379 0.399048 0.573239
O O4 0.798076 0.344695 0.848134
O O5 0.000000 0.500000 0.500000
O O6 0.208859 0.091869 0.763910
O O7 0.096906 0.279125 0.908922
O O8 0.272714 0.789075 0.901370
O O9 0.217005 0.623436 0.859171
O O10 0.958513 0.998450 0.738401
O O11 0.476043 0.301624 0.910082
O O12 0.734173 0.122256 0.852401
O O13 0.251364 0.349700 0.951456
O O14 0.302561 0.097035 0.305172
O O15 0.000000 0.500000 0.000000
O O16 0.666777 0.188213 0.488957
O O17 0.475342 0.225577 0.264615
#
# Coordination Sequence:
#
# PCOD8001275 Si02
#       8
#     2   2   2   2   2   2   2   2
#     4  10  20  39  66 102 123 174 226 278 320 398
#     4  12  26  43  68  98 134 170 224 279 340 392
#     4  10  19  43  70  94 132 182 224 268 331 405
#     4  11  22  42  68  99 133 172 220 285 336 375
#     4  12  26  47  67  91 135 189 225 261 333 414
#     4  11  19  41  74  95 131 176 230 270 328 401
#     4  11  26  40  66 102 140 173 221 279 334 385
#     4  11  23  40  66  97 133 175 227 269 324 405
#
# _framework density 24.144767999999999
#
# number of rings (size 3 to 8) (size 9 to 14) (size 15 to 20)
#    0.000    1.000    3.750    4.125    3.500    1.500 
#    0.000    1.875    0.000    0.000    0.000    0.000 
#    0.000    0.000    0.000    0.000    0.000    0.000 
#
# Total GULP energy -198414.479321 kJ/mol
# GULP energy per Si atom -12400.904958 kJ/mol
# Density = 2.408981 g / cm^3
# Si number density = 24.144768 Si / 1000 Ang^3
#
#
#
# Elastic Constant Matrix: (Units=GPa)
#
#
# Indices 1 2 3 4 5 6 
#
# 1 152.1989 37.2263 -4.3496 -4.1869 -2.2041 -3.3859
# 2 37.2263 111.8736 19.2168 -32.3700 -14.9060 -9.1580
# 3 -4.3496 19.2168 48.1312 -18.2676 -9.7165 0.6300
# 4 -4.1869 -32.3700 -18.2676 29.6005 4.9816 1.9624
# 5 -2.2041 -14.9060 -9.7165 4.9816 32.2387 -6.7996
# 6 -3.3859 -9.1580 0.6300 1.9624 -6.7996 50.1140
#
#
#
# Elastic Compliance Matrix: (Units=1/GPa)
#
#
# Indices 1 2 3 4 5 6 
#
# 1 0.007331 -0.003169 0.001253 -0.001589 -0.000359 -0.000086
# 2 -0.003169 0.015320 0.000520 0.015577 0.005180 0.002672
# 3 0.001253 0.000520 0.028504 0.017286 0.006244 -0.000008
# 4 -0.001589 0.015577 0.017286 0.060712 0.003039 0.000557
# 5 -0.000359 0.005180 0.006244 0.003039 0.035984 0.005607
# 6 -0.000086 0.002672 -0.000008 0.000557 0.005607 0.021176
#
#
# Mechanical properties :
#
#
# Convention : Reuss Voigt Hill
#
# Bulk Modulus (GPa) = 20.67770 46.26565 33.47167
# Shear Modulus (GPa) = 26.60435 39.73132 33.16784
#
# Velocity S-wave (km/s) = 3.32304 4.06093 3.71038
# Velocity P-wave (km/s) = 4.82764 6.41807 5.67881
#
# Compressibility (1/GPa) = 0.04836129
#
# Stress axis : x y z
#
# Youngs Moduli (GPa) = 136.41632 65.27431 35.08335
#
# Poissons Ratio (x) = 0.20687 -0.04397
# Poissons Ratio (y) = 0.43234 -0.01823
# Poissons Ratio (z) = -0.17096 -0.03392
#
# Static dielectric constant tensor:
#      x y z
#    x 4.834660 0.171300 0.195860 
#    y 0.171300 4.740180 -0.252020 
#    z 0.195860 -0.252020 4.158380 
# 
# 
# High freq. dielectric constant tensor:
#      x y z
#    x 1.967920 0.007670 0.009240 
#    y 0.007670 1.966370 -0.021330 
#    z 0.009240 -0.021330 1.943030 
# 
# From -- ./inp_files/262070.got.cif
#   From: 2010.06.25/outbox.cif.g09.slc.cpg/sg2_132_cif.got.tgz:262070.got - 2010.06.27 13:26:56.
