data_PCOD8001007
_publ_section_title
;
Structure prediction by ZEFSAII (Michael W. Deem and Ramdas Pophale) SiO2 
 PCOD8001007
Probable space group: P -1
;
_chemical_formula_sum "Si O2"
_cell_formula_units_Z 16
_cell_length_a 9.357548
_cell_length_b 8.538285
_cell_length_c 21.085692
_cell_angle_alpha 119.209605
_cell_angle_beta 29.951616
_cell_angle_gamma 119.573428
_cell_volume 724.429719
_symmetry_space_group_name_H-M "P -1"
_symmetry_group_IT_number 2
_symmetry_cell_setting 'triclinic'
loop_
_space_group_symop_operation_xyz
x,y,z
-x,-y,-z
loop_
_atom_site_type_symbol
_atom_site_label
_atom_site_fract_x
_atom_site_fract_y
_atom_site_fract_z
Si Si1 0.519576 0.138118 0.254446
Si Si2 0.478919 0.604981 0.935677
Si Si3 0.297476 0.726696 0.258734
Si Si4 0.119384 0.767586 0.198675
Si Si5 0.957732 0.156509 0.191757
Si Si6 0.051499 0.686003 0.479012
Si Si7 0.404720 0.084517 0.617134
Si Si8 0.380956 0.900266 0.932894
O O1 0.760100 0.233989 0.229950
O O2 0.643408 0.174843 0.143745
O O3 0.224181 0.215408 0.390924
O O4 0.469271 0.924388 0.248360
O O5 0.462629 0.400546 0.875581
O O6 0.368251 0.729060 0.949304
O O7 0.812662 0.674936 0.839103
O O8 0.269309 0.607337 0.077851
O O9 0.092041 0.738903 0.279082
O O10 0.106604 0.645479 0.376005
O O11 0.804087 0.769161 0.290646
O O12 0.320175 0.961002 0.143522
O O13 0.757968 0.081027 0.312187
O O14 0.109920 0.998676 0.071486
O O15 0.322875 0.816268 0.429546
O O16 0.000000 0.500000 0.500000
O O17 0.500000 0.000000 0.500000
#
# Coordination Sequence:
#
# PCOD8001007 Si02
#       8
#     2   2   2   2   2   2   2   2
#     4  11  24  44  66  94 133 172 215 268 329 385
#     4  11  21  41  68 101 133 168 218 269 320 388
#     4  11  24  40  67  94 133 174 213 268 329 378
#     4  10  21  41  65  99 133 172 214 270 325 384
#     4  11  22  40  68 100 128 172 217 265 322 391
#     4  12  28  48  66  93 130 175 222 268 326 391
#     4  12  24  41  70  97 129 171 223 265 329 382
#     4  10  19  40  69  97 132 170 214 265 327 385
#
# _framework density 22.086338999999999
#
# number of rings (size 3 to 8) (size 9 to 14) (size 15 to 20)
#    0.000    1.000    3.750    4.125    3.500    1.000 
#    0.000    5.000    0.000    0.000    0.000    0.000 
#    0.000    0.000    0.000    0.000    0.000    0.000 
#
# Total GULP energy -198493.660705 kJ/mol
# GULP energy per Si atom -12405.853794 kJ/mol
# Density = 2.203607 g / cm^3
# Si number density = 22.086339 Si / 1000 Ang^3
#
#
#
# Elastic Constant Matrix: (Units=GPa)
#
#
# Indices 1 2 3 4 5 6 
#
# 1 122.6485 21.5183 59.5366 -6.9181 0.5204 -6.2850
# 2 21.5183 68.3363 33.5354 13.4787 -2.9189 -5.4402
# 3 59.5366 33.5354 132.1513 5.3477 4.1697 10.0821
# 4 -6.9181 13.4787 5.3477 31.6634 -4.6046 4.0280
# 5 0.5204 -2.9189 4.1697 -4.6046 54.0619 1.4122
# 6 -6.2850 -5.4402 10.0821 4.0280 1.4122 14.7725
#
#
#
# Elastic Compliance Matrix: (Units=1/GPa)
#
#
# Indices 1 2 3 4 5 6 
#
# 1 0.011656 -0.000774 -0.005777 0.002910 0.000336 0.007791
# 2 -0.000774 0.020611 -0.005542 -0.009690 0.000366 0.013651
# 3 -0.005777 -0.005542 0.012585 0.000525 -0.000826 -0.013152
# 4 0.002910 -0.009690 0.000525 0.038406 0.003031 -0.013451
# 5 0.000336 0.000366 -0.000826 0.003031 0.018882 -0.001790
# 6 0.007791 0.013651 -0.013152 -0.013451 -0.001790 0.088850
#
#
# Mechanical properties :
#
#
# Convention : Reuss Voigt Hill
#
# Bulk Modulus (GPa) = 48.39562 61.36852 54.88207
# Shear Modulus (GPa) = 22.51591 34.00261 28.25926
#
# Velocity S-wave (km/s) = 3.19635 3.92794 3.58088
# Velocity P-wave (km/s) = 5.96504 6.95828 6.48072
#
# Compressibility (1/GPa) = 0.02066303
#
# Stress axis : x y z
#
# Youngs Moduli (GPa) = 85.79542 48.51827 79.46276
#
# Poissons Ratio (x) = 0.03757 0.45908
# Poissons Ratio (y) = 0.06644 0.44040
# Poissons Ratio (z) = 0.49567 0.26890
#
# Static dielectric constant tensor:
#      x y z
#    x 4.253630 -0.115480 0.121690 
#    y -0.115480 3.822150 0.066410 
#    z 0.121690 0.066410 4.149640 
# 
# 
# High freq. dielectric constant tensor:
#      x y z
#    x 1.888390 -0.013520 0.010010 
#    y -0.013520 1.849330 0.006310 
#    z 0.010010 0.006310 1.876030 
# 
# From -- ./inp_files/188794.got.cif
#   From: 2010.06.25/outbox.cif.g09.slc.cpg/sg2_95_cif.got.tgz:188794.got - 2010.06.27 13:26:56.
