data_PCOD8001476
_publ_section_title
;
Structure prediction by ZEFSAII (Michael W. Deem and Ramdas Pophale) SiO2 
 PCOD8001476
Probable space group: P -1
;
_chemical_formula_sum "Si O2"
_cell_formula_units_Z 16
_cell_length_a 14.796311
_cell_length_b 13.245020
_cell_length_c 14.692877
_cell_angle_alpha 93.379087
_cell_angle_beta 160.699079
_cell_angle_gamma 79.251354
_cell_volume 872.165813
_symmetry_space_group_name_H-M "P -1"
_symmetry_group_IT_number 2
_symmetry_cell_setting 'triclinic'
loop_
_space_group_symop_operation_xyz
x,y,z
-x,-y,-z
loop_
_atom_site_type_symbol
_atom_site_label
_atom_site_fract_x
_atom_site_fract_y
_atom_site_fract_z
Si Si1 0.344135 0.150055 0.541013
Si Si2 0.337978 0.920134 0.336319
Si Si3 0.217847 0.253943 0.759720
Si Si4 0.075446 0.145156 0.777549
Si Si5 0.766553 0.056539 0.201214
Si Si6 0.559966 0.101971 0.369726
Si Si7 0.615027 0.370735 0.093353
Si Si8 0.255762 0.776529 0.948791
O O1 0.505477 0.164197 0.601897
O O2 0.991781 0.227267 0.214909
O O3 0.349722 0.028416 0.550613
O O4 0.499440 0.188093 0.770935
O O5 0.394203 0.856682 0.483330
O O6 0.500000 0.000000 0.500000
O O7 0.000000 0.000000 0.000000
O O8 0.057897 0.246602 0.702261
O O9 0.960375 0.312599 0.445433
O O10 0.437652 0.131010 0.930742
O O11 0.411897 0.327359 0.960789
O O12 0.754644 0.141697 0.488724
O O13 0.276339 0.032405 0.911165
O O14 0.222694 0.155607 0.014679
O O15 0.892559 0.133940 0.267951
O O16 0.000000 0.000000 0.500000
O O17 0.586949 0.341168 0.958629
O O18 0.500000 0.500000 0.000000
#
# Coordination Sequence:
#
# PCOD8001476 Si02
#       8
#     2   2   2   2   2   2   2   2
#     4  11  19  34  49  74 106 140 184 222 241 312
#     4  10  20  33  46  70 103 148 186 211 252 297
#     4  11  24  37  54  80 104 142 186 224 266 321
#     4  12  21  32  51  76 112 142 181 208 251 320
#     4  11  21  34  49  75 115 147 178 213 256 307
#     4  11  20  32  48  73 109 152 176 207 254 309
#     4  11  24  43  59  74 105 139 182 240 288 314
#     4  11  21  33  54  77 100 138 187 214 267 309
#
# _framework density 18.345134000000002
#
# number of rings (size 3 to 8) (size 9 to 14) (size 15 to 20)
#    0.000    1.000    2.500    8.250    0.000    0.000 
#    0.000    0.000    0.000    0.000    0.000    0.000 
#    0.000   20.000    0.000    0.000    0.000    0.000 
#
# Total GULP energy -198273.894185 kJ/mol
# GULP energy per Si atom -12392.118387 kJ/mol
# Density = 1.830338 g / cm^3
# Si number density = 18.345134 Si / 1000 Ang^3
#
#
#
# Elastic Constant Matrix: (Units=GPa)
#
#
# Indices 1 2 3 4 5 6 
#
# 1 93.9446 33.1077 23.4960 3.0570 10.5947 -9.6608
# 2 33.1077 69.5466 23.5553 2.4555 8.5974 -5.5375
# 3 23.4960 23.5553 94.6910 15.3126 5.7171 -2.7243
# 4 3.0570 2.4555 15.3126 21.3961 1.6988 1.0239
# 5 10.5947 8.5974 5.7171 1.6988 30.8578 9.0888
# 6 -9.6608 -5.5375 -2.7243 1.0239 9.0888 18.6645
#
#
#
# Elastic Compliance Matrix: (Units=1/GPa)
#
#
# Indices 1 2 3 4 5 6 
#
# 1 0.014311 -0.004832 -0.001723 -0.000209 -0.005750 0.008534
# 2 -0.004832 0.018635 -0.003196 0.000964 -0.004358 0.004631
# 3 -0.001723 -0.003196 0.013295 -0.008887 -0.000777 0.000966
# 4 -0.000209 0.000964 -0.008887 0.053229 -0.000340 -0.003874
# 5 -0.005750 -0.004358 -0.000777 -0.000340 0.043246 -0.025423
# 6 0.008534 0.004631 0.000966 -0.003874 -0.025423 0.072102
#
#
# Mechanical properties :
#
#
# Convention : Reuss Voigt Hill
#
# Bulk Modulus (GPa) = 37.39703 46.50003 41.94853
# Shear Modulus (GPa) = 20.55650 26.05189 23.30420
#
# Velocity S-wave (km/s) = 3.35108 3.77251 3.56802
# Velocity P-wave (km/s) = 5.95000 6.66169 6.31588
#
# Compressibility (1/GPa) = 0.02674009
#
# Stress axis : x y z
#
# Youngs Moduli (GPa) = 69.87597 53.66284 75.21665
#
# Poissons Ratio (x) = 0.25928 0.12957
# Poissons Ratio (y) = 0.33761 0.24041
# Poissons Ratio (z) = 0.12037 0.17152
#
# Static dielectric constant tensor:
#      x y z
#    x 79.465940 -18.087290 -1.666070 
#    y -18.087290 7.385480 0.683690 
#    z -1.666070 0.683690 3.365320 
# 
# 
# High freq. dielectric constant tensor:
#      x y z
#    x 1.714810 -0.005780 0.011920 
#    y -0.005780 1.659540 0.042600 
#    z 0.011920 0.042600 1.714390 
# 
# From -- ./inp_files/533336.got.cif
#   From: 2010.06.25/outbox.cif.g09.slc.cpg/sg2_267_cif.got.tgz:533336.got - 2010.06.27 13:26:56.
