data_PCOD8001875
_publ_section_title
;
Structure prediction by ZEFSAII (Michael W. Deem and Ramdas Pophale) SiO2 
 PCOD8001875
Probable space group: P -1
;
_chemical_formula_sum "Si O2"
_cell_formula_units_Z 14
_cell_length_a 23.428354
_cell_length_b 9.521057
_cell_length_c 10.536610
_cell_angle_alpha 28.802410
_cell_angle_beta 141.906055
_cell_angle_gamma 143.493351
_cell_volume 645.045373
_symmetry_space_group_name_H-M "P -1"
_symmetry_group_IT_number 2
_symmetry_cell_setting 'triclinic'
loop_
_space_group_symop_operation_xyz
x,y,z
-x,-y,-z
loop_
_atom_site_type_symbol
_atom_site_label
_atom_site_fract_x
_atom_site_fract_y
_atom_site_fract_z
Si Si1 0.949623 0.626460 0.703228
Si Si2 0.726920 0.195784 0.657134
Si Si3 0.079976 0.576694 0.468779
Si Si4 0.610174 0.308460 0.816202
Si Si5 0.793026 0.781390 0.909640
Si Si6 0.602582 0.590651 0.033154
Si Si7 0.522797 0.638892 0.238547
O O1 0.831478 0.480865 0.646868
O O2 0.968536 0.522712 0.677132
O O3 0.000000 0.000000 0.500000
O O4 0.000000 0.500000 0.000000
O O5 0.742529 0.969342 0.757041
O O6 0.677039 0.963634 0.874474
O O7 0.653353 0.355012 0.352116
O O8 0.000000 0.500000 0.500000
O O9 0.132461 0.956961 0.261379
O O10 0.154187 0.394086 0.768928
O O11 0.715917 0.521718 0.890591
O O12 0.589637 0.432857 0.545534
O O13 0.516069 0.278884 0.762775
O O14 0.602781 0.953114 0.063257
O O15 0.573663 0.536441 0.877398
O O16 0.500000 0.500000 0.000000
#
# Coordination Sequence:
#
# PCOD8001875 Si02
#       7
#     2   2   2   2   2   2   2
#     4  11  23  43  69  97 123 167 219 270 325 391
#     4  11  23  41  65  91 121 167 224 255 303 387
#     4  11  24  42  65  97 130 163 204 268 333 382
#     4  10  20  34  58  87 114 152 199 252 288 348
#     4  11  21  39  66  91 123 163 215 253 306 389
#     4  12  24  41  60  88 130 172 211 257 307 369
#     4  10  21  34  55  85 121 151 196 250 298 341
#
# _framework density 21.703900000000001
#
# number of rings (size 3 to 8) (size 9 to 14) (size 15 to 20)
#    0.000    1.143    1.429    6.857    4.000    0.000 
#    0.000    8.571    0.000    0.000    0.000    0.000 
#    0.000    0.000    0.000    0.000    0.000    0.000 
#
# Total GULP energy -173523.064867 kJ/mol
# GULP energy per Si atom -12394.504633 kJ/mol
# Density = 2.165450 g / cm^3
# Si number density = 21.703900 Si / 1000 Ang^3
#
#
#
# Elastic Constant Matrix: (Units=GPa)
#
#
# Indices 1 2 3 4 5 6 
#
# 1 64.5703 31.3217 35.9736 2.7701 -8.8590 20.4874
# 2 31.3217 151.6620 62.7421 -20.0397 -7.5105 15.2932
# 3 35.9736 62.7421 194.1562 0.6927 -11.4402 0.9822
# 4 2.7701 -20.0397 0.6927 50.7249 8.7812 -8.1053
# 5 -8.8590 -7.5105 -11.4402 8.7812 26.7008 -4.7196
# 6 20.4874 15.2932 0.9822 -8.1053 -4.7196 24.3916
#
#
#
# Elastic Compliance Matrix: (Units=1/GPa)
#
#
# Indices 1 2 3 4 5 6 
#
# 1 0.026691 -0.002381 -0.003752 -0.006719 0.004888 -0.022062
# 2 -0.002381 0.008741 -0.002438 0.003387 -0.000920 -0.002435
# 3 -0.003752 -0.002438 0.006724 -0.000441 0.001914 0.004633
# 4 -0.006719 0.003387 -0.000441 0.024378 -0.007688 0.010151
# 5 0.004888 -0.000920 0.001914 -0.007688 0.042529 0.002068
# 6 -0.022062 -0.002435 0.004633 0.010151 0.002068 0.064641
#
#
# Mechanical properties :
#
#
# Convention : Reuss Voigt Hill
#
# Bulk Modulus (GPa) = 39.97598 74.49591 57.23595
# Shear Modulus (GPa) = 25.10213 39.05356 32.07784
#
# Velocity S-wave (km/s) = 3.40453 4.24651 3.84862
# Velocity P-wave (km/s) = 5.82351 7.64474 6.79541
#
# Compressibility (1/GPa) = 0.02501502
#
# Stress axis : x y z
#
# Youngs Moduli (GPa) = 37.46532 114.39973 148.71247
#
# Poissons Ratio (x) = 0.27239 0.55802
# Poissons Ratio (y) = 0.08921 0.36250
# Poissons Ratio (z) = 0.14058 0.27886
#
# Static dielectric constant tensor:
#      x y z
#    x 3.692270 0.170960 -0.454140 
#    y 0.170960 4.252940 -0.238680 
#    z -0.454140 -0.238680 5.016190 
# 
# 
# High freq. dielectric constant tensor:
#      x y z
#    x 1.817480 0.011630 -0.015170 
#    y 0.011630 1.863290 -0.015510 
#    z -0.015170 -0.015510 1.881060 
# 
# From -- ./inp_files/434038.got.cif
#   From: 2010.06.25/outbox.cif.g09.slc.cpg/sg2_218_cif.got.tgz:434038.got - 2010.06.27 13:26:56.
