data_PCOD8001615
_publ_section_title
;
Structure prediction by ZEFSAII (Michael W. Deem and Ramdas Pophale) SiO2 
 PCOD8001615
Probable space group: P -1
;
_chemical_formula_sum "Si O2"
_cell_formula_units_Z 14
_cell_length_a 26.297084
_cell_length_b 14.541900
_cell_length_c 26.060491
_cell_angle_alpha 18.623114
_cell_angle_beta 168.703490
_cell_angle_gamma 160.775641
_cell_volume 605.326841
_symmetry_space_group_name_H-M "P -1"
_symmetry_group_IT_number 2
_symmetry_cell_setting 'triclinic'
loop_
_space_group_symop_operation_xyz
x,y,z
-x,-y,-z
loop_
_atom_site_type_symbol
_atom_site_label
_atom_site_fract_x
_atom_site_fract_y
_atom_site_fract_z
Si Si1 0.463862 0.433227 0.100993
Si Si2 0.047927 0.122392 0.425374
Si Si3 0.082224 0.283039 0.002967
Si Si4 0.753864 0.558642 0.756344
Si Si5 0.563302 0.039077 0.919196
Si Si6 0.118989 0.916054 0.325215
Si Si7 0.348722 0.213800 0.210426
O O1 0.704422 0.326086 0.368624
O O2 0.506862 0.407025 0.218980
O O3 0.490855 0.786396 0.936396
O O4 0.189803 0.248711 0.902431
O O5 0.085109 0.480113 0.272309
O O6 0.000000 0.000000 0.500000
O O7 0.306490 0.050472 0.693250
O O8 0.788662 0.970842 0.215895
O O9 0.285167 0.423596 0.082910
O O10 0.912308 0.977270 0.974058
O O11 0.226252 0.168408 0.254451
O O12 0.500000 0.500000 0.500000
O O13 0.841649 0.903429 0.678057
O O14 0.684229 0.350014 0.847239
O O15 0.000000 0.500000 0.000000
O O16 0.500000 0.000000 0.500000
#
# Coordination Sequence:
#
# PCOD8001615 Si02
#       7
#     2   2   2   2   2   2   2
#     4  11  24  42  68 100 144 183 228 280 359 408
#     4  12  26  41  68 102 151 192 237 277 352 423
#     4  10  22  36  59  95 135 184 234 275 327 406
#     4  12  27  50  77 105 134 181 244 307 370 417
#     4  12  27  47  71 104 147 185 236 301 356 418
#     4  11  23  44  70 100 133 184 229 292 343 429
#     4  10  20  33  58  92 138 180 230 268 321 407
#
# _framework density 23.128001000000001
#
# number of rings (size 3 to 8) (size 9 to 14) (size 15 to 20)
#    0.000    0.857    2.857    3.857    8.000    0.000 
#    0.000    4.286    0.000    0.000    0.000    0.000 
#    0.000    0.000    0.000    0.000    0.000    0.000 
#
# Total GULP energy -173523.467826 kJ/mol
# GULP energy per Si atom -12394.533416 kJ/mol
# Density = 2.307536 g / cm^3
# Si number density = 23.128001 Si / 1000 Ang^3
#
#
#
# Elastic Constant Matrix: (Units=GPa)
#
#
# Indices 1 2 3 4 5 6 
#
# 1 81.1917 32.4367 51.9337 8.5392 14.8012 -20.9525
# 2 32.4367 98.6322 37.2095 -6.9279 6.4757 -25.7911
# 3 51.9337 37.2095 147.0419 13.6441 23.9955 -13.4807
# 4 8.5392 -6.9279 13.6441 36.5796 -12.5855 5.0444
# 5 14.8012 6.4757 23.9955 -12.5855 46.0439 -1.9829
# 6 -20.9525 -25.7911 -13.4807 5.0444 -1.9829 39.7427
#
#
#
# Elastic Compliance Matrix: (Units=1/GPa)
#
#
# Indices 1 2 3 4 5 6 
#
# 1 0.019741 -0.003103 -0.004020 -0.006562 -0.005281 0.007600
# 2 -0.003103 0.013869 -0.002512 0.004041 0.001723 0.006085
# 3 -0.004020 -0.002512 0.010155 -0.005067 -0.005028 0.000087
# 4 -0.006562 0.004041 -0.005067 0.037280 0.014088 -0.006584
# 5 -0.005281 0.001723 -0.005028 0.014088 0.029486 -0.003689
# 6 0.007600 0.006085 0.000087 -0.006584 -0.003689 0.033799
#
#
# Mechanical properties :
#
#
# Convention : Reuss Voigt Hill
#
# Bulk Modulus (GPa) = 40.82267 63.33617 52.07942
# Shear Modulus (GPa) = 29.10966 38.15896 33.63431
#
# Velocity S-wave (km/s) = 3.55157 4.06631 3.81762
# Velocity P-wave (km/s) = 5.87429 7.03498 6.48067
#
# Compressibility (1/GPa) = 0.02449619
#
# Stress axis : x y z
#
# Youngs Moduli (GPa) = 50.65475 72.10510 98.47449
#
# Poissons Ratio (x) = 0.22371 0.39586
# Poissons Ratio (y) = 0.15716 0.24736
# Poissons Ratio (z) = 0.20363 0.18112
#
# Static dielectric constant tensor:
#      x y z
#    x 4.456890 0.053420 0.137960 
#    y 0.053420 4.746310 0.176890 
#    z 0.137960 0.176890 4.233320 
# 
# 
# High freq. dielectric constant tensor:
#      x y z
#    x 1.912280 -0.021160 0.003660 
#    y -0.021160 1.914600 -0.002360 
#    z 0.003660 -0.002360 1.917950 
# 
# From -- ./inp_files/90820.got.cif
#   From: 2010.06.25/outbox.cif.g09.slc.cpg/sg2_46_cif.got.tgz:90820.got - 2010.06.27 13:26:56.
