data_PCOD8001125
_publ_section_title
;
Structure prediction by ZEFSAII (Michael W. Deem and Ramdas Pophale) SiO2 
 PCOD8001125
Probable space group: P -1
;
_chemical_formula_sum "Si O2"
_cell_formula_units_Z 16
_cell_length_a 8.749123
_cell_length_b 9.148401
_cell_length_c 12.338095
_cell_angle_alpha 54.595007
_cell_angle_beta 61.283553
_cell_angle_gamma 62.784692
_cell_volume 683.444406
_symmetry_space_group_name_H-M "P -1"
_symmetry_group_IT_number 2
_symmetry_cell_setting 'triclinic'
loop_
_space_group_symop_operation_xyz
x,y,z
-x,-y,-z
loop_
_atom_site_type_symbol
_atom_site_label
_atom_site_fract_x
_atom_site_fract_y
_atom_site_fract_z
Si Si1 0.385852 0.199686 0.914858
Si Si2 0.993707 0.692547 0.357431
Si Si3 0.321896 0.448860 0.040386
Si Si4 0.956422 0.658251 0.131784
Si Si5 0.796145 0.320355 0.347084
Si Si6 0.684249 0.233922 0.652018
Si Si7 0.703899 0.999477 0.422424
Si Si8 0.188789 0.144349 0.325357
O O1 0.196043 0.169688 0.940964
O O2 0.490012 0.299188 0.748136
O O3 0.352788 0.340286 0.965285
O O4 0.500000 0.000000 0.000000
O O5 0.008335 0.659776 0.238513
O O6 0.812313 0.863647 0.351005
O O7 0.000000 0.500000 0.500000
O O8 0.164734 0.754796 0.316809
O O9 0.262294 0.324776 0.206354
O O10 0.144773 0.624448 0.015413
O O11 0.500000 0.500000 0.000000
O O12 0.841347 0.506218 0.211604
O O13 0.693073 0.345145 0.488884
O O14 0.982136 0.167678 0.360409
O O15 0.700849 0.220316 0.329875
O O16 0.695603 0.019922 0.715762
O O17 0.805427 0.897342 0.534013
O O18 0.500000 0.000000 0.500000
#
# Coordination Sequence:
#
# PCOD8001125 Si02
#       8
#     2   2   2   2   2   2   2   2
#     4  12  27  46  69  98 138 190 234 281 341 406
#     4  12  22  41  65 107 140 171 225 283 351 412
#     4  11  24  48  72  96 133 184 237 286 341 402
#     4  11  26  44  71 104 139 176 234 293 341 419
#     4  10  20  42  67  98 132 182 220 276 358 405
#     4  11  20  40  69  94 136 180 221 276 344 412
#     4  11  23  35  63 101 140 171 219 278 346 418
#     4  10  19  41  68  92 134 177 223 273 344 410
#
# _framework density 23.410827999999999
#
# number of rings (size 3 to 8) (size 9 to 14) (size 15 to 20)
#    0.000    1.000    5.000    2.625    3.500    2.500 
#    0.000    3.750    0.000    0.000    0.000    0.000 
#    0.000    0.000    0.000    0.000    0.000    0.000 
#
# Total GULP energy -198222.229639 kJ/mol
# GULP energy per Si atom -12388.889352 kJ/mol
# Density = 2.335754 g / cm^3
# Si number density = 23.410828 Si / 1000 Ang^3
#
#
#
# Elastic Constant Matrix: (Units=GPa)
#
#
# Indices 1 2 3 4 5 6 
#
# 1 120.1474 29.6645 18.0462 9.4626 -20.2407 -11.7212
# 2 29.6645 80.8785 24.0444 29.5400 0.7050 -1.5140
# 3 18.0462 24.0444 69.4164 21.1246 -12.3278 -2.7166
# 4 9.4626 29.5400 21.1246 39.7990 -4.0613 -7.4256
# 5 -20.2407 0.7050 -12.3278 -4.0613 40.5948 5.4979
# 6 -11.7212 -1.5140 -2.7166 -7.4256 5.4979 38.3264
#
#
#
# Elastic Compliance Matrix: (Units=1/GPa)
#
#
# Indices 1 2 3 4 5 6 
#
# 1 0.010446 -0.004371 -0.000915 0.002246 0.004866 0.002694
# 2 -0.004371 0.019442 -0.002497 -0.012992 -0.004215 -0.002658
# 3 -0.000915 -0.002497 0.018580 -0.007539 0.004636 -0.001187
# 4 0.002246 -0.012992 -0.007539 0.039764 0.002080 0.007045
# 5 0.004866 -0.004215 0.004636 0.002080 0.029035 -0.002112
# 6 0.002694 -0.002658 -0.001187 0.007045 -0.002112 0.028394
#
#
# Mechanical properties :
#
#
# Convention : Reuss Voigt Hill
#
# Bulk Modulus (GPa) = 30.39488 45.99472 38.19480
# Shear Modulus (GPa) = 29.03691 36.98983 33.01337
#
# Velocity S-wave (km/s) = 3.52564 3.97927 3.75930
# Velocity P-wave (km/s) = 5.43920 6.38766 5.93242
#
# Compressibility (1/GPa) = 0.03290028
#
# Stress axis : x y z
#
# Youngs Moduli (GPa) = 95.73413 51.43493 53.82181
#
# Poissons Ratio (x) = 0.22485 0.04926
# Poissons Ratio (y) = 0.41850 0.13438
# Poissons Ratio (z) = 0.08762 0.12842
#
# Static dielectric constant tensor:
#      x y z
#    x 4.801380 0.404580 -0.330800 
#    y 0.404580 5.193640 0.008980 
#    z -0.330800 0.008980 4.376710 
# 
# 
# High freq. dielectric constant tensor:
#      x y z
#    x 1.933320 -0.005570 -0.007470 
#    y -0.005570 1.935580 0.012870 
#    z -0.007470 0.012870 1.918100 
# 
# From -- ./inp_files/381247.got.cif
#   From: 2010.06.25/outbox.cif.g09.slc.cpg/sg2_191_cif.got.tgz:381247.got - 2010.06.27 13:26:56.
