data_PCOD8001914
_publ_section_title
;
Structure prediction by ZEFSAII (Michael W. Deem and Ramdas Pophale) SiO2 
 PCOD8001914
Probable space group: P -1
;
_chemical_formula_sum "Si O2"
_cell_formula_units_Z 16
_cell_length_a 18.616919
_cell_length_b 9.520595
_cell_length_c 19.183427
_cell_angle_alpha 139.719021
_cell_angle_beta 152.177340
_cell_angle_gamma 28.890233
_cell_volume 765.731094
_symmetry_space_group_name_H-M "P -1"
_symmetry_group_IT_number 2
_symmetry_cell_setting 'triclinic'
loop_
_space_group_symop_operation_xyz
x,y,z
-x,-y,-z
loop_
_atom_site_type_symbol
_atom_site_label
_atom_site_fract_x
_atom_site_fract_y
_atom_site_fract_z
Si Si1 0.671733 0.034873 0.484548
Si Si2 0.554484 0.672487 0.986628
Si Si3 0.915752 0.843433 0.875959
Si Si4 0.489357 0.270945 0.746654
Si Si5 0.643985 0.702744 0.919572
Si Si6 0.848406 0.333661 0.509277
Si Si7 0.009896 0.354480 0.279611
Si Si8 0.421580 0.592578 0.579090
O O1 0.546811 0.299611 0.531687
O O2 0.699537 0.130499 0.471619
O O3 0.569368 0.896167 0.327566
O O4 0.892684 0.786915 0.615386
O O5 0.789041 0.451978 0.129238
O O6 0.428107 0.979277 0.034909
O O7 0.471605 0.505068 0.868358
O O8 0.542646 0.715413 0.909288
O O9 0.846938 0.853576 0.741605
O O10 0.723650 0.012697 0.826067
O O11 0.106626 0.519803 0.946866
O O12 0.000000 0.000000 0.000000
O O13 0.342086 0.447595 0.622059
O O14 0.567547 0.605830 0.758145
O O15 0.749035 0.390427 0.521283
O O16 0.012297 0.371782 0.653959
O O17 0.000000 0.000000 0.500000
#
# Coordination Sequence:
#
# PCOD8001914 Si02
#       8
#     2   2   2   2   2   2   2   2
#     4  10  24  39  62  89 125 169 201 248 304 371
#     4  10  20  36  62  88 127 152 199 259 307 358
#     4  11  18  31  59  90 116 151 203 259 299 340
#     4  11  21  39  59  94 120 158 206 256 300 364
#     4  10  20  34  60  91 116 161 200 251 311 350
#     4  11  22  36  62  92 121 155 203 257 303 354
#     4  10  20  34  59  90 118 156 205 247 304 358
#     4  11  21  42  62  87 129 162 206 249 308 365
#
# _framework density 20.895063
#
# number of rings (size 3 to 8) (size 9 to 14) (size 15 to 20)
#    0.000    1.500    3.750    3.000    3.500    2.000 
#    0.000    6.875    5.500    0.000    0.000    0.000 
#    0.000    0.000    0.000    0.000    0.000    0.000 
#
# Total GULP energy -198252.349797 kJ/mol
# GULP energy per Si atom -12390.771862 kJ/mol
# Density = 2.084751 g / cm^3
# Si number density = 20.895063 Si / 1000 Ang^3
#
#
#
# Elastic Constant Matrix: (Units=GPa)
#
#
# Indices 1 2 3 4 5 6 
#
# 1 50.9271 18.5093 18.2778 -9.6187 2.1801 23.5172
# 2 18.5093 95.3953 25.6520 14.5073 6.5880 11.8408
# 3 18.2778 25.6520 94.8278 16.5976 1.8067 20.0224
# 4 -9.6187 14.5073 16.5976 39.3076 5.9755 3.6451
# 5 2.1801 6.5880 1.8067 5.9755 17.2193 4.4860
# 6 23.5172 11.8408 20.0224 3.6451 4.4860 31.2859
#
#
#
# Elastic Compliance Matrix: (Units=1/GPa)
#
#
# Indices 1 2 3 4 5 6 
#
# 1 0.037465 -0.005503 -0.002868 0.014927 -0.000777 -0.025871
# 2 -0.005503 0.012802 -0.001759 -0.005059 -0.002621 0.001382
# 3 -0.002868 -0.001759 0.013742 -0.005794 0.003101 -0.005742
# 4 0.014927 -0.005059 -0.005794 0.035632 -0.009528 -0.008383
# 5 -0.000777 -0.002621 0.003101 -0.009528 0.064379 -0.008529
# 6 -0.025871 0.001382 -0.005742 -0.008383 -0.008529 0.056762
#
#
# Mechanical properties :
#
#
# Convention : Reuss Voigt Hill
#
# Bulk Modulus (GPa) = 22.85791 40.66983 31.76387
# Shear Modulus (GPa) = 19.55998 29.47665 24.51832
#
# Velocity S-wave (km/s) = 3.06290 3.76000 3.42921
# Velocity P-wave (km/s) = 4.84475 6.19324 5.56003
#
# Compressibility (1/GPa) = 0.04374854
#
# Stress axis : x y z
#
# Youngs Moduli (GPa) = 26.69177 78.11174 72.77221
#
# Poissons Ratio (x) = 0.42986 0.20870
# Poissons Ratio (y) = 0.14689 0.12800
# Poissons Ratio (z) = 0.07655 0.13740
#
# Static dielectric constant tensor:
#      x y z
#    x 3.331550 0.271180 -0.108350 
#    y 0.271180 3.806760 0.435700 
#    z -0.108350 0.435700 3.873700 
# 
# 
# High freq. dielectric constant tensor:
#      x y z
#    x 1.772400 0.005610 0.003600 
#    y 0.005610 1.838920 0.010940 
#    z 0.003600 0.010940 1.830940 
# 
# From -- ./inp_files/274637.got.cif
#   From: 2010.06.25/outbox.cif.g09.slc.cpg/sg2_138_cif.got.tgz:274637.got - 2010.06.27 13:26:56.
