data_PCOD8001568
_publ_section_title
;
Structure prediction by ZEFSAII (Michael W. Deem and Ramdas Pophale) SiO2 
 PCOD8001568
Probable space group: P -1
;
_chemical_formula_sum "Si O2"
_cell_formula_units_Z 14
_cell_length_a 8.932606
_cell_length_b 13.994337
_cell_length_c 9.600535
_cell_angle_alpha 118.093423
_cell_angle_beta 47.251667
_cell_angle_gamma 98.458626
_cell_volume 749.381815
_symmetry_space_group_name_H-M "P -1"
_symmetry_group_IT_number 2
_symmetry_cell_setting 'triclinic'
loop_
_space_group_symop_operation_xyz
x,y,z
-x,-y,-z
loop_
_atom_site_type_symbol
_atom_site_label
_atom_site_fract_x
_atom_site_fract_y
_atom_site_fract_z
Si Si1 0.587164 0.495250 0.096548
Si Si2 0.675011 0.720709 0.302939
Si Si3 0.838889 0.468959 0.473849
Si Si4 0.301626 0.126999 0.837081
Si Si5 0.978593 0.759679 0.677111
Si Si6 0.955522 0.631603 0.324312
Si Si7 0.297679 0.897641 0.585176
O O1 0.639534 0.609917 0.180554
O O2 0.407434 0.471411 0.294983
O O3 0.500000 0.500000 0.000000
O O4 0.803168 0.395683 0.900764
O O5 0.798663 0.777627 0.150468
O O6 0.446990 0.809077 0.537901
O O7 0.804863 0.697663 0.346364
O O8 0.880873 0.334621 0.370780
O O9 0.000000 0.500000 0.500000
O O10 0.890339 0.515546 0.322824
O O11 0.558299 0.091256 0.634141
O O12 0.211151 0.018778 0.795559
O O13 0.237934 0.177352 0.064834
O O14 0.920368 0.709229 0.536205
O O15 0.104766 0.851182 0.625023
#
# Coordination Sequence:
#
# PCOD8001568 Si02
#       7
#     2   2   2   2   2   2   2
#     4  12  20  37  58  80 113 155 187 216 265 342
#     4  10  21  40  55  81 120 140 182 238 275 316
#     4  10  20  33  56  81 111 147 188 214 265 338
#     4   9  20  36  65  77 104 147 191 227 275 328
#     4  11  19  35  60  81 107 147 191 223 268 334
#     4  11  24  35  53  88 118 144 182 230 276 322
#     4   9  19  39  61  80 104 145 195 224 274 332
#
# _framework density 18.682065000000001
#
# number of rings (size 3 to 8) (size 9 to 14) (size 15 to 20)
#    0.857    0.857    4.286    1.714    2.000    0.571 
#    2.571    1.429    0.000    0.000    0.000    0.000 
#    0.000    0.000    0.000    0.000    0.000    0.000 
#
# Total GULP energy -173466.790088 kJ/mol
# GULP energy per Si atom -12390.485006 kJ/mol
# Density = 1.863954 g / cm^3
# Si number density = 18.682065 Si / 1000 Ang^3
#
#
#
# Elastic Constant Matrix: (Units=GPa)
#
#
# Indices 1 2 3 4 5 6 
#
# 1 88.1797 40.3844 36.3291 3.3225 7.4620 -2.3397
# 2 40.3844 80.4058 31.5425 7.7650 11.3800 16.7794
# 3 36.3291 31.5425 111.4240 4.0463 -0.9861 9.5036
# 4 3.3225 7.7650 4.0463 24.0408 9.2660 -0.7635
# 5 7.4620 11.3800 -0.9861 9.2660 22.1688 -1.1856
# 6 -2.3397 16.7794 9.5036 -0.7635 -1.1856 23.9334
#
#
#
# Elastic Compliance Matrix: (Units=1/GPa)
#
#
# Indices 1 2 3 4 5 6 
#
# 1 0.017564 -0.009246 -0.004040 0.002225 -0.001752 0.009788
# 2 -0.009246 0.022793 -0.001983 -0.003089 -0.008273 -0.016605
# 3 -0.004040 -0.001983 0.011252 -0.002196 0.003616 -0.003364
# 4 0.002225 -0.003089 -0.002196 0.050559 -0.020187 0.003868
# 5 -0.001752 -0.008273 0.003616 -0.020187 0.058889 0.006466
# 6 0.009788 -0.016605 -0.003364 0.003868 0.006466 0.056160
#
#
# Mechanical properties :
#
#
# Convention : Reuss Voigt Hill
#
# Bulk Modulus (GPa) = 47.45876 55.16907 51.31391
# Shear Modulus (GPa) = 19.62492 25.47883 22.55187
#
# Velocity S-wave (km/s) = 3.24461 3.69699 3.47816
# Velocity P-wave (km/s) = 6.28452 6.91507 6.60732
#
# Compressibility (1/GPa) = 0.02107092
#
# Stress axis : x y z
#
# Youngs Moduli (GPa) = 56.93599 43.87331 88.87397
#
# Poissons Ratio (x) = 0.40565 0.35907
# Poissons Ratio (y) = 0.52643 0.17620
# Poissons Ratio (z) = 0.23003 0.08698
#
# Static dielectric constant tensor:
#      x y z
#    x 3.153030 0.135880 -0.169980 
#    y 0.135880 3.806800 -0.104160 
#    z -0.169980 -0.104160 3.557400 
# 
# 
# High freq. dielectric constant tensor:
#      x y z
#    x 1.687750 0.021460 -0.010140 
#    y 0.021460 1.725680 0.002190 
#    z -0.010140 0.002190 1.728560 
# 
# From -- ./inp_files/197745.got.cif
#   From: 2010.06.25/outbox.cif.g09.slc.cpg/sg2_99_cif.got.tgz:197745.got - 2010.06.27 13:26:56.
