data_PCOD8001758
_publ_section_title
;
Structure prediction by ZEFSAII (Michael W. Deem and Ramdas Pophale) SiO2 
 PCOD8001758
Probable space group: P -1
;
_chemical_formula_sum "Si O2"
_cell_formula_units_Z 12
_cell_length_a 14.167264
_cell_length_b 13.419508
_cell_length_c 9.446529
_cell_angle_alpha 104.067458
_cell_angle_beta 121.490891
_cell_angle_gamma 27.982213
_cell_volume 602.251225
_symmetry_space_group_name_H-M "P -1"
_symmetry_group_IT_number 2
_symmetry_cell_setting 'triclinic'
loop_
_space_group_symop_operation_xyz
x,y,z
-x,-y,-z
loop_
_atom_site_type_symbol
_atom_site_label
_atom_site_fract_x
_atom_site_fract_y
_atom_site_fract_z
Si Si1 0.182898 0.197822 0.933459
Si Si2 0.808337 0.256146 0.976593
Si Si3 0.185165 0.350837 0.735194
Si Si4 0.777135 0.266928 0.278543
Si Si5 0.820140 0.470638 0.995877
Si Si6 0.803746 0.017017 0.287007
O O1 0.105720 0.336549 0.789535
O O2 0.020105 0.604151 0.027865
O O3 0.119369 0.135962 0.815656
O O4 0.494399 0.942721 0.146747
O O5 0.760886 0.320721 0.126034
O O6 0.926726 0.262494 0.010937
O O7 0.503716 0.485062 0.764697
O O8 0.000000 0.000000 0.000000
O O9 0.135869 0.506647 0.813578
O O10 0.000000 0.500000 0.500000
O O11 0.997773 0.154278 0.482561
O O12 0.858754 0.077726 0.271431
O O13 0.498531 0.742781 0.804978
#
# Coordination Sequence:
#
# PCOD8001758 Si02
#       6
#     2   2   2   2   2   2
#     4  10  21  40  61  84 119 147 192 245 291 343
#     4  10  20  34  55  84 119 150 189 230 279 339
#     4  10  23  41  61  84 114 154 192 238 300 346
#     4   9  19  35  54  81 119 153 188 228 278 342
#     4  10  21  38  59  86 116 146 193 242 282 340
#     4   9  19  36  58  81 114 156 187 230 289 335
#
# _framework density 19.925239999999999
#
# number of rings (size 3 to 8) (size 9 to 14) (size 15 to 20)
#    0.000    2.333    0.000    1.500    2.333    3.333 
#    3.000    5.000    0.000    0.000    0.000    0.000 
#    0.000    0.000    0.000    0.000    0.000    0.000 
#
# Total GULP energy -148733.802781 kJ/mol
# GULP energy per Si atom -12394.483565 kJ/mol
# Density = 1.987989 g / cm^3
# Si number density = 19.925240 Si / 1000 Ang^3
#
#
#
# Elastic Constant Matrix: (Units=GPa)
#
#
# Indices 1 2 3 4 5 6 
#
# 1 97.3732 25.7574 47.9892 0.9742 0.4234 -11.8897
# 2 25.7574 88.7728 39.7763 -0.0407 5.7300 4.0121
# 3 47.9892 39.7763 147.9172 5.1272 5.7988 -0.0822
# 4 0.9742 -0.0407 5.1272 17.1401 6.0167 -2.4797
# 5 0.4234 5.7300 5.7988 6.0167 24.3750 0.3729
# 6 -11.8897 4.0121 -0.0822 -2.4797 0.3729 31.0127
#
#
#
# Elastic Compliance Matrix: (Units=1/GPa)
#
#
# Indices 1 2 3 4 5 6 
#
# 1 0.013448 -0.002536 -0.003744 0.000809 0.000969 0.005527
# 2 -0.002536 0.013540 -0.002764 0.001630 -0.002844 -0.002567
# 3 -0.003744 -0.002764 0.008830 -0.002336 -0.000790 -0.001232
# 4 0.000809 0.001630 -0.002336 0.065442 -0.016080 0.005519
# 5 0.000969 -0.002844 -0.000790 -0.016080 0.045851 -0.001100
# 6 0.005527 -0.002567 -0.001232 0.005519 -0.001100 0.035147
#
#
# Mechanical properties :
#
#
# Convention : Reuss Voigt Hill
#
# Bulk Modulus (GPa) = 56.40749 62.34544 59.37646
# Shear Modulus (GPa) = 24.24147 29.20826 26.72486
#
# Velocity S-wave (km/s) = 3.49179 3.83285 3.66629
# Velocity P-wave (km/s) = 6.68041 7.13760 6.91278
#
# Compressibility (1/GPa) = 0.01772814
#
# Stress axis : x y z
#
# Youngs Moduli (GPa) = 74.35776 73.85697 113.25186
#
# Poissons Ratio (x) = 0.18734 0.42402
# Poissons Ratio (y) = 0.18861 0.31308
# Poissons Ratio (z) = 0.27840 0.20417
#
# Static dielectric constant tensor:
#      x y z
#    x 3.626680 0.136870 0.180510 
#    y 0.136870 3.534330 -0.046030 
#    z 0.180510 -0.046030 3.681080 
# 
# 
# High freq. dielectric constant tensor:
#      x y z
#    x 1.780540 0.007680 0.010150 
#    y 0.007680 1.776420 0.000000 
#    z 0.010150 0.000000 1.769300 
# 
# From -- ./inp_files/450448.got.cif
#   From: 2010.06.25/outbox.cif.g09.slc.cpg/sg2_226_cif.got.tgz:450448.got - 2010.06.27 13:26:56.
