data_PCOD8001532
_publ_section_title
;
Structure prediction by ZEFSAII (Michael W. Deem and Ramdas Pophale) SiO2 
 PCOD8001532
Probable space group: P -1
;
_chemical_formula_sum "Si O2"
_cell_formula_units_Z 16
_cell_length_a 8.128403
_cell_length_b 11.643403
_cell_length_c 11.200262
_cell_angle_alpha 63.920632
_cell_angle_beta 53.561656
_cell_angle_gamma 59.285072
_cell_volume 718.787364
_symmetry_space_group_name_H-M "P -1"
_symmetry_group_IT_number 2
_symmetry_cell_setting 'triclinic'
loop_
_space_group_symop_operation_xyz
x,y,z
-x,-y,-z
loop_
_atom_site_type_symbol
_atom_site_label
_atom_site_fract_x
_atom_site_fract_y
_atom_site_fract_z
Si Si1 0.613225 0.473653 0.237917
Si Si2 0.418674 0.249310 0.476639
Si Si3 0.146483 0.805233 0.452972
Si Si4 0.353967 0.288142 0.745719
Si Si5 0.950412 0.257665 0.037880
Si Si6 0.939531 0.595662 0.595719
Si Si7 0.133194 0.930798 0.649346
Si Si8 0.706943 0.422142 0.871724
O O1 0.550847 0.354522 0.381622
O O2 0.684680 0.556424 0.271839
O O3 0.820963 0.399918 0.096733
O O4 0.396092 0.579710 0.215154
O O5 0.277062 0.276375 0.647588
O O6 0.270517 0.274063 0.411872
O O7 0.605287 0.100533 0.451739
O O8 0.389531 0.800631 0.319532
O O9 0.065676 0.862711 0.593343
O O10 0.126624 0.654830 0.525757
O O11 0.989608 0.906615 0.376087
O O12 0.207698 0.233273 0.922612
O O13 0.933479 0.127210 0.173295
O O14 0.836424 0.276277 0.945454
O O15 0.871108 0.509816 0.766486
O O16 0.000000 0.500000 0.500000
O O17 0.500000 0.500000 0.000000
#
# Coordination Sequence:
#
# PCOD8001532 Si02
#       8
#     2   2   2   2   2   2   2   2
#     4   9  18  33  52  79 112 144 178 221 277 329
#     4   9  19  34  54  78 107 142 183 226 267 324
#     4  10  22  39  58  78 109 148 187 228 267 319
#     4  11  20  31  53  81 110 143 182 229 273 320
#     4  10  20  33  54  80 111 143 178 226 275 329
#     4  11  21  35  58  85 112 142 178 225 279 326
#     4   9  21  41  57  77 107 147 192 226 265 319
#     4   9  19  34  52  78 113 142 172 219 274 327
#
# _framework density 22.259710999999999
#
# number of rings (size 3 to 8) (size 9 to 14) (size 15 to 20)
#    0.000    2.250    0.000    3.750    0.000    8.000 
#    0.000    0.000    0.000    6.750    0.000    0.000 
#    0.000    0.000    0.000    0.000    0.000    0.000 
#
# Total GULP energy -198242.211222 kJ/mol
# GULP energy per Si atom -12390.138201 kJ/mol
# Density = 2.220905 g / cm^3
# Si number density = 22.259711 Si / 1000 Ang^3
#
#
#
# Elastic Constant Matrix: (Units=GPa)
#
#
# Indices 1 2 3 4 5 6 
#
# 1 39.2302 3.3518 22.3920 -8.5160 -4.1618 -12.5767
# 2 3.3518 41.3469 29.2543 -6.5603 0.3125 -11.2468
# 3 22.3920 29.2543 132.4201 -3.0438 -10.9075 -8.4473
# 4 -8.5160 -6.5603 -3.0438 27.8513 -10.3470 2.6904
# 5 -4.1618 0.3125 -10.9075 -10.3470 32.5395 -7.1879
# 6 -12.5767 -11.2468 -8.4473 2.6904 -7.1879 32.0784
#
#
#
# Elastic Compliance Matrix: (Units=1/GPa)
#
#
# Indices 1 2 3 4 5 6 
#
# 1 0.038508 0.008279 -0.005871 0.015755 0.011815 0.017780
# 2 0.008279 0.033986 -0.007466 0.010058 0.004373 0.013332
# 3 -0.005871 -0.007466 0.010204 -0.001583 0.001867 -0.001682
# 4 0.015755 0.010058 -0.001583 0.049096 0.019086 0.009445
# 5 0.011815 0.004373 0.001867 0.019086 0.042096 0.014489
# 6 0.017780 0.013332 -0.001682 0.009445 0.014489 0.044830
#
#
# Mechanical properties :
#
#
# Convention : Reuss Voigt Hill
#
# Bulk Modulus (GPa) = 13.77759 35.88814 24.83287
# Shear Modulus (GPa) = 19.76036 29.02713 24.39374
#
# Velocity S-wave (km/s) = 2.98269 3.61504 3.31398
# Velocity P-wave (km/s) = 4.25028 5.79501 5.08168
#
# Compressibility (1/GPa) = 0.07258165
#
# Stress axis : x y z
#
# Youngs Moduli (GPa) = 25.96880 29.42354 97.99990
#
# Poissons Ratio (x) = -0.24360 0.57536
# Poissons Ratio (y) = -0.21500 0.73171
# Poissons Ratio (z) = 0.15246 0.21969
#
# Static dielectric constant tensor:
#      x y z
#    x 4.522120 -0.471450 0.164780 
#    y -0.471450 3.733790 0.089230 
#    z 0.164780 0.089230 4.152880 
# 
# 
# High freq. dielectric constant tensor:
#      x y z
#    x 1.874550 -0.032110 0.001380 
#    y -0.032110 1.839490 0.011200 
#    z 0.001380 0.011200 1.881970 
# 
# From -- ./inp_files/269704.got.cif
#   From: 2010.06.25/outbox.cif.g09.slc.cpg/sg2_135_cif.got.tgz:269704.got - 2010.06.27 13:26:56.
