data_PCOD8001165
_publ_section_title
;
Structure prediction by ZEFSAII (Michael W. Deem and Ramdas Pophale) SiO2 
 PCOD8001165
Probable space group: P -1
;
_chemical_formula_sum "Si O2"
_cell_formula_units_Z 12
_cell_length_a 13.778682
_cell_length_b 7.869056
_cell_length_c 13.550984
_cell_angle_alpha 114.493889
_cell_angle_beta 21.991248
_cell_angle_gamma 120.562593
_cell_volume 466.322774
_symmetry_space_group_name_H-M "P -1"
_symmetry_group_IT_number 2
_symmetry_cell_setting 'triclinic'
loop_
_space_group_symop_operation_xyz
x,y,z
-x,-y,-z
loop_
_atom_site_type_symbol
_atom_site_label
_atom_site_fract_x
_atom_site_fract_y
_atom_site_fract_z
Si Si1 0.614635 0.377457 0.732633
Si Si2 0.914758 0.934145 0.326009
Si Si3 0.699152 0.147185 0.426587
Si Si4 0.572738 0.107168 0.098557
Si Si5 0.757778 0.372334 0.814115
Si Si6 0.004917 0.450571 0.870661
O O1 0.526171 0.201494 0.691460
O O2 0.681634 0.299717 0.756350
O O3 0.910801 0.545770 0.458915
O O4 0.367581 0.461268 0.995634
O O5 0.813738 0.692441 0.348715
O O6 0.239972 0.024742 0.076748
O O7 0.887603 0.036504 0.272938
O O8 0.742791 0.990316 0.589382
O O9 0.886129 0.346325 0.243845
O O10 0.500000 0.000000 0.500000
O O11 0.609505 0.162931 0.961106
O O12 0.696750 0.323363 0.090460
O O13 0.000000 0.500000 0.000000
#
# Coordination Sequence:
#
# PCOD8001165 Si02
#       6
#     2   2   2   2   2   2
#     4  10  22  39  66 108 128 179 232 275 337 407
#     4  10  25  43  64 100 134 175 230 274 334 410
#     4  12  25  45  69 103 144 179 224 286 342 407
#     4  10  20  43  65  93 133 173 225 276 334 394
#     4  10  19  41  73  95 136 176 232 279 332 403
#     4  10  23  43  66  92 132 183 225 271 333 402
#
# _framework density 25.733246999999999
#
# number of rings (size 3 to 8) (size 9 to 14) (size 15 to 20)
#    1.000    0.667    1.667    3.000    0.000    6.000 
#    3.000    1.667    0.000    0.000    0.000    0.000 
#    0.000    0.000    0.000    0.000    0.000    0.000 
#
# Total GULP energy -148738.658988 kJ/mol
# GULP energy per Si atom -12394.888249 kJ/mol
# Density = 2.567468 g / cm^3
# Si number density = 25.733247 Si / 1000 Ang^3
#
#
#
# Elastic Constant Matrix: (Units=GPa)
#
#
# Indices 1 2 3 4 5 6 
#
# 1 108.7483 52.7159 31.4730 -1.0024 25.5877 -26.6722
# 2 52.7159 107.6645 23.1385 17.2725 -2.8797 -12.9161
# 3 31.4730 23.1385 144.5406 8.6777 5.7954 -5.6931
# 4 -1.0024 17.2725 8.6777 26.2200 -0.3323 -2.5688
# 5 25.5877 -2.8797 5.7954 -0.3323 36.7005 2.1176
# 6 -26.6722 -12.9161 -5.6931 -2.5688 2.1176 66.0459
#
#
#
# Elastic Compliance Matrix: (Units=1/GPa)
#
#
# Indices 1 2 3 4 5 6 
#
# 1 0.020093 -0.010331 -0.002396 0.008837 -0.014748 0.006704
# 2 -0.010331 0.016161 -0.000081 -0.011075 0.008483 -0.001721
# 3 -0.002396 -0.000081 0.007572 -0.002582 0.000471 -0.000446
# 4 0.008837 -0.011075 -0.002582 0.046861 -0.006383 0.003207
# 5 -0.014748 0.008483 0.000471 -0.006383 0.038394 -0.005736
# 6 0.006704 -0.001721 -0.000446 0.003207 -0.005736 0.017782
#
#
# Mechanical properties :
#
#
# Convention : Reuss Voigt Hill
#
# Bulk Modulus (GPa) = 54.91596 63.95646 59.43621
# Shear Modulus (GPa) = 28.00374 42.70168 35.35271
#
# Velocity S-wave (km/s) = 3.30241 4.07799 3.71052
# Velocity P-wave (km/s) = 5.99400 6.86155 6.44240
#
# Compressibility (1/GPa) = 0.01820964
#
# Stress axis : x y z
#
# Youngs Moduli (GPa) = 49.76928 61.87754 132.07013
#
# Poissons Ratio (x) = 0.63925 0.31650
# Poissons Ratio (y) = 0.51416 0.01064
# Poissons Ratio (z) = 0.11927 0.00499
#
# Static dielectric constant tensor:
#      x y z
#    x 4.865060 -0.260490 0.215030 
#    y -0.260490 4.678940 -0.001360 
#    z 0.215030 -0.001360 4.474340 
# 
# 
# High freq. dielectric constant tensor:
#      x y z
#    x 2.040870 -0.005590 0.011040 
#    y -0.005590 2.047150 -0.000470 
#    z 0.011040 -0.000470 2.019540 
# 
# From -- ./inp_files/289372.got.cif
#   From: 2010.06.25/outbox.cif.g09.slc.cpg/sg2_145_cif.got.tgz:289372.got - 2010.06.27 13:26:56.
