data_PCOD8001845
_publ_section_title
;
Structure prediction by ZEFSAII (Michael W. Deem and Ramdas Pophale) SiO2 
 PCOD8001845
Probable space group: P -1
;
_chemical_formula_sum "Si O2"
_cell_formula_units_Z 16
_cell_length_a 14.937632
_cell_length_b 12.214092
_cell_length_c 12.134459
_cell_angle_alpha 141.153167
_cell_angle_beta 49.643069
_cell_angle_gamma 142.023842
_cell_volume 851.243307
_symmetry_space_group_name_H-M "P -1"
_symmetry_group_IT_number 2
_symmetry_cell_setting 'triclinic'
loop_
_space_group_symop_operation_xyz
x,y,z
-x,-y,-z
loop_
_atom_site_type_symbol
_atom_site_label
_atom_site_fract_x
_atom_site_fract_y
_atom_site_fract_z
Si Si1 0.852685 0.366472 0.141209
Si Si2 0.826211 0.322550 0.880959
Si Si3 0.162875 0.703262 0.507714
Si Si4 0.686445 0.038752 0.209187
Si Si5 0.001487 0.165569 0.548938
Si Si6 0.984858 0.091321 0.254061
Si Si7 0.794218 0.756772 0.977216
Si Si8 0.353025 0.684031 0.165611
O O1 0.861773 0.580739 0.337682
O O2 0.018709 0.436527 0.062216
O O3 0.757008 0.162368 0.136499
O O4 0.778799 0.277102 0.010740
O O5 0.697071 0.314241 0.916880
O O6 0.852851 0.149391 0.674192
O O7 0.147831 0.889675 0.629871
O O8 0.231618 0.665372 0.322464
O O9 0.000000 0.500000 0.500000
O O10 0.264188 0.779385 0.594713
O O11 0.513046 0.897073 0.225983
O O12 0.737852 0.891066 0.082589
O O13 0.019197 0.095639 0.358687
O O14 0.000000 0.000000 0.500000
O O15 0.132442 0.276844 0.214169
O O16 0.917593 0.868993 0.064433
O O17 0.658029 0.530143 0.960454
#
# Coordination Sequence:
#
# PCOD8001845 Si02
#       8
#     2   2   2   2   2   2   2   2
#     4   9  21  39  58  87 114 148 205 241 289 347
#     4   9  21  37  61  86 113 151 201 246 287 342
#     4  11  19  38  60  86 110 150 200 240 288 343
#     4  11  24  38  57  86 124 158 188 238 300 360
#     4  10  20  34  62  90 113 141 197 261 283 327
#     4  10  20  34  57  89 112 149 198 248 291 331
#     4  10  24  33  58  87 121 157 195 238 289 350
#     4  12  22  38  59  85 123 156 193 239 298 357
#
# _framework density 18.796036999999998
#
# number of rings (size 3 to 8) (size 9 to 14) (size 15 to 20)
#    0.750    1.000    2.500    2.250    7.000    0.500 
#    0.000    0.000    0.000    0.750    0.000    0.000 
#    0.000    0.000    0.000    0.000    0.000    0.000 
#
# Total GULP energy -198229.128948 kJ/mol
# GULP energy per Si atom -12389.320559 kJ/mol
# Density = 1.875326 g / cm^3
# Si number density = 18.796037 Si / 1000 Ang^3
#
#
#
# Elastic Constant Matrix: (Units=GPa)
#
#
# Indices 1 2 3 4 5 6 
#
# 1 103.8896 57.1006 39.8014 3.1989 21.6076 -12.4696
# 2 57.1006 86.9630 28.7897 11.8973 17.9436 -13.3863
# 3 39.8014 28.7897 81.4411 -8.2097 22.3482 -16.4722
# 4 3.1989 11.8973 -8.2097 27.2723 -6.4462 5.2059
# 5 21.6076 17.9436 22.3482 -6.4462 37.3687 -0.1512
# 6 -12.4696 -13.3863 -16.4722 5.2059 -0.1512 33.8537
#
#
#
# Elastic Compliance Matrix: (Units=1/GPa)
#
#
# Indices 1 2 3 4 5 6 
#
# 1 0.016828 -0.008945 -0.004121 -0.000147 -0.002993 0.000666
# 2 -0.008945 0.021726 -0.001445 -0.011580 -0.006368 0.006345
# 3 -0.004121 -0.001445 0.018451 0.003747 -0.007286 0.006280
# 4 -0.000147 -0.011580 0.003747 0.047518 0.011560 -0.010065
# 5 -0.002993 -0.006368 -0.007286 0.011560 0.037865 -0.008774
# 6 0.000666 0.006345 0.006280 -0.010065 -0.008774 0.036857
#
#
# Mechanical properties :
#
#
# Convention : Reuss Voigt Hill
#
# Bulk Modulus (GPa) = 35.73675 58.18632 46.96154
# Shear Modulus (GPa) = 22.97880 29.47241 26.22560
#
# Velocity S-wave (km/s) = 3.50027 3.96411 3.73939
# Velocity P-wave (km/s) = 5.94895 7.20945 6.60932
#
# Compressibility (1/GPa) = 0.02798240
#
# Stress axis : x y z
#
# Youngs Moduli (GPa) = 59.42640 46.02874 54.19867
#
# Poissons Ratio (x) = 0.41172 0.22333
# Poissons Ratio (y) = 0.53156 0.07833
# Poissons Ratio (z) = 0.24487 0.06652
#
# Static dielectric constant tensor:
#      x y z
#    x 3.412720 -0.163140 -0.024120 
#    y -0.163140 3.338600 0.048690 
#    z -0.024120 0.048690 3.905150 
# 
# 
# High freq. dielectric constant tensor:
#      x y z
#    x 1.716990 -0.019720 0.009270 
#    y -0.019720 1.711370 -0.004330 
#    z 0.009270 -0.004330 1.733960 
# 
# From -- ./inp_files/452632.got.cif
#   From: 2010.06.25/outbox.cif.g09.slc.cpg/sg2_227_cif.got.tgz:452632.got - 2010.06.27 13:26:56.
