data_PCOD8001073
_publ_section_title
;
Structure prediction by ZEFSAII (Michael W. Deem and Ramdas Pophale) SiO2 
 PCOD8001073
Probable space group: P -1
;
_chemical_formula_sum "Si O2"
_cell_formula_units_Z 16
_cell_length_a 18.228030
_cell_length_b 11.848055
_cell_length_c 9.414931
_cell_angle_alpha 115.348353
_cell_angle_beta 32.796967
_cell_angle_gamma 130.555932
_cell_volume 801.395768
_symmetry_space_group_name_H-M "P -1"
_symmetry_group_IT_number 2
_symmetry_cell_setting 'triclinic'
loop_
_space_group_symop_operation_xyz
x,y,z
-x,-y,-z
loop_
_atom_site_type_symbol
_atom_site_label
_atom_site_fract_x
_atom_site_fract_y
_atom_site_fract_z
Si Si1 0.493681 0.257898 0.515993
Si Si2 0.204586 0.964103 0.696369
Si Si3 0.153655 0.658969 0.517952
Si Si4 0.925048 0.952238 0.285601
Si Si5 0.785638 0.441033 0.913056
Si Si6 0.218906 0.292242 0.062550
Si Si7 0.292269 0.294743 0.267546
Si Si8 0.630251 0.390083 0.658452
O O1 0.583629 0.286372 0.537001
O O2 0.368059 0.073443 0.589255
O O3 0.382821 0.322867 0.738672
O O4 0.627781 0.341552 0.218178
O O5 0.210583 0.829250 0.553326
O O6 0.211707 0.074813 0.621213
O O7 0.031127 0.890260 0.026083
O O8 0.216978 0.670201 0.259866
O O9 0.228937 0.606766 0.483543
O O10 0.953301 0.528944 0.783014
O O11 0.833225 0.864426 0.531389
O O12 0.048255 0.136905 0.202686
O O13 0.781708 0.564226 0.895143
O O14 0.220313 0.276164 0.219220
O O15 0.306611 0.437069 0.398510
O O16 0.471352 0.322700 0.985270
#
# Coordination Sequence:
#
# PCOD8001073 Si02
#       8
#     2   2   2   2   2   2   2   2
#     4  10  24  39  65  93 123 166 210 257 311 354
#     4  10  23  41  61  94 128 161 210 258 301 382
#     4  11  24  43  62  88 134 163 204 257 314 376
#     4  10  21  38  65  93 124 164 207 257 315 359
#     4  11  23  41  65  94 123 168 203 262 310 366
#     4  10  19  41  64  95 126 153 216 263 297 375
#     4  10  21  38  65  93 124 164 207 257 315 359
#     4  10  23  41  61  94 128 161 210 258 301 382
#
# _framework density 19.965164999999999
#
# number of rings (size 3 to 8) (size 9 to 14) (size 15 to 20)
#    0.000    1.750    2.500    0.750    3.500    1.500 
#    0.000    0.000    0.000    0.000    0.000    0.000 
#    0.000    0.000    0.000    0.000    0.000    0.000 
#
# Total GULP energy -198423.438879 kJ/mol
# GULP energy per Si atom -12401.464930 kJ/mol
# Density = 1.991972 g / cm^3
# Si number density = 19.965165 Si / 1000 Ang^3
#
#
#
# Elastic Constant Matrix: (Units=GPa)
#
#
# Indices 1 2 3 4 5 6 
#
# 1 58.0440 14.8087 8.3069 -2.7456 -8.8128 13.5770
# 2 14.8087 86.4203 35.1918 17.2467 7.6929 12.1613
# 3 8.3069 35.1918 79.3515 -4.9233 8.9164 -6.8256
# 4 -2.7456 17.2467 -4.9233 29.2139 0.0238 6.6425
# 5 -8.8128 7.6929 8.9164 0.0238 25.6366 1.2164
# 6 13.5770 12.1613 -6.8256 6.6425 1.2164 33.6801
#
#
#
# Elastic Compliance Matrix: (Units=1/GPa)
#
#
# Indices 1 2 3 4 5 6 
#
# 1 0.022637 -0.003659 -0.002357 0.006123 0.010161 -0.009856
# 2 -0.003659 0.019235 -0.008892 -0.012115 -0.003700 -0.004749
# 3 -0.002357 -0.008892 0.018326 0.006585 -0.004842 0.006751
# 4 0.006123 -0.012115 0.006585 0.044347 0.003676 -0.005638
# 5 0.010161 -0.003700 -0.004842 0.003676 0.045581 -0.006112
# 6 -0.009856 -0.004749 0.006751 -0.005638 -0.006112 0.038080
#
#
# Mechanical properties :
#
#
# Convention : Reuss Voigt Hill
#
# Bulk Modulus (GPa) = 32.91361 37.82562 35.36961
# Shear Modulus (GPa) = 21.91569 28.74003 25.32786
#
# Velocity S-wave (km/s) = 3.31674 3.79820 3.56561
# Velocity P-wave (km/s) = 5.58471 6.18240 5.89114
#
# Compressibility (1/GPa) = 0.03038257
#
# Stress axis : x y z
#
# Youngs Moduli (GPa) = 44.17558 51.98943 54.56826
#
# Poissons Ratio (x) = 0.19022 0.12861
# Poissons Ratio (y) = 0.16163 0.48521
# Poissons Ratio (z) = 0.10411 0.46228
#
# Static dielectric constant tensor:
#      x y z
#    x 3.659370 0.318020 -0.096070 
#    y 0.318020 3.587450 0.156100 
#    z -0.096070 0.156100 3.631130 
# 
# 
# High freq. dielectric constant tensor:
#      x y z
#    x 1.785080 0.022600 -0.003340 
#    y 0.022600 1.774250 0.007990 
#    z -0.003340 0.007990 1.777250 
# 
# From -- ./inp_files/263600.got.cif
#   From: 2010.06.25/outbox.cif.g09.slc.cpg/sg2_132_cif.got.tgz:263600.got - 2010.06.27 13:26:56.
