data_PCOD8001677
_publ_section_title
;
Structure prediction by ZEFSAII (Michael W. Deem and Ramdas Pophale) SiO2 
 PCOD8001677
Probable space group: P -1
;
_chemical_formula_sum "Si O2"
_cell_formula_units_Z 16
_cell_length_a 5.386815
_cell_length_b 17.190501
_cell_length_c 12.351449
_cell_angle_alpha 58.509869
_cell_angle_beta 112.591490
_cell_angle_gamma 123.327692
_cell_volume 807.313021
_symmetry_space_group_name_H-M "P -1"
_symmetry_group_IT_number 2
_symmetry_cell_setting 'triclinic'
loop_
_space_group_symop_operation_xyz
x,y,z
-x,-y,-z
loop_
_atom_site_type_symbol
_atom_site_label
_atom_site_fract_x
_atom_site_fract_y
_atom_site_fract_z
Si Si1 0.620321 0.808552 0.943856
Si Si2 0.278918 0.692205 0.788822
Si Si3 0.555925 0.605369 0.170668
Si Si4 0.736983 0.472068 0.614659
Si Si5 0.376813 0.402573 0.193638
Si Si6 0.799441 0.281483 0.704725
Si Si7 0.286090 0.674943 0.565423
Si Si8 0.674332 0.115745 0.977573
O O1 0.480136 0.799577 0.806329
O O2 0.483457 0.690464 0.041839
O O3 0.490811 0.867508 0.957201
O O4 0.980709 0.859966 0.960765
O O5 0.478790 0.628589 0.862973
O O6 0.200260 0.712532 0.637352
O O7 0.976125 0.630444 0.852794
O O8 0.283451 0.532484 0.254914
O O9 0.575917 0.525415 0.146574
O O10 0.848734 0.662447 0.252728
O O11 0.500000 0.500000 0.500000
O O12 0.659833 0.358746 0.646863
O O13 0.059787 0.559758 0.574837
O O14 0.413019 0.339128 0.350747
O O15 0.714992 0.250435 0.586064
O O16 0.643183 0.181954 0.825235
O O17 0.500000 0.000000 0.000000
#
# Coordination Sequence:
#
# PCOD8001677 Si02
#       8
#     2   2   2   2   2   2   2   2
#     4  11  24  42  65  86 118 155 200 248 302 360
#     4  10  22  37  55  84 120 170 197 232 281 349
#     4  11  20  33  52  84 124 163 206 240 287 339
#     4  12  19  31  53  84 130 167 197 238 288 344
#     4  10  20  34  52  84 123 169 201 228 272 341
#     4  11  21  35  56  89 119 158 200 253 300 350
#     4  10  21  32  53  88 126 164 194 231 282 353
#     4  11  25  46  69  91 111 146 200 265 319 351
#
# _framework density 19.818832
#
# number of rings (size 3 to 8) (size 9 to 14) (size 15 to 20)
#    0.750    0.500    5.000    2.250    0.000    1.000 
#    0.000    0.000    0.000    1.500    0.000    0.000 
#    0.000    0.000    0.000    0.000    0.000    0.000 
#
# Total GULP energy -198212.828429 kJ/mol
# GULP energy per Si atom -12388.301777 kJ/mol
# Density = 1.977372 g / cm^3
# Si number density = 19.818832 Si / 1000 Ang^3
#
#
#
# Elastic Constant Matrix: (Units=GPa)
#
#
# Indices 1 2 3 4 5 6 
#
# 1 132.1696 46.1071 22.0815 7.1601 -2.7970 -4.8101
# 2 46.1071 107.5800 50.9404 10.8229 -1.4793 -10.1615
# 3 22.0815 50.9404 69.5730 6.9178 1.2428 -3.3862
# 4 7.1601 10.8229 6.9178 22.3013 0.7240 -2.4299
# 5 -2.7970 -1.4793 1.2428 0.7240 19.2162 6.0947
# 6 -4.8101 -10.1615 -3.3862 -2.4299 6.0947 30.4697
#
#
#
# Elastic Compliance Matrix: (Units=1/GPa)
#
#
# Indices 1 2 3 4 5 6 
#
# 1 0.008942 -0.003695 -0.000048 -0.001113 0.001105 -0.000136
# 2 -0.003695 0.016453 -0.010396 -0.003217 0.000443 0.003403
# 3 -0.000048 -0.010396 0.022181 -0.001841 -0.001928 -0.000771
# 4 -0.001113 -0.003217 -0.001841 0.047751 -0.003029 0.002961
# 5 0.001105 0.000443 -0.001928 -0.003029 0.056073 -0.011350
# 6 -0.000136 0.003403 -0.000771 0.002961 -0.011350 0.036354
#
#
# Mechanical properties :
#
#
# Convention : Reuss Voigt Hill
#
# Bulk Modulus (GPa) = 51.82317 60.84231 56.33274
# Shear Modulus (GPa) = 22.47550 27.07701 24.77626
#
# Velocity S-wave (km/s) = 3.37122 3.70026 3.53956
# Velocity P-wave (km/s) = 6.43107 7.00156 6.72237
#
# Compressibility (1/GPa) = 0.01929639
#
# Stress axis : x y z
#
# Youngs Moduli (GPa) = 111.83308 60.77897 45.08435
#
# Poissons Ratio (x) = 0.22459 0.00217
# Poissons Ratio (y) = 0.41325 0.46871
# Poissons Ratio (z) = 0.00538 0.63188
#
# Static dielectric constant tensor:
#      x y z
#    x 5.852760 4.169220 2.809700 
#    y 4.169220 11.328390 5.788360 
#    z 2.809700 5.788360 7.548380 
# 
# 
# High freq. dielectric constant tensor:
#      x y z
#    x 1.782180 -0.000490 -0.001390 
#    y -0.000490 1.734070 0.032840 
#    z -0.001390 0.032840 1.761740 
# 
# From -- ./inp_files/368973.got.cif
#   From: 2010.06.25/outbox.cif.g09.slc.cpg/sg2_185_cif.got.tgz:368973.got - 2010.06.27 13:26:56.
