data_PCOD8001472
_publ_section_title
;
Structure prediction by ZEFSAII (Michael W. Deem and Ramdas Pophale) SiO2 
 PCOD8001472
Probable space group: P -1
;
_chemical_formula_sum "Si O2"
_cell_formula_units_Z 16
_cell_length_a 14.199461
_cell_length_b 9.507871
_cell_length_c 12.038559
_cell_angle_alpha 34.724816
_cell_angle_beta 114.882016
_cell_angle_gamma 95.298765
_cell_volume 731.912992
_symmetry_space_group_name_H-M "P -1"
_symmetry_group_IT_number 2
_symmetry_cell_setting 'triclinic'
loop_
_space_group_symop_operation_xyz
x,y,z
-x,-y,-z
loop_
_atom_site_type_symbol
_atom_site_label
_atom_site_fract_x
_atom_site_fract_y
_atom_site_fract_z
Si Si1 0.546990 0.204603 0.134083
Si Si2 0.204248 0.048280 0.475786
Si Si3 0.493472 0.185647 0.774658
Si Si4 0.846610 0.320930 0.149834
Si Si5 0.131673 0.169891 0.112690
Si Si6 0.702354 0.206831 0.755588
Si Si7 0.423933 0.318753 0.211777
Si Si8 0.881592 0.308822 0.930353
O O1 0.431315 0.323949 0.077974
O O2 0.656694 0.138301 0.312039
O O3 0.566493 0.911923 0.285925
O O4 0.535445 0.447429 0.881086
O O5 0.183935 0.021614 0.353121
O O6 0.159837 0.362798 0.291356
O O7 0.135380 0.919920 0.597379
O O8 0.628581 0.106716 0.862873
O O9 0.401144 0.513477 0.537143
O O10 0.500000 0.000000 0.000000
O O11 0.907405 0.496490 0.115295
O O12 0.711250 0.565135 0.896491
O O13 0.897413 0.178509 0.147374
O O14 0.226436 0.017457 0.160037
O O15 0.011924 0.153622 0.038240
O O16 0.791685 0.257018 0.844209
O O17 0.500000 0.000000 0.500000
#
# Coordination Sequence:
#
# PCOD8001472 Si02
#       8
#     2   2   2   2   2   2   2   2
#     4  10  21  37  57  94 126 165 206 263 320 380
#     4  10  21  41  66  95 133 163 218 271 324 384
#     4  11  26  43  66  92 130 174 218 264 325 393
#     4  10  22  38  64  95 128 170 214 270 327 379
#     4  11  24  42  65  99 131 170 219 270 320 386
#     4  11  26  45  66  95 133 175 218 266 325 390
#     4  10  20  32  61  91 124 159 204 260 319 376
#     4  11  23  42  68  94 131 174 218 267 324 385
#
# _framework density 21.860523000000001
#
# number of rings (size 3 to 8) (size 9 to 14) (size 15 to 20)
#    0.000    1.500    1.250    4.125    3.500    8.000 
#    0.000    0.000    0.000    4.500    0.000    0.000 
#    0.000    0.000    0.000    0.000    0.000    0.000 
#
# Total GULP energy -198271.289782 kJ/mol
# GULP energy per Si atom -12391.955611 kJ/mol
# Density = 2.181077 g / cm^3
# Si number density = 21.860523 Si / 1000 Ang^3
#
#
#
# Elastic Constant Matrix: (Units=GPa)
#
#
# Indices 1 2 3 4 5 6 
#
# 1 137.8313 39.3588 42.1511 16.4377 -12.4969 3.3021
# 2 39.3588 86.5129 29.5153 14.4970 -4.0554 5.4850
# 3 42.1511 29.5153 86.1179 0.9314 -23.7992 4.2288
# 4 16.4377 14.4970 0.9314 22.0456 2.4411 0.8129
# 5 -12.4969 -4.0554 -23.7992 2.4411 36.5784 -2.4328
# 6 3.3021 5.4850 4.2288 0.8129 -2.4328 36.4608
#
#
#
# Elastic Compliance Matrix: (Units=1/GPa)
#
#
# Indices 1 2 3 4 5 6 
#
# 1 0.009799 -0.002173 -0.003687 -0.005846 0.001103 0.000071
# 2 -0.002173 0.015470 -0.004492 -0.008140 -0.001509 -0.001529
# 3 -0.003687 -0.004492 0.017520 0.003946 0.009346 -0.000487
# 4 -0.005846 -0.008140 0.003946 0.055360 -0.004041 -0.000208
# 5 0.001103 -0.001509 0.009346 -0.004041 0.033992 0.001401
# 6 0.000071 -0.001529 -0.000487 -0.000208 0.001401 0.027805
#
#
# Mechanical properties :
#
#
# Convention : Reuss Voigt Hill
#
# Bulk Modulus (GPa) = 45.27999 59.16804 52.22402
# Shear Modulus (GPa) = 26.59397 32.31277 29.45337
#
# Velocity S-wave (km/s) = 3.49166 3.84882 3.67458
# Velocity P-wave (km/s) = 6.08389 6.84662 6.47649
#
# Compressibility (1/GPa) = 0.02208481
#
# Stress axis : x y z
#
# Youngs Moduli (GPa) = 102.05321 64.63924 57.07716
#
# Poissons Ratio (x) = 0.14048 0.21043
# Poissons Ratio (y) = 0.22180 0.25641
# Poissons Ratio (z) = 0.37624 0.29038
#
# Static dielectric constant tensor:
#      x y z
#    x 4.339050 0.032980 -0.176890 
#    y 0.032980 3.405450 -0.063240 
#    z -0.176890 -0.063240 3.888200 
# 
# 
# High freq. dielectric constant tensor:
#      x y z
#    x 1.885130 0.005140 -0.004880 
#    y 0.005140 1.844290 -0.010180 
#    z -0.004880 -0.010180 1.854510 
# 
# From -- ./inp_files/445494.got.cif
#   From: 2010.06.25/outbox.cif.g09.slc.cpg/sg2_223_cif.got.tgz:445494.got - 2010.06.27 13:26:56.
