data_PCOD8001300
_publ_section_title
;
Structure prediction by ZEFSAII (Michael W. Deem and Ramdas Pophale) SiO2 
 PCOD8001300
Probable space group: P -1
;
_chemical_formula_sum "Si O2"
_cell_formula_units_Z 14
_cell_length_a 16.971527
_cell_length_b 9.073575
_cell_length_c 9.090823
_cell_angle_alpha 113.720953
_cell_angle_beta 147.913783
_cell_angle_gamma 61.225084
_cell_volume 651.757451
_symmetry_space_group_name_H-M "P -1"
_symmetry_group_IT_number 2
_symmetry_cell_setting 'triclinic'
loop_
_space_group_symop_operation_xyz
x,y,z
-x,-y,-z
loop_
_atom_site_type_symbol
_atom_site_label
_atom_site_fract_x
_atom_site_fract_y
_atom_site_fract_z
Si Si1 0.574888 0.335920 0.460899
Si Si2 0.787645 0.766842 0.511091
Si Si3 0.606554 0.518139 0.042737
Si Si4 0.867942 0.982890 0.468129
Si Si5 0.794051 0.148112 0.124397
Si Si6 0.074896 0.816021 0.111463
Si Si7 0.389365 0.975713 0.440931
O O1 0.500000 0.500000 0.500000
O O2 0.761740 0.286531 0.741628
O O3 0.520842 0.185874 0.387017
O O4 0.510569 0.358593 0.204032
O O5 0.743491 0.598779 0.334327
O O6 0.787069 0.882443 0.411818
O O7 0.659599 0.867300 0.464451
O O8 0.953692 0.712256 0.837288
O O9 0.685627 0.338248 0.022956
O O10 0.500000 0.500000 0.000000
O O11 0.762355 0.056444 0.188047
O O12 0.898067 0.148167 0.659981
O O13 0.027082 0.855157 0.607823
O O14 0.760307 0.051487 0.888444
O O15 0.000000 0.000000 0.000000
O O16 0.500000 0.000000 0.500000
#
# Coordination Sequence:
#
# PCOD8001300 Si02
#       7
#     2   2   2   2   2   2   2
#     4  12  25  45  71 101 142 183 222 292 361 402
#     4  11  24  44  74  99 133 191 238 280 347 424
#     4  12  28  45  64 105 151 180 223 298 358 405
#     4  10  21  42  76  96 130 183 240 285 339 414
#     4  11  23  44  66 102 140 174 230 295 343 408
#     4  10  19  44  72  97 131 182 234 277 343 417
#     4  12  24  43  69  99 137 181 236 280 339 422
#
# _framework density 21.480384000000001
#
# number of rings (size 3 to 8) (size 9 to 14) (size 15 to 20)
#    0.000    0.857    5.714    2.571    2.000    1.143 
#    0.000    2.857    0.000    0.000    0.000    0.000 
#    0.000    0.000    0.000    0.000    0.000    0.000 
#
# Total GULP energy -173571.954738 kJ/mol
# GULP energy per Si atom -12397.996767 kJ/mol
# Density = 2.143149 g / cm^3
# Si number density = 21.480384 Si / 1000 Ang^3
#
#
#
# Elastic Constant Matrix: (Units=GPa)
#
#
# Indices 1 2 3 4 5 6 
#
# 1 136.2570 35.1869 21.3836 -11.6171 1.8312 6.4237
# 2 35.1869 73.9907 27.3161 -13.9240 8.2584 -6.3642
# 3 21.3836 27.3161 81.6706 -3.6607 -0.3335 12.5423
# 4 -11.6171 -13.9240 -3.6607 36.7007 2.2248 1.2344
# 5 1.8312 8.2584 -0.3335 2.2248 42.8503 -6.6178
# 6 6.4237 -6.3642 12.5423 1.2344 -6.6178 44.1036
#
#
#
# Elastic Compliance Matrix: (Units=1/GPa)
#
#
# Indices 1 2 3 4 5 6 
#
# 1 0.008598 -0.003733 -0.000695 0.001289 0.000029 -0.001625
# 2 -0.003733 0.019250 -0.005894 0.005582 -0.003213 0.004359
# 3 -0.000695 -0.005894 0.015122 -0.000816 0.000562 -0.004942
# 4 0.001289 0.005582 -0.000816 0.029872 -0.002750 -0.000399
# 5 0.000029 -0.003213 0.000562 -0.002750 0.024587 0.003139
# 6 -0.001625 0.004359 -0.004942 -0.000399 0.003139 0.025427
#
#
# Mechanical properties :
#
#
# Convention : Reuss Voigt Hill
#
# Bulk Modulus (GPa) = 44.78762 51.07682 47.93222
# Shear Modulus (GPa) = 33.12516 38.59970 35.86243
#
# Velocity S-wave (km/s) = 3.93123 4.24367 4.09044
# Velocity P-wave (km/s) = 6.44219 6.91677 6.68369
#
# Compressibility (1/GPa) = 0.02232760
#
# Stress axis : x y z
#
# Youngs Moduli (GPa) = 116.30284 51.94766 66.12730
#
# Poissons Ratio (x) = 0.19390 0.04598
# Poissons Ratio (y) = 0.43411 0.38973
# Poissons Ratio (z) = 0.08087 0.30616
#
# Static dielectric constant tensor:
#      x y z
#    x 3.966820 0.007410 -0.267330 
#    y 0.007410 3.758400 -0.062760 
#    z -0.267330 -0.062760 4.512230 
# 
# 
# High freq. dielectric constant tensor:
#      x y z
#    x 1.860290 -0.011900 -0.013930 
#    y -0.011900 1.823730 -0.011280 
#    z -0.013930 -0.011280 1.846330 
# 
# From -- ./inp_files/329503.got.cif
#   From: 2010.06.25/outbox.cif.g09.slc.cpg/sg2_165_cif.got.tgz:329503.got - 2010.06.27 13:26:56.
