data_PCOD8001096
_publ_section_title
;
Structure prediction by ZEFSAII (Michael W. Deem and Ramdas Pophale) SiO2 
 PCOD8001096
Probable space group: P -1
;
_chemical_formula_sum "Si O2"
_cell_formula_units_Z 16
_cell_length_a 9.106197
_cell_length_b 11.279545
_cell_length_c 15.041051
_cell_angle_alpha 150.309898
_cell_angle_beta 100.915681
_cell_angle_gamma 73.343251
_cell_volume 727.290822
_symmetry_space_group_name_H-M "P -1"
_symmetry_group_IT_number 2
_symmetry_cell_setting 'triclinic'
loop_
_space_group_symop_operation_xyz
x,y,z
-x,-y,-z
loop_
_atom_site_type_symbol
_atom_site_label
_atom_site_fract_x
_atom_site_fract_y
_atom_site_fract_z
Si Si1 0.909328 0.955487 0.195176
Si Si2 0.031644 0.289002 0.139364
Si Si3 0.768655 0.624008 0.079720
Si Si4 0.096861 0.194724 0.612161
Si Si5 0.207579 0.953374 0.300066
Si Si6 0.442298 0.884569 0.135832
Si Si7 0.410323 0.745427 0.696401
Si Si8 0.736739 0.165030 0.076818
O O1 0.881268 0.707344 0.076536
O O2 0.029442 0.084734 0.341240
O O3 0.751911 0.166750 0.315189
O O4 0.977746 0.878434 0.056433
O O5 0.025531 0.568473 0.291131
O O6 0.881018 0.290829 0.183068
O O7 0.192255 0.138228 0.107356
O O8 0.805094 0.727286 0.246472
O O9 0.589341 0.717286 0.093090
O O10 0.794182 0.332789 0.892353
O O11 0.229911 0.057111 0.467766
O O12 0.000000 0.000000 0.500000
O O13 0.329328 0.021394 0.290571
O O14 0.487054 0.064777 0.186605
O O15 0.348847 0.743057 0.967163
O O16 0.500000 0.500000 0.500000
O O17 0.383591 0.730012 0.788967
#
# Coordination Sequence:
#
# PCOD8001096 Si02
#       8
#     2   2   2   2   2   2   2   2
#     4  10  19  41  66  90 133 173 211 273 327 383
#     4  10  21  39  69 103 129 168 229 281 319 394
#     4  11  23  44  63  95 143 171 217 279 328 397
#     4  12  24  39  67 102 133 174 223 273 339 392
#     4  12  23  40  69  98 129 176 226 271 331 396
#     4  11  24  43  63  94 131 177 221 267 340 399
#     4  10  24  41  62  93 136 170 211 278 332 390
#     4  10  21  43  70  93 130 182 220 267 344 391
#
# _framework density 21.999452000000002
#
# number of rings (size 3 to 8) (size 9 to 14) (size 15 to 20)
#    0.000    1.250    3.750    1.875    1.750    1.500 
#    4.500    1.250    0.000    0.000    0.000    0.000 
#    0.000    0.000    0.000    0.000    0.000    0.000 
#
# Total GULP energy -198279.976892 kJ/mol
# GULP energy per Si atom -12392.498556 kJ/mol
# Density = 2.194938 g / cm^3
# Si number density = 21.999452 Si / 1000 Ang^3
#
#
#
# Elastic Constant Matrix: (Units=GPa)
#
#
# Indices 1 2 3 4 5 6 
#
# 1 97.2510 33.9381 27.9299 -9.1432 -20.6027 0.3802
# 2 33.9381 95.6598 40.6723 -10.6842 -4.7921 -3.7449
# 3 27.9299 40.6723 110.8665 -13.8244 -13.5073 -2.1362
# 4 -9.1432 -10.6842 -13.8244 40.6005 9.0995 -1.7902
# 5 -20.6027 -4.7921 -13.5073 9.0995 28.4154 -15.8433
# 6 0.3802 -3.7449 -2.1362 -1.7902 -15.8433 40.8255
#
#
#
# Elastic Compliance Matrix: (Units=1/GPa)
#
#
# Indices 1 2 3 4 5 6 
#
# 1 0.014343 -0.004124 -0.000653 -0.000546 0.011805 0.004011
# 2 -0.004124 0.013738 -0.004163 0.002020 -0.003378 -0.000142
# 3 -0.000653 -0.004163 0.011580 0.001666 0.005059 0.002266
# 4 -0.000546 0.002020 0.001666 0.027592 -0.009277 -0.002113
# 5 0.011805 -0.003378 0.005059 -0.009277 0.061566 0.023330
# 6 0.004011 -0.000142 0.002266 -0.002113 0.023330 0.033524
#
#
# Mechanical properties :
#
#
# Convention : Reuss Voigt Hill
#
# Bulk Modulus (GPa) = 45.91335 56.53977 51.22656
# Shear Modulus (GPa) = 26.66919 35.38406 31.02663
#
# Velocity S-wave (km/s) = 3.48554 4.01485 3.75952
# Velocity P-wave (km/s) = 6.09214 6.87374 6.49471
#
# Compressibility (1/GPa) = 0.02178016
#
# Stress axis : x y z
#
# Youngs Moduli (GPa) = 69.71953 72.79265 86.35929
#
# Poissons Ratio (x) = 0.30016 0.05641
# Poissons Ratio (y) = 0.28749 0.35954
# Poissons Ratio (z) = 0.04554 0.30306
#
# Static dielectric constant tensor:
#      x y z
#    x 4.169670 -0.040740 -0.195770 
#    y -0.040740 4.287800 -0.177730 
#    z -0.195770 -0.177730 3.440790 
# 
# 
# High freq. dielectric constant tensor:
#      x y z
#    x 1.871770 0.006350 -0.014140 
#    y 0.006350 1.878020 -0.010240 
#    z -0.014140 -0.010240 1.843780 
# 
# From -- ./inp_files/501188.got.cif
#   From: 2010.06.25/outbox.cif.g09.slc.cpg/sg2_251_cif.got.tgz:501188.got - 2010.06.27 13:26:56.
