data_PCOD8001462
_publ_section_title
;
Structure prediction by ZEFSAII (Michael W. Deem and Ramdas Pophale) SiO2 
 PCOD8001462
Probable space group: P -1
;
_chemical_formula_sum "Si O2"
_cell_formula_units_Z 16
_cell_length_a 14.344268
_cell_length_b 9.150241
_cell_length_c 8.773173
_cell_angle_alpha 73.981383
_cell_angle_beta 86.821081
_cell_angle_gamma 131.032844
_cell_volume 789.186230
_symmetry_space_group_name_H-M "P -1"
_symmetry_group_IT_number 2
_symmetry_cell_setting 'triclinic'
loop_
_space_group_symop_operation_xyz
x,y,z
-x,-y,-z
loop_
_atom_site_type_symbol
_atom_site_label
_atom_site_fract_x
_atom_site_fract_y
_atom_site_fract_z
Si Si1 0.531293 0.271310 0.717787
Si Si2 0.171332 0.262427 0.025494
Si Si3 0.007742 0.213999 0.789102
Si Si4 0.403562 0.322054 0.935815
Si Si5 0.614962 0.117775 0.337434
Si Si6 0.769095 0.395622 0.508638
Si Si7 0.668115 0.310308 0.976914
Si Si8 0.228991 0.841459 0.153666
O O1 0.487650 0.387068 0.752829
O O2 0.661570 0.402500 0.564219
O O3 0.557801 0.201513 0.888747
O O4 0.404826 0.065217 0.696003
O O5 0.232075 0.432182 0.108526
O O6 0.099431 0.288443 0.904525
O O7 0.286937 0.305026 0.913322
O O8 0.071391 0.028844 0.177975
O O9 0.093356 0.360118 0.591688
O O10 0.910632 0.239409 0.833428
O O11 0.500000 0.500000 0.000000
O O12 0.343840 0.097573 0.073650
O O13 0.745161 0.289322 0.375477
O O14 0.500000 0.000000 0.500000
O O15 0.604763 0.235415 0.173380
O O16 0.771859 0.260521 0.664357
O O17 0.749532 0.247880 0.964116
#
# Coordination Sequence:
#
# PCOD8001462 Si02
#       8
#     2   2   2   2   2   2   2   2
#     4  10  21  35  59  91 124 156 199 244 301 373
#     4  10  22  37  64  87 117 167 197 252 303 348
#     4  10  21  43  59  85 125 158 211 244 304 359
#     4  11  21  37  63  90 124 155 205 245 302 367
#     4  10  20  32  58  90 125 154 190 247 308 354
#     4  10  21  38  63  89 126 158 197 256 310 348
#     4  11  19  37  61  93 117 158 209 245 303 355
#     4  10  23  37  66  90 116 163 208 253 294 357
#
# _framework density 20.274046999999999
#
# number of rings (size 3 to 8) (size 9 to 14) (size 15 to 20)
#    0.000    1.750    3.750    0.750    3.500    0.500 
#    0.000    3.125    2.750    0.000    0.000    0.000 
#    0.000    0.000    0.000    0.000    0.000    0.000 
#
# Total GULP energy -198232.957012 kJ/mol
# GULP energy per Si atom -12389.559813 kJ/mol
# Density = 2.022790 g / cm^3
# Si number density = 20.274047 Si / 1000 Ang^3
#
#
#
# Elastic Constant Matrix: (Units=GPa)
#
#
# Indices 1 2 3 4 5 6 
#
# 1 117.2631 47.3653 35.8721 0.7179 -19.0681 -1.8534
# 2 47.3653 117.9337 50.3793 5.6833 -15.7187 -12.7556
# 3 35.8721 50.3793 101.6464 0.8460 -7.1866 1.5906
# 4 0.7179 5.6833 0.8460 35.9386 1.3161 -0.6100
# 5 -19.0681 -15.7187 -7.1866 1.3161 28.1369 2.2269
# 6 -1.8534 -12.7556 1.5906 -0.6100 2.2269 25.3663
#
#
#
# Elastic Compliance Matrix: (Units=1/GPa)
#
#
# Indices 1 2 3 4 5 6 
#
# 1 0.011258 -0.003022 -0.002071 0.000083 0.005491 -0.001047
# 2 -0.003022 0.013227 -0.005321 -0.001928 0.003565 0.006405
# 3 -0.002071 -0.005321 0.013205 0.000539 -0.000746 -0.003577
# 4 0.000083 -0.001928 0.000539 0.028194 -0.002192 -0.000127
# 5 0.005491 0.003565 -0.000746 -0.002192 0.041279 -0.001436
# 6 -0.001047 0.006405 -0.003577 -0.000127 -0.001436 0.042914
#
#
# Mechanical properties :
#
#
# Convention : Reuss Voigt Hill
#
# Bulk Modulus (GPa) = 59.30896 67.11962 63.21429
# Shear Modulus (GPa) = 28.32424 31.43681 29.88053
#
# Velocity S-wave (km/s) = 3.74179 3.94203 3.84322
# Velocity P-wave (km/s) = 6.92713 7.34149 7.13732
#
# Compressibility (1/GPa) = 0.01686086
#
# Stress axis : x y z
#
# Youngs Moduli (GPa) = 88.82575 75.60203 75.72764
#
# Poissons Ratio (x) = 0.22847 0.15685
# Poissons Ratio (y) = 0.26844 0.40298
# Poissons Ratio (z) = 0.18398 0.40231
#
# Static dielectric constant tensor:
#      x y z
#    x 3.802190 0.045440 -0.172090 
#    y 0.045440 4.173960 0.133500 
#    z -0.172090 0.133500 3.841090 
# 
# 
# High freq. dielectric constant tensor:
#      x y z
#    x 1.779130 0.002970 -0.010000 
#    y 0.002970 1.801010 -0.004540 
#    z -0.010000 -0.004540 1.780670 
# 
# From -- ./inp_files/175318.got.cif
#   From: 2010.06.25/outbox.cif.g09.slc.cpg/sg2_88_cif.got.tgz:175318.got - 2010.06.27 13:26:56.
