data_PCOD8001889
_publ_section_title
;
Structure prediction by ZEFSAII (Michael W. Deem and Ramdas Pophale) SiO2 
 PCOD8001889
Probable space group: P -1
;
_chemical_formula_sum "Si O2"
_cell_formula_units_Z 12
_cell_length_a 11.829708
_cell_length_b 14.907125
_cell_length_c 11.730475
_cell_angle_alpha 38.146740
_cell_angle_beta 37.174493
_cell_angle_gamma 26.814267
_cell_volume 541.908405
_symmetry_space_group_name_H-M "P -1"
_symmetry_group_IT_number 2
_symmetry_cell_setting 'triclinic'
loop_
_space_group_symop_operation_xyz
x,y,z
-x,-y,-z
loop_
_atom_site_type_symbol
_atom_site_label
_atom_site_fract_x
_atom_site_fract_y
_atom_site_fract_z
Si Si1 0.544498 0.870685 0.757216
Si Si2 0.098850 0.295963 0.574337
Si Si3 0.673496 0.799718 0.982922
Si Si4 0.658926 0.327269 0.828930
Si Si5 0.738767 0.193623 0.657903
Si Si6 0.859348 0.284331 0.247550
O O1 0.798962 0.732067 0.608096
O O2 0.643675 0.858810 0.815233
O O3 0.337152 0.108313 0.649284
O O4 0.392007 0.800309 0.944478
O O5 0.000000 0.500000 0.500000
O O6 0.853199 0.318384 0.757234
O O7 0.979535 0.652984 0.924110
O O8 0.566106 0.696409 0.192683
O O9 0.500000 0.000000 0.000000
O O10 0.809021 0.231114 0.682811
O O11 0.371477 0.564347 0.810116
O O12 0.732250 0.309255 0.444849
O O13 0.946975 0.948476 0.719207
#
# Coordination Sequence:
#
# PCOD8001889 Si02
#       6
#     2   2   2   2   2   2
#     4  10  24  44  64  91 126 163 207 256 305 365
#     4  11  26  44  65  89 120 167 214 258 305 360
#     4   9  19  37  62  90 124 160 195 245 306 366
#     4  11  23  39  63  91 122 160 206 256 307 363
#     4   9  20  35  55  88 128 161 196 246 301 366
#     4  10  20  34  58  92 125 160 197 243 306 368
#
# _framework density 22.143964
#
# number of rings (size 3 to 8) (size 9 to 14) (size 15 to 20)
#    0.000    2.000    0.000    2.000    0.000   15.333 
#    0.000    0.000    0.000    0.000    0.000    0.000 
#    0.000    0.000    0.000    0.000    0.000    0.000 
#
# Total GULP energy -148808.482108 kJ/mol
# GULP energy per Si atom -12400.706842 kJ/mol
# Density = 2.209356 g / cm^3
# Si number density = 22.143964 Si / 1000 Ang^3
#
#
#
# Elastic Constant Matrix: (Units=GPa)
#
#
# Indices 1 2 3 4 5 6 
#
# 1 90.9599 34.9155 16.1457 10.6953 -11.1504 -1.3900
# 2 34.9155 94.9060 39.5647 11.1168 0.1864 -6.2331
# 3 16.1457 39.5647 89.0533 4.9945 1.2966 2.9589
# 4 10.6953 11.1168 4.9945 31.3557 -0.2183 -5.7825
# 5 -11.1504 0.1864 1.2966 -0.2183 31.7817 1.2983
# 6 -1.3900 -6.2331 2.9589 -5.7825 1.2983 24.5510
#
#
#
# Elastic Compliance Matrix: (Units=1/GPa)
#
#
# Indices 1 2 3 4 5 6 
#
# 1 0.013802 -0.004692 -0.000262 -0.003226 0.004916 -0.001398
# 2 -0.004692 0.015235 -0.005902 -0.002154 -0.001669 0.003894
# 3 -0.000262 -0.005902 0.014055 -0.000676 -0.000499 -0.003340
# 4 -0.003226 -0.002154 -0.000676 0.035280 -0.001165 0.007723
# 5 0.004916 -0.001669 -0.000499 -0.001165 0.033298 -0.002120
# 6 -0.001398 0.003894 -0.003340 0.007723 -0.002120 0.043975
#
#
# Mechanical properties :
#
#
# Convention : Reuss Voigt Hill
#
# Bulk Modulus (GPa) = 46.77354 50.68568 48.72961
# Shear Modulus (GPa) = 27.10269 29.82392 28.46331
#
# Velocity S-wave (km/s) = 3.50227 3.67389 3.58910
# Velocity P-wave (km/s) = 6.12559 6.39808 6.26332
#
# Compressibility (1/GPa) = 0.02137961
#
# Stress axis : x y z
#
# Youngs Moduli (GPa) = 72.45340 65.63916 71.14857
#
# Poissons Ratio (x) = 0.30798 0.01864
# Poissons Ratio (y) = 0.33996 0.41993
# Poissons Ratio (z) = 0.01898 0.38741
#
# Static dielectric constant tensor:
#      x y z
#    x 3.979650 0.006810 -0.291550 
#    y 0.006810 3.978490 0.254510 
#    z -0.291550 0.254510 4.402300 
# 
# 
# High freq. dielectric constant tensor:
#      x y z
#    x 1.861870 0.005510 -0.011130 
#    y 0.005510 1.886360 0.009470 
#    z -0.011130 0.009470 1.880760 
# 
# From -- ./inp_files/430879.got.cif
#   From: 2010.06.25/outbox.cif.g09.slc.cpg/sg2_216_cif.got.tgz:430879.got - 2010.06.27 13:26:56.
