data_PCOD8001585
_publ_section_title
;
Structure prediction by ZEFSAII (Michael W. Deem and Ramdas Pophale) SiO2 
 PCOD8001585
Probable space group: P -1
;
_chemical_formula_sum "Si O2"
_cell_formula_units_Z 16
_cell_length_a 18.515558
_cell_length_b 8.598452
_cell_length_c 12.543591
_cell_angle_alpha 50.387379
_cell_angle_beta 153.062956
_cell_angle_gamma 119.645006
_cell_volume 681.171204
_symmetry_space_group_name_H-M "P -1"
_symmetry_group_IT_number 2
_symmetry_cell_setting 'triclinic'
loop_
_space_group_symop_operation_xyz
x,y,z
-x,-y,-z
loop_
_atom_site_type_symbol
_atom_site_label
_atom_site_fract_x
_atom_site_fract_y
_atom_site_fract_z
Si Si1 0.191024 0.133789 0.233653
Si Si2 0.006343 0.134734 0.783319
Si Si3 0.868034 0.755261 0.532051
Si Si4 0.237141 0.486405 0.689426
Si Si5 0.547914 0.222358 0.242422
Si Si6 0.406574 0.931626 0.050587
Si Si7 0.202044 0.833008 0.016987
Si Si8 0.294732 0.405177 0.421653
O O1 0.246091 0.324944 0.277926
O O2 0.345648 0.962688 0.466130
O O3 0.077871 0.215738 0.949533
O O4 0.099017 0.032384 0.249840
O O5 0.893270 0.342493 0.492326
O O6 0.142542 0.038021 0.920165
O O7 0.855378 0.648359 0.448446
O O8 0.832928 0.614116 0.645245
O O9 0.049722 0.788933 0.768913
O O10 0.737380 0.977036 0.262821
O O11 0.344312 0.606521 0.703823
O O12 0.369331 0.335424 0.005713
O O13 0.511015 0.109404 0.132197
O O14 0.337564 0.875696 0.097039
O O15 0.525151 0.724407 0.251087
O O16 0.286985 0.647190 0.288465
#
# Coordination Sequence:
#
# PCOD8001585 Si02
#       8
#     2   2   2   2   2   2   2   2
#     4   9  18  34  57  83 117 150 200 255 285 337
#     4  10  20  33  56  88 118 154 195 249 301 345
#     4  11  22  39  67  92 117 160 210 249 296 361
#     4   9  18  35  61  86 112 151 204 255 283 340
#     4   8  17  35  59  79 110 157 197 238 295 343
#     4  10  23  43  60  87 131 162 191 254 314 359
#     4  12  24  38  61  94 128 158 197 249 314 366
#     4  11  22  39  63  92 116 162 213 248 290 363
#
# _framework density 23.488956000000002
#
# number of rings (size 3 to 8) (size 9 to 14) (size 15 to 20)
#    0.000    2.000    1.250    2.250    5.250    0.000 
#    2.250    5.000    5.500    0.000    0.000    0.000 
#    0.000    0.000    0.000    0.000    0.000    0.000 
#
# Total GULP energy -198291.953860 kJ/mol
# GULP energy per Si atom -12393.247116 kJ/mol
# Density = 2.343549 g / cm^3
# Si number density = 23.488956 Si / 1000 Ang^3
#
#
#
# Elastic Constant Matrix: (Units=GPa)
#
#
# Indices 1 2 3 4 5 6 
#
# 1 59.2175 9.0245 -8.1761 -2.1704 7.5379 1.1754
# 2 9.0245 44.4889 8.7694 -2.8298 9.0476 -6.0150
# 3 -8.1761 8.7694 82.4207 -19.9418 17.1301 -3.3890
# 4 -2.1704 -2.8298 -19.9418 34.0014 -5.9630 9.6948
# 5 7.5379 9.0476 17.1301 -5.9630 27.1121 -11.2913
# 6 1.1754 -6.0150 -3.3890 9.6948 -11.2913 21.2763
#
#
#
# Elastic Compliance Matrix: (Units=1/GPa)
#
#
# Indices 1 2 3 4 5 6 
#
# 1 0.019881 -0.003903 0.005322 0.004832 -0.010277 -0.009010
# 2 -0.003903 0.025190 -0.002527 -0.001956 -0.003717 0.005853
# 3 0.005322 -0.002527 0.018174 0.011391 -0.014108 -0.010791
# 4 0.004832 -0.001956 0.011391 0.041101 -0.008003 -0.021981
# 5 -0.010277 -0.003717 -0.014108 -0.008003 0.062283 0.033970
# 6 -0.009010 0.005853 -0.010791 -0.021981 0.033970 0.075478
#
#
# Mechanical properties :
#
#
# Convention : Reuss Voigt Hill
#
# Bulk Modulus (GPa) = 16.38551 22.81808 19.60179
# Shear Modulus (GPa) = 18.89178 28.24524 23.56851
#
# Velocity S-wave (km/s) = 2.83907 3.47146 3.17106
# Velocity P-wave (km/s) = 4.21166 5.07971 4.66592
#
# Compressibility (1/GPa) = 0.06102954
#
# Stress axis : x y z
#
# Youngs Moduli (GPa) = 50.30027 39.69810 55.02249
#
# Poissons Ratio (x) = 0.15492 -0.29283
# Poissons Ratio (y) = 0.19630 0.13906
# Poissons Ratio (z) = -0.26770 0.10033
#
# Static dielectric constant tensor:
#      x y z
#    x 3.581380 -0.057840 0.350650 
#    y -0.057840 4.144970 -0.227250 
#    z 0.350650 -0.227250 4.734710 
# 
# 
# High freq. dielectric constant tensor:
#      x y z
#    x 1.873120 -0.007130 0.024630 
#    y -0.007130 1.923760 -0.012320 
#    z 0.024630 -0.012320 1.953320 
# 
# From -- ./inp_files/243892.got.cif
#   From: 2010.06.25/outbox.cif.g09.slc.cpg/sg2_122_cif.got.tgz:243892.got - 2010.06.27 13:26:56.
