data_PCOD8001741
_publ_section_title
;
Structure prediction by ZEFSAII (Michael W. Deem and Ramdas Pophale) SiO2 
 PCOD8001741
Probable space group: P -1
;
_chemical_formula_sum "Si O2"
_cell_formula_units_Z 16
_cell_length_a 11.834012
_cell_length_b 11.168722
_cell_length_c 14.468840
_cell_angle_alpha 147.414112
_cell_angle_beta 115.090088
_cell_angle_gamma 53.157961
_cell_volume 809.488643
_symmetry_space_group_name_H-M "P -1"
_symmetry_group_IT_number 2
_symmetry_cell_setting 'triclinic'
loop_
_space_group_symop_operation_xyz
x,y,z
-x,-y,-z
loop_
_atom_site_type_symbol
_atom_site_label
_atom_site_fract_x
_atom_site_fract_y
_atom_site_fract_z
Si Si1 0.480203 0.393716 0.212608
Si Si2 0.376178 0.149917 0.153635
Si Si3 0.103088 0.461929 0.720285
Si Si4 0.089932 0.004964 0.666804
Si Si5 0.224516 0.640254 0.735105
Si Si6 0.160519 0.469253 0.426546
Si Si7 0.889311 0.809339 0.012357
Si Si8 0.200059 0.910451 0.448409
O O1 0.456510 0.303453 0.247168
O O2 0.613486 0.443397 0.291204
O O3 0.344867 0.657081 0.303986
O O4 0.514395 0.155492 0.001249
O O5 0.310275 0.237795 0.289241
O O6 0.247985 0.220030 0.079981
O O7 0.208137 0.564221 0.785160
O O8 0.970363 0.574512 0.674913
O O9 0.190750 0.154080 0.551152
O O10 0.037596 0.569899 0.869643
O O11 0.101529 0.177145 0.864471
O O12 0.927796 0.141364 0.660283
O O13 0.137257 0.727186 0.540180
O O14 0.195655 0.966200 0.592960
O O15 0.174714 0.480055 0.548210
O O16 0.123109 0.942115 0.881104
#
# Coordination Sequence:
#
# PCOD8001741 Si02
#       8
#     2   2   2   2   2   2   2   2
#     4  10  20  35  51  76 110 142 164 214 263 313
#     4   9  18  35  54  79 104 132 172 222 269 295
#     4  10  20  34  55  78 108 140 172 212 258 305
#     4   9  18  34  56  80 104 131 174 219 269 298
#     4  10  20  34  55  79 105 142 174 211 254 310
#     4   9  17  34  57  80 101 130 181 223 257 292
#     4   9  19  35  56  83 100 129 179 226 257 296
#     4  10  20  35  52  76 112 140 164 215 260 316
#
# _framework density 19.765564000000001
#
# number of rings (size 3 to 8) (size 9 to 14) (size 15 to 20)
#    0.000    2.500    1.250    0.750    1.750    1.500 
#    4.500    0.000    0.000    1.500    0.000    0.000 
#    0.000    0.000    0.000    0.000    0.000    0.000 
#
# Total GULP energy -198340.714718 kJ/mol
# GULP energy per Si atom -12396.294670 kJ/mol
# Density = 1.972058 g / cm^3
# Si number density = 19.765564 Si / 1000 Ang^3
#
#
#
# Elastic Constant Matrix: (Units=GPa)
#
#
# Indices 1 2 3 4 5 6 
#
# 1 98.6813 24.5134 29.1132 5.7539 -6.2667 2.4174
# 2 24.5134 48.5824 24.8529 14.5243 -15.4328 -8.9426
# 3 29.1132 24.8529 77.0043 7.4233 -19.0747 -15.4002
# 4 5.7539 14.5243 7.4233 40.1338 -7.0155 -7.4254
# 5 -6.2667 -15.4328 -19.0747 -7.0155 26.9073 5.1566
# 6 2.4174 -8.9426 -15.4002 -7.4254 5.1566 18.9403
#
#
#
# Elastic Compliance Matrix: (Units=1/GPa)
#
#
# Indices 1 2 3 4 5 6 
#
# 1 0.013337 -0.006233 -0.005366 -0.000736 -0.002831 -0.008526
# 2 -0.006233 0.032472 -0.002984 -0.006798 0.011785 0.007827
# 3 -0.005366 -0.002984 0.021122 0.002380 0.009813 0.014711
# 4 -0.000736 -0.006798 0.002380 0.029388 0.003479 0.009394
# 5 -0.002831 0.011785 0.009813 0.003479 0.050856 0.001423
# 6 -0.008526 0.007827 0.014711 0.009394 0.001423 0.072838
#
#
# Mechanical properties :
#
#
# Convention : Reuss Voigt Hill
#
# Bulk Modulus (GPa) = 26.47964 42.35853 34.41909
# Shear Modulus (GPa) = 19.10100 26.91552 23.00826
#
# Velocity S-wave (km/s) = 3.11203 3.69418 3.41553
# Velocity P-wave (km/s) = 5.13215 6.29864 5.74508
#
# Compressibility (1/GPa) = 0.03776486
#
# Stress axis : x y z
#
# Youngs Moduli (GPa) = 74.97863 30.79621 47.34488
#
# Poissons Ratio (x) = 0.19195 0.25406
# Poissons Ratio (y) = 0.46734 0.14126
# Poissons Ratio (z) = 0.40235 0.09188
#
# Static dielectric constant tensor:
#      x y z
#    x 3.464940 -0.076840 -0.084130 
#    y -0.076840 3.319320 -0.001550 
#    z -0.084130 -0.001550 3.771350 
# 
# 
# High freq. dielectric constant tensor:
#      x y z
#    x 1.765550 0.000390 -0.008490 
#    y 0.000390 1.731130 0.013530 
#    z -0.008490 0.013530 1.775450 
# 
# From -- ./inp_files/199685.got.cif
#   From: 2010.06.25/outbox.cif.g09.slc.cpg/sg2_100_cif.got.tgz:199685.got - 2010.06.27 13:26:56.
