data_PCOD8001509
_publ_section_title
;
Structure prediction by ZEFSAII (Michael W. Deem and Ramdas Pophale) SiO2 
 PCOD8001509
Probable space group: P -1
;
_chemical_formula_sum "Si O2"
_cell_formula_units_Z 10
_cell_length_a 10.027702
_cell_length_b 8.943730
_cell_length_c 10.171873
_cell_angle_alpha 104.610436
_cell_angle_beta 95.811387
_cell_angle_gamma 137.345240
_cell_volume 537.900151
_symmetry_space_group_name_H-M "P -1"
_symmetry_group_IT_number 2
_symmetry_cell_setting 'triclinic'
loop_
_space_group_symop_operation_xyz
x,y,z
-x,-y,-z
loop_
_atom_site_type_symbol
_atom_site_label
_atom_site_fract_x
_atom_site_fract_y
_atom_site_fract_z
Si Si1 0.948205 0.269773 0.592853
Si Si2 0.092957 0.412806 0.342362
Si Si3 0.451991 0.278560 0.645831
Si Si4 0.322028 0.443458 0.810852
Si Si5 0.318860 0.138128 0.880436
O O1 0.885243 0.387624 0.645034
O O2 0.052826 0.347007 0.477028
O O3 0.121858 0.371593 0.740285
O O4 0.731231 0.968355 0.518590
O O5 0.313768 0.527397 0.352396
O O6 0.895371 0.160209 0.181294
O O7 0.399489 0.414474 0.684454
O O8 0.442652 0.191856 0.771612
O O9 0.250918 0.257150 0.877649
O O10 0.521345 0.730666 0.948972
#
# Coordination Sequence:
#
# PCOD8001509 Si02
#       5
#     2   2   2   2   2
#     4  10  20  34  50  76 102 129 160 208 244 289
#     4  10  20  33  53  73 102 130 164 199 249 290
#     4   9  18  34  54  72  99 130 165 202 243 291
#     4   9  18  37  52  70 104 129 162 206 246 281
#     4   8  19  36  52  70 102 131 162 204 244 289
#
# _framework density 18.590810999999999
#
# number of rings (size 3 to 8) (size 9 to 14) (size 15 to 20)
#    1.200    1.600    0.000    1.200    0.000    2.400 
#    0.000    1.000    0.000    0.000    0.000    0.000 
#    0.000    0.000    0.000    0.000    0.000    0.000 
#
# Total GULP energy -123943.352080 kJ/mol
# GULP energy per Si atom -12394.335208 kJ/mol
# Density = 1.854850 g / cm^3
# Si number density = 18.590811 Si / 1000 Ang^3
#
#
#
# Elastic Constant Matrix: (Units=GPa)
#
#
# Indices 1 2 3 4 5 6 
#
# 1 44.5081 7.2820 16.9179 5.3330 2.9092 9.0452
# 2 7.2820 42.7088 25.8047 19.1790 2.6868 14.4864
# 3 16.9179 25.8047 113.6622 34.0506 20.8590 -7.3363
# 4 5.3330 19.1790 34.0506 23.6138 2.3815 4.7483
# 5 2.9092 2.6868 20.8590 2.3815 16.2244 1.4375
# 6 9.0452 14.4864 -7.3363 4.7483 1.4375 22.1288
#
#
#
# Elastic Compliance Matrix: (Units=1/GPa)
#
#
# Indices 1 2 3 4 5 6 
#
# 1 0.028332 0.003830 -0.010617 0.008992 0.008395 -0.020083
# 2 0.003830 0.047959 -0.008242 -0.022429 0.008041 -0.031403
# 3 -0.010617 -0.008242 0.033870 -0.042560 -0.036908 0.032494
# 4 0.008992 -0.022429 -0.042560 0.122135 0.041729 -0.032021
# 5 0.008395 0.008041 -0.036908 0.041729 0.103367 -0.036601
# 6 -0.020083 -0.031403 0.032494 -0.032021 -0.036601 0.093978
#
#
# Mechanical properties :
#
#
# Convention : Reuss Voigt Hill
#
# Bulk Modulus (GPa) = 12.48397 33.43201 22.95799
# Shear Modulus (GPa) = 10.27960 22.45171 16.36566
#
# Velocity S-wave (km/s) = 2.35402 3.47894 2.97022
# Velocity P-wave (km/s) = 3.75743 5.84461 4.91313
#
# Compressibility (1/GPa) = 0.08010273
#
# Stress axis : x y z
#
# Youngs Moduli (GPa) = 35.29563 20.85125 29.52459
#
# Poissons Ratio (x) = -0.07986 0.31348
# Poissons Ratio (y) = -0.13518 0.24333
# Poissons Ratio (z) = 0.37475 0.17185
#
# Static dielectric constant tensor:
#      x y z
#    x 3.119360 -0.069580 -0.100220 
#    y -0.069580 3.115040 0.267020 
#    z -0.100220 0.267020 3.395450 
# 
# 
# High freq. dielectric constant tensor:
#      x y z
#    x 1.702480 -0.002130 -0.001660 
#    y -0.002130 1.694110 0.028370 
#    z -0.001660 0.028370 1.723550 
# 
# From -- ./inp_files/16340.got.cif
#   From: 2010.06.25/outbox.cif.g09.slc.cpg/sg2_9_cif.got.tgz:16340.got - 2010.06.27 13:26:56.
