data_PCOD8001205
_publ_section_title
;
Structure prediction by ZEFSAII (Michael W. Deem and Ramdas Pophale) SiO2 
 PCOD8001205
Probable space group: P -1
;
_chemical_formula_sum "Si O2"
_cell_formula_units_Z 16
_cell_length_a 16.217037
_cell_length_b 11.505898
_cell_length_c 18.128553
_cell_angle_alpha 45.185619
_cell_angle_beta 22.432822
_cell_angle_gamma 33.516712
_cell_volume 677.092637
_symmetry_space_group_name_H-M "P -1"
_symmetry_group_IT_number 2
_symmetry_cell_setting 'triclinic'
loop_
_space_group_symop_operation_xyz
x,y,z
-x,-y,-z
loop_
_atom_site_type_symbol
_atom_site_label
_atom_site_fract_x
_atom_site_fract_y
_atom_site_fract_z
Si Si1 0.724670 0.072368 0.014191
Si Si2 0.017646 0.220289 0.621667
Si Si3 0.662927 0.817432 0.844201
Si Si4 0.302570 0.866975 0.253470
Si Si5 0.744416 0.366645 0.273343
Si Si6 0.715456 0.167698 0.523721
Si Si7 0.614524 0.679195 0.676755
Si Si8 0.659398 0.519837 0.562157
O O1 0.881617 0.152033 0.816239
O O2 0.431813 0.182228 0.160569
O O3 0.650866 0.146694 0.126751
O O4 0.944543 0.804002 0.949535
O O5 0.163480 0.281902 0.524683
O O6 0.769119 0.430362 0.683440
O O7 0.257693 0.019853 0.456224
O O8 0.002571 0.601189 0.671040
O O9 0.609066 0.040040 0.800684
O O10 0.464979 0.816976 0.064431
O O11 0.399313 0.640454 0.300634
O O12 0.949829 0.057571 0.446526
O O13 0.800297 0.272783 0.351508
O O14 0.612654 0.619990 0.271312
O O15 0.512877 0.362884 0.424361
O O16 0.510465 0.705248 0.667078
#
# Coordination Sequence:
#
# PCOD8001205 Si02
#       8
#     2   2   2   2   2   2   2   2
#     4  11  23  42  63  92 132 172 209 258 321 383
#     4  10  20  40  64  95 122 167 213 271 309 366
#     4  11  22  38  67  95 125 166 217 259 317 382
#     4  11  22  39  68  97 129 161 213 272 313 381
#     4  10  23  40  66  93 135 171 195 266 339 378
#     4  10  19  42  66  91 131 170 199 255 337 384
#     4  11  23  37  65  93 124 169 226 260 299 375
#     4  12  24  41  64  98 128 166 216 272 311 364
#
# _framework density 23.630443
#
# number of rings (size 3 to 8) (size 9 to 14) (size 15 to 20)
#    0.000    1.250    5.000    2.250    0.000    1.500 
#    0.000    7.500    0.000    0.000    0.000    0.000 
#    0.000    0.000    0.000    0.000    0.000    0.000 
#
# Total GULP energy -198379.431443 kJ/mol
# GULP energy per Si atom -12398.714465 kJ/mol
# Density = 2.357666 g / cm^3
# Si number density = 23.630443 Si / 1000 Ang^3
#
#
#
# Elastic Constant Matrix: (Units=GPa)
#
#
# Indices 1 2 3 4 5 6 
#
# 1 104.8259 14.4926 0.3694 8.5002 0.1467 17.5245
# 2 14.4926 73.1793 11.8684 14.1542 9.8212 8.1313
# 3 0.3694 11.8684 68.0749 5.4399 9.1288 -1.7144
# 4 8.5002 14.1542 5.4399 43.6313 4.5494 4.2101
# 5 0.1467 9.8212 9.1288 4.5494 27.8590 14.8426
# 6 17.5245 8.1313 -1.7144 4.2101 14.8426 32.0169
#
#
#
# Elastic Compliance Matrix: (Units=1/GPa)
#
#
# Indices 1 2 3 4 5 6 
#
# 1 0.011206 -0.001680 -0.000555 -0.001340 0.005175 -0.007959
# 2 -0.001680 0.015696 -0.001923 -0.004047 -0.003756 -0.000896
# 3 -0.000555 -0.001923 0.016204 -0.001033 -0.007194 0.005131
# 4 -0.001340 -0.004047 -0.001033 0.024888 -0.001935 -0.000669
# 5 0.005175 -0.003756 -0.007194 -0.001935 0.054362 -0.027211
# 6 -0.007959 -0.000896 0.005131 -0.000669 -0.027211 0.048795
#
#
# Mechanical properties :
#
#
# Convention : Reuss Voigt Hill
#
# Bulk Modulus (GPa) = 28.74370 33.28234 31.01302
# Shear Modulus (GPa) = 26.16911 35.32478 30.74694
#
# Velocity S-wave (km/s) = 3.33142 3.87057 3.61107
# Velocity P-wave (km/s) = 5.19500 5.83868 5.52622
#
# Compressibility (1/GPa) = 0.03479023
#
# Stress axis : x y z
#
# Youngs Moduli (GPa) = 89.23871 63.71040 61.71153
#
# Poissons Ratio (x) = 0.10703 0.03426
# Poissons Ratio (y) = 0.14992 0.11867
# Poissons Ratio (z) = 0.04954 0.12251
#
# Static dielectric constant tensor:
#      x y z
#    x 4.455540 0.174980 0.169210 
#    y 0.174980 4.393260 0.188790 
#    z 0.169210 0.188790 4.174290 
# 
# 
# High freq. dielectric constant tensor:
#      x y z
#    x 1.947790 0.016900 0.016530 
#    y 0.016900 1.925880 0.003430 
#    z 0.016530 0.003430 1.924220 
# 
# From -- ./inp_files/600056.got.cif
#   From: 2010.06.25/outbox.cif.g09.slc.cpg/sg2_301_cif.got.tgz:600056.got - 2010.06.27 13:26:56.
