data_PCOD8001692
_publ_section_title
;
Structure prediction by ZEFSAII (Michael W. Deem and Ramdas Pophale) SiO2 
 PCOD8001692
Probable space group: P -1
;
_chemical_formula_sum "Si O2"
_cell_formula_units_Z 12
_cell_length_a 11.898859
_cell_length_b 7.957112
_cell_length_c 11.618280
_cell_angle_alpha 46.708516
_cell_angle_beta 105.695368
_cell_angle_gamma 132.054685
_cell_volume 557.056746
_symmetry_space_group_name_H-M "P -1"
_symmetry_group_IT_number 2
_symmetry_cell_setting 'triclinic'
loop_
_space_group_symop_operation_xyz
x,y,z
-x,-y,-z
loop_
_atom_site_type_symbol
_atom_site_label
_atom_site_fract_x
_atom_site_fract_y
_atom_site_fract_z
Si Si1 0.131782 0.639729 0.807219
Si Si2 0.020597 0.840980 0.183275
Si Si3 0.500930 0.132407 0.678643
Si Si4 0.521987 0.537403 0.298816
Si Si5 0.375612 0.192484 0.185176
Si Si6 0.119644 0.978111 0.818397
O O1 0.062172 0.510027 0.719699
O O2 0.127494 0.903566 0.721974
O O3 0.314542 0.796454 0.787835
O O4 0.023984 0.351343 0.002740
O O5 0.922740 0.807211 0.282808
O O6 0.200951 0.041530 0.174280
O O7 0.000000 0.000000 0.000000
O O8 0.534390 0.348963 0.481730
O O9 0.544761 0.321565 0.722817
O O10 0.611362 0.060302 0.722047
O O11 0.405089 0.296250 0.277979
O O12 0.704834 0.833084 0.164055
O O13 0.500000 0.500000 0.000000
#
# Coordination Sequence:
#
# PCOD8001692 Si02
#       6
#     2   2   2   2   2   2
#     4   9  17  33  57  80 108 149 193 237 285 341
#     4  10  20  34  53  81 116 150 189 239 291 340
#     4  10  22  41  63  88 121 158 197 247 304 357
#     4  10  22  41  63  88 121 158 197 247 304 357
#     4  12  23  36  62  93 121 156 202 251 294 354
#     4   9  17  33  57  80 108 149 193 237 285 341
#
# _framework density 21.541792000000001
#
# number of rings (size 3 to 8) (size 9 to 14) (size 15 to 20)
#    0.000    2.000    0.000    5.500    0.000    2.000 
#    0.000    3.333    0.000    6.000    0.000    0.000 
#    0.000    0.000    0.000    0.000    0.000    0.000 
#
# Total GULP energy -148673.396699 kJ/mol
# GULP energy per Si atom -12389.449725 kJ/mol
# Density = 2.149276 g / cm^3
# Si number density = 21.541792 Si / 1000 Ang^3
#
#
#
# Elastic Constant Matrix: (Units=GPa)
#
#
# Indices 1 2 3 4 5 6 
#
# 1 169.7347 113.9105 11.2759 17.2763 9.4147 -29.4150
# 2 113.9105 139.7815 5.7564 4.9336 11.7649 -21.5841
# 3 11.2759 5.7564 36.7566 0.3025 2.5441 0.2450
# 4 17.2763 4.9336 0.3025 19.2264 2.7937 -3.1299
# 5 9.4147 11.7649 2.5441 2.7937 21.2299 -6.7144
# 6 -29.4150 -21.5841 0.2450 -3.1299 -6.7144 50.7737
#
#
#
# Elastic Compliance Matrix: (Units=1/GPa)
#
#
# Indices 1 2 3 4 5 6 
#
# 1 0.015699 -0.011933 -0.003064 -0.010771 0.002611 0.003719
# 2 -0.011933 0.017023 0.001296 0.007102 -0.005211 0.000066
# 3 -0.003064 0.001296 0.028183 0.002219 -0.003565 -0.001695
# 4 -0.010771 0.007102 0.002219 0.060856 -0.007586 -0.000483
# 5 0.002611 -0.005211 -0.003565 -0.007586 0.052072 0.005733
# 6 0.003719 0.000066 -0.001695 -0.000483 0.005733 0.022614
#
#
# Mechanical properties :
#
#
# Convention : Reuss Voigt Hill
#
# Bulk Modulus (GPa) = 29.84727 67.57315 48.71021
# Shear Modulus (GPa) = 21.27514 32.60135 26.93824
#
# Velocity S-wave (km/s) = 3.14605 3.89446 3.54009
# Velocity P-wave (km/s) = 5.20408 7.18742 6.27461
#
# Compressibility (1/GPa) = 0.03350390
#
# Stress axis : x y z
#
# Youngs Moduli (GPa) = 63.69755 58.74412 35.48270
#
# Poissons Ratio (x) = 0.70098 0.10873
# Poissons Ratio (y) = 0.76009 -0.04600
# Poissons Ratio (z) = 0.19518 -0.07616
#
# Static dielectric constant tensor:
#      x y z
#    x 5.119490 -1.712800 0.080710 
#    y -1.712800 1.995910 0.675250 
#    z 0.080710 0.675250 3.199940 
# 
# 
# High freq. dielectric constant tensor:
#      x y z
#    x 1.870140 -0.025110 -0.019870 
#    y -0.025110 1.859680 -0.025950 
#    z -0.019870 -0.025950 1.796060 
# 
# From -- ./inp_files/166770.got.cif
#   From: 2010.06.25/outbox.cif.g09.slc.cpg/sg2_84_cif.got.tgz:166770.got - 2010.06.27 13:26:56.
