data_PCOD8001116
_publ_section_title
;
Structure prediction by ZEFSAII (Michael W. Deem and Ramdas Pophale) SiO2 
 PCOD8001116
Probable space group: P -1
;
_chemical_formula_sum "Si O2"
_cell_formula_units_Z 16
_cell_length_a 11.163052
_cell_length_b 8.930268
_cell_length_c 12.044387
_cell_angle_alpha 59.490819
_cell_angle_beta 45.276893
_cell_angle_gamma 76.369377
_cell_volume 720.353537
_symmetry_space_group_name_H-M "P -1"
_symmetry_group_IT_number 2
_symmetry_cell_setting 'triclinic'
loop_
_space_group_symop_operation_xyz
x,y,z
-x,-y,-z
loop_
_atom_site_type_symbol
_atom_site_label
_atom_site_fract_x
_atom_site_fract_y
_atom_site_fract_z
Si Si1 0.196408 0.233323 0.571409
Si Si2 0.174960 0.804079 0.242679
Si Si3 0.052703 0.460935 0.855457
Si Si4 0.817190 0.880957 0.146456
Si Si5 0.752064 0.367435 0.536156
Si Si6 0.624422 0.762298 0.766875
Si Si7 0.741213 0.446944 0.902230
Si Si8 0.459160 0.051768 0.860858
O O1 0.268075 0.152925 0.663734
O O2 0.230862 0.443838 0.487332
O O3 0.289917 0.170270 0.430109
O O4 0.993270 0.148173 0.720979
O O5 0.133910 0.738674 0.420985
O O6 0.230923 0.645348 0.197244
O O7 0.342999 0.970747 0.074962
O O8 0.154596 0.301474 0.859465
O O9 0.179339 0.617395 0.642455
O O10 0.879907 0.412971 0.914257
O O11 0.000000 0.500000 0.000000
O O12 0.691311 0.977320 0.122836
O O13 0.000000 0.000000 0.000000
O O14 0.553964 0.258525 0.720310
O O15 0.746310 0.655508 0.797464
O O16 0.600192 0.934917 0.784893
O O17 0.445755 0.635346 0.897878
#
# Coordination Sequence:
#
# PCOD8001116 Si02
#       8
#     2   2   2   2   2   2   2   2
#     4  11  21  38  73  92 122 180 227 263 310 397
#     4  11  19  43  72  92 128 179 224 263 319 398
#     4  11  25  43  67  94 134 173 216 272 333 382
#     4  11  22  44  66  90 127 181 221 252 321 404
#     4  11  23  40  66 101 129 169 221 275 324 384
#     4  10  22  37  65 100 126 165 219 272 318 378
#     4  10  19  41  67  94 125 168 224 264 313 388
#     4  11  25  41  61 100 145 165 207 276 338 381
#
# _framework density 22.211317000000001
#
# number of rings (size 3 to 8) (size 9 to 14) (size 15 to 20)
#    0.000    1.250    5.000    2.250    0.000    5.500 
#    2.250    1.250    0.000    0.000    0.000    0.000 
#    0.000    0.000    0.000    0.000    0.000    0.000 
#
# Total GULP energy -198280.778015 kJ/mol
# GULP energy per Si atom -12392.548626 kJ/mol
# Density = 2.216076 g / cm^3
# Si number density = 22.211317 Si / 1000 Ang^3
#
#
#
# Elastic Constant Matrix: (Units=GPa)
#
#
# Indices 1 2 3 4 5 6 
#
# 1 31.1236 13.7136 1.1225 5.0047 -3.5920 2.2527
# 2 13.7136 53.9515 37.6454 10.2027 1.5396 0.8254
# 3 1.1225 37.6454 133.9354 10.9649 5.9166 13.2758
# 4 5.0047 10.2027 10.9649 34.9236 8.3082 -3.4481
# 5 -3.5920 1.5396 5.9166 8.3082 44.6703 -2.9305
# 6 2.2527 0.8254 13.2758 -3.4481 -2.9305 31.8518
#
#
#
# Elastic Compliance Matrix: (Units=1/GPa)
#
#
# Indices 1 2 3 4 5 6 
#
# 1 0.038463 -0.011398 0.003494 -0.004535 0.003601 -0.004041
# 2 -0.011398 0.027379 -0.007580 -0.003708 0.000021 0.002857
# 3 0.003494 -0.007580 0.010198 -0.001752 -0.000782 -0.004563
# 4 -0.004535 -0.003708 -0.001752 0.032711 -0.005816 0.004153
# 5 0.003601 0.000021 -0.000782 -0.005816 0.023968 0.001646
# 6 -0.004041 0.002857 -0.004563 0.004153 0.001646 0.034110
#
#
# Mechanical properties :
#
#
# Convention : Reuss Voigt Hill
#
# Bulk Modulus (GPa) = 22.18720 35.99707 29.09213
# Shear Modulus (GPa) = 23.49384 33.39108 28.44246
#
# Velocity S-wave (km/s) = 3.25582 3.88149 3.58234
# Velocity P-wave (km/s) = 4.91372 6.02742 5.49884
#
# Compressibility (1/GPa) = 0.04507103
#
# Stress axis : x y z
#
# Youngs Moduli (GPa) = 25.99872 36.52495 98.05947
#
# Poissons Ratio (x) = 0.41632 -0.34262
# Poissons Ratio (y) = 0.29634 0.74332
# Poissons Ratio (z) = -0.09084 0.27687
#
# Static dielectric constant tensor:
#      x y z
#    x 4.317920 -0.322950 -0.370620 
#    y -0.322950 3.980220 0.460690 
#    z -0.370620 0.460690 6.093400 
# 
# 
# High freq. dielectric constant tensor:
#      x y z
#    x 1.876690 -0.003880 0.005740 
#    y -0.003880 1.843660 -0.007730 
#    z 0.005740 -0.007730 1.894740 
# 
# From -- ./inp_files/419112.got.cif
#   From: 2010.06.25/outbox.cif.g09.slc.cpg/sg2_210_cif.got.tgz:419112.got - 2010.06.27 13:26:56.
