data_PCOD8001180
_publ_section_title
;
Structure prediction by ZEFSAII (Michael W. Deem and Ramdas Pophale) SiO2 
 PCOD8001180
Probable space group: P -1
;
_chemical_formula_sum "Si O2"
_cell_formula_units_Z 16
_cell_length_a 19.056196
_cell_length_b 11.676702
_cell_length_c 17.147245
_cell_angle_alpha 150.088056
_cell_angle_beta 23.263265
_cell_angle_gamma 139.192664
_cell_volume 736.271805
_symmetry_space_group_name_H-M "P -1"
_symmetry_group_IT_number 2
_symmetry_cell_setting 'triclinic'
loop_
_space_group_symop_operation_xyz
x,y,z
-x,-y,-z
loop_
_atom_site_type_symbol
_atom_site_label
_atom_site_fract_x
_atom_site_fract_y
_atom_site_fract_z
Si Si1 0.521288 0.917021 0.564701
Si Si2 0.732223 0.326712 0.577517
Si Si3 0.828601 0.628379 0.180738
Si Si4 0.615109 0.138569 0.842217
Si Si5 0.804786 0.641272 0.384553
Si Si6 0.373825 0.570167 0.417569
Si Si7 0.309196 0.159522 0.056613
Si Si8 0.926190 0.105488 0.388621
O O1 0.671646 0.713339 0.329581
O O2 0.452610 0.804772 0.491590
O O3 0.592259 0.153220 0.615463
O O4 0.352862 0.991450 0.838641
O O5 0.768519 0.376972 0.478353
O O6 0.650986 0.580955 0.847534
O O7 0.907748 0.215059 0.384088
O O8 0.746828 0.573359 0.316015
O O9 0.945532 0.827949 0.197568
O O10 0.974150 0.410494 0.868234
O O11 0.743285 0.211590 0.686518
O O12 0.727458 0.916816 0.644469
O O13 0.544283 0.359306 0.100528
O O14 0.440705 0.055642 0.932550
O O15 0.729677 0.486323 0.433566
O O16 0.097108 0.170566 0.297808
#
# Coordination Sequence:
#
# PCOD8001180 Si02
#       8
#     2   2   2   2   2   2   2   2
#     4  11  21  41  60  95 122 164 211 255 309 361
#     4  10  22  41  61  91 130 161 202 265 304 361
#     4   9  20  39  66  88 127 159 206 271 289 363
#     4  10  22  43  63  92 130 160 203 267 295 368
#     4  10  19  42  63  88 125 165 205 254 314 354
#     4  11  24  37  63  92 130 168 198 248 324 371
#     4  11  20  38  71  93 114 166 214 252 303 371
#     4  10  20  40  66  95 119 162 218 246 309 363
#
# _framework density 21.731104999999999
#
# number of rings (size 3 to 8) (size 9 to 14) (size 15 to 20)
#    0.000    1.750    3.750    2.250    1.750    0.500 
#   11.250    6.250    0.000    0.000    0.000    0.000 
#    0.000    0.000    0.000    0.000    0.000    0.000 
#
# Total GULP energy -198264.307678 kJ/mol
# GULP energy per Si atom -12391.519230 kJ/mol
# Density = 2.168164 g / cm^3
# Si number density = 21.731105 Si / 1000 Ang^3
#
#
#
# Elastic Constant Matrix: (Units=GPa)
#
#
# Indices 1 2 3 4 5 6 
#
# 1 95.1668 46.7738 50.3537 -2.7387 -3.4315 -0.7032
# 2 46.7738 73.6742 36.5518 -4.3352 -1.1725 -6.3950
# 3 50.3537 36.5518 98.6339 0.6644 1.3908 6.5813
# 4 -2.7387 -4.3352 0.6644 28.0959 5.3481 -0.0176
# 5 -3.4315 -1.1725 1.3908 5.3481 31.5171 6.2653
# 6 -0.7032 -6.3950 6.5813 -0.0176 6.2653 38.2951
#
#
#
# Elastic Compliance Matrix: (Units=1/GPa)
#
#
# Indices 1 2 3 4 5 6 
#
# 1 0.017876 -0.008336 -0.006043 0.000231 0.001931 -0.000341
# 2 -0.008336 0.021339 -0.003940 0.002818 -0.001272 0.004297
# 3 -0.006043 -0.003940 0.014917 -0.001442 -0.000574 -0.003239
# 4 0.000231 0.002818 -0.001442 0.037322 -0.006498 0.001803
# 5 0.001931 -0.001272 -0.000574 -0.006498 0.034146 -0.005668
# 6 -0.000341 0.004297 -0.003239 0.001803 -0.005668 0.028309
#
#
# Mechanical properties :
#
#
# Convention : Reuss Voigt Hill
#
# Bulk Modulus (GPa) = 57.15993 59.42594 58.29293
# Shear Modulus (GPa) = 25.46094 28.50134 26.98114
#
# Velocity S-wave (km/s) = 3.42663 3.62546 3.52744
# Velocity P-wave (km/s) = 6.48198 6.70303 6.59343
#
# Compressibility (1/GPa) = 0.01749477
#
# Stress axis : x y z
#
# Youngs Moduli (GPa) = 55.94034 46.86253 67.03628
#
# Poissons Ratio (x) = 0.39067 0.40508
# Poissons Ratio (y) = 0.46634 0.26411
# Poissons Ratio (z) = 0.33803 0.18463
#
# Static dielectric constant tensor:
#      x y z
#    x 3.875020 -0.178670 -0.009910 
#    y -0.178670 3.736830 0.207270 
#    z -0.009910 0.207270 3.901390 
# 
# 
# High freq. dielectric constant tensor:
#      x y z
#    x 1.841560 -0.012520 -0.005840 
#    y -0.012520 1.839470 0.018810 
#    z -0.005840 0.018810 1.853050 
# 
# From -- ./inp_files/578011.got.cif
#   From: 2010.06.25/outbox.cif.g09.slc.cpg/sg2_290_cif.got.tgz:578011.got - 2010.06.27 13:26:56.
