data_PCOD8001347
_publ_section_title
;
Structure prediction by ZEFSAII (Michael W. Deem and Ramdas Pophale) SiO2 
 PCOD8001347
Probable space group: P -1
;
_chemical_formula_sum "Si O2"
_cell_formula_units_Z 14
_cell_length_a 4.986817
_cell_length_b 13.368412
_cell_length_c 11.606728
_cell_angle_alpha 103.886694
_cell_angle_beta 109.469791
_cell_angle_gamma 102.800172
_cell_volume 668.662741
_symmetry_space_group_name_H-M "P -1"
_symmetry_group_IT_number 2
_symmetry_cell_setting 'triclinic'
loop_
_space_group_symop_operation_xyz
x,y,z
-x,-y,-z
loop_
_atom_site_type_symbol
_atom_site_label
_atom_site_fract_x
_atom_site_fract_y
_atom_site_fract_z
Si Si1 0.474270 0.216650 0.885729
Si Si2 0.561438 0.834867 0.737516
Si Si3 0.332930 0.463702 0.641078
Si Si4 0.149092 0.823139 0.888805
Si Si5 0.829787 0.077504 0.853351
Si Si6 0.349795 0.544684 0.090168
Si Si7 0.668114 0.362461 0.494632
O O1 0.576315 0.132378 0.796213
O O2 0.502337 0.324068 0.847001
O O3 0.145012 0.156790 0.872201
O O4 0.716083 0.255569 0.038303
O O5 0.329657 0.850776 0.803060
O O6 0.393663 0.763633 0.584986
O O7 0.792816 0.773387 0.797826
O O8 0.755231 0.956900 0.756703
O O9 0.567630 0.499261 0.789403
O O10 0.417075 0.377794 0.547383
O O11 0.334583 0.572249 0.605396
O O12 0.990170 0.404121 0.617071
O O13 0.177546 0.927623 0.006902
O O14 0.500000 0.500000 0.000000
O O15 0.000000 0.500000 0.000000
#
# Coordination Sequence:
#
# PCOD8001347 Si02
#       7
#     2   2   2   2   2   2   2
#     4  10  22  36  53  85 125 152 186 242 317 339
#     4  12  20  32  60  86 116 161 207 236 285 371
#     4  10  23  44  60  84 123 151 200 250 303 347
#     4  10  20  31  52  85 127 154 188 245 303 345
#     4  10  20  34  53  83 130 155 191 242 308 350
#     4  12  26  41  68  93 115 160 202 247 302 364
#     4  10  23  40  62  87 114 164 195 249 294 346
#
# _framework density 20.937314000000001
#
# number of rings (size 3 to 8) (size 9 to 14) (size 15 to 20)
#    0.857    0.571    1.429    4.286    4.000    0.000 
#    0.000    0.000    0.000    5.143    0.000    0.000 
#    0.000    0.000    0.000    0.000    0.000    0.000 
#
# Total GULP energy -173459.356041 kJ/mol
# GULP energy per Si atom -12389.954003 kJ/mol
# Density = 2.088966 g / cm^3
# Si number density = 20.937314 Si / 1000 Ang^3
#
#
#
# Elastic Constant Matrix: (Units=GPa)
#
#
# Indices 1 2 3 4 5 6 
#
# 1 138.5255 27.2925 23.8454 7.8893 9.9944 -2.4975
# 2 27.2925 60.8738 31.6045 12.8304 2.1238 -1.3704
# 3 23.8454 31.6045 84.3514 5.2529 12.9872 -1.2378
# 4 7.8893 12.8304 5.2529 29.8089 -5.5569 1.7688
# 5 9.9944 2.1238 12.9872 -5.5569 25.9025 0.6904
# 6 -2.4975 -1.3704 -1.2378 1.7688 0.6904 22.3233
#
#
#
# Elastic Compliance Matrix: (Units=1/GPa)
#
#
# Indices 1 2 3 4 5 6 
#
# 1 0.008216 -0.002913 -0.000682 -0.001397 -0.002913 0.000903
# 2 -0.002913 0.023298 -0.007611 -0.007741 0.001336 0.001254
# 3 -0.000682 -0.007611 0.016093 -0.000791 -0.007368 0.000639
# 4 -0.001397 -0.007741 -0.000791 0.039527 0.010160 -0.004122
# 5 -0.002913 0.001336 -0.007368 0.010160 0.045571 -0.002867
# 6 0.000903 0.001254 0.000639 -0.004122 -0.002867 0.045425
#
#
# Mechanical properties :
#
#
# Convention : Reuss Voigt Hill
#
# Bulk Modulus (GPa) = 39.69126 49.91507 44.80317
# Shear Modulus (GPa) = 23.93019 29.00750 26.46885
#
# Velocity S-wave (km/s) = 3.38441 3.72619 3.55941
# Velocity P-wave (km/s) = 5.85412 6.51189 6.19174
#
# Compressibility (1/GPa) = 0.02519446
#
# Stress axis : x y z
#
# Youngs Moduli (GPa) = 121.70905 42.92178 62.13956
#
# Poissons Ratio (x) = 0.12503 0.04241
# Poissons Ratio (y) = 0.35453 0.47294
# Poissons Ratio (z) = 0.08307 0.32668
#
# Static dielectric constant tensor:
#      x y z
#    x 3.961220 -0.173140 0.092130 
#    y -0.173140 3.516250 0.104640 
#    z 0.092130 0.104640 3.394390 
# 
# 
# High freq. dielectric constant tensor:
#      x y z
#    x 1.847260 -0.013610 0.007780 
#    y -0.013610 1.792670 0.016340 
#    z 0.007780 0.016340 1.784650 
# 
# From -- ./inp_files/366362.got.cif
#   From: 2010.06.25/outbox.cif.g09.slc.cpg/sg2_184_cif.got.tgz:366362.got - 2010.06.27 13:26:56.
