data_PCOD8001210
_publ_section_title
;
Structure prediction by ZEFSAII (Michael W. Deem and Ramdas Pophale) SiO2 
 PCOD8001210
Probable space group: P -1
;
_chemical_formula_sum "Si O2"
_cell_formula_units_Z 14
_cell_length_a 12.987228
_cell_length_b 12.038665
_cell_length_c 15.586128
_cell_angle_alpha 133.146669
_cell_angle_beta 25.079562
_cell_angle_gamma 144.218760
_cell_volume 591.072518
_symmetry_space_group_name_H-M "P -1"
_symmetry_group_IT_number 2
_symmetry_cell_setting 'triclinic'
loop_
_space_group_symop_operation_xyz
x,y,z
-x,-y,-z
loop_
_atom_site_type_symbol
_atom_site_label
_atom_site_fract_x
_atom_site_fract_y
_atom_site_fract_z
Si Si1 0.867181 0.824082 0.944178
Si Si2 0.772800 0.018061 0.413501
Si Si3 0.216798 0.542688 0.779630
Si Si4 0.599119 0.937605 0.771384
Si Si5 0.973621 0.142631 0.750773
Si Si6 0.263677 0.748701 0.299940
Si Si7 0.093759 0.618826 0.729877
O O1 0.121394 0.906426 0.721702
O O2 0.839980 0.653498 0.925443
O O3 0.535829 0.736497 0.109280
O O4 0.000000 0.000000 0.000000
O O5 0.826721 0.196851 0.517366
O O6 0.423967 0.823702 0.573504
O O7 0.983122 0.969337 0.270848
O O8 0.542179 0.760457 0.664496
O O9 0.056499 0.540455 0.812438
O O10 0.264259 0.375990 0.650522
O O11 0.000000 0.500000 0.000000
O O12 0.900596 0.035720 0.656893
O O13 0.622939 0.086563 0.768021
O O14 0.309144 0.856754 0.009780
O O15 0.970838 0.541814 0.374281
#
# Coordination Sequence:
#
# PCOD8001210 Si02
#       7
#     2   2   2   2   2   2   2
#     4  12  26  51  78  98 141 191 234 297 357 415
#     4  12  27  47  72 107 143 187 234 295 354 418
#     4  10  21  39  69 101 138 183 229 281 346 415
#     4  10  19  42  67 100 139 187 228 283 342 418
#     4  10  22  39  70  99 141 183 234 278 348 416
#     4  12  25  48  72 104 145 183 240 287 355 423
#     4  12  26  47  71 109 143 183 241 295 349 419
#
# _framework density 23.685756000000001
#
# number of rings (size 3 to 8) (size 9 to 14) (size 15 to 20)
#    0.000    0.857    5.714    0.857    2.000    2.857 
#    2.571    0.000    0.000    0.000    0.000    0.000 
#    0.000    0.000    0.000    0.000    0.000    0.000 
#
# Total GULP energy -173645.124403 kJ/mol
# GULP energy per Si atom -12403.223172 kJ/mol
# Density = 2.363185 g / cm^3
# Si number density = 23.685756 Si / 1000 Ang^3
#
#
#
# Elastic Constant Matrix: (Units=GPa)
#
#
# Indices 1 2 3 4 5 6 
#
# 1 135.0071 49.7819 34.2292 11.5177 16.0168 9.3870
# 2 49.7819 158.5760 33.0428 39.5776 12.3925 35.5755
# 3 34.2292 33.0428 39.7047 11.2526 12.4230 7.9478
# 4 11.5177 39.5776 11.2526 31.0037 6.4439 0.6929
# 5 16.0168 12.3925 12.4230 6.4439 37.7822 6.5391
# 6 9.3870 35.5755 7.9478 0.6929 6.5391 53.3652
#
#
#
# Elastic Compliance Matrix: (Units=1/GPa)
#
#
# Indices 1 2 3 4 5 6 
#
# 1 0.009968 -0.002288 -0.006936 0.002071 -0.001719 0.000989
# 2 -0.002288 0.013075 -0.003743 -0.014674 0.001762 -0.007782
# 3 -0.006936 -0.003743 0.038191 -0.004952 -0.007371 -0.001005
# 4 0.002071 -0.014674 -0.004952 0.052870 -0.005203 0.010107
# 5 -0.001719 0.001762 -0.007371 -0.005203 0.030526 -0.003447
# 6 0.000989 -0.007782 -0.001005 0.010107 -0.003447 0.024193
#
#
# Mechanical properties :
#
#
# Convention : Reuss Voigt Hill
#
# Bulk Modulus (GPa) = 28.32908 63.04396 45.68652
# Shear Modulus (GPa) = 24.21018 38.84582 31.52800
#
# Velocity S-wave (km/s) = 3.20056 4.05415 3.65238
# Velocity P-wave (km/s) = 5.06404 6.97061 6.09237
#
# Compressibility (1/GPa) = 0.03529942
#
# Stress axis : x y z
#
# Youngs Moduli (GPa) = 100.32335 76.48167 26.18401
#
# Poissons Ratio (x) = 0.17501 0.18161
# Poissons Ratio (y) = 0.22956 0.09801
# Poissons Ratio (z) = 0.69582 0.28629
#
# Static dielectric constant tensor:
#      x y z
#    x 4.536660 0.216110 -0.000290 
#    y 0.216110 4.813240 0.215700 
#    z -0.000290 0.215700 4.150390 
# 
# 
# High freq. dielectric constant tensor:
#      x y z
#    x 1.953470 0.009740 0.002790 
#    y 0.009740 1.957010 0.011610 
#    z 0.002790 0.011610 1.938770 
# 
# From -- ./inp_files/519099.got.cif
#   From: 2010.06.25/outbox.cif.g09.slc.cpg/sg2_260_cif.got.tgz:519099.got - 2010.06.27 13:26:56.
