data_PCOD8001108
_publ_section_title
;
Structure prediction by ZEFSAII (Michael W. Deem and Ramdas Pophale) SiO2 
 PCOD8001108
Probable space group: P -1
;
_chemical_formula_sum "Si O2"
_cell_formula_units_Z 14
_cell_length_a 9.109098
_cell_length_b 11.790267
_cell_length_c 7.719412
_cell_angle_alpha 107.855370
_cell_angle_beta 129.667298
_cell_angle_gamma 58.915674
_cell_volume 546.208342
_symmetry_space_group_name_H-M "P -1"
_symmetry_group_IT_number 2
_symmetry_cell_setting 'triclinic'
loop_
_space_group_symop_operation_xyz
x,y,z
-x,-y,-z
loop_
_atom_site_type_symbol
_atom_site_label
_atom_site_fract_x
_atom_site_fract_y
_atom_site_fract_z
Si Si1 0.126919 0.739533 0.419511
Si Si2 0.519672 0.705043 0.350151
Si Si3 0.070508 0.274032 0.401477
Si Si4 0.230042 0.585772 0.061797
Si Si5 0.582340 0.688274 0.765639
Si Si6 0.282470 0.997726 0.294044
Si Si7 0.719192 0.912575 0.034492
O O1 0.167991 0.652435 0.235947
O O2 0.327608 0.765326 0.640884
O O3 0.073555 0.668509 0.510389
O O4 0.916980 0.877855 0.296459
O O5 0.704480 0.720266 0.388463
O O6 0.419289 0.617239 0.138760
O O7 0.614985 0.631768 0.568620
O O8 0.316050 0.850235 0.302547
O O9 0.103710 0.122181 0.320445
O O10 0.963388 0.362779 0.194052
O O11 0.310764 0.429207 0.070911
O O12 0.703559 0.779406 0.905180
O O13 0.235991 0.016012 0.062676
O O14 0.500000 0.000000 0.500000
O O15 0.500000 0.000000 0.000000
#
# Coordination Sequence:
#
# PCOD8001108 Si02
#       7
#     2   2   2   2   2   2   2
#     4  11  25  44  71 108 133 183 239 275 348 416
#     4  10  21  42  71  96 139 188 223 285 348 410
#     4  11  23  43  70 103 141 181 232 290 338 409
#     4  11  25  48  69 101 141 188 231 277 354 404
#     4  11  25  47  70  98 147 183 227 295 335 413
#     4  10  19  41  66  97 136 180 222 280 345 395
#     4  12  24  44  71 104 140 181 230 286 351 409
#
# _framework density 25.631246000000001
#
# number of rings (size 3 to 8) (size 9 to 14) (size 15 to 20)
#    0.000    1.143    4.286    3.429    0.000    7.429 
#    2.571    6.429    0.000    0.000    0.000    0.000 
#    0.000    0.000    0.000    0.000    0.000    0.000 
#
# Total GULP energy -173520.980351 kJ/mol
# GULP energy per Si atom -12394.355739 kJ/mol
# Density = 2.557291 g / cm^3
# Si number density = 25.631246 Si / 1000 Ang^3
#
#
#
# Elastic Constant Matrix: (Units=GPa)
#
#
# Indices 1 2 3 4 5 6 
#
# 1 92.9014 -12.6832 22.2743 1.3747 -6.1051 1.4037
# 2 -12.6832 55.1640 33.7247 -22.3728 -4.7125 20.6199
# 3 22.2743 33.7247 97.5951 -30.7144 -1.6917 -2.8136
# 4 1.3747 -22.3728 -30.7144 35.3686 2.0322 -1.7816
# 5 -6.1051 -4.7125 -1.6917 2.0322 44.3756 -1.2714
# 6 1.4037 20.6199 -2.8136 -1.7816 -1.2714 28.2473
#
#
#
# Elastic Compliance Matrix: (Units=1/GPa)
#
#
# Indices 1 2 3 4 5 6 
#
# 1 0.014650 0.012071 -0.007913 -0.000478 0.002724 -0.010235
# 2 0.012071 0.053240 -0.017187 0.015996 0.004782 -0.039952
# 3 -0.007913 -0.017187 0.021138 0.008691 -0.002062 0.015500
# 4 -0.000478 0.015996 0.008691 0.045579 -0.000350 -0.007928
# 5 0.002724 0.004782 -0.002062 -0.000350 0.023275 -0.002806
# 6 -0.010235 -0.039952 0.015500 -0.007928 -0.002806 0.065992
#
#
# Mechanical properties :
#
#
# Convention : Reuss Voigt Hill
#
# Bulk Modulus (GPa) = 15.88089 36.92134 26.40112
# Shear Modulus (GPa) = 18.45557 35.08795 26.77176
#
# Velocity S-wave (km/s) = 2.68627 3.70395 3.23537
# Velocity P-wave (km/s) = 3.97879 5.72088 4.92743
#
# Compressibility (1/GPa) = 0.06296876
#
# Stress axis : x y z
#
# Youngs Moduli (GPa) = 68.25959 18.78292 47.30850
#
# Poissons Ratio (x) = -0.22672 0.37434
# Poissons Ratio (y) = -0.82393 0.81310
# Poissons Ratio (z) = 0.54013 0.32283
#
# Static dielectric constant tensor:
#      x y z
#    x 4.611030 0.124440 0.239620 
#    y 0.124440 4.905530 -0.246750 
#    z 0.239620 -0.246750 4.765600 
# 
# 
# High freq. dielectric constant tensor:
#      x y z
#    x 2.021880 0.007960 0.006250 
#    y 0.007960 2.001390 -0.021320 
#    z 0.006250 -0.021320 2.030950 
# 
# From -- ./inp_files/188830.got.cif
#   From: 2010.06.25/outbox.cif.g09.slc.cpg/sg2_95_cif.got.tgz:188830.got - 2010.06.27 13:26:56.
