data_PCOD8001430
_publ_section_title
;
Structure prediction by ZEFSAII (Michael W. Deem and Ramdas Pophale) SiO2 
 PCOD8001430
Probable space group: P -1
;
_chemical_formula_sum "Si O2"
_cell_formula_units_Z 16
_cell_length_a 15.765178
_cell_length_b 16.274373
_cell_length_c 16.909662
_cell_angle_alpha 163.082209
_cell_angle_beta 140.217078
_cell_angle_gamma 38.773252
_cell_volume 784.530763
_symmetry_space_group_name_H-M "P -1"
_symmetry_group_IT_number 2
_symmetry_cell_setting 'triclinic'
loop_
_space_group_symop_operation_xyz
x,y,z
-x,-y,-z
loop_
_atom_site_type_symbol
_atom_site_label
_atom_site_fract_x
_atom_site_fract_y
_atom_site_fract_z
Si Si1 0.043774 0.015741 0.724026
Si Si2 0.872032 0.886910 0.835052
Si Si3 0.014598 0.439301 0.231190
Si Si4 0.770411 0.155015 0.557140
Si Si5 0.296115 0.441078 0.853197
Si Si6 0.290677 0.496309 0.717247
Si Si7 0.414018 0.810310 0.398857
Si Si8 0.153905 0.320320 0.955285
O O1 0.900782 0.124137 0.677814
O O2 0.082860 0.668478 0.445164
O O3 0.032640 0.152550 0.928354
O O4 0.161905 0.111451 0.845121
O O5 0.911358 0.657564 0.722626
O O6 0.814091 0.710269 0.562438
O O7 0.762822 0.175568 0.051247
O O8 0.000000 0.000000 0.000000
O O9 0.856320 0.595106 0.274954
O O10 0.637394 0.201952 0.559578
O O11 0.756744 0.438564 0.751592
O O12 0.789457 0.867205 0.253848
O O13 0.316126 0.525825 0.855662
O O14 0.404912 0.142970 0.675803
O O15 0.323912 0.688824 0.158625
O O16 0.429731 0.362503 0.647901
O O17 0.000000 0.500000 0.000000
#
# Coordination Sequence:
#
# PCOD8001430 Si02
#       8
#     2   2   2   2   2   2   2   2
#     4  11  20  35  54  89 120 153 196 238 298 362
#     4  12  26  43  63  85 117 162 213 255 298 337
#     4  12  22  36  61  86 118 160 197 245 300 345
#     4  11  19  34  55  86 123 159 185 234 304 365
#     4  12  22  39  61  88 125 158 202 243 304 359
#     4  12  26  43  62  86 121 166 208 251 290 353
#     4  12  24  39  61  92 124 161 202 239 301 372
#     4  10  20  32  54  84 124 158 186 231 300 371
#
# _framework density 20.394356999999999
#
# number of rings (size 3 to 8) (size 9 to 14) (size 15 to 20)
#    0.000    0.500    3.750    7.875    1.750    0.000 
#    0.000    0.000    0.000    0.000    0.000   17.500 
#    0.000    0.000    0.000    0.000    0.000    0.000 
#
# Total GULP energy -198437.376319 kJ/mol
# GULP energy per Si atom -12402.336020 kJ/mol
# Density = 2.034794 g / cm^3
# Si number density = 20.394357 Si / 1000 Ang^3
#
#
#
# Elastic Constant Matrix: (Units=GPa)
#
#
# Indices 1 2 3 4 5 6 
#
# 1 105.0873 37.7263 20.8315 11.6711 -6.0003 4.3247
# 2 37.7263 60.6992 9.8389 8.3534 6.9600 1.4541
# 3 20.8315 9.8389 85.1422 15.3144 -4.1868 -2.7993
# 4 11.6711 8.3534 15.3144 18.7679 6.9465 3.0446
# 5 -6.0003 6.9600 -4.1868 6.9465 38.1675 12.1290
# 6 4.3247 1.4541 -2.7993 3.0446 12.1290 23.6047
#
#
#
# Elastic Compliance Matrix: (Units=1/GPa)
#
#
# Indices 1 2 3 4 5 6 
#
# 1 0.013857 -0.008236 -0.001339 -0.005322 0.005952 -0.004562
# 2 -0.008236 0.022666 -0.000217 -0.003143 -0.006019 0.003585
# 3 -0.001339 -0.000217 0.014542 -0.012389 0.003037 0.002021
# 4 -0.005322 -0.003143 -0.012389 0.073782 -0.014259 -0.002490
# 5 0.005952 -0.006019 0.003037 -0.014259 0.036681 -0.017368
# 6 -0.004562 0.003585 0.002021 -0.002490 -0.017368 0.052465
#
#
# Mechanical properties :
#
#
# Convention : Reuss Voigt Hill
#
# Bulk Modulus (GPa) = 31.76524 43.08023 37.42273
# Shear Modulus (GPa) = 20.48606 28.27683 24.38145
#
# Velocity S-wave (km/s) = 3.17282 3.72762 3.46135
# Velocity P-wave (km/s) = 5.38811 6.30050 5.86208
#
# Compressibility (1/GPa) = 0.03148096
#
# Stress axis : x y z
#
# Youngs Moduli (GPa) = 72.16774 44.11964 68.76759
#
# Poissons Ratio (x) = 0.36337 0.09205
# Poissons Ratio (y) = 0.59438 0.01491
# Poissons Ratio (z) = 0.09661 0.00957
#
# Static dielectric constant tensor:
#      x y z
#    x 4.012080 0.306680 0.101910 
#    y 0.306680 3.935120 0.176840 
#    z 0.101910 0.176840 3.936240 
# 
# 
# High freq. dielectric constant tensor:
#      x y z
#    x 1.798690 0.015110 -0.004510 
#    y 0.015110 1.756370 0.023270 
#    z -0.004510 0.023270 1.818420 
# 
# From -- ./inp_files/439268.got.cif
#   From: 2010.06.25/outbox.cif.g09.slc.cpg/sg2_220_cif.got.tgz:439268.got - 2010.06.27 13:26:56.
