data_PCOD8001110
_publ_section_title
;
Structure prediction by ZEFSAII (Michael W. Deem and Ramdas Pophale) SiO2 
 PCOD8001110
Probable space group: P -1
;
_chemical_formula_sum "Si O2"
_cell_formula_units_Z 16
_cell_length_a 11.726955
_cell_length_b 13.395493
_cell_length_c 14.837911
_cell_angle_alpha 130.772396
_cell_angle_beta 29.986140
_cell_angle_gamma 109.310540
_cell_volume 691.665862
_symmetry_space_group_name_H-M "P -1"
_symmetry_group_IT_number 2
_symmetry_cell_setting 'triclinic'
loop_
_space_group_symop_operation_xyz
x,y,z
-x,-y,-z
loop_
_atom_site_type_symbol
_atom_site_label
_atom_site_fract_x
_atom_site_fract_y
_atom_site_fract_z
Si Si1 0.423745 0.264503 0.725078
Si Si2 0.279391 0.809303 0.208224
Si Si3 0.908093 0.771586 0.548293
Si Si4 0.042278 0.977345 0.064419
Si Si5 0.364182 0.086113 0.002011
Si Si6 0.054214 0.543721 0.709261
Si Si7 0.538156 0.464353 0.221917
Si Si8 0.873251 0.333519 0.100614
O O1 0.749031 0.097729 0.394532
O O2 0.403112 0.424883 0.807063
O O3 0.288016 0.302317 0.943101
O O4 0.215174 0.246734 0.795320
O O5 0.554210 0.805542 0.040470
O O6 0.215652 0.728106 0.283899
O O7 0.349874 0.703551 0.006781
O O8 0.000000 0.000000 0.500000
O O9 0.894879 0.626547 0.442837
O O10 0.646130 0.938668 0.776529
O O11 0.892005 0.793172 0.679704
O O12 0.266216 0.013557 0.954594
O O13 0.000000 0.000000 0.000000
O O14 0.173608 0.792689 0.896995
O O15 0.190829 0.575214 0.549298
O O16 0.236343 0.521661 0.662669
O O17 0.710447 0.406374 0.162369
#
# Coordination Sequence:
#
# PCOD8001110 Si02
#       8
#     2   2   2   2   2   2   2   2
#     4  10  25  42  63  97 138 173 221 268 331 400
#     4  10  21  35  63 103 130 166 217 281 331 384
#     4  10  19  41  67 101 132 162 224 280 331 381
#     4  12  26  48  67  94 139 183 221 267 334 405
#     4  10  23  40  67  94 131 179 217 272 330 393
#     4  10  21  37  66  93 136 168 214 276 326 391
#     4  12  20  41  71 100 136 169 223 283 331 385
#     4  10  24  41  69  98 130 179 224 275 329 387
#
# _framework density 23.132556999999998
#
# number of rings (size 3 to 8) (size 9 to 14) (size 15 to 20)
#    0.750    0.750    2.500    2.625    3.500    3.000 
#    2.250    1.250    0.000    0.000    0.000    0.000 
#    0.000    0.000    0.000    0.000    0.000    0.000 
#
# Total GULP energy -198246.925894 kJ/mol
# GULP energy per Si atom -12390.432868 kJ/mol
# Density = 2.307991 g / cm^3
# Si number density = 23.132557 Si / 1000 Ang^3
#
#
#
# Elastic Constant Matrix: (Units=GPa)
#
#
# Indices 1 2 3 4 5 6 
#
# 1 60.2855 45.2761 16.1102 -7.8335 16.8226 24.0908
# 2 45.2761 134.6982 25.6229 -23.9703 12.0755 40.9279
# 3 16.1102 25.6229 100.6861 -23.7324 19.3828 6.8615
# 4 -7.8335 -23.9703 -23.7324 48.7255 3.2263 1.5199
# 5 16.8226 12.0755 19.3828 3.2263 25.1618 4.6391
# 6 24.0908 40.9279 6.8615 1.5199 4.6391 35.6907
#
#
#
# Elastic Compliance Matrix: (Units=1/GPa)
#
#
# Indices 1 2 3 4 5 6 
#
# 1 0.030393 -0.003399 0.001870 0.005789 -0.018131 -0.014867
# 2 -0.003399 0.014412 0.000145 0.007259 -0.003074 -0.014170
# 3 0.001870 0.000145 0.014186 0.008216 -0.012776 -0.002845
# 4 0.005789 0.007259 0.008216 0.030441 -0.015165 -0.013137
# 5 -0.018131 -0.003074 -0.012776 -0.015165 0.063162 0.010655
# 6 -0.014867 -0.014170 -0.002845 -0.013137 0.010655 0.054024
#
#
# Mechanical properties :
#
#
# Convention : Reuss Voigt Hill
#
# Bulk Modulus (GPa) = 17.78650 52.18759 34.98704
# Shear Modulus (GPa) = 21.91765 35.82628 28.87197
#
# Velocity S-wave (km/s) = 3.08146 3.93967 3.53669
# Velocity P-wave (km/s) = 4.51289 6.58057 5.64225
#
# Compressibility (1/GPa) = 0.05622243
#
# Stress axis : x y z
#
# Youngs Moduli (GPa) = 32.90195 69.38738 70.49329
#
# Poissons Ratio (x) = 0.23584 -0.13182
# Poissons Ratio (y) = 0.11183 -0.01020
# Poissons Ratio (z) = -0.06152 -0.01004
#
# Static dielectric constant tensor:
#      x y z
#    x 3.728520 0.311160 0.155870 
#    y 0.311160 4.920670 -0.492390 
#    z 0.155870 -0.492390 4.545830 
# 
# 
# High freq. dielectric constant tensor:
#      x y z
#    x 1.884130 0.024960 0.014730 
#    y 0.024960 1.935690 -0.017130 
#    z 0.014730 -0.017130 1.924920 
# 
# From -- ./inp_files/522464.got.cif
#   From: 2010.06.25/outbox.cif.g09.slc.cpg/sg2_262_cif.got.tgz:522464.got - 2010.06.27 13:26:56.
