data_PCOD8001893
_publ_section_title
;
Structure prediction by ZEFSAII (Michael W. Deem and Ramdas Pophale) SiO2 
 PCOD8001893
Probable space group: P -1
;
_chemical_formula_sum "Si O2"
_cell_formula_units_Z 14
_cell_length_a 21.020268
_cell_length_b 9.825607
_cell_length_c 11.809563
_cell_angle_alpha 60.049840
_cell_angle_beta 28.418146
_cell_angle_gamma 41.755218
_cell_volume 671.704025
_symmetry_space_group_name_H-M "P -1"
_symmetry_group_IT_number 2
_symmetry_cell_setting 'triclinic'
loop_
_space_group_symop_operation_xyz
x,y,z
-x,-y,-z
loop_
_atom_site_type_symbol
_atom_site_label
_atom_site_fract_x
_atom_site_fract_y
_atom_site_fract_z
Si Si1 0.303299 0.655202 0.392671
Si Si2 0.113088 0.838766 0.159863
Si Si3 0.050443 0.562245 0.286804
Si Si4 0.610034 0.888323 0.197378
Si Si5 0.649910 0.845943 0.726968
Si Si6 0.442905 0.796070 0.678180
Si Si7 0.283030 0.558808 0.221990
O O1 0.372487 0.470284 0.455518
O O2 0.230980 0.629928 0.404167
O O3 0.482651 0.615991 0.098508
O O4 0.110706 0.919386 0.627548
O O5 0.165983 0.623862 0.109599
O O6 0.139440 0.794010 0.272896
O O7 0.268966 0.838257 0.880103
O O8 0.000000 0.500000 0.500000
O O9 0.839269 0.797558 0.460969
O O10 0.179985 0.348492 0.084329
O O11 0.523329 0.830635 0.437196
O O12 0.453604 0.051272 0.274244
O O13 0.640999 0.023252 0.162255
O O14 0.757334 0.585056 0.683720
O O15 0.500000 0.000000 0.000000
#
# Coordination Sequence:
#
# PCOD8001893 Si02
#       7
#     2   2   2   2   2   2   2
#     4  10  21  37  62  93 131 166 216 266 325 385
#     4  11  23  40  64  97 132 169 215 271 324 393
#     4  12  25  40  66 100 131 171 215 266 334 387
#     4  11  25  46  67  95 133 171 226 271 318 391
#     4  12  22  39  65  94 133 167 211 268 328 383
#     4  10  25  45  68  94 129 181 219 268 322 383
#     4  10  20  34  58  96 126 168 207 264 330 371
#
# _framework density 20.842513
#
# number of rings (size 3 to 8) (size 9 to 14) (size 15 to 20)
#    0.000    1.143    4.286    1.286    2.000    2.857 
#    0.000    4.286    0.000    0.000    0.000    0.000 
#    0.000    0.000    0.000    0.000    0.000    0.000 
#
# Total GULP energy -173588.697561 kJ/mol
# GULP energy per Si atom -12399.192683 kJ/mol
# Density = 2.079507 g / cm^3
# Si number density = 20.842513 Si / 1000 Ang^3
#
#
#
# Elastic Constant Matrix: (Units=GPa)
#
#
# Indices 1 2 3 4 5 6 
#
# 1 87.9122 36.4511 50.8774 -3.0458 -5.1173 10.9058
# 2 36.4511 96.7471 42.8906 3.7819 -3.0513 0.5114
# 3 50.8774 42.8906 94.9580 12.7477 -4.6508 -1.9412
# 4 -3.0458 3.7819 12.7477 36.1377 -0.6608 -4.2245
# 5 -5.1173 -3.0513 -4.6508 -0.6608 36.1256 -2.0576
# 6 10.9058 0.5114 -1.9412 -4.2245 -2.0576 31.3570
#
#
#
# Elastic Compliance Matrix: (Units=1/GPa)
#
#
# Indices 1 2 3 4 5 6 
#
# 1 0.019258 -0.003106 -0.009620 0.004592 0.000937 -0.006563
# 2 -0.003106 0.013455 -0.004386 -0.000050 0.000165 0.000593
# 3 -0.009620 -0.004386 0.018650 -0.006478 0.000763 0.003749
# 4 0.004592 -0.000050 -0.006478 0.030611 0.000495 0.002159
# 5 0.000937 0.000165 0.000763 0.000495 0.028028 0.001624
# 6 -0.006563 0.000593 0.003749 0.002159 0.001624 0.034793
#
#
# Mechanical properties :
#
#
# Convention : Reuss Voigt Hill
#
# Bulk Modulus (GPa) = 58.34781 60.00617 59.17699
# Shear Modulus (GPa) = 27.06625 30.68396 28.87510
#
# Velocity S-wave (km/s) = 3.60753 3.84106 3.72613
# Velocity P-wave (km/s) = 6.73853 6.96595 6.85318
#
# Compressibility (1/GPa) = 0.01713860
#
# Stress axis : x y z
#
# Youngs Moduli (GPa) = 51.92662 74.32140 53.61942
#
# Poissons Ratio (x) = 0.23086 0.51581
# Poissons Ratio (y) = 0.16130 0.23518
# Poissons Ratio (z) = 0.49952 0.32598
#
# Static dielectric constant tensor:
#      x y z
#    x 3.889420 0.178690 -0.092990 
#    y 0.178690 3.790570 -0.028940 
#    z -0.092990 -0.028940 3.524060 
# 
# 
# High freq. dielectric constant tensor:
#      x y z
#    x 1.825250 0.006220 -0.017120 
#    y 0.006220 1.822230 0.006070 
#    z -0.017120 0.006070 1.800250 
# 
# From -- ./inp_files/71460.got.cif
#   From: 2010.06.25/outbox.cif.g09.slc.cpg/sg2_36_cif.got.tgz:71460.got - 2010.06.27 13:26:56.
