data_PCOD8001418
_publ_section_title
;
Structure prediction by ZEFSAII (Michael W. Deem and Ramdas Pophale) SiO2 
 PCOD8001418
Probable space group: P -1
;
_chemical_formula_sum "Si O2"
_cell_formula_units_Z 16
_cell_length_a 23.229525
_cell_length_b 21.039835
_cell_length_c 9.041478
_cell_angle_alpha 64.343220
_cell_angle_beta 65.977838
_cell_angle_gamma 11.612924
_cell_volume 798.293326
_symmetry_space_group_name_H-M "P -1"
_symmetry_group_IT_number 2
_symmetry_cell_setting 'triclinic'
loop_
_space_group_symop_operation_xyz
x,y,z
-x,-y,-z
loop_
_atom_site_type_symbol
_atom_site_label
_atom_site_fract_x
_atom_site_fract_y
_atom_site_fract_z
Si Si1 0.827583 0.916756 0.606754
Si Si2 0.832765 0.189921 0.829344
Si Si3 0.991388 0.866424 0.959241
Si Si4 0.485491 0.161876 0.699325
Si Si5 0.172753 0.946342 0.730635
Si Si6 0.706623 0.904103 0.058773
Si Si7 0.636176 0.849375 0.846851
Si Si8 0.383618 0.842112 0.087094
O O1 0.145938 0.541277 0.682334
O O2 0.642484 0.059052 0.568491
O O3 0.831839 0.980910 0.439208
O O4 0.677219 0.099195 0.734693
O O5 0.496657 0.572960 0.814109
O O6 0.857742 0.087528 0.823242
O O7 0.005120 0.066553 0.694898
O O8 0.000000 0.000000 0.000000
O O9 0.295743 0.530766 0.902220
O O10 0.814430 0.993586 0.961512
O O11 0.008157 0.842071 0.144004
O O12 0.560556 0.007191 0.689137
O O13 0.621939 0.007655 0.873842
O O14 0.026901 0.527227 0.117641
O O15 0.502848 0.065637 0.180503
O O16 0.668231 0.021850 0.058217
O O17 0.500000 0.000000 0.000000
#
# Coordination Sequence:
#
# PCOD8001418 Si02
#       8
#     2   2   2   2   2   2   2   2
#     4  11  22  36  53  81 117 144 170 220 279 322
#     4  10  20  38  60  82 104 136 183 232 263 302
#     4  11  21  37  59  80 103 141 184 221 261 319
#     4  10  18  31  50  76 110 146 177 219 268 314
#     4  11  22  39  60  82 105 141 184 223 263 319
#     4  10  18  29  47  75 109 141 174 220 267 309
#     4  10  16  27  47  74 104 141 182 219 257 309
#     4  11  21  35  53  82 115 142 170 220 277 320
#
# _framework density 20.042757999999999
#
# number of rings (size 3 to 8) (size 9 to 14) (size 15 to 20)
#    0.000    1.500    0.000   12.000    0.000    0.000 
#    0.000    3.750    0.000    0.000    0.000   17.500 
#    0.000    0.000    0.000    0.000    0.000    0.000 
#
# Total GULP energy -198293.945083 kJ/mol
# GULP energy per Si atom -12393.371568 kJ/mol
# Density = 1.999714 g / cm^3
# Si number density = 20.042758 Si / 1000 Ang^3
#
#
#
# Elastic Constant Matrix: (Units=GPa)
#
#
# Indices 1 2 3 4 5 6 
#
# 1 158.5648 -28.5498 63.6330 -2.4080 -62.6693 -21.1087
# 2 -28.5498 -23.9219 106.8249 -16.8236 -84.8318 -60.5489
# 3 63.6330 106.8249 26.7141 10.2014 15.4531 38.7855
# 4 -2.4080 -16.8236 10.2014 14.1823 -9.8384 -11.6576
# 5 -62.6693 -84.8318 15.4531 -9.8384 -10.4508 -33.3173
# 6 -21.1087 -60.5489 38.7855 -11.6576 -33.3173 18.4599
#
#
#
# Elastic Compliance Matrix: (Units=1/GPa)
#
#
# Indices 1 2 3 4 5 6 
#
# 1 0.006061 -0.003137 0.001481 -0.003647 0.003363 -0.002704
# 2 -0.003137 0.005365 -0.000997 -0.003638 -0.009892 -0.004045
# 3 0.001481 -0.000997 0.021068 0.002187 0.025179 0.000982
# 4 -0.003647 -0.003638 0.002187 0.059909 -0.008348 0.002066
# 5 0.003363 -0.009892 0.025179 -0.008348 0.042372 -0.010301
# 6 -0.002704 -0.004045 0.000982 0.002066 -0.010301 0.018462
#
#
# Mechanical properties :
#
#
# Convention : Reuss Voigt Hill
#
# Bulk Modulus (GPa) = 36.78143 49.46368 43.12255
# Shear Modulus (GPa) = 29.83146 5.73487 17.78316
#
# Velocity S-wave (km/s) = 3.86215 1.69338 2.98192
# Velocity P-wave (km/s) = 6.18705 5.34378 5.78081
#
# Compressibility (1/GPa) = 0.02718763
#
# Stress axis : x y z
#
# Youngs Moduli (GPa) = 164.98342 186.38300 47.46463
#
# Poissons Ratio (x) = 0.58472 -0.07029
# Poissons Ratio (y) = 0.51759 0.04733
# Poissons Ratio (z) = -0.24432 0.18587
#
# Static dielectric constant tensor:
#      x y z
#    x 5.063040 -0.146450 -0.806610 
#    y -0.146450 3.731390 -0.021330 
#    z -0.806610 -0.021330 3.293000 
# 
# 
# High freq. dielectric constant tensor:
#      x y z
#    x 1.815790 -0.009480 -0.038890 
#    y -0.009480 1.799540 -0.009660 
#    z -0.038890 -0.009660 1.719080 
# 
# From -- ./inp_files/223530.got.cif
#   From: 2010.06.25/outbox.cif.g09.slc.cpg/sg2_112_cif.got.tgz:223530.got - 2010.06.27 13:26:56.
