data_PCOD8001023
_publ_section_title
;
Structure prediction by ZEFSAII (Michael W. Deem and Ramdas Pophale) SiO2 
 PCOD8001023
Probable space group: P -1
;
_chemical_formula_sum "Si O2"
_cell_formula_units_Z 16
_cell_length_a 9.173174
_cell_length_b 11.297816
_cell_length_c 9.285413
_cell_angle_alpha 93.836206
_cell_angle_beta 73.234159
_cell_angle_gamma 128.749574
_cell_volume 710.222312
_symmetry_space_group_name_H-M "P -1"
_symmetry_group_IT_number 2
_symmetry_cell_setting 'triclinic'
loop_
_space_group_symop_operation_xyz
x,y,z
-x,-y,-z
loop_
_atom_site_type_symbol
_atom_site_label
_atom_site_fract_x
_atom_site_fract_y
_atom_site_fract_z
Si Si1 0.548722 0.802469 0.821510
Si Si2 0.961140 0.956092 0.842101
Si Si3 0.424626 0.588911 0.586852
Si Si4 0.983205 0.702248 0.718749
Si Si5 0.384639 0.186289 0.698297
Si Si6 0.311251 0.646383 0.155274
Si Si7 0.000389 0.384592 0.588562
Si Si8 0.590694 0.066889 0.325178
O O1 0.765049 0.920908 0.837816
O O2 0.513721 0.666042 0.724103
O O3 0.540813 0.918056 0.739674
O O4 0.378996 0.718082 0.983712
O O5 0.932368 0.804059 0.805475
O O6 0.157475 0.110175 0.724487
O O7 0.000000 0.000000 0.000000
O O8 0.500000 0.500000 0.500000
O O9 0.494016 0.730861 0.475124
O O10 0.187288 0.469334 0.649171
O O11 0.836566 0.537001 0.820833
O O12 0.983744 0.712611 0.543057
O O13 0.198872 0.764424 0.709298
O O14 0.499763 0.309994 0.804574
O O15 0.382195 0.051941 0.752740
O O16 0.201131 0.706289 0.266916
O O17 0.000000 0.500000 0.500000
O O18 0.500000 0.000000 0.500000
#
# Coordination Sequence:
#
# PCOD8001023 Si02
#       8
#     2   2   2   2   2   2   2   2
#     4  12  26  44  72 107 142 188 245 291 357 423
#     4  11  25  47  68 102 147 189 238 287 360 431
#     4  12  25  43  69 111 142 178 244 295 351 427
#     4  10  22  42  75 101 137 195 231 284 367 421
#     4  11  23  47  69  96 144 193 226 297 358 414
#     4  11  23  42  76 104 142 179 241 298 356 413
#     4  10  19  40  71 102 138 181 230 285 355 420
#     4  11  23  44  71  98 143 185 235 288 350 422
#
# _framework density 22.528158000000001
#
# number of rings (size 3 to 8) (size 9 to 14) (size 15 to 20)
#    0.000    1.000    5.000    3.000    0.000    4.500 
#    4.500    0.000    0.000    0.000    0.000    0.000 
#    0.000    0.000    0.000    0.000    0.000    0.000 
#
# Total GULP energy -198292.642803 kJ/mol
# GULP energy per Si atom -12393.290175 kJ/mol
# Density = 2.247688 g / cm^3
# Si number density = 22.528158 Si / 1000 Ang^3
#
#
#
# Elastic Constant Matrix: (Units=GPa)
#
#
# Indices 1 2 3 4 5 6 
#
# 1 125.4174 63.7445 55.2745 -5.1523 4.7226 30.0601
# 2 63.7445 113.8765 51.6040 0.6405 -0.0083 18.9905
# 3 55.2745 51.6040 150.3124 3.9252 -2.4276 1.6255
# 4 -5.1523 0.6405 3.9252 41.8710 3.7699 -1.9284
# 5 4.7226 -0.0083 -2.4276 3.7699 32.7237 6.3299
# 6 30.0601 18.9905 1.6255 -1.9284 6.3299 42.8332
#
#
#
# Elastic Compliance Matrix: (Units=1/GPa)
#
#
# Indices 1 2 3 4 5 6 
#
# 1 0.013834 -0.005058 -0.003340 0.001864 -0.001088 -0.007095
# 2 -0.005058 0.013199 -0.002607 -0.000789 0.001095 -0.002401
# 3 -0.003340 -0.002607 0.008784 -0.001117 0.000678 0.003016
# 4 0.001864 -0.000789 -0.001117 0.024559 -0.003313 0.000679
# 5 -0.001088 0.001095 0.000678 -0.003313 0.032044 -0.004632
# 6 -0.007095 -0.002401 0.003016 0.000679 -0.004632 0.029991
#
#
# Mechanical properties :
#
#
# Convention : Reuss Voigt Hill
#
# Bulk Modulus (GPa) = 72.43056 81.20583 76.81820
# Shear Modulus (GPa) = 33.55181 38.08446 35.81814
#
# Velocity S-wave (km/s) = 3.86337 4.11606 3.99172
# Velocity P-wave (km/s) = 7.21954 7.66250 7.44432
#
# Compressibility (1/GPa) = 0.01380633
#
# Stress axis : x y z
#
# Youngs Moduli (GPa) = 72.28436 75.76371 113.84595
#
# Poissons Ratio (x) = 0.38318 0.38030
# Poissons Ratio (y) = 0.36559 0.29683
# Poissons Ratio (z) = 0.24146 0.19754
#
# Static dielectric constant tensor:
#      x y z
#    x 4.297330 0.217270 -0.296360 
#    y 0.217270 4.588680 0.231730 
#    z -0.296360 0.231730 4.321550 
# 
# 
# High freq. dielectric constant tensor:
#      x y z
#    x 1.882130 0.022410 -0.013530 
#    y 0.022410 1.899900 0.010170 
#    z -0.013530 0.010170 1.879040 
# 
# From -- ./inp_files/187521.got.cif
#   From: 2010.06.25/outbox.cif.g09.slc.cpg/sg2_94_cif.got.tgz:187521.got - 2010.06.27 13:26:56.
