data_PCOD8001199
_publ_section_title
;
Structure prediction by ZEFSAII (Michael W. Deem and Ramdas Pophale) SiO2 
 PCOD8001199
Probable space group: P -1
;
_chemical_formula_sum "Si O2"
_cell_formula_units_Z 16
_cell_length_a 10.291001
_cell_length_b 16.497277
_cell_length_c 22.203302
_cell_angle_alpha 163.892563
_cell_angle_beta 42.550648
_cell_angle_gamma 137.549440
_cell_volume 698.063833
_symmetry_space_group_name_H-M "P -1"
_symmetry_group_IT_number 2
_symmetry_cell_setting 'triclinic'
loop_
_space_group_symop_operation_xyz
x,y,z
-x,-y,-z
loop_
_atom_site_type_symbol
_atom_site_label
_atom_site_fract_x
_atom_site_fract_y
_atom_site_fract_z
Si Si1 0.232861 0.329269 0.415666
Si Si2 0.340518 0.838785 0.657041
Si Si3 0.654471 0.705225 0.915708
Si Si4 0.737543 0.611448 0.131499
Si Si5 0.986973 0.783679 0.277199
Si Si6 0.195900 0.847753 0.576983
Si Si7 0.355265 0.778359 0.799238
Si Si8 0.241486 0.351120 0.630760
O O1 0.216731 0.555917 0.528675
O O2 0.278994 0.498173 0.583459
O O3 0.412040 0.150628 0.219025
O O4 0.028747 0.108504 0.324251
O O5 0.261427 0.855094 0.628781
O O6 0.565485 0.795014 0.550373
O O7 0.305741 0.126078 0.913316
O O8 0.433373 0.542199 0.876666
O O9 0.788017 0.456428 0.680896
O O10 0.700059 0.925433 0.999873
O O11 0.917249 0.767937 0.221490
O O12 0.670322 0.868384 0.296463
O O13 0.821228 0.371789 0.890205
O O14 0.804745 0.620357 0.262642
O O15 0.049909 0.131298 0.516556
O O16 0.257758 0.672990 0.821945
#
# Coordination Sequence:
#
# PCOD8001199 Si02
#       8
#     2   2   2   2   2   2   2   2
#     4   9  20  40  65  96 127 170 209 271 318 376
#     4  10  22  43  64  92 137 168 214 265 321 388
#     4  11  24  44  67  94 134 175 210 267 324 382
#     4  11  24  42  62  93 130 173 216 266 323 377
#     4  10  22  39  69  95 128 162 221 273 315 382
#     4  12  25  42  64  95 133 177 214 260 319 394
#     4   9  20  39  72  94 128 165 215 269 327 371
#     4  10  19  42  66 100 124 167 214 273 323 376
#
# _framework density 22.920539999999999
#
# number of rings (size 3 to 8) (size 9 to 14) (size 15 to 20)
#    0.000    1.750    1.250    3.000    3.500    2.500 
#   11.250    1.875    0.000    0.000    0.000    0.000 
#    0.000    0.000    0.000    0.000    0.000    0.000 
#
# Total GULP energy -198298.855704 kJ/mol
# GULP energy per Si atom -12393.678482 kJ/mol
# Density = 2.286837 g / cm^3
# Si number density = 22.920540 Si / 1000 Ang^3
#
#
#
# Elastic Constant Matrix: (Units=GPa)
#
#
# Indices 1 2 3 4 5 6 
#
# 1 81.2610 31.2933 12.6138 2.6023 6.6394 -10.1597
# 2 31.2933 125.2147 26.4666 10.4490 -5.0754 -11.3499
# 3 12.6138 26.4666 65.4801 3.1877 -3.9024 -11.6637
# 4 2.6023 10.4490 3.1877 31.2653 -1.9891 0.6202
# 5 6.6394 -5.0754 -3.9024 -1.9891 19.9850 4.0605
# 6 -10.1597 -11.3499 -11.6637 0.6202 4.0605 32.8029
#
#
#
# Elastic Compliance Matrix: (Units=1/GPa)
#
#
# Indices 1 2 3 4 5 6 
#
# 1 0.014838 -0.003338 -0.001203 -0.000509 -0.006849 0.003870
# 2 -0.003338 0.009844 -0.002864 -0.002578 0.002573 0.001084
# 3 -0.001203 -0.002864 0.017652 -0.000701 0.002101 0.004666
# 4 -0.000509 -0.002578 -0.000701 0.033206 0.003153 -0.002317
# 5 -0.006849 0.002573 0.002101 0.003153 0.055189 -0.007375
# 6 0.003870 0.001084 0.004666 -0.002317 -0.007375 0.034675
#
#
# Mechanical properties :
#
#
# Convention : Reuss Voigt Hill
#
# Bulk Modulus (GPa) = 36.33311 45.85592 41.09451
# Shear Modulus (GPa) = 26.40087 30.24946 28.32516
#
# Velocity S-wave (km/s) = 3.39756 3.63678 3.51921
# Velocity P-wave (km/s) = 5.59262 6.13880 5.87206
#
# Compressibility (1/GPa) = 0.02752311
#
# Stress axis : x y z
#
# Youngs Moduli (GPa) = 67.39383 101.58941 56.65220
#
# Poissons Ratio (x) = 0.33914 0.06815
# Poissons Ratio (y) = 0.22498 0.16223
# Poissons Ratio (z) = 0.08108 0.29092
#
# Static dielectric constant tensor:
#      x y z
#    x 3.842980 -0.113350 0.000430 
#    y -0.113350 4.273160 0.037430 
#    z 0.000430 0.037430 3.982990 
# 
# 
# High freq. dielectric constant tensor:
#      x y z
#    x 1.892060 -0.005990 0.005980 
#    y -0.005990 1.919660 0.009940 
#    z 0.005980 0.009940 1.888110 
# 
# From -- ./inp_files/590505.got.cif
#   From: 2010.06.25/outbox.cif.g09.slc.cpg/sg2_296_cif.got.tgz:590505.got - 2010.06.27 13:26:56.
