data_PCOD8001702
_publ_section_title
;
Structure prediction by ZEFSAII (Michael W. Deem and Ramdas Pophale) SiO2 
 PCOD8001702
Probable space group: P -1
;
_chemical_formula_sum "Si O2"
_cell_formula_units_Z 14
_cell_length_a 6.714610
_cell_length_b 16.641082
_cell_length_c 8.986762
_cell_angle_alpha 60.052370
_cell_angle_beta 130.604321
_cell_angle_gamma 109.061759
_cell_volume 660.591002
_symmetry_space_group_name_H-M "P -1"
_symmetry_group_IT_number 2
_symmetry_cell_setting 'triclinic'
loop_
_space_group_symop_operation_xyz
x,y,z
-x,-y,-z
loop_
_atom_site_type_symbol
_atom_site_label
_atom_site_fract_x
_atom_site_fract_y
_atom_site_fract_z
Si Si1 0.739478 0.398427 0.673886
Si Si2 0.863664 0.129766 0.293149
Si Si3 0.747449 0.334198 0.065037
Si Si4 0.836948 0.601889 0.571392
Si Si5 0.703692 0.922616 0.949974
Si Si6 0.834233 0.717750 0.175617
Si Si7 0.911046 0.004134 0.698969
O O1 0.834825 0.501654 0.581376
O O2 0.438136 0.383050 0.486342
O O3 0.932162 0.321854 0.773883
O O4 0.732617 0.392704 0.853939
O O5 0.909881 0.239318 0.207322
O O6 0.583554 0.103965 0.110241
O O7 0.873724 0.098455 0.500189
O O8 0.074354 0.079216 0.337435
O O9 0.908757 0.396042 0.202139
O O10 0.452333 0.312019 0.000372
O O11 0.869693 0.682718 0.392611
O O12 0.869673 0.828708 0.089114
O O13 0.830008 0.985448 0.082051
O O14 0.682111 0.979987 0.729525
#
# Coordination Sequence:
#
# PCOD8001702 Si02
#       7
#     2   2   2   2   2   2   2
#     4  10  21  37  56  80 109 140 177 219 263 315
#     4  10  20  35  53  76 105 136 174 217 260 309
#     4  10  21  36  55  80 109 140 177 220 264 314
#     4  10  21  37  56  80 109 140 177 219 263 315
#     4  10  20  35  53  76 105 136 174 217 260 309
#     4  10  21  36  55  80 109 140 177 220 264 314
#     4  10  20  34  54  76 102 138 174 212 262 312
#
# _framework density 21.193142000000002
#
# number of rings (size 3 to 8) (size 9 to 14) (size 15 to 20)
#    0.000    2.000    0.000    3.429    0.000    1.714 
#    0.000    7.143    0.000    0.000    0.000    0.000 
#    0.000    0.000    0.000    0.000    0.000    0.000 
#
# Total GULP energy -173593.011009 kJ/mol
# GULP energy per Si atom -12399.500786 kJ/mol
# Density = 2.114491 g / cm^3
# Si number density = 21.193142 Si / 1000 Ang^3
#
#
#
# Elastic Constant Matrix: (Units=GPa)
#
#
# Indices 1 2 3 4 5 6 
#
# 1 60.8784 12.3142 9.0477 6.2931 5.3519 -5.9619
# 2 12.3142 49.7586 11.5416 -2.5568 -7.2483 2.7752
# 3 9.0477 11.5416 66.6691 -1.1248 -5.8054 -1.2475
# 4 6.2931 -2.5568 -1.1248 38.5705 3.4158 3.9393
# 5 5.3519 -7.2483 -5.8054 3.4158 29.0506 -7.5565
# 6 -5.9619 2.7752 -1.2475 3.9393 -7.5565 24.7675
#
#
#
# Elastic Compliance Matrix: (Units=1/GPa)
#
#
# Indices 1 2 3 4 5 6 
#
# 1 0.018896 -0.005180 -0.001954 -0.003630 -0.003561 0.004521
# 2 -0.005180 0.023056 -0.002853 0.002111 0.005179 -0.002730
# 3 -0.001954 -0.002853 0.016076 0.000142 0.003269 0.001634
# 4 -0.003630 0.002111 0.000142 0.027675 -0.003761 -0.006652
# 5 -0.003561 0.005179 0.003269 -0.003761 0.040505 0.011683
# 6 0.004521 -0.002730 0.001634 -0.006652 0.011683 0.046475
#
#
# Mechanical properties :
#
#
# Convention : Reuss Voigt Hill
#
# Bulk Modulus (GPa) = 26.27944 27.01255 26.64600
# Shear Modulus (GPa) = 24.34963 28.10456 26.22709
#
# Velocity S-wave (km/s) = 3.39328 3.64554 3.52167
# Velocity P-wave (km/s) = 5.27061 5.52209 5.39782
#
# Compressibility (1/GPa) = 0.03805256
#
# Stress axis : x y z
#
# Youngs Moduli (GPa) = 52.92252 43.37295 62.20377
#
# Poissons Ratio (x) = 0.22469 0.12156
# Poissons Ratio (y) = 0.27416 0.17746
# Poissons Ratio (z) = 0.10342 0.12374
#
# Static dielectric constant tensor:
#      x y z
#    x 3.629470 0.174510 0.033710 
#    y 0.174510 3.668930 -0.149520 
#    z 0.033710 -0.149520 3.883050 
# 
# 
# High freq. dielectric constant tensor:
#      x y z
#    x 1.814530 0.013590 -0.000030 
#    y 0.013590 1.825020 -0.012140 
#    z -0.000030 -0.012140 1.838520 
# 
# From -- ./inp_files/35633.got.cif
#   From: 2010.06.25/outbox.cif.g09.slc.cpg/sg2_18_cif.got.tgz:35633.got - 2010.06.27 13:26:56.
