data_PCOD8001697
_publ_section_title
;
Structure prediction by ZEFSAII (Michael W. Deem and Ramdas Pophale) SiO2 
 PCOD8001697
Probable space group: P -1
;
_chemical_formula_sum "Si O2"
_cell_formula_units_Z 14
_cell_length_a 11.049999
_cell_length_b 14.298588
_cell_length_c 11.563733
_cell_angle_alpha 84.452398
_cell_angle_beta 155.065629
_cell_angle_gamma 83.889055
_cell_volume 679.676094
_symmetry_space_group_name_H-M "P -1"
_symmetry_group_IT_number 2
_symmetry_cell_setting 'triclinic'
loop_
_space_group_symop_operation_xyz
x,y,z
-x,-y,-z
loop_
_atom_site_type_symbol
_atom_site_label
_atom_site_fract_x
_atom_site_fract_y
_atom_site_fract_z
Si Si1 0.784667 0.705036 0.425883
Si Si2 0.088028 0.376767 0.084419
Si Si3 0.862996 0.923305 0.851448
Si Si4 0.910229 0.245943 0.121505
Si Si5 0.100340 0.474149 0.722842
Si Si6 0.185133 0.662383 0.555601
Si Si7 0.834105 0.272786 0.710365
O O1 0.822250 0.783658 0.541266
O O2 0.007455 0.586893 0.687427
O O3 0.900498 0.720402 0.396498
O O4 0.424854 0.719308 0.105486
O O5 0.474277 0.307951 0.443999
O O6 0.910474 0.339914 0.031714
O O7 0.000000 0.500000 0.000000
O O8 0.966716 0.354852 0.858240
O O9 0.023410 0.857143 0.882563
O O10 0.500000 0.000000 0.500000
O O11 0.914407 0.841978 0.009528
O O12 0.000000 0.000000 0.000000
O O13 0.000000 0.500000 0.500000
O O14 0.882787 0.418194 0.576060
O O15 0.477246 0.395410 0.077865
O O16 0.180708 0.740518 0.440609
#
# Coordination Sequence:
#
# PCOD8001697 Si02
#       7
#     2   2   2   2   2   2   2
#     4  11  21  36  58  86 128 160 205 248 285 362
#     4  11  24  39  58  87 133 168 199 254 303 362
#     4  11  23  45  69  86 114 153 211 274 317 370
#     4  11  23  38  62  92 116 158 211 244 314 366
#     4  10  20  34  53  83 123 178 215 224 273 350
#     4  11  22  37  58  88 127 169 207 249 291 358
#     4  11  24  41  62  94 119 162 217 246 315 377
#
# _framework density 20.598047000000001
#
# number of rings (size 3 to 8) (size 9 to 14) (size 15 to 20)
#    0.000    1.143    0.000    9.857    6.000    0.000 
#    0.000    0.000    0.000    5.143    0.000    0.000 
#    0.000    0.000    0.000    0.000    0.000    0.000 
#
# Total GULP energy -173454.201213 kJ/mol
# GULP energy per Si atom -12389.585801 kJ/mol
# Density = 2.055116 g / cm^3
# Si number density = 20.598047 Si / 1000 Ang^3
#
#
#
# Elastic Constant Matrix: (Units=GPa)
#
#
# Indices 1 2 3 4 5 6 
#
# 1 74.3346 43.4067 69.8489 -9.0151 -32.6853 -6.6645
# 2 43.4067 117.4908 42.1840 12.6453 -5.0232 -8.3603
# 3 69.8489 42.1840 145.5974 6.9648 13.7217 12.6678
# 4 -9.0151 12.6453 6.9648 40.4312 -2.5371 -4.4029
# 5 -32.6853 -5.0232 13.7217 -2.5371 17.9785 1.3495
# 6 -6.6645 -8.3603 12.6678 -4.4029 1.3495 18.2252
#
#
#
# Elastic Compliance Matrix: (Units=1/GPa)
#
#
# Indices 1 2 3 4 5 6 
#
# 1 -0.013309 -0.000480 0.011098 -0.008144 -0.033025 -0.012323
# 2 -0.000480 0.010935 -0.003846 -0.001857 0.004349 0.006743
# 3 0.011098 -0.003846 0.000443 0.005007 0.019338 0.001764
# 4 -0.008144 -0.001857 0.005007 0.021529 -0.016038 -0.000921
# 5 -0.033025 0.004349 0.019338 -0.016038 -0.018271 -0.026044
# 6 -0.012323 0.006743 0.001764 -0.000921 -0.026044 0.053936
#
#
# Mechanical properties :
#
#
# Convention : Reuss Voigt Hill
#
# Bulk Modulus (GPa) = 86.10617 72.03353 79.06985
# Shear Modulus (GPa) = 109.67466 27.45920 68.56693
#
# Velocity S-wave (km/s) = 7.30485 3.65512 5.77584
# Velocity P-wave (km/s) = 10.63210 7.27050 9.10774
#
# Compressibility (1/GPa) = 0.01161357
#
# Stress axis : x y z
#
# Youngs Moduli (GPa) = -75.13653 91.44890 2258.59362
#
# Poissons Ratio (x) = 0.04390 -25.06611
# Poissons Ratio (y) = -0.03607 8.68581
# Poissons Ratio (z) = 0.83387 0.35168
#
# Static dielectric constant tensor:
#      x y z
#    x 3.738910 0.142460 -0.083430 
#    y 0.142460 3.811600 0.299410 
#    z -0.083430 0.299410 3.797680 
# 
# 
# High freq. dielectric constant tensor:
#      x y z
#    x 1.806770 -0.001000 -0.005760 
#    y -0.001000 1.782480 0.034480 
#    z -0.005760 0.034480 1.818920 
# 
# From -- ./inp_files/433967.got.cif
#   From: 2010.06.25/outbox.cif.g09.slc.cpg/sg2_217_cif.got.tgz:433967.got - 2010.06.27 13:26:56.
