data_PCOD8001420
_publ_section_title
;
Structure prediction by ZEFSAII (Michael W. Deem and Ramdas Pophale) SiO2 
 PCOD8001420
Probable space group: P -1
;
_chemical_formula_sum "Si O2"
_cell_formula_units_Z 16
_cell_length_a 22.875361
_cell_length_b 11.443861
_cell_length_c 10.662704
_cell_angle_alpha 154.181069
_cell_angle_beta 137.830792
_cell_angle_gamma 46.623073
_cell_volume 814.284144
_symmetry_space_group_name_H-M "P -1"
_symmetry_group_IT_number 2
_symmetry_cell_setting 'triclinic'
loop_
_space_group_symop_operation_xyz
x,y,z
-x,-y,-z
loop_
_atom_site_type_symbol
_atom_site_label
_atom_site_fract_x
_atom_site_fract_y
_atom_site_fract_z
Si Si1 0.723828 0.319440 0.071733
Si Si2 0.564839 0.844695 0.705530
Si Si3 0.325768 0.189012 0.916346
Si Si4 0.423606 0.627513 0.915241
Si Si5 0.836289 0.793056 0.680670
Si Si6 0.974674 0.138221 0.961888
Si Si7 0.380479 0.693661 0.359634
Si Si8 0.862440 0.692142 0.334334
O O1 0.660470 0.274435 0.043368
O O2 0.781300 0.565901 0.434162
O O3 0.667030 0.373603 0.909478
O O4 0.791713 0.070660 0.923006
O O5 0.602254 0.596619 0.440971
O O6 0.477782 0.771044 0.565549
O O7 0.637940 0.906769 0.983528
O O8 0.542285 0.112115 0.847038
O O9 0.225524 0.305319 0.884843
O O10 0.328139 0.936742 0.582720
O O11 0.384420 0.422895 0.186092
O O12 0.500000 0.500000 0.000000
O O13 0.835110 0.770638 0.507603
O O14 0.935722 0.777147 0.877465
O O15 0.909271 0.397357 0.125478
O O16 0.925302 0.911467 0.588063
O O17 0.000000 0.000000 0.000000
#
# Coordination Sequence:
#
# PCOD8001420 Si02
#       8
#     2   2   2   2   2   2   2   2
#     4  12  22  36  61  86 118 159 195 243 296 343
#     4  12  26  43  61  86 120 164 205 248 287 348
#     4  12  24  39  61  91 123 159 200 236 296 370
#     4  12  26  43  63  84 117 161 211 251 294 334
#     4  11  20  35  54  89 120 153 193 236 296 356
#     4  10  20  32  53  83 123 157 183 230 295 370
#     4  12  22  39  61  88 124 158 196 240 303 354
#     4  11  19  34  55  85 121 158 184 230 302 359
#
# _framework density 19.649159999999998
#
# number of rings (size 3 to 8) (size 9 to 14) (size 15 to 20)
#    0.000    0.500    3.750    7.875    1.750    0.000 
#    0.000    0.000    0.000    0.000    0.000   17.500 
#    0.000    0.000    0.000    0.000    0.000    0.000 
#
# Total GULP energy -198451.730454 kJ/mol
# GULP energy per Si atom -12403.233153 kJ/mol
# Density = 1.960444 g / cm^3
# Si number density = 19.649160 Si / 1000 Ang^3
#
#
#
# Elastic Constant Matrix: (Units=GPa)
#
#
# Indices 1 2 3 4 5 6 
#
# 1 55.1859 48.0548 30.3343 1.9645 9.4509 -14.3048
# 2 48.0548 100.1251 47.1448 4.9236 4.0540 -17.0143
# 3 30.3343 47.1448 132.6818 29.6949 17.1598 -6.5993
# 4 1.9645 4.9236 29.6949 43.7616 -11.4859 -1.6316
# 5 9.4509 4.0540 17.1598 -11.4859 37.1684 3.7927
# 6 -14.3048 -17.0143 -6.5993 -1.6316 3.7927 27.8224
#
#
#
# Elastic Compliance Matrix: (Units=1/GPa)
#
#
# Indices 1 2 3 4 5 6 
#
# 1 0.035273 -0.014238 -0.001241 -0.000902 -0.008162 0.010194
# 2 -0.014238 0.019163 -0.004584 0.002809 0.004218 0.002901
# 3 -0.001241 -0.004584 0.012841 -0.010319 -0.008315 0.000133
# 4 -0.000902 0.002809 -0.010319 0.033513 0.015176 -0.001297
# 5 -0.008162 0.004218 -0.008315 0.015176 0.037850 -0.007859
# 6 0.010194 0.002901 0.000133 -0.001297 -0.007859 0.043984
#
#
# Mechanical properties :
#
#
# Convention : Reuss Voigt Hill
#
# Bulk Modulus (GPa) = 36.82983 59.89564 48.36274
# Shear Modulus (GPa) = 21.57027 32.58106 27.07567
#
# Velocity S-wave (km/s) = 3.31686 4.07644 3.71611
# Velocity P-wave (km/s) = 5.78387 7.25984 6.56347
#
# Compressibility (1/GPa) = 0.02715190
#
# Stress axis : x y z
#
# Youngs Moduli (GPa) = 28.35038 52.18279 77.87622
#
# Poissons Ratio (x) = 0.74297 0.09663
# Poissons Ratio (y) = 0.40365 0.35699
# Poissons Ratio (z) = 0.03518 0.23921
#
# Static dielectric constant tensor:
#      x y z
#    x 3.660700 -0.332520 0.250420 
#    y -0.332520 3.570680 -0.119310 
#    z 0.250420 -0.119310 3.988560 
# 
# 
# High freq. dielectric constant tensor:
#      x y z
#    x 1.742480 -0.029360 0.013830 
#    y -0.029360 1.758110 0.011440 
#    z 0.013830 0.011440 1.788420 
# 
# From -- ./inp_files/434107.got.cif
#   From: 2010.06.25/outbox.cif.g09.slc.cpg/sg2_218_cif.got.tgz:434107.got - 2010.06.27 13:26:56.
