data_PCOD8001971
_publ_section_title
;
Structure prediction by ZEFSAII (Michael W. Deem and Ramdas Pophale) SiO2 
 PCOD8001971
Probable space group: P -1
;
_chemical_formula_sum "Si O2"
_cell_formula_units_Z 16
_cell_length_a 9.529089
_cell_length_b 9.772858
_cell_length_c 15.432094
_cell_angle_alpha 104.164771
_cell_angle_beta 38.133367
_cell_angle_gamma 90.334350
_cell_volume 817.561983
_symmetry_space_group_name_H-M "P -1"
_symmetry_group_IT_number 2
_symmetry_cell_setting 'triclinic'
loop_
_space_group_symop_operation_xyz
x,y,z
-x,-y,-z
loop_
_atom_site_type_symbol
_atom_site_label
_atom_site_fract_x
_atom_site_fract_y
_atom_site_fract_z
Si Si1 0.040818 0.133629 0.605952
Si Si2 0.767718 0.626702 0.369093
Si Si3 0.874339 0.941952 0.784660
Si Si4 0.216768 0.690375 0.679382
Si Si5 0.159611 0.340437 0.862820
Si Si6 0.534097 0.057271 0.128125
Si Si7 0.389916 0.863304 0.298715
Si Si8 0.872167 0.171100 0.071308
O O1 0.109139 0.281041 0.615762
O O2 0.828910 0.180934 0.644942
O O3 0.274198 0.003293 0.439816
O O4 0.950727 0.076581 0.728471
O O5 0.491754 0.669637 0.531673
O O6 0.871281 0.452705 0.315371
O O7 0.811762 0.654992 0.252579
O O8 0.732164 0.877840 0.771306
O O9 0.101666 0.808039 0.679674
O O10 0.720065 0.000042 0.952511
O O11 0.142059 0.736924 0.820860
O O12 0.428521 0.280034 0.763853
O O13 0.000000 0.500000 0.000000
O O14 0.019080 0.224613 0.934792
O O15 0.606662 0.184368 0.165402
O O16 0.548358 0.914857 0.158701
O O17 0.000000 0.000000 0.000000
#
# Coordination Sequence:
#
# PCOD8001971 Si02
#       8
#     2   2   2   2   2   2   2   2
#     4  10  22  40  65  89 116 155 206 245 300 354
#     4  11  25  40  59  89 121 162 198 246 304 359
#     4  10  20  37  59  87 117 150 193 250 288 350
#     4  11  23  41  58  85 127 156 196 249 300 353
#     4  12  24  41  60  90 128 157 197 252 304 355
#     4  10  20  34  61  89 114 147 200 241 292 345
#     4  10  21  40  64  89 120 154 198 254 292 357
#     4  12  21  38  65  88 116 162 201 244 295 357
#
# _framework density 19.570381999999999
#
# number of rings (size 3 to 8) (size 9 to 14) (size 15 to 20)
#    0.000    1.250    3.750    2.250    0.000    1.000 
#    2.250    0.625    0.000    5.250    0.000    0.000 
#    0.000    0.000    0.000    0.000    0.000    0.000 
#
# Total GULP energy -198367.249932 kJ/mol
# GULP energy per Si atom -12397.953121 kJ/mol
# Density = 1.952584 g / cm^3
# Si number density = 19.570382 Si / 1000 Ang^3
#
#
#
# Elastic Constant Matrix: (Units=GPa)
#
#
# Indices 1 2 3 4 5 6 
#
# 1 100.2006 42.7925 16.7379 9.1847 -8.1477 21.2880
# 2 42.7925 92.0326 32.2532 -1.5967 -9.3090 26.5900
# 3 16.7379 32.2532 82.5508 -4.0368 9.0432 12.0726
# 4 9.1847 -1.5967 -4.0368 35.1993 -3.7752 -2.3790
# 5 -8.1477 -9.3090 9.0432 -3.7752 25.8362 -2.8050
# 6 21.2880 26.5900 12.0726 -2.3790 -2.8050 30.2851
#
#
#
# Elastic Compliance Matrix: (Units=1/GPa)
#
#
# Indices 1 2 3 4 5 6 
#
# 1 0.013676 -0.004404 -0.000612 -0.004035 0.001737 -0.005659
# 2 -0.004404 0.018427 -0.005427 0.001339 0.006234 -0.010237
# 3 -0.000612 -0.005427 0.015467 0.000760 -0.007627 -0.001617
# 4 -0.004035 0.001339 0.000760 0.030296 0.003815 0.004090
# 5 0.001737 0.006234 -0.007627 0.003815 0.044813 0.000796
# 6 -0.005659 -0.010237 -0.001617 0.004090 0.000796 0.047025
#
#
# Mechanical properties :
#
#
# Convention : Reuss Voigt Hill
#
# Bulk Modulus (GPa) = 37.47531 50.92791 44.20161
# Shear Modulus (GPa) = 25.06447 30.46413 27.76430
#
# Velocity S-wave (km/s) = 3.58262 3.94971 3.77064
# Velocity P-wave (km/s) = 6.02529 6.84688 6.44918
#
# Compressibility (1/GPa) = 0.02668423
#
# Stress axis : x y z
#
# Youngs Moduli (GPa) = 73.11899 54.26881 64.65190
#
# Poissons Ratio (x) = 0.23900 0.03959
# Poissons Ratio (y) = 0.32201 0.35086
# Poissons Ratio (z) = 0.04477 0.29451
#
# Static dielectric constant tensor:
#      x y z
#    x 3.801320 0.050480 -0.261670 
#    y 0.050480 3.714880 -0.135560 
#    z -0.261670 -0.135560 3.450500 
# 
# 
# High freq. dielectric constant tensor:
#      x y z
#    x 1.769360 -0.000530 0.001940 
#    y -0.000530 1.751040 -0.019780 
#    z 0.001940 -0.019780 1.775870 
# 
# From -- ./inp_files/392899.got.cif
#   From: 2010.06.25/outbox.cif.g09.slc.cpg/sg2_197_cif.got.tgz:392899.got - 2010.06.27 13:26:56.
