data_PCOD8001233
_publ_section_title
;
Structure prediction by ZEFSAII (Michael W. Deem and Ramdas Pophale) SiO2 
 PCOD8001233
Probable space group: P -1
;
_chemical_formula_sum "Si O2"
_cell_formula_units_Z 14
_cell_length_a 9.547586
_cell_length_b 18.506968
_cell_length_c 9.242105
_cell_angle_alpha 128.466498
_cell_angle_beta 109.045033
_cell_angle_gamma 114.462272
_cell_volume 667.323375
_symmetry_space_group_name_H-M "P -1"
_symmetry_group_IT_number 2
_symmetry_cell_setting 'triclinic'
loop_
_space_group_symop_operation_xyz
x,y,z
-x,-y,-z
loop_
_atom_site_type_symbol
_atom_site_label
_atom_site_fract_x
_atom_site_fract_y
_atom_site_fract_z
Si Si1 0.398479 0.540524 0.084855
Si Si2 0.952931 0.750926 0.204264
Si Si3 0.463623 0.625273 0.911471
Si Si4 0.976415 0.718285 0.836138
Si Si5 0.729038 0.299961 0.173274
Si Si6 0.044655 0.129478 0.199647
Si Si7 0.372467 0.018171 0.896156
O O1 0.637875 0.704879 0.464618
O O2 0.500000 0.500000 0.000000
O O3 0.146900 0.392451 0.921192
O O4 0.322232 0.560724 0.942581
O O5 0.250544 0.926550 0.583314
O O6 0.760237 0.737444 0.157614
O O7 0.942518 0.725950 0.000468
O O8 0.286501 0.468799 0.550439
O O9 0.495067 0.748617 0.029787
O O10 0.035574 0.844033 0.926357
O O11 0.225310 0.775724 0.981442
O O12 0.000000 0.500000 0.500000
O O13 0.613800 0.216496 0.191557
O O14 0.873559 0.068780 0.205565
O O15 0.000000 0.000000 0.000000
O O16 0.500000 0.000000 0.000000
#
# Coordination Sequence:
#
# PCOD8001233 Si02
#       7
#     2   2   2   2   2   2   2
#     4  10  19  42  69  96 130 179 222 269 335 395
#     4  11  23  38  74  96 128 179 227 271 336 396
#     4  10  20  41  72  92 132 176 228 265 328 407
#     4  11  22  43  63 102 137 173 217 286 329 390
#     4  10  25  41  68  94 135 180 220 269 342 395
#     4  12  25  41  70 102 135 171 230 282 328 396
#     4  12  25  47  67  93 136 185 219 272 345 402
#
# _framework density 20.979337000000001
#
# number of rings (size 3 to 8) (size 9 to 14) (size 15 to 20)
#    0.000    1.143    7.143    0.429    4.000    3.429 
#    2.571    0.714    0.000    0.000    0.000    0.000 
#    0.000    0.000    0.000    0.000    0.000    0.000 
#
# Total GULP energy -173432.762260 kJ/mol
# GULP energy per Si atom -12388.054447 kJ/mol
# Density = 2.093159 g / cm^3
# Si number density = 20.979337 Si / 1000 Ang^3
#
#
#
# Elastic Constant Matrix: (Units=GPa)
#
#
# Indices 1 2 3 4 5 6 
#
# 1 94.6221 52.9056 30.9896 -1.5280 -4.2195 -26.0725
# 2 52.9056 186.7054 45.0707 0.3763 -9.2326 -10.5924
# 3 30.9896 45.0707 92.5193 -2.5074 1.4068 -5.8283
# 4 -1.5280 0.3763 -2.5074 39.1173 0.6522 -1.4615
# 5 -4.2195 -9.2326 1.4068 0.6522 27.7299 5.8305
# 6 -26.0725 -10.5924 -5.8283 -1.4615 5.8305 45.1853
#
#
#
# Elastic Compliance Matrix: (Units=1/GPa)
#
#
# Indices 1 2 3 4 5 6 
#
# 1 0.015565 -0.003222 -0.003125 0.000737 -0.000219 0.007875
# 2 -0.003222 0.006901 -0.002379 -0.000411 0.002113 -0.000834
# 3 -0.003125 -0.002379 0.013036 0.000752 -0.001859 -0.000415
# 4 0.000737 -0.000411 0.000752 0.025713 -0.000958 0.001381
# 5 -0.000219 0.002113 -0.001859 -0.000958 0.037856 -0.004786
# 6 0.007875 -0.000834 -0.000415 0.001381 -0.004786 0.027088
#
#
# Mechanical properties :
#
#
# Convention : Reuss Voigt Hill
#
# Bulk Modulus (GPa) = 55.39372 70.19763 62.79568
# Shear Modulus (GPa) = 33.41640 38.73191 36.07415
#
# Velocity S-wave (km/s) = 3.99535 4.30140 4.15119
# Velocity P-wave (km/s) = 6.90978 7.62905 7.27830
#
# Compressibility (1/GPa) = 0.01805259
#
# Stress axis : x y z
#
# Youngs Moduli (GPa) = 64.24582 144.90278 76.70823
#
# Poissons Ratio (x) = 0.46685 0.23969
# Poissons Ratio (y) = 0.20699 0.18245
# Poissons Ratio (z) = 0.20075 0.34466
#
# Static dielectric constant tensor:
#      x y z
#    x 3.772010 -0.307290 0.271960 
#    y -0.307290 5.013110 0.291020 
#    z 0.271960 0.291020 3.489560 
# 
# 
# High freq. dielectric constant tensor:
#      x y z
#    x 1.808280 -0.010620 0.013660 
#    y -0.010620 1.844960 0.008630 
#    z 0.013660 0.008630 1.805870 
# 
# From -- ./inp_files/157138.got.cif
#   From: 2010.06.25/outbox.cif.g09.slc.cpg/sg2_79_cif.got.tgz:157138.got - 2010.06.27 13:26:56.
