data_PCOD8001966
_publ_section_title
;
Structure prediction by ZEFSAII (Michael W. Deem and Ramdas Pophale) SiO2 
 PCOD8001966
Probable space group: P -1
;
_chemical_formula_sum "Si O2"
_cell_formula_units_Z 16
_cell_length_a 9.262080
_cell_length_b 14.599931
_cell_length_c 11.327763
_cell_angle_alpha 95.573632
_cell_angle_beta 52.480839
_cell_angle_gamma 129.232686
_cell_volume 831.216634
_symmetry_space_group_name_H-M "P -1"
_symmetry_group_IT_number 2
_symmetry_cell_setting 'triclinic'
loop_
_space_group_symop_operation_xyz
x,y,z
-x,-y,-z
loop_
_atom_site_type_symbol
_atom_site_label
_atom_site_fract_x
_atom_site_fract_y
_atom_site_fract_z
Si Si1 0.560965 0.875545 0.320692
Si Si2 0.277892 0.023495 0.213135
Si Si3 0.052668 0.127541 0.241420
Si Si4 0.093290 0.820738 0.461496
Si Si5 0.256853 0.592932 0.460853
Si Si6 0.850007 0.175938 0.937426
Si Si7 0.800539 0.594691 0.390364
Si Si8 0.249236 0.225467 0.905814
O O1 0.386704 0.883279 0.332648
O O2 0.353105 0.729952 0.471694
O O3 0.748645 0.883239 0.141784
O O4 0.752394 0.995249 0.333264
O O5 0.183957 0.090937 0.239569
O O6 0.122651 0.928478 0.392420
O O7 0.215915 0.935848 0.122969
O O8 0.590387 0.136513 0.099979
O O9 0.031376 0.205127 0.351649
O O10 0.239918 0.228107 0.052689
O O11 0.894794 0.682047 0.472113
O O12 0.186348 0.509226 0.602018
O O13 0.488761 0.633333 0.266887
O O14 0.000000 0.500000 0.500000
O O15 0.026842 0.314723 0.796642
O O16 0.994694 0.187685 0.981196
O O17 0.500000 0.500000 0.500000
#
# Coordination Sequence:
#
# PCOD8001966 Si02
#       8
#     2   2   2   2   2   2   2   2
#     4  10  21  37  62  87 117 155 194 242 283 346
#     4  10  22  35  56  86 119 151 193 242 292 341
#     4  12  23  38  59  89 124 153 188 243 305 343
#     4  11  24  39  59  89 122 154 188 242 301 355
#     4  10  20  35  61  88 114 145 204 243 274 336
#     4  10  20  34  61  88 111 150 202 247 276 334
#     4  11  20  39  63  85 114 154 201 240 286 342
#     4  10  21  36  60  88 113 153 200 242 281 340
#
# _framework density 19.248892999999999
#
# number of rings (size 3 to 8) (size 9 to 14) (size 15 to 20)
#    0.750    0.750    3.750    1.875    8.750    0.000 
#    0.000    0.625    0.000    0.750    0.000    0.000 
#    0.000    0.000    0.000    0.000    0.000    0.000 
#
# Total GULP energy -198304.130550 kJ/mol
# GULP energy per Si atom -12394.008159 kJ/mol
# Density = 1.920508 g / cm^3
# Si number density = 19.248893 Si / 1000 Ang^3
#
#
#
# Elastic Constant Matrix: (Units=GPa)
#
#
# Indices 1 2 3 4 5 6 
#
# 1 129.7983 15.7634 25.1176 -3.0112 -8.3978 1.2117
# 2 15.7634 46.3929 19.0173 -6.6435 -1.4314 7.2931
# 3 25.1176 19.0173 61.6554 -0.7976 2.8294 5.6811
# 4 -3.0112 -6.6435 -0.7976 26.0475 8.3753 2.6603
# 5 -8.3978 -1.4314 2.8294 8.3753 35.3479 -13.2363
# 6 1.2117 7.2931 5.6811 2.6603 -13.2363 29.2041
#
#
#
# Elastic Compliance Matrix: (Units=1/GPa)
#
#
# Indices 1 2 3 4 5 6 
#
# 1 0.008772 -0.002021 -0.003341 -0.000943 0.003398 0.002417
# 2 -0.002021 0.027304 -0.006572 0.008593 -0.003879 -0.007997
# 3 -0.003341 -0.006572 0.020191 0.000364 -0.004311 -0.004135
# 4 -0.000943 0.008593 0.000364 0.047124 -0.016252 -0.013836
# 5 0.003398 -0.003879 -0.004311 -0.016252 0.041329 0.021878
# 6 0.002417 -0.007997 -0.004135 -0.013836 0.021878 0.048119
#
#
# Mechanical properties :
#
#
# Convention : Reuss Voigt Hill
#
# Bulk Modulus (GPa) = 30.86625 39.73814 35.30220
# Shear Modulus (GPa) = 21.97744 29.98313 25.98029
#
# Velocity S-wave (km/s) = 3.38265 3.95100 3.67782
# Velocity P-wave (km/s) = 5.59701 6.44228 6.03447
#
# Compressibility (1/GPa) = 0.03239785
#
# Stress axis : x y z
#
# Youngs Moduli (GPa) = 114.00415 36.62490 49.52725
#
# Poissons Ratio (x) = 0.07402 0.16546
# Poissons Ratio (y) = 0.23041 0.32551
# Poissons Ratio (z) = 0.38087 0.24071
#
# Static dielectric constant tensor:
#      x y z
#    x 3.716560 -0.005280 -0.024040 
#    y -0.005280 3.264940 -0.245700 
#    z -0.024040 -0.245700 3.391080 
# 
# 
# High freq. dielectric constant tensor:
#      x y z
#    x 1.773140 -0.000400 -0.002820 
#    y -0.000400 1.716780 -0.026430 
#    z -0.002820 -0.026430 1.734450 
# 
# From -- ./inp_files/399179.got.cif
#   From: 2010.06.25/outbox.cif.g09.slc.cpg/sg2_200_cif.got.tgz:399179.got - 2010.06.27 13:26:56.
