data_PCOD8001292
_publ_section_title
;
Structure prediction by ZEFSAII (Michael W. Deem and Ramdas Pophale) SiO2 
 PCOD8001292
Probable space group: P -1
;
_chemical_formula_sum "Si O2"
_cell_formula_units_Z 16
_cell_length_a 12.484980
_cell_length_b 10.508098
_cell_length_c 8.743852
_cell_angle_alpha 64.519258
_cell_angle_beta 135.580541
_cell_angle_gamma 107.837770
_cell_volume 724.789356
_symmetry_space_group_name_H-M "P -1"
_symmetry_group_IT_number 2
_symmetry_cell_setting 'triclinic'
loop_
_space_group_symop_operation_xyz
x,y,z
-x,-y,-z
loop_
_atom_site_type_symbol
_atom_site_label
_atom_site_fract_x
_atom_site_fract_y
_atom_site_fract_z
Si Si1 0.306689 0.728211 0.857820
Si Si2 0.480994 0.793559 0.490425
Si Si3 0.965997 0.168149 0.271849
Si Si4 0.125127 0.132206 0.743991
Si Si5 0.931235 0.362051 0.573151
Si Si6 0.523953 0.914870 0.799784
Si Si7 0.164061 0.637141 0.187198
Si Si8 0.357943 0.476754 0.260626
O O1 0.192653 0.811615 0.808521
O O2 0.227919 0.677672 0.647220
O O3 0.439178 0.839560 0.893433
O O4 0.370723 0.587053 0.076430
O O5 0.465146 0.849393 0.616181
O O6 0.319175 0.727134 0.312675
O O7 0.624813 0.684500 0.694758
O O8 0.513630 0.918167 0.336275
O O9 0.106128 0.196893 0.518627
O O10 0.971945 0.012453 0.285658
O O11 0.969990 0.276582 0.079747
O O12 0.050074 0.233204 0.742983
O O13 0.297265 0.108074 0.980707
O O14 0.903241 0.404546 0.697456
O O15 0.000000 0.500000 0.500000
O O16 0.203137 0.501019 0.190408
O O17 0.500000 0.500000 0.500000
#
# Coordination Sequence:
#
# PCOD8001292 Si02
#       8
#     2   2   2   2   2   2   2   2
#     4  10  22  42  69  92 134 171 214 272 325 379
#     4  10  21  39  65 103 133 164 217 268 333 379
#     4   9  20  43  65  93 130 170 215 263 320 390
#     4  10  22  40  64  94 131 169 215 260 321 385
#     4  11  25  43  65  95 126 172 222 265 321 392
#     4  11  22  39  67 103 133 167 214 276 317 393
#     4  10  19  44  68  89 128 174 213 273 318 383
#     4   9  21  40  64  95 129 172 209 266 330 381
#
# _framework density 22.075381
#
# number of rings (size 3 to 8) (size 9 to 14) (size 15 to 20)
#    0.000    2.000    2.500    0.000    1.750    3.500 
#    2.250    8.125    0.000    0.000    0.000    0.000 
#    0.000    0.000    0.000    0.000    0.000    0.000 
#
# Total GULP energy -198337.309360 kJ/mol
# GULP energy per Si atom -12396.081835 kJ/mol
# Density = 2.202514 g / cm^3
# Si number density = 22.075381 Si / 1000 Ang^3
#
#
#
# Elastic Constant Matrix: (Units=GPa)
#
#
# Indices 1 2 3 4 5 6 
#
# 1 90.8785 46.7394 29.4370 -32.5009 -25.8256 1.8183
# 2 46.7394 88.6707 26.4253 -35.8673 3.8847 -4.8600
# 3 29.4370 26.4253 125.0796 -31.8269 -8.5047 5.4757
# 4 -32.5009 -35.8673 -31.8269 44.3402 -0.5570 5.9250
# 5 -25.8256 3.8847 -8.5047 -0.5570 30.9770 -5.1468
# 6 1.8183 -4.8600 5.4757 5.9250 -5.1468 25.5828
#
#
#
# Elastic Compliance Matrix: (Units=1/GPa)
#
#
# Indices 1 2 3 4 5 6 
#
# 1 0.028217 -0.011122 0.000778 0.012857 0.024993 -0.002234
# 2 -0.011122 0.021264 -0.000567 0.008409 -0.011840 0.000622
# 3 0.000778 -0.000567 0.010354 0.008066 0.003105 -0.003623
# 4 0.012857 0.008409 0.008066 0.045971 0.011135 -0.009449
# 5 0.024993 -0.011840 0.003105 0.011135 0.056332 0.004064
# 6 -0.002234 0.000622 -0.003623 -0.009449 0.004064 0.043147
#
#
# Mechanical properties :
#
#
# Convention : Reuss Voigt Hill
#
# Bulk Modulus (GPa) = 26.30849 56.64802 41.47826
# Shear Modulus (GPa) = 20.85259 33.64845 27.25052
#
# Velocity S-wave (km/s) = 3.07678 3.90840 3.51726
# Velocity P-wave (km/s) = 4.95637 6.78855 5.94348
#
# Compressibility (1/GPa) = 0.03801054
#
# Stress axis : x y z
#
# Youngs Moduli (GPa) = 35.43954 47.02872 96.58174
#
# Poissons Ratio (x) = 0.52306 -0.07510
# Poissons Ratio (y) = 0.39417 0.05480
# Poissons Ratio (z) = -0.02756 0.02668
#
# Static dielectric constant tensor:
#      x y z
#    x 3.873120 -0.355980 0.041670 
#    y -0.355980 3.805130 -0.174410 
#    z 0.041670 -0.174410 4.461770 
# 
# 
# High freq. dielectric constant tensor:
#      x y z
#    x 1.843690 -0.017100 -0.004940 
#    y -0.017100 1.870890 -0.003730 
#    z -0.004940 -0.003730 1.890010 
# 
# From -- ./inp_files/262171.got.cif
#   From: 2010.06.25/outbox.cif.g09.slc.cpg/sg2_132_cif.got.tgz:262171.got - 2010.06.27 13:26:56.
