data_PCOD8001490
_publ_section_title
;
Structure prediction by ZEFSAII (Michael W. Deem and Ramdas Pophale) SiO2 
 PCOD8001490
Probable space group: P -1
;
_chemical_formula_sum "Si O2"
_cell_formula_units_Z 16
_cell_length_a 6.398363
_cell_length_b 8.717201
_cell_length_c 24.506358
_cell_angle_alpha 49.264804
_cell_angle_beta 64.068855
_cell_angle_gamma 51.409797
_cell_volume 808.487749
_symmetry_space_group_name_H-M "P -1"
_symmetry_group_IT_number 2
_symmetry_cell_setting 'triclinic'
loop_
_space_group_symop_operation_xyz
x,y,z
-x,-y,-z
loop_
_atom_site_type_symbol
_atom_site_label
_atom_site_fract_x
_atom_site_fract_y
_atom_site_fract_z
Si Si1 0.573169 0.087455 0.025515
Si Si2 0.054744 0.966741 0.279546
Si Si3 0.838210 0.480598 0.223594
Si Si4 0.604511 0.576471 0.341690
Si Si5 0.822287 0.642645 0.412963
Si Si6 0.272511 0.898437 0.154550
Si Si7 0.118721 0.738313 0.102019
Si Si8 0.378696 0.259953 0.473386
O O1 0.340367 0.112289 0.088116
O O2 0.613660 0.309571 0.952806
O O3 0.858121 0.900349 0.059417
O O4 0.500000 0.000000 0.000000
O O5 0.723335 0.582649 0.383942
O O6 0.352695 0.831635 0.300987
O O7 0.070712 0.965446 0.212372
O O8 0.898811 0.227328 0.258540
O O9 0.818914 0.510536 0.284264
O O10 0.555023 0.662026 0.186568
O O11 0.092981 0.509967 0.169879
O O12 0.527012 0.375026 0.398316
O O13 0.891910 0.844356 0.346688
O O14 0.596288 0.733056 0.465162
O O15 0.067717 0.398889 0.461151
O O16 0.119509 0.865346 0.128652
O O17 0.500000 0.000000 0.500000
#
# Coordination Sequence:
#
# PCOD8001490 Si02
#       8
#     2   2   2   2   2   2   2   2
#     4   8  15  29  52  76 100 133 169 208 253 297
#     4  10  21  35  51  75 105 133 166 209 251 296
#     4  10  20  33  51  76 102 131 170 210 249 298
#     4  10  21  36  54  76 102 134 169 205 251 302
#     4  10  21  36  53  75 103 134 168 206 251 301
#     4   9  18  33  51  73 102 133 167 208 252 299
#     4   9  16  30  53  75  99 135 171 205 252 301
#     4  10  21  36  54  77 103 131 167 210 251 296
#
# _framework density 19.790035
#
# number of rings (size 3 to 8) (size 9 to 14) (size 15 to 20)
#    0.000    2.500    0.000    1.875    0.000    2.500 
#    0.000    0.625    0.000   25.500    0.000    0.000 
#    0.000    0.000    0.000    0.000    0.000    0.000 
#
# Total GULP energy -198223.808757 kJ/mol
# GULP energy per Si atom -12388.988047 kJ/mol
# Density = 1.974499 g / cm^3
# Si number density = 19.790035 Si / 1000 Ang^3
#
#
#
# Elastic Constant Matrix: (Units=GPa)
#
#
# Indices 1 2 3 4 5 6 
#
# 1 84.4330 25.4615 22.0455 -1.4210 20.4199 10.8321
# 2 25.4615 87.6156 37.6464 -5.8042 1.6584 11.8553
# 3 22.0455 37.6464 106.9021 8.5378 1.4592 -0.9715
# 4 -1.4210 -5.8042 8.5378 13.3473 7.6112 -3.1595
# 5 20.4199 1.6584 1.4592 7.6112 35.6931 9.5312
# 6 10.8321 11.8553 -0.9715 -3.1595 9.5312 13.0406
#
#
#
# Elastic Compliance Matrix: (Units=1/GPa)
#
#
# Indices 1 2 3 4 5 6 
#
# 1 0.016221 -0.002414 -0.003004 0.007861 -0.010136 -0.002190
# 2 -0.002414 0.017143 -0.006151 0.005212 0.003897 -0.015623
# 3 -0.003004 -0.006151 0.013107 -0.012178 0.003023 0.003903
# 4 0.007861 0.005212 -0.012178 0.122230 -0.043441 0.049189
# 5 -0.010136 0.003897 0.003023 -0.043441 0.054946 -0.045581
# 6 -0.002190 -0.015623 0.003903 0.049189 -0.045581 0.138229
#
#
# Mechanical properties :
#
#
# Convention : Reuss Voigt Hill
#
# Bulk Modulus (GPa) = 42.85822 49.91751 46.38787
# Shear Modulus (GPa) = 12.72938 25.33602 19.03270
#
# Velocity S-wave (km/s) = 2.53893 3.58193 3.10454
# Velocity P-wave (km/s) = 5.50440 6.51040 6.02842
#
# Compressibility (1/GPa) = 0.02333274
#
# Stress axis : x y z
#
# Youngs Moduli (GPa) = 61.64940 58.33134 76.29631
#
# Poissons Ratio (x) = 0.14081 0.22921
# Poissons Ratio (y) = 0.14882 0.46928
# Poissons Ratio (z) = 0.18521 0.35879
#
# Static dielectric constant tensor:
#      x y z
#    x 3.721840 -0.064830 -0.246120 
#    y -0.064830 3.185520 0.242860 
#    z -0.246120 0.242860 4.525820 
# 
# 
# High freq. dielectric constant tensor:
#      x y z
#    x 1.776500 0.007380 -0.003180 
#    y 0.007380 1.722830 0.011710 
#    z -0.003180 0.011710 1.809180 
# 
# From -- ./inp_files/615241.got.cif
#   From: 2010.06.25/outbox.cif.g09.slc.cpg/sg2_308_cif.got.tgz:615241.got - 2010.06.27 13:26:56.
