data_PCOD8001964
_publ_section_title
;
Structure prediction by ZEFSAII (Michael W. Deem and Ramdas Pophale) SiO2 
 PCOD8001964
Probable space group: P -1
;
_chemical_formula_sum "Si O2"
_cell_formula_units_Z 16
_cell_length_a 12.114805
_cell_length_b 8.693208
_cell_length_c 14.482555
_cell_angle_alpha 39.914391
_cell_angle_beta 58.129431
_cell_angle_gamma 63.360103
_cell_volume 828.485054
_symmetry_space_group_name_H-M "P -1"
_symmetry_group_IT_number 2
_symmetry_cell_setting 'triclinic'
loop_
_space_group_symop_operation_xyz
x,y,z
-x,-y,-z
loop_
_atom_site_type_symbol
_atom_site_label
_atom_site_fract_x
_atom_site_fract_y
_atom_site_fract_z
Si Si1 0.415502 0.069371 0.594000
Si Si2 0.236522 0.488722 0.146596
Si Si3 0.271247 0.331680 0.855662
Si Si4 0.384758 0.805307 0.062814
Si Si5 0.448996 0.603145 0.326495
Si Si6 0.783628 0.296039 0.130189
Si Si7 0.420141 0.049021 0.243412
Si Si8 0.993450 0.743226 0.074767
O O1 0.381974 0.355954 0.480410
O O2 0.500000 0.000000 0.500000
O O3 0.280316 0.945564 0.699717
O O4 0.490813 0.977070 0.694041
O O5 0.288345 0.616289 0.155073
O O6 0.286791 0.207714 0.254367
O O7 0.291314 0.607886 0.974254
O O8 0.078016 0.535928 0.192683
O O9 0.395629 0.431133 0.702941
O O10 0.227745 0.500305 0.881766
O O11 0.153358 0.330750 0.834703
O O12 0.304555 0.059257 0.000865
O O13 0.444544 0.704142 0.178187
O O14 0.501329 0.827870 0.928857
O O15 0.380073 0.790984 0.343395
O O16 0.937352 0.237553 0.065708
O O17 0.000000 0.000000 0.000000
#
# Coordination Sequence:
#
# PCOD8001964 Si02
#       8
#     2   2   2   2   2   2   2   2
#     4  12  23  39  58  88 131 162 194 239 310 375
#     4  10  20  34  61  86 117 153 195 255 292 344
#     4  11  19  37  58  90 117 156 197 253 289 357
#     4  11  20  36  62  89 125 148 203 252 303 353
#     4  11  24  36  61  94 125 157 195 247 312 363
#     4  10  21  36  58  89 119 158 199 243 303 347
#     4  11  21  37  57  89 122 155 201 248 302 354
#     4  10  21  38  59  90 115 156 209 250 294 343
#
# _framework density 19.312358
#
# number of rings (size 3 to 8) (size 9 to 14) (size 15 to 20)
#    0.750    0.500    3.750    4.875    1.750    0.000 
#    0.000    0.000    0.000    1.500    0.000    0.000 
#    0.000    0.000    0.000    0.000    0.000    0.000 
#
# Total GULP energy -198316.993212 kJ/mol
# GULP energy per Si atom -12394.812076 kJ/mol
# Density = 1.926840 g / cm^3
# Si number density = 19.312358 Si / 1000 Ang^3
#
#
#
# Elastic Constant Matrix: (Units=GPa)
#
#
# Indices 1 2 3 4 5 6 
#
# 1 98.5575 44.3562 18.5894 -15.8771 1.4786 4.7662
# 2 44.3562 129.7711 27.6763 -29.7435 -2.2770 7.2246
# 3 18.5894 27.6763 47.4269 -14.5973 0.1291 0.4883
# 4 -15.8771 -29.7435 -14.5973 28.6061 5.0807 5.2399
# 5 1.4786 -2.2770 0.1291 5.0807 23.9278 -3.7626
# 6 4.7662 7.2246 0.4883 5.2399 -3.7626 32.7551
#
#
#
# Elastic Compliance Matrix: (Units=1/GPa)
#
#
# Indices 1 2 3 4 5 6 
#
# 1 0.012574 -0.002965 -0.002073 0.003573 -0.002115 -0.001959
# 2 -0.002965 0.011823 -0.002502 0.010365 -0.001503 -0.003970
# 3 -0.002073 -0.002502 0.026651 0.010622 -0.002755 -0.001559
# 4 0.003573 0.010365 0.010622 0.058128 -0.013812 -0.013850
# 5 -0.002115 -0.001503 -0.002755 -0.013812 0.046013 0.008176
# 6 -0.001959 -0.003970 -0.001559 -0.013850 0.008176 0.034868
#
#
# Mechanical properties :
#
#
# Convention : Reuss Voigt Hill
#
# Bulk Modulus (GPa) = 27.80245 50.77770 39.29007
# Shear Modulus (GPa) = 23.02809 29.40004 26.21407
#
# Velocity S-wave (km/s) = 3.45686 3.90596 3.68825
# Velocity P-wave (km/s) = 5.51005 6.83315 6.20695
#
# Compressibility (1/GPa) = 0.03596805
#
# Stress axis : x y z
#
# Youngs Moduli (GPa) = 79.53138 84.57932 37.52262
#
# Poissons Ratio (x) = 0.25076 0.07777
# Poissons Ratio (y) = 0.23580 0.09389
# Poissons Ratio (z) = 0.16484 0.21164
#
# Static dielectric constant tensor:
#      x y z
#    x 3.511510 0.100280 0.071830 
#    y 0.100280 3.854040 -0.150760 
#    z 0.071830 -0.150760 3.267890 
# 
# 
# High freq. dielectric constant tensor:
#      x y z
#    x 1.739320 0.016600 0.008150 
#    y 0.016600 1.774940 -0.013840 
#    z 0.008150 -0.013840 1.713950 
# 
# From -- ./inp_files/513929.got.cif
#   From: 2010.06.25/outbox.cif.g09.slc.cpg/sg2_257_cif.got.tgz:513929.got - 2010.06.27 13:26:56.
