data_PCOD8001842
_publ_section_title
;
Structure prediction by ZEFSAII (Michael W. Deem and Ramdas Pophale) SiO2 
 PCOD8001842
Probable space group: P -1
;
_chemical_formula_sum "Si O2"
_cell_formula_units_Z 14
_cell_length_a 5.230375
_cell_length_b 12.007252
_cell_length_c 25.432678
_cell_angle_alpha 32.757529
_cell_angle_beta 46.217804
_cell_angle_gamma 55.743246
_cell_volume 623.222601
_symmetry_space_group_name_H-M "P -1"
_symmetry_group_IT_number 2
_symmetry_cell_setting 'triclinic'
loop_
_space_group_symop_operation_xyz
x,y,z
-x,-y,-z
loop_
_atom_site_type_symbol
_atom_site_label
_atom_site_fract_x
_atom_site_fract_y
_atom_site_fract_z
Si Si1 0.090978 0.941458 0.585829
Si Si2 0.967836 0.668508 0.611345
Si Si3 0.156730 0.237502 0.767011
Si Si4 0.753803 0.997767 0.836199
Si Si5 0.212747 0.805768 0.061755
Si Si6 0.819829 0.418188 0.219930
Si Si7 0.880717 0.597104 0.924732
O O1 0.014366 0.807063 0.702731
O O2 0.966257 0.790703 0.617059
O O3 0.500000 0.000000 0.500000
O O4 0.912487 0.165051 0.517871
O O5 0.564538 0.573368 0.701469
O O6 0.233586 0.481239 0.647245
O O7 0.486599 0.151466 0.785759
O O8 0.080404 0.126596 0.765982
O O9 0.803700 0.217553 0.863031
O O10 0.878443 0.844440 0.834238
O O11 0.599660 0.853728 0.963270
O O12 0.059219 0.597502 0.140555
O O13 0.000000 0.000000 0.000000
O O14 0.828587 0.446431 0.144386
O O15 0.500000 0.500000 0.000000
O O16 0.000000 0.500000 0.000000
#
# Coordination Sequence:
#
# PCOD8001842 Si02
#       7
#     2   2   2   2   2   2   2
#     4   9  20  37  60  94 123 151 204 264 332 376
#     4  10  20  36  64  97 119 156 203 267 333 369
#     4  11  22  38  62  87 127 161 202 263 317 367
#     4  11  24  40  56  89 125 174 212 244 298 372
#     4  10  20  34  57  87 124 160 200 249 306 370
#     4  11  22  39  62  91 129 167 207 259 314 365
#     4  12  27  43  63  86 131 179 219 249 286 371
#
# _framework density 22.463882999999999
#
# number of rings (size 3 to 8) (size 9 to 14) (size 15 to 20)
#    0.000    1.429    2.857    3.000    8.000    0.000 
#    0.000    0.000    0.000    1.714    0.000    0.000 
#    0.000    0.000    0.000    0.000    0.000    0.000 
#
# Total GULP energy -173457.549032 kJ/mol
# GULP energy per Si atom -12389.824931 kJ/mol
# Density = 2.241275 g / cm^3
# Si number density = 22.463883 Si / 1000 Ang^3
#
#
#
# Elastic Constant Matrix: (Units=GPa)
#
#
# Indices 1 2 3 4 5 6 
#
# 1 101.5220 14.1806 37.2111 -15.6769 20.3594 16.1843
# 2 14.1806 72.7074 28.1033 -21.7379 6.9800 13.6323
# 3 37.2111 28.1033 118.5502 -35.9703 31.2816 2.6942
# 4 -15.6769 -21.7379 -35.9703 35.8913 -5.0089 1.9586
# 5 20.3594 6.9800 31.2816 -5.0089 37.5860 -6.8997
# 6 16.1843 13.6323 2.6942 1.9586 -6.8997 26.2335
#
#
#
# Elastic Compliance Matrix: (Units=1/GPa)
#
#
# Indices 1 2 3 4 5 6 
#
# 1 0.014880 0.002974 -0.000114 0.007541 -0.010068 -0.013925
# 2 0.002974 0.020853 0.000760 0.014562 -0.007056 -0.015692
# 3 -0.000114 0.000760 0.016621 0.015608 -0.013049 -0.006629
# 4 0.007541 0.014562 0.015608 0.054516 -0.016600 -0.022259
# 5 -0.010068 -0.007056 -0.013049 -0.016600 0.046552 0.024701
# 6 -0.013925 -0.015692 -0.006629 -0.022259 0.024701 0.063704
#
#
# Mechanical properties :
#
#
# Convention : Reuss Voigt Hill
#
# Bulk Modulus (GPa) = 16.78044 50.19664 33.48854
# Shear Modulus (GPa) = 21.76270 34.16114 27.96192
#
# Velocity S-wave (km/s) = 3.11591 3.90386 3.53193
# Velocity P-wave (km/s) = 4.52011 6.53561 5.61897
#
# Compressibility (1/GPa) = 0.05959319
#
# Stress axis : x y z
#
# Youngs Moduli (GPa) = 67.20417 47.95384 60.16631
#
# Poissons Ratio (x) = -0.14261 0.00688
# Poissons Ratio (y) = -0.19986 -0.04573
# Poissons Ratio (z) = 0.00769 -0.03645
#
# Static dielectric constant tensor:
#      x y z
#    x 3.871260 0.121870 0.632520 
#    y 0.121870 3.919410 -0.350030 
#    z 0.632520 -0.350030 4.612390 
# 
# 
# High freq. dielectric constant tensor:
#      x y z
#    x 1.890400 0.014450 0.018040 
#    y 0.014450 1.847460 -0.043030 
#    z 0.018040 -0.043030 1.889020 
# 
# From -- ./inp_files/66947.got.cif
#   From: 2010.06.25/outbox.cif.g09.slc.cpg/sg2_34_cif.got.tgz:66947.got - 2010.06.27 13:26:56.
