data_PCOD8001837
_publ_section_title
;
Structure prediction by ZEFSAII (Michael W. Deem and Ramdas Pophale) SiO2 
 PCOD8001837
Probable space group: P -1
;
_chemical_formula_sum "Si O2"
_cell_formula_units_Z 16
_cell_length_a 12.900568
_cell_length_b 9.594587
_cell_length_c 11.037692
_cell_angle_alpha 119.454534
_cell_angle_beta 103.722107
_cell_angle_gamma 41.685022
_cell_volume 770.933619
_symmetry_space_group_name_H-M "P -1"
_symmetry_group_IT_number 2
_symmetry_cell_setting 'triclinic'
loop_
_space_group_symop_operation_xyz
x,y,z
-x,-y,-z
loop_
_atom_site_type_symbol
_atom_site_label
_atom_site_fract_x
_atom_site_fract_y
_atom_site_fract_z
Si Si1 0.539458 0.218129 0.129525
Si Si2 0.651815 0.352701 0.895032
Si Si3 0.123504 0.378082 0.653175
Si Si4 0.860305 0.319378 0.121876
Si Si5 0.964220 0.413015 0.847431
Si Si6 0.116872 0.011104 0.880189
Si Si7 0.630175 0.848419 0.822647
Si Si8 0.213105 0.145615 0.336787
O O1 0.407425 0.500925 0.184152
O O2 0.486665 0.176937 0.217608
O O3 0.712837 0.099557 0.144589
O O4 0.539729 0.099256 0.963835
O O5 0.730845 0.096094 0.775367
O O6 0.500000 0.500000 0.000000
O O7 0.773611 0.330113 0.990693
O O8 0.222173 0.420337 0.753162
O O9 0.228770 0.166592 0.493257
O O10 0.077435 0.309860 0.718539
O O11 0.970060 0.633166 0.658435
O O12 0.866046 0.200143 0.192478
O O13 0.040247 0.156568 0.049996
O O14 0.780873 0.632406 0.854999
O O15 0.001979 0.192626 0.815055
O O16 0.000000 0.500000 0.000000
O O17 0.679515 0.842065 0.698137
#
# Coordination Sequence:
#
# PCOD8001837 Si02
#       8
#     2   2   2   2   2   2   2   2
#     4  11  21  34  56  88 118 158 197 251 300 347
#     4  12  22  37  62  89 124 156 202 252 297 358
#     4  10  22  38  67  89 122 159 201 251 300 355
#     4  11  21  36  61  92 116 157 203 251 295 350
#     4  11  19  35  58  92 119 151 201 257 292 348
#     4  11  20  34  57  88 121 146 205 254 292 343
#     4  10  20  34  57  86 119 154 198 247 300 356
#     4  10  21  43  60  91 123 160 200 247 305 360
#
# _framework density 20.754055999999999
#
# number of rings (size 3 to 8) (size 9 to 14) (size 15 to 20)
#    0.000    1.250    5.000    3.000    0.000    0.000 
#    0.000    1.875    0.000    6.750    0.000    0.000 
#    0.000    0.000    0.000    0.000    0.000    0.000 
#
# Total GULP energy -198323.220926 kJ/mol
# GULP energy per Si atom -12395.201308 kJ/mol
# Density = 2.070682 g / cm^3
# Si number density = 20.754056 Si / 1000 Ang^3
#
#
#
# Elastic Constant Matrix: (Units=GPa)
#
#
# Indices 1 2 3 4 5 6 
#
# 1 125.4888 34.9361 46.9786 0.0889 -12.5188 14.7766
# 2 34.9361 93.3315 24.0279 4.4214 -3.6717 17.7248
# 3 46.9786 24.0279 109.4702 3.8105 -7.9381 7.0442
# 4 0.0889 4.4214 3.8105 21.2067 6.7151 -3.2935
# 5 -12.5188 -3.6717 -7.9381 6.7151 26.6463 -3.2290
# 6 14.7766 17.7248 7.0442 -3.2935 -3.2290 30.3007
#
#
#
# Elastic Compliance Matrix: (Units=1/GPa)
#
#
# Indices 1 2 3 4 5 6 
#
# 1 0.010634 -0.002403 -0.003611 -0.000367 0.003364 -0.002622
# 2 -0.002403 0.013428 -0.001319 -0.003742 0.000455 -0.006734
# 3 -0.003611 -0.001319 0.011213 -0.002392 0.002051 -0.000116
# 4 -0.000367 -0.003742 -0.002392 0.053969 -0.014118 0.007286
# 5 0.003364 0.000455 0.002051 -0.014118 0.043427 0.000709
# 6 -0.002622 -0.006734 -0.000116 0.007286 0.000709 0.039115
#
#
# Mechanical properties :
#
#
# Convention : Reuss Voigt Hill
#
# Bulk Modulus (GPa) = 48.52263 60.01952 54.27107
# Shear Modulus (GPa) = 25.86348 30.45393 28.15870
#
# Velocity S-wave (km/s) = 3.53397 3.83479 3.68745
# Velocity P-wave (km/s) = 6.33108 6.97063 6.65853
#
# Compressibility (1/GPa) = 0.02060894
#
# Stress axis : x y z
#
# Youngs Moduli (GPa) = 94.03555 74.47160 89.17863
#
# Poissons Ratio (x) = 0.17898 0.32199
# Poissons Ratio (y) = 0.22600 0.11765
# Poissons Ratio (z) = 0.33953 0.09825
#
# Static dielectric constant tensor:
#      x y z
#    x 4.096570 0.170050 -0.134830 
#    y 0.170050 4.139290 0.126490 
#    z -0.134830 0.126490 3.529570 
# 
# 
# High freq. dielectric constant tensor:
#      x y z
#    x 1.826630 0.015530 -0.013660 
#    y 0.015530 1.818760 0.005610 
#    z -0.013660 0.005610 1.758320 
# 
# From -- ./inp_files/418158.got.cif
#   From: 2010.06.25/outbox.cif.g09.slc.cpg/sg2_210_cif.got.tgz:418158.got - 2010.06.27 13:26:56.
