data_PCOD8001908
_publ_section_title
;
Structure prediction by ZEFSAII (Michael W. Deem and Ramdas Pophale) SiO2 
 PCOD8001908
Probable space group: P -1
;
_chemical_formula_sum "Si O2"
_cell_formula_units_Z 16
_cell_length_a 15.254821
_cell_length_b 9.322327
_cell_length_c 12.528887
_cell_angle_alpha 142.751016
_cell_angle_beta 128.222135
_cell_angle_gamma 69.740199
_cell_volume 806.197321
_symmetry_space_group_name_H-M "P -1"
_symmetry_group_IT_number 2
_symmetry_cell_setting 'triclinic'
loop_
_space_group_symop_operation_xyz
x,y,z
-x,-y,-z
loop_
_atom_site_type_symbol
_atom_site_label
_atom_site_fract_x
_atom_site_fract_y
_atom_site_fract_z
Si Si1 0.671166 0.514225 0.488335
Si Si2 0.272038 0.977801 0.056514
Si Si3 0.054201 0.179803 0.549040
Si Si4 0.925216 0.593102 0.707473
Si Si5 0.026328 0.985325 0.838446
Si Si6 0.310617 0.498936 0.901578
Si Si7 0.500329 0.942688 0.842958
Si Si8 0.473101 0.532542 0.859541
O O1 0.787153 0.435796 0.503188
O O2 0.598877 0.322198 0.411523
O O3 0.582945 0.499888 0.317054
O O4 0.715282 0.800186 0.720889
O O5 0.371365 0.068830 0.096384
O O6 0.147192 0.922115 0.872655
O O7 0.275537 0.740980 0.986930
O O8 0.195224 0.288273 0.731759
O O9 0.001452 0.408127 0.644925
O O10 0.030257 0.027207 0.328994
O O11 0.000000 0.000000 0.500000
O O12 0.945109 0.776364 0.730213
O O13 0.955953 0.745542 0.933228
O O14 0.370975 0.399413 0.788329
O O15 0.413566 0.567581 0.110513
O O16 0.500000 0.000000 0.000000
O O17 0.477629 0.171154 0.896818
#
# Coordination Sequence:
#
# PCOD8001908 Si02
#       8
#     2   2   2   2   2   2   2   2
#     4  10  20  34  59  89 114 147 193 246 305 346
#     4  10  20  36  59  84 115 151 199 247 291 358
#     4  12  26  38  64  90 125 165 199 250 316 360
#     4  10  22  40  66  94 119 158 208 252 299 365
#     4  10  22  41  65  91 120 159 209 255 295 364
#     4  10  21  39  54  84 114 154 205 234 293 367
#     4   9  19  32  55  82 111 147 186 238 290 347
#     4   9  20  36  59  80 117 153 190 247 288 354
#
# _framework density 19.846259
#
# number of rings (size 3 to 8) (size 9 to 14) (size 15 to 20)
#    0.000    2.000    1.250    1.500    7.000    2.000 
#    0.000    0.000    0.000    0.000    0.000    0.000 
#    0.000    0.000    0.000    0.000    0.000    0.000 
#
# Total GULP energy -198290.165062 kJ/mol
# GULP energy per Si atom -12393.135316 kJ/mol
# Density = 1.980109 g / cm^3
# Si number density = 19.846259 Si / 1000 Ang^3
#
#
#
# Elastic Constant Matrix: (Units=GPa)
#
#
# Indices 1 2 3 4 5 6 
#
# 1 117.1391 26.8716 37.3851 -4.9559 28.2294 7.7824
# 2 26.8716 55.4257 28.9786 -7.5274 4.7735 8.0077
# 3 37.3851 28.9786 75.3601 -7.5984 15.5309 4.0433
# 4 -4.9559 -7.5274 -7.5984 24.7221 4.0863 5.9679
# 5 28.2294 4.7735 15.5309 4.0863 42.4621 2.0426
# 6 7.7824 8.0077 4.0433 5.9679 2.0426 34.6874
#
#
#
# Elastic Compliance Matrix: (Units=1/GPa)
#
#
# Indices 1 2 3 4 5 6 
#
# 1 0.012035 -0.003143 -0.003115 0.001970 -0.006623 -0.001560
# 2 -0.003143 0.024861 -0.007518 0.005600 0.001757 -0.005225
# 3 -0.003115 -0.007518 0.018987 0.003683 -0.004376 -0.000155
# 4 0.001970 0.005600 0.003683 0.047280 -0.007362 -0.009865
# 5 -0.006623 0.001757 -0.004376 -0.007362 0.030013 0.001090
# 6 -0.001560 -0.005225 -0.000155 -0.009865 0.001090 0.032036
#
#
# Mechanical properties :
#
#
# Convention : Reuss Voigt Hill
#
# Bulk Modulus (GPa) = 35.29579 48.26617 41.78098
# Shear Modulus (GPa) = 24.72733 30.68696 27.70715
#
# Velocity S-wave (km/s) = 3.53362 3.93648 3.74048
# Velocity P-wave (km/s) = 5.87128 6.71074 6.30499
#
# Compressibility (1/GPa) = 0.02833199
#
# Stress axis : x y z
#
# Youngs Moduli (GPa) = 83.09121 40.22442 52.66764
#
# Poissons Ratio (x) = 0.12643 0.16403
# Poissons Ratio (y) = 0.26116 0.39594
# Poissons Ratio (z) = 0.25879 0.30239
#
# Static dielectric constant tensor:
#      x y z
#    x 4.356460 0.127850 0.732960 
#    y 0.127850 3.792050 0.393820 
#    z 0.732960 0.393820 4.147460 
# 
# 
# High freq. dielectric constant tensor:
#      x y z
#    x 1.788400 -0.002310 0.019670 
#    y -0.002310 1.760220 0.006530 
#    z 0.019670 0.006530 1.765290 
# 
# From -- ./inp_files/406782.got.cif
#   From: 2010.06.25/outbox.cif.g09.slc.cpg/sg2_204_cif.got.tgz:406782.got - 2010.06.27 13:26:56.
