data_PCOD8001355
_publ_section_title
;
Structure prediction by ZEFSAII (Michael W. Deem and Ramdas Pophale) SiO2 
 PCOD8001355
Probable space group: P -1
;
_chemical_formula_sum "Si O2"
_cell_formula_units_Z 16
_cell_length_a 13.328662
_cell_length_b 9.974380
_cell_length_c 23.558848
_cell_angle_alpha 121.463625
_cell_angle_beta 21.642987
_cell_angle_gamma 110.573048
_cell_volume 891.825444
_symmetry_space_group_name_H-M "P -1"
_symmetry_group_IT_number 2
_symmetry_cell_setting 'triclinic'
loop_
_space_group_symop_operation_xyz
x,y,z
-x,-y,-z
loop_
_atom_site_type_symbol
_atom_site_label
_atom_site_fract_x
_atom_site_fract_y
_atom_site_fract_z
Si Si1 0.327886 0.656619 0.430049
Si Si2 0.436309 0.282789 0.498777
Si Si3 0.336101 0.159170 0.201328
Si Si4 0.337955 0.108099 0.679679
Si Si5 0.192861 0.559125 0.599799
Si Si6 0.460365 0.209735 0.018072
Si Si7 0.950194 0.290434 0.827526
Si Si8 0.712694 0.351251 0.081652
O O1 0.426203 0.807333 0.428551
O O2 0.287620 0.556678 0.484249
O O3 0.580863 0.518473 0.227076
O O4 0.017747 0.742831 0.577055
O O5 0.359671 0.364375 0.494057
O O6 0.713069 0.310275 0.385080
O O7 0.137739 0.380188 0.716706
O O8 0.509910 0.080285 0.413608
O O9 0.385233 0.170667 0.111673
O O10 0.506952 0.245383 0.168587
O O11 0.465647 0.952655 0.099533
O O12 0.200485 0.114107 0.688958
O O13 0.050784 0.224953 0.896337
O O14 0.834977 0.626353 0.812068
O O15 0.754462 0.247633 0.874022
O O16 0.735376 0.410914 0.017330
#
# Coordination Sequence:
#
# PCOD8001355 Si02
#       8
#     2   2   2   2   2   2   2   2
#     4  11  19  33  51  76 101 136 168 201 246 297
#     4  11  20  35  49  78 102 132 164 207 259 290
#     4   9  17  28  51  75 104 126 162 214 249 290
#     4  10  20  31  54  75 100 131 168 208 245 292
#     4  10  22  32  52  73 108 131 161 207 252 305
#     4   9  17  31  49  79  98 130 164 203 260 292
#     4   9  19  31  53  75 100 130 162 215 242 294
#     4   9  19  31  49  77 101 131 168 209 242 287
#
# _framework density 17.940731
#
# number of rings (size 3 to 8) (size 9 to 14) (size 15 to 20)
#    0.750    1.500    1.250    2.625    3.500    0.500 
#    0.000    0.625    0.000    1.500    0.000   10.500 
#    0.000    0.000    0.000    0.000    0.000    0.000 
#
# Total GULP energy -198260.983006 kJ/mol
# GULP energy per Si atom -12391.311438 kJ/mol
# Density = 1.789990 g / cm^3
# Si number density = 17.940731 Si / 1000 Ang^3
#
#
#
# Elastic Constant Matrix: (Units=GPa)
#
#
# Indices 1 2 3 4 5 6 
#
# 1 43.8145 30.7888 24.1101 0.0510 -6.1536 2.8497
# 2 30.7888 82.3095 36.6657 -0.4960 -4.6843 0.6708
# 3 24.1101 36.6657 75.1427 -10.4959 -12.0819 -4.1196
# 4 0.0510 -0.4960 -10.4959 24.5565 10.5309 -4.6927
# 5 -6.1536 -4.6843 -12.0819 10.5309 27.6371 -4.5735
# 6 2.8497 0.6708 -4.1196 -4.6927 -4.5735 20.0213
#
#
#
# Elastic Compliance Matrix: (Units=1/GPa)
#
#
# Indices 1 2 3 4 5 6 
#
# 1 0.034352 -0.009502 -0.006926 -0.006328 0.004348 -0.006486
# 2 -0.009502 0.018567 -0.006593 -0.002152 -0.001266 -0.001420
# 3 -0.006926 -0.006593 0.021183 0.008540 0.004780 0.008659
# 4 -0.006328 -0.002152 0.008540 0.053653 -0.016578 0.011519
# 5 0.004348 -0.001266 0.004780 -0.016578 0.046526 0.007149
# 6 -0.006486 -0.001420 0.008659 0.011519 0.007149 0.057032
#
#
# Mechanical properties :
#
#
# Convention : Reuss Voigt Hill
#
# Bulk Modulus (GPa) = 35.63725 42.71067 39.17396
# Shear Modulus (GPa) = 17.43928 21.75643 19.59785
#
# Velocity S-wave (km/s) = 3.12115 3.48614 3.30868
# Velocity P-wave (km/s) = 5.73549 6.32949 6.03979
#
# Compressibility (1/GPa) = 0.02806053
#
# Stress axis : x y z
#
# Youngs Moduli (GPa) = 29.11052 53.85854 47.20712
#
# Poissons Ratio (x) = 0.51179 0.32694
# Poissons Ratio (y) = 0.27662 0.31123
# Poissons Ratio (z) = 0.20161 0.35508
#
# Static dielectric constant tensor:
#      x y z
#    x 3.011560 0.094790 -0.207840 
#    y 0.094790 3.134050 -0.190820 
#    z -0.207840 -0.190820 3.526030 
# 
# 
# High freq. dielectric constant tensor:
#      x y z
#    x 1.656300 0.018350 -0.018000 
#    y 0.018350 1.673580 -0.016680 
#    z -0.018000 -0.016680 1.707160 
# 
# From -- ./inp_files/619159.got.cif
#   From: 2010.06.25/outbox.cif.g09.slc.cpg/sg2_310_cif.got.tgz:619159.got - 2010.06.27 13:26:56.
