data_PCOD8001913
_publ_section_title
;
Structure prediction by ZEFSAII (Michael W. Deem and Ramdas Pophale) SiO2 
 PCOD8001913
Probable space group: P -1
;
_chemical_formula_sum "Si O2"
_cell_formula_units_Z 16
_cell_length_a 16.409430
_cell_length_b 13.368530
_cell_length_c 10.137337
_cell_angle_alpha 57.935216
_cell_angle_beta 147.254285
_cell_angle_gamma 145.620309
_cell_volume 574.047790
_symmetry_space_group_name_H-M "P -1"
_symmetry_group_IT_number 2
_symmetry_cell_setting 'triclinic'
loop_
_space_group_symop_operation_xyz
x,y,z
-x,-y,-z
loop_
_atom_site_type_symbol
_atom_site_label
_atom_site_fract_x
_atom_site_fract_y
_atom_site_fract_z
Si Si1 0.384135 0.169817 0.487994
Si Si2 0.912587 0.634883 0.064615
Si Si3 0.529572 0.490510 0.825895
Si Si4 0.900528 0.645660 0.761730
Si Si5 0.866763 0.932559 0.043100
Si Si6 0.928914 0.384376 0.223059
Si Si7 0.510991 0.244297 0.138486
Si Si8 0.667915 0.118010 0.307231
O O1 0.623554 0.403605 0.599344
O O2 0.485930 0.107670 0.729931
O O3 0.189607 0.023531 0.195974
O O4 0.182977 0.104754 0.363229
O O5 0.799196 0.430990 0.014001
O O6 0.088887 0.734023 0.364583
O O7 0.661454 0.553765 0.817180
O O8 0.045576 0.771196 0.012632
O O9 0.213435 0.316079 0.501001
O O10 0.689583 0.698213 0.971608
O O11 0.557086 0.389866 0.015667
O O12 0.084185 0.682289 0.894498
O O13 0.770535 0.940228 0.037768
O O14 0.240604 0.604394 0.528743
O O15 0.773931 0.199156 0.244871
O O16 0.489555 0.115054 0.106417
#
# Coordination Sequence:
#
# PCOD8001913 Si02
#       8
#     2   2   2   2   2   2   2   2
#     4  10  21  39  56  90 126 165 193 250 310 366
#     4  11  21  39  61  92 125 157 204 254 300 360
#     4  11  19  36  61  91 118 157 204 256 293 356
#     4  11  25  38  62  93 127 162 196 249 316 365
#     4  10  20  34  59  89 124 157 203 250 304 354
#     4  11  20  40  62  93 118 162 206 251 294 363
#     4  11  19  35  62  97 114 153 216 256 288 350
#     4  11  22  38  69  91 120 158 209 257 295 356
#
# _framework density 27.872243000000001
#
# number of rings (size 3 to 8) (size 9 to 14) (size 15 to 20)
#    0.000    1.250    6.250    1.875    1.750    0.500 
#    0.000    0.625    0.000    2.250    0.000    0.000 
#    0.000    0.000    0.000    0.000    0.000    0.000 
#
# Total GULP energy -198390.938488 kJ/mol
# GULP energy per Si atom -12399.433656 kJ/mol
# Density = 2.780880 g / cm^3
# Si number density = 27.872243 Si / 1000 Ang^3
#
#
#
# Elastic Constant Matrix: (Units=GPa)
#
#
# Indices 1 2 3 4 5 6 
#
# 1 182.0766 8.6824 22.9743 -2.4679 17.7985 42.9977
# 2 8.6824 77.0084 9.7260 -7.1183 12.9935 19.8522
# 3 22.9743 9.7260 68.4659 -20.8508 11.7708 3.6057
# 4 -2.4679 -7.1183 -20.8508 45.1766 -2.9179 1.5931
# 5 17.7985 12.9935 11.7708 -2.9179 48.8840 -1.1141
# 6 42.9977 19.8522 3.6057 1.5931 -1.1141 20.3101
#
#
#
# Elastic Compliance Matrix: (Units=1/GPa)
#
#
# Indices 1 2 3 4 5 6 
#
# 1 0.019781 0.015117 -0.002718 0.003468 -0.011660 -0.057083
# 2 0.015117 0.030726 -0.001791 0.006137 -0.014309 -0.062984
# 3 -0.002718 -0.001791 0.018368 0.007768 -0.002414 0.003503
# 4 0.003468 0.006137 0.007768 0.027250 -0.003526 -0.017051
# 5 -0.011660 -0.014309 -0.002414 -0.003526 0.029810 0.041011
# 6 -0.057083 -0.062984 0.003503 -0.017051 0.041011 0.234615
#
#
# Mechanical properties :
#
#
# Convention : Reuss Voigt Hill
#
# Bulk Modulus (GPa) = 11.10001 45.59068 28.34535
# Shear Modulus (GPa) = 13.53667 41.95205 27.74436
#
# Velocity S-wave (km/s) = 2.20618 3.88384 3.15844
# Velocity P-wave (km/s) = 3.23740 6.04192 4.84694
#
# Compressibility (1/GPa) = 0.09008998
#
# Stress axis : x y z
#
# Youngs Moduli (GPa) = 50.55241 32.54582 54.44117
#
# Poissons Ratio (x) = -0.49198 0.14799
# Poissons Ratio (y) = -0.76418 0.09751
# Poissons Ratio (z) = 0.13742 0.05830
#
# Static dielectric constant tensor:
#      x y z
#    x 5.524950 -0.264350 -0.133590 
#    y -0.264350 5.192380 -0.070310 
#    z -0.133590 -0.070310 5.800280 
# 
# 
# High freq. dielectric constant tensor:
#      x y z
#    x 2.133910 -0.010340 0.003990 
#    y -0.010340 2.139640 -0.002810 
#    z 0.003990 -0.002810 2.142350 
# 
# From -- ./inp_files/312894.got.cif
#   From: 2010.06.25/outbox.cif.g09.slc.cpg/sg2_157_cif.got.tgz:312894.got - 2010.06.27 13:26:56.
