data_PCOD8001431
_publ_section_title
;
Structure prediction by ZEFSAII (Michael W. Deem and Ramdas Pophale) SiO2 
 PCOD8001431
Probable space group: P -1
;
_chemical_formula_sum "Si O2"
_cell_formula_units_Z 16
_cell_length_a 14.101503
_cell_length_b 20.174579
_cell_length_c 17.721087
_cell_angle_alpha 21.547704
_cell_angle_beta 143.365048
_cell_angle_gamma 155.831899
_cell_volume 721.523942
_symmetry_space_group_name_H-M "P -1"
_symmetry_group_IT_number 2
_symmetry_cell_setting 'triclinic'
loop_
_space_group_symop_operation_xyz
x,y,z
-x,-y,-z
loop_
_atom_site_type_symbol
_atom_site_label
_atom_site_fract_x
_atom_site_fract_y
_atom_site_fract_z
Si Si1 0.269577 0.189325 0.657660
Si Si2 0.972341 0.164253 0.586742
Si Si3 0.199594 0.832148 0.114303
Si Si4 0.779848 0.104328 0.771781
Si Si5 0.560476 0.332225 0.559973
Si Si6 0.340355 0.609611 0.601633
Si Si7 0.740859 0.315855 0.298602
Si Si8 0.594134 0.694928 0.960340
O O1 0.500000 0.500000 0.500000
O O2 0.029168 0.105347 0.607614
O O3 0.311022 0.167269 0.620387
O O4 0.245764 0.994668 0.900371
O O5 0.209014 0.360709 0.584004
O O6 0.901633 0.306809 0.364661
O O7 0.757307 0.878658 0.797088
O O8 0.244712 0.970040 0.076911
O O9 0.390596 0.837324 0.220679
O O10 0.915165 0.519111 0.265434
O O11 0.616424 0.143943 0.606000
O O12 0.060930 0.373879 0.645235
O O13 0.695604 0.862501 0.925374
O O14 0.512695 0.327101 0.446241
O O15 0.414822 0.531086 0.797894
O O16 0.671101 0.439718 0.078518
O O17 0.500000 0.000000 0.500000
#
# Coordination Sequence:
#
# PCOD8001431 Si02
#       8
#     2   2   2   2   2   2   2   2
#     4  10  20  32  57  87 107 148 195 243 283 327
#     4   9  18  35  51  82 114 143 190 235 278 337
#     4  10  20  37  56  88 116 143 191 242 283 338
#     4  10  21  33  58  86 117 147 184 241 293 342
#     4   9  18  33  54  81 112 143 186 243 281 325
#     4  10  20  32  54  86 117 143 192 234 292 343
#     4   9  21  38  56  80 121 155 183 227 292 346
#     4  11  20  36  59  82 121 157 176 232 299 351
#
# _framework density 22.175286
#
# number of rings (size 3 to 8) (size 9 to 14) (size 15 to 20)
#    0.000    2.250    1.250    1.500    8.750    0.000 
#    2.250    1.875    0.000    1.500    0.000    0.000 
#    0.000    0.000    0.000    0.000    0.000    0.000 
#
# Total GULP energy -198226.412821 kJ/mol
# GULP energy per Si atom -12389.150801 kJ/mol
# Density = 2.212481 g / cm^3
# Si number density = 22.175286 Si / 1000 Ang^3
#
#
#
# Elastic Constant Matrix: (Units=GPa)
#
#
# Indices 1 2 3 4 5 6 
#
# 1 122.9322 24.5590 12.9240 9.8345 -11.1276 34.7489
# 2 24.5590 57.1351 21.6786 23.5911 -0.3358 13.6166
# 3 12.9240 21.6786 84.5613 25.4311 -1.6074 17.8755
# 4 9.8345 23.5911 25.4311 34.0430 5.9373 8.6208
# 5 -11.1276 -0.3358 -1.6074 5.9373 24.5594 0.6352
# 6 34.7489 13.6166 17.8755 8.6208 0.6352 25.5044
#
#
#
# Elastic Compliance Matrix: (Units=1/GPa)
#
#
# Indices 1 2 3 4 5 6 
#
# 1 0.015116 -0.001996 0.003335 -0.001391 0.007935 -0.021595
# 2 -0.001996 0.026905 -0.000128 -0.017144 0.003751 -0.005854
# 3 0.003335 -0.000128 0.017801 -0.011887 0.005887 -0.013081
# 4 -0.001391 -0.017144 -0.011887 0.052547 -0.014397 0.001977
# 5 0.007935 0.003751 0.005887 -0.014397 0.048573 -0.013283
# 6 -0.021595 -0.005854 -0.013081 0.001977 -0.013283 0.080589
#
#
# Mechanical properties :
#
#
# Convention : Reuss Voigt Hill
#
# Bulk Modulus (GPa) = 16.06516 42.55020 29.30768
# Shear Modulus (GPa) = 19.24147 30.51916 24.88031
#
# Velocity S-wave (km/s) = 2.94887 3.71383 3.35324
# Velocity P-wave (km/s) = 4.34221 6.13350 5.31388
#
# Compressibility (1/GPa) = 0.06224650
#
# Stress axis : x y z
#
# Youngs Moduli (GPa) = 66.15327 37.16818 56.17762
#
# Poissons Ratio (x) = 0.07417 -0.18738
# Poissons Ratio (y) = 0.13202 0.00717
# Poissons Ratio (z) = -0.22065 0.00474
#
# Static dielectric constant tensor:
#      x y z
#    x 4.466950 0.449040 0.233360 
#    y 0.449040 3.928010 0.275080 
#    z 0.233360 0.275080 3.992740 
# 
# 
# High freq. dielectric constant tensor:
#      x y z
#    x 1.879830 0.015040 0.023360 
#    y 0.015040 1.831390 0.018270 
#    z 0.023360 0.018270 1.864490 
# 
# From -- ./inp_files/451676.got.cif
#   From: 2010.06.25/outbox.cif.g09.slc.cpg/sg2_226_cif.got.tgz:451676.got - 2010.06.27 13:26:56.
