data_PCOD8001218
_publ_section_title
;
Structure prediction by ZEFSAII (Michael W. Deem and Ramdas Pophale) SiO2 
 PCOD8001218
Probable space group: P -1
;
_chemical_formula_sum "Si O2"
_cell_formula_units_Z 12
_cell_length_a 9.399458
_cell_length_b 10.913231
_cell_length_c 7.867190
_cell_angle_alpha 108.729660
_cell_angle_beta 133.631370
_cell_angle_gamma 96.559610
_cell_volume 482.247336
_symmetry_space_group_name_H-M "P -1"
_symmetry_group_IT_number 2
_symmetry_cell_setting 'triclinic'
loop_
_space_group_symop_operation_xyz
x,y,z
-x,-y,-z
loop_
_atom_site_type_symbol
_atom_site_label
_atom_site_fract_x
_atom_site_fract_y
_atom_site_fract_z
Si Si1 0.300431 0.083848 0.634750
Si Si2 0.882044 0.096739 0.910609
Si Si3 0.029013 0.571237 0.372884
Si Si4 0.852072 0.110625 0.273384
Si Si5 0.266456 0.410943 0.361974
Si Si6 0.537428 0.393860 0.862913
O O1 0.516833 0.247996 0.872842
O O2 0.078508 0.100637 0.458385
O O3 0.328725 0.021039 0.812149
O O4 0.297242 0.983441 0.425743
O O5 0.769874 0.103554 0.004531
O O6 0.053372 0.261565 0.046943
O O7 0.000000 0.000000 0.000000
O O8 0.110729 0.742841 0.534561
O O9 0.205434 0.540036 0.404020
O O10 0.000000 0.500000 0.500000
O O11 0.789749 0.488136 0.036058
O O12 0.500000 0.500000 0.500000
O O13 0.328804 0.338587 0.538566
O O14 0.500000 0.500000 0.000000
#
# Coordination Sequence:
#
# PCOD8001218 Si02
#       6
#     2   2   2   2   2   2
#     4  10  21  39  68 108 140 185 230 291 360 418
#     4  10  19  42  67  99 143 183 230 288 355 417
#     4  12  23  46  73 102 141 185 243 290 350 430
#     4  10  20  39  72  98 139 190 226 290 353 417
#     4  12  27  45  71 105 141 187 235 301 354 412
#     4  12  22  44  74 102 137 186 234 287 357 420
#
# _framework density 24.883497999999999
#
# number of rings (size 3 to 8) (size 9 to 14) (size 15 to 20)
#    0.000    1.000    8.333    0.000    2.333    2.000 
#    0.000    3.333    0.000    0.000    0.000    0.000 
#    0.000    0.000    0.000    0.000    0.000    0.000 
#
# Total GULP energy -148683.598457 kJ/mol
# GULP energy per Si atom -12390.299871 kJ/mol
# Density = 2.482686 g / cm^3
# Si number density = 24.883498 Si / 1000 Ang^3
#
#
#
# Elastic Constant Matrix: (Units=GPa)
#
#
# Indices 1 2 3 4 5 6 
#
# 1 134.2236 53.7747 44.4442 26.6304 -15.1974 0.8870
# 2 53.7747 114.7997 50.3087 43.5881 -6.6623 5.6176
# 3 44.4442 50.3087 101.7164 25.0905 -15.9493 -0.9048
# 4 26.6304 43.5881 25.0905 53.6501 -6.7297 9.5390
# 5 -15.1974 -6.6623 -15.9493 -6.7297 19.6426 2.7116
# 6 0.8870 5.6176 -0.9048 9.5390 2.7116 41.7333
#
#
#
# Elastic Compliance Matrix: (Units=1/GPa)
#
#
# Indices 1 2 3 4 5 6 
#
# 1 0.010108 -0.003348 -0.001773 -0.000862 0.004940 0.000073
# 2 -0.003348 0.015631 -0.004603 -0.009482 -0.004319 0.000315
# 3 -0.001773 -0.004603 0.014500 -0.001245 0.008315 0.000716
# 4 -0.000862 -0.009482 -0.001245 0.029117 0.005878 -0.005769
# 5 0.004940 -0.004319 0.008315 0.005878 0.062689 -0.004760
# 6 0.000073 0.000315 0.000716 -0.005769 -0.004760 0.025561
#
#
# Mechanical properties :
#
#
# Convention : Reuss Voigt Hill
#
# Bulk Modulus (GPa) = 48.09837 71.97722 60.03780
# Shear Modulus (GPa) = 27.17610 36.48600 31.83105
#
# Velocity S-wave (km/s) = 3.30833 3.83335 3.58048
# Velocity P-wave (km/s) = 5.82793 6.97002 6.42441
#
# Compressibility (1/GPa) = 0.02079073
#
# Stress axis : x y z
#
# Youngs Moduli (GPa) = 98.92734 63.97725 68.96418
#
# Poissons Ratio (x) = 0.21417 0.12229
# Poissons Ratio (y) = 0.33117 0.31748
# Poissons Ratio (z) = 0.17542 0.29452
#
# Static dielectric constant tensor:
#      x y z
#    x 4.442950 0.709260 -0.926460 
#    y 0.709260 3.437150 1.224950 
#    z -0.926460 1.224950 3.583180 
# 
# 
# High freq. dielectric constant tensor:
#      x y z
#    x 1.983220 -0.006710 0.000620 
#    y -0.006710 2.005010 0.008650 
#    z 0.000620 0.008650 1.986560 
# 
# From -- ./inp_files/157580.got.cif
#   From: 2010.06.25/outbox.cif.g09.slc.cpg/sg2_79_cif.got.tgz:157580.got - 2010.06.27 13:26:56.
