data_PCOD8001772
_publ_section_title
;
Structure prediction by ZEFSAII (Michael W. Deem and Ramdas Pophale) SiO2 
 PCOD8001772
Probable space group: P -1
;
_chemical_formula_sum "Si O2"
_cell_formula_units_Z 14
_cell_length_a 9.007039
_cell_length_b 17.371139
_cell_length_c 8.499979
_cell_angle_alpha 32.413899
_cell_angle_beta 88.480961
_cell_angle_gamma 93.826084
_cell_volume 702.710553
_symmetry_space_group_name_H-M "P -1"
_symmetry_group_IT_number 2
_symmetry_cell_setting 'triclinic'
loop_
_space_group_symop_operation_xyz
x,y,z
-x,-y,-z
loop_
_atom_site_type_symbol
_atom_site_label
_atom_site_fract_x
_atom_site_fract_y
_atom_site_fract_z
Si Si1 0.846405 0.859417 0.441628
Si Si2 0.607178 0.313155 0.376140
Si Si3 0.281454 0.939495 0.678032
Si Si4 0.378391 0.392497 0.991285
Si Si5 0.543624 0.781433 0.976138
Si Si6 0.353183 0.130389 0.863098
Si Si7 0.184171 0.853339 0.494602
O O1 0.779204 0.717716 0.790625
O O2 0.778672 0.841916 0.298093
O O3 0.023756 0.865886 0.405878
O O4 0.819124 0.011207 0.262033
O O5 0.495327 0.363589 0.168297
O O6 0.517060 0.164952 0.714903
O O7 0.760256 0.293146 0.315256
O O8 0.650239 0.441105 0.283823
O O9 0.375887 0.818176 0.951101
O O10 0.179072 0.867075 0.660286
O O11 0.385432 0.087271 0.366613
O O12 0.451239 0.367252 0.862988
O O13 0.634829 0.765426 0.162265
O O14 0.317116 0.970740 0.213441
#
# Coordination Sequence:
#
# PCOD8001772 Si02
#       7
#     2   2   2   2   2   2   2
#     4  10  21  34  53  78 110 135 167 209 262 312
#     4  10  20  34  56  76 103 136 178 214 248 301
#     4   9  18  31  53  79 100 134 174 213 255 298
#     4   9  19  37  54  77 100 137 180 212 247 302
#     4   9  17  32  55  76 102 131 175 219 249 296
#     4  10  22  33  53  80 106 135 170 215 259 302
#     4  11  20  34  53  81 107 135 166 213 264 307
#
# _framework density 19.922855999999999
#
# number of rings (size 3 to 8) (size 9 to 14) (size 15 to 20)
#    0.000    2.286    1.429    1.286    8.000    1.143 
#    0.000    0.000    0.000    0.857    0.000    0.000 
#    0.000    0.000    0.000    0.000    0.000    0.000 
#
# Total GULP energy -173472.480051 kJ/mol
# GULP energy per Si atom -12390.891432 kJ/mol
# Density = 1.987751 g / cm^3
# Si number density = 19.922856 Si / 1000 Ang^3
#
#
#
# Elastic Constant Matrix: (Units=GPa)
#
#
# Indices 1 2 3 4 5 6 
#
# 1 76.0840 70.3660 22.3070 -9.8354 7.8427 -12.7333
# 2 70.3660 151.5442 38.9098 -10.9419 11.8533 2.0123
# 3 22.3070 38.9098 32.9089 2.8884 3.2114 -2.4806
# 4 -9.8354 -10.9419 2.8884 27.4244 -0.0574 10.1776
# 5 7.8427 11.8533 3.2114 -0.0574 14.1686 2.5091
# 6 -12.7333 2.0123 -2.4806 10.1776 2.5091 27.3295
#
#
#
# Elastic Compliance Matrix: (Units=1/GPa)
#
#
# Indices 1 2 3 4 5 6 
#
# 1 0.028321 -0.011832 -0.003441 0.000490 -0.007521 0.014262
# 2 -0.011832 0.016049 -0.012146 0.007253 -0.002273 -0.010289
# 3 -0.003441 -0.012146 0.049149 -0.014710 -0.000781 0.009302
# 4 0.000490 0.007253 -0.014710 0.048406 0.000686 -0.019731
# 5 -0.007521 -0.002273 -0.000781 0.000686 0.078752 -0.010893
# 6 0.014262 -0.010289 0.009302 -0.019731 -0.010893 0.053185
#
#
# Mechanical properties :
#
#
# Convention : Reuss Voigt Hill
#
# Bulk Modulus (GPa) = 25.85304 58.18920 42.02112
# Shear Modulus (GPa) = 14.63723 22.38147 18.50935
#
# Velocity S-wave (km/s) = 2.71347 3.35536 3.05134
# Velocity P-wave (km/s) = 4.77723 6.65447 5.79240
#
# Compressibility (1/GPa) = 0.03868017
#
# Stress axis : x y z
#
# Youngs Moduli (GPa) = 35.30966 62.30739 20.34647
#
# Poissons Ratio (x) = 0.73724 0.07001
# Poissons Ratio (y) = 0.41780 0.24713
# Poissons Ratio (z) = 0.12150 0.75679
#
# Static dielectric constant tensor:
#      x y z
#    x 3.330960 -0.040020 -0.051280 
#    y -0.040020 4.043140 -0.107580 
#    z -0.051280 -0.107580 3.398250 
# 
# 
# High freq. dielectric constant tensor:
#      x y z
#    x 1.749600 -0.002190 0.005700 
#    y -0.002190 1.797840 0.004280 
#    z 0.005700 0.004280 1.739970 
# 
# From -- ./inp_files/154033.got.cif
#   From: 2010.06.25/outbox.cif.g09.slc.cpg/sg2_78_cif.got.tgz:154033.got - 2010.06.27 13:26:56.
