data_PCOD8001453
_publ_section_title
;
Structure prediction by ZEFSAII (Michael W. Deem and Ramdas Pophale) SiO2 
 PCOD8001453
Probable space group: P -1
;
_chemical_formula_sum "Si O2"
_cell_formula_units_Z 16
_cell_length_a 9.494053
_cell_length_b 23.440027
_cell_length_c 14.169690
_cell_angle_alpha 21.799693
_cell_angle_beta 139.198930
_cell_angle_gamma 139.132144
_cell_volume 746.455436
_symmetry_space_group_name_H-M "P -1"
_symmetry_group_IT_number 2
_symmetry_cell_setting 'triclinic'
loop_
_space_group_symop_operation_xyz
x,y,z
-x,-y,-z
loop_
_atom_site_type_symbol
_atom_site_label
_atom_site_fract_x
_atom_site_fract_y
_atom_site_fract_z
Si Si1 0.173171 0.554562 0.085436
Si Si2 0.606438 0.167482 0.340958
Si Si3 0.751135 0.030805 0.046640
Si Si4 0.111009 0.705210 0.431412
Si Si5 0.562951 0.764745 0.657352
Si Si6 0.005199 0.365811 0.934808
Si Si7 0.920953 0.785407 0.394688
Si Si8 0.170834 0.956364 0.727867
O O1 0.058052 0.630112 0.994494
O O2 0.232848 0.390581 0.399783
O O3 0.381095 0.688775 0.948572
O O4 0.000000 0.500000 0.000000
O O5 0.440989 0.192397 0.300809
O O6 0.853567 0.174933 0.491601
O O7 0.500000 0.000000 0.500000
O O8 0.890382 0.018836 0.231531
O O9 0.837483 0.204205 0.780014
O O10 0.774974 0.905058 0.171626
O O11 0.500000 0.000000 0.000000
O O12 0.325649 0.669693 0.648782
O O13 0.980887 0.525449 0.623185
O O14 0.981079 0.801194 0.289094
O O15 0.600164 0.924614 0.366352
O O16 0.747931 0.664693 0.892829
O O17 0.829048 0.226794 0.006824
O O18 0.000000 0.000000 0.500000
#
# Coordination Sequence:
#
# PCOD8001453 Si02
#       8
#     2   2   2   2   2   2   2   2
#     4   9  19  34  57  86 118 162 198 243 301 357
#     4  10  20  32  57  90 125 155 195 246 308 356
#     4  12  24  40  66  87 117 167 209 245 297 368
#     4  10  21  40  59  88 117 160 200 249 299 359
#     4  10  20  35  57  90 123 154 199 251 294 354
#     4  10  21  36  61  87 125 154 196 257 303 350
#     4   9  22  38  59  84 120 156 204 248 293 358
#     4  10  23  38  61  89 124 156 196 251 310 345
#
# _framework density 21.434635
#
# number of rings (size 3 to 8) (size 9 to 14) (size 15 to 20)
#    0.000    2.000    1.250    2.250   10.500    1.500 
#    0.000    0.000    2.750    1.500    0.000    0.000 
#    0.000    0.000    0.000    0.000    0.000    0.000 
#
# Total GULP energy -198278.127236 kJ/mol
# GULP energy per Si atom -12392.382952 kJ/mol
# Density = 2.138585 g / cm^3
# Si number density = 21.434635 Si / 1000 Ang^3
#
#
#
# Elastic Constant Matrix: (Units=GPa)
#
#
# Indices 1 2 3 4 5 6 
#
# 1 148.3086 23.2930 75.8131 -15.2423 -15.9594 -24.9371
# 2 23.2930 51.2897 32.5579 -21.0567 -8.5057 -12.1097
# 3 75.8131 32.5579 116.3476 -28.8535 -18.9897 -10.1683
# 4 -15.2423 -21.0567 -28.8535 38.5713 0.6353 -1.2718
# 5 -15.9594 -8.5057 -18.9897 0.6353 48.3925 -0.1050
# 6 -24.9371 -12.1097 -10.1683 -1.2718 -0.1050 26.6467
#
#
#
# Elastic Compliance Matrix: (Units=1/GPa)
#
#
# Indices 1 2 3 4 5 6 
#
# 1 0.011813 0.001777 -0.006970 0.000705 0.001484 0.009242
# 2 0.001777 0.032104 -0.004236 0.015494 0.004396 0.015393
# 3 -0.006970 -0.004236 0.016479 0.007146 0.003326 -0.001805
# 4 0.000705 0.015494 0.007146 0.040330 0.005257 0.012373
# 5 0.001484 0.004396 0.003326 0.005257 0.023173 0.004998
# 6 0.009242 0.015393 -0.001805 0.012373 0.004998 0.053094
#
#
# Mechanical properties :
#
#
# Convention : Reuss Voigt Hill
#
# Bulk Modulus (GPa) = 24.07461 64.36377 44.21919
# Shear Modulus (GPa) = 23.84394 35.00756 29.42575
#
# Velocity S-wave (km/s) = 3.33889 4.04570 3.70917
# Velocity P-wave (km/s) = 5.11080 7.20533 6.24648
#
# Compressibility (1/GPa) = 0.04153754
#
# Stress axis : x y z
#
# Youngs Moduli (GPa) = 84.65592 31.14902 60.68251
#
# Poissons Ratio (x) = -0.05536 0.42294
# Poissons Ratio (y) = -0.15045 0.25707
# Poissons Ratio (z) = 0.59003 0.13196
#
# Static dielectric constant tensor:
#      x y z
#    x 4.311220 -0.077410 -0.432890 
#    y -0.077410 3.995820 -0.569970 
#    z -0.432890 -0.569970 4.142270 
# 
# 
# High freq. dielectric constant tensor:
#      x y z
#    x 1.851290 -0.011800 -0.019280 
#    y -0.011800 1.819480 -0.030250 
#    z -0.019280 -0.030250 1.838540 
# 
# From -- ./inp_files/331233.got.cif
#   From: 2010.06.25/outbox.cif.g09.slc.cpg/sg2_166_cif.got.tgz:331233.got - 2010.06.27 13:26:56.
