data_PCOD8001634
_publ_section_title
;
Structure prediction by ZEFSAII (Michael W. Deem and Ramdas Pophale) SiO2 
 PCOD8001634
Probable space group: P -1
;
_chemical_formula_sum "Si O2"
_cell_formula_units_Z 16
_cell_length_a 11.110220
_cell_length_b 13.610402
_cell_length_c 15.307062
_cell_angle_alpha 129.351708
_cell_angle_beta 36.551097
_cell_angle_gamma 140.273452
_cell_volume 880.208791
_symmetry_space_group_name_H-M "P -1"
_symmetry_group_IT_number 2
_symmetry_cell_setting 'triclinic'
loop_
_space_group_symop_operation_xyz
x,y,z
-x,-y,-z
loop_
_atom_site_type_symbol
_atom_site_label
_atom_site_fract_x
_atom_site_fract_y
_atom_site_fract_z
Si Si1 0.835047 0.812144 0.541007
Si Si2 0.774759 0.135336 0.426885
Si Si3 0.997406 0.362363 0.570255
Si Si4 0.141598 0.070134 0.633335
Si Si5 0.233275 0.844950 0.063243
Si Si6 0.990047 0.340213 0.751703
Si Si7 0.706189 0.306669 0.217165
Si Si8 0.279946 0.712479 0.604990
O O1 0.819505 0.693263 0.555368
O O2 0.584932 0.799353 0.680016
O O3 0.051151 0.987459 0.543194
O O4 0.887327 0.758784 0.387213
O O5 0.918405 0.061045 0.333214
O O6 0.850246 0.220583 0.336713
O O7 0.797685 0.256756 0.553941
O O8 0.500000 0.000000 0.500000
O O9 0.156029 0.538171 0.547521
O O10 0.867551 0.336481 0.727449
O O11 0.430138 0.199250 0.531958
O O12 0.986638 0.133167 0.793577
O O13 0.210021 0.740629 0.100701
O O14 0.187096 0.751010 0.948816
O O15 0.500000 0.000000 0.000000
O O16 0.195976 0.516120 0.755976
O O17 0.779052 0.281157 0.255887
#
# Coordination Sequence:
#
# PCOD8001634 Si02
#       8
#     2   2   2   2   2   2   2   2
#     4   9  18  34  55  77 112 131 180 226 275 309
#     4   9  18  35  55  83 108 136 179 233 267 307
#     4   8  18  33  57  84 105 131 179 228 276 309
#     4  10  21  36  52  83 112 141 180 223 271 316
#     4  12  24  34  51  78 118 150 176 210 272 335
#     4   9  21  35  53  77 108 144 174 228 268 314
#     4  11  21  35  51  82 110 143 182 217 267 330
#     4  10  20  33  61  80 104 143 185 227 266 311
#
# _framework density 18.177505
#
# number of rings (size 3 to 8) (size 9 to 14) (size 15 to 20)
#    0.750    1.500    1.250    1.875    3.500    1.000 
#    0.000    0.625    0.000    0.000    0.000    9.625 
#    0.000    0.000    0.000    0.000    0.000    0.000 
#
# Total GULP energy -198219.853601 kJ/mol
# GULP energy per Si atom -12388.740850 kJ/mol
# Density = 1.813613 g / cm^3
# Si number density = 18.177505 Si / 1000 Ang^3
#
#
#
# Elastic Constant Matrix: (Units=GPa)
#
#
# Indices 1 2 3 4 5 6 
#
# 1 84.1846 42.5877 41.2338 0.6998 24.0094 11.7215
# 2 42.5877 126.8541 47.3299 4.2246 19.0546 13.8392
# 3 41.2338 47.3299 95.6128 9.8070 18.7640 2.2519
# 4 0.6998 4.2246 9.8070 32.2550 -0.5951 5.6964
# 5 24.0094 19.0546 18.7640 -0.5951 20.9432 -1.4461
# 6 11.7215 13.8392 2.2519 5.6964 -1.4461 25.8541
#
#
#
# Elastic Compliance Matrix: (Units=1/GPa)
#
#
# Indices 1 2 3 4 5 6 
#
# 1 0.022354 -0.001531 -0.004882 0.002699 -0.020517 -0.010632
# 2 -0.001531 0.011175 -0.003738 0.000558 -0.005419 -0.005388
# 3 -0.004882 -0.003738 0.015834 -0.004956 -0.005077 0.003643
# 4 0.002699 0.000558 -0.004956 0.033900 0.001215 -0.008492
# 5 -0.020517 -0.005419 -0.005077 0.001215 0.081953 0.016961
# 6 -0.010632 -0.005388 0.003643 -0.008492 0.016961 0.048885
#
#
# Mechanical properties :
#
#
# Convention : Reuss Voigt Hill
#
# Bulk Modulus (GPa) = 34.41289 63.21714 48.81502
# Shear Modulus (GPa) = 20.48405 27.51045 23.99725
#
# Velocity S-wave (km/s) = 3.36056 3.89451 3.63734
# Velocity P-wave (km/s) = 5.83357 7.42133 6.67483
#
# Compressibility (1/GPa) = 0.02905888
#
# Stress axis : x y z
#
# Youngs Moduli (GPa) = 44.73467 89.48442 63.15575
#
# Poissons Ratio (x) = 0.13703 0.30835
# Poissons Ratio (y) = 0.06850 0.23610
# Poissons Ratio (z) = 0.21841 0.33453
#
# Static dielectric constant tensor:
#      x y z
#    x 3.890740 -0.251250 0.317520 
#    y -0.251250 3.636540 0.085910 
#    z 0.317520 0.085910 3.017730 
# 
# 
# High freq. dielectric constant tensor:
#      x y z
#    x 1.705970 -0.005990 0.026790 
#    y -0.005990 1.732470 0.005940 
#    z 0.026790 0.005940 1.654700 
# 
# From -- ./inp_files/239750.got.cif
#   From: 2010.06.25/outbox.cif.g09.slc.cpg/sg2_120_cif.got.tgz:239750.got - 2010.06.27 13:26:56.
