data_PCOD8001212
_publ_section_title
;
Structure prediction by ZEFSAII (Michael W. Deem and Ramdas Pophale) SiO2 
 PCOD8001212
Probable space group: P -1
;
_chemical_formula_sum "Si O2"
_cell_formula_units_Z 14
_cell_length_a 10.651553
_cell_length_b 9.558538
_cell_length_c 13.688117
_cell_angle_alpha 121.507063
_cell_angle_beta 147.095411
_cell_angle_gamma 61.717659
_cell_volume 643.616153
_symmetry_space_group_name_H-M "P -1"
_symmetry_group_IT_number 2
_symmetry_cell_setting 'triclinic'
loop_
_space_group_symop_operation_xyz
x,y,z
-x,-y,-z
loop_
_atom_site_type_symbol
_atom_site_label
_atom_site_fract_x
_atom_site_fract_y
_atom_site_fract_z
Si Si1 0.474070 0.831593 0.977429
Si Si2 0.556239 0.692871 0.438267
Si Si3 0.207306 0.852613 0.130237
Si Si4 0.986988 0.141184 0.189230
Si Si5 0.344865 0.679044 0.649754
Si Si6 0.551278 0.090854 0.374980
Si Si7 0.132017 0.149013 0.603076
O O1 0.227457 0.833896 0.869579
O O2 0.474981 0.692056 0.843297
O O3 0.682027 0.791179 0.175185
O O4 0.500000 0.000000 0.000000
O O5 0.392148 0.716640 0.245056
O O6 0.595314 0.501582 0.420208
O O7 0.415837 0.785994 0.469136
O O8 0.795686 0.768453 0.594827
O O9 0.309772 0.010825 0.201005
O O10 0.071273 0.772226 0.923663
O O11 0.051297 0.943547 0.146886
O O12 0.439344 0.812244 0.685747
O O13 0.064660 0.704184 0.492619
O O14 0.739625 0.930325 0.438645
O O15 0.000000 0.000000 0.500000
#
# Coordination Sequence:
#
# PCOD8001212 Si02
#       7
#     2   2   2   2   2   2   2
#     4  12  22  39  67  93 122 165 218 258 307 376
#     4  11  25  40  63  96 133 166 204 260 325 367
#     4  10  21  40  66  92 123 168 218 257 303 375
#     4  10  22  38  64  93 125 169 213 257 307 375
#     4  11  25  40  63  98 131 164 204 265 322 366
#     4  10  19  42  67  88 121 166 219 255 297 373
#     4  10  21  38  64  91 120 158 212 257 305 367
#
# _framework density 21.752095000000001
#
# number of rings (size 3 to 8) (size 9 to 14) (size 15 to 20)
#    0.000    1.429    4.286    2.143    4.000    1.714 
#    0.000    1.429    0.000   13.714    0.000    0.000 
#    0.000    0.000    0.000    0.000    0.000    0.000 
#
# Total GULP energy -173460.963512 kJ/mol
# GULP energy per Si atom -12390.068822 kJ/mol
# Density = 2.170259 g / cm^3
# Si number density = 21.752095 Si / 1000 Ang^3
#
#
#
# Elastic Constant Matrix: (Units=GPa)
#
#
# Indices 1 2 3 4 5 6 
#
# 1 96.7145 22.0844 26.2384 -1.4541 -7.6454 -13.1152
# 2 22.0844 82.7961 27.5349 -18.3381 -14.9300 -15.3299
# 3 26.2384 27.5349 99.2023 -22.2851 -4.0762 -14.5665
# 4 -1.4541 -18.3381 -22.2851 23.7982 -5.9161 -0.1556
# 5 -7.6454 -14.9300 -4.0762 -5.9161 19.3296 5.6758
# 6 -13.1152 -15.3299 -14.5665 -0.1556 5.6758 25.0921
#
#
#
# Elastic Compliance Matrix: (Units=1/GPa)
#
#
# Indices 1 2 3 4 5 6 
#
# 1 0.012069 -0.002529 -0.002916 -0.003890 0.000129 0.003017
# 2 -0.002529 0.023599 0.002252 0.025885 0.022867 0.009391
# 3 -0.002916 0.002252 0.015678 0.018089 0.007249 0.007426
# 4 -0.003890 0.025885 0.018089 0.090093 0.045577 0.014532
# 5 0.000129 0.022867 0.007249 0.045577 0.085140 -0.000730
# 6 0.003017 0.009391 0.007426 0.014532 -0.000730 0.051734
#
#
# Mechanical properties :
#
#
# Convention : Reuss Voigt Hill
#
# Bulk Modulus (GPa) = 22.24166 47.82537 35.03352
# Shear Modulus (GPa) = 16.68413 27.16766 21.92589
#
# Velocity S-wave (km/s) = 2.77250 3.53791 3.17833
# Velocity P-wave (km/s) = 4.52728 6.22281 5.44149
#
# Compressibility (1/GPa) = 0.04496066
#
# Stress axis : x y z
#
# Youngs Moduli (GPa) = 82.85593 42.37484 63.78203
#
# Poissons Ratio (x) = 0.10718 0.18597
# Poissons Ratio (y) = 0.20958 -0.14365
# Poissons Ratio (z) = 0.24159 -0.09544
#
# Static dielectric constant tensor:
#      x y z
#    x 4.392520 -0.505900 0.178560 
#    y -0.505900 3.722930 -0.251130 
#    z 0.178560 -0.251130 4.304950 
# 
# 
# High freq. dielectric constant tensor:
#      x y z
#    x 1.866680 -0.016660 -0.002770 
#    y -0.016660 1.815160 -0.012520 
#    z -0.002770 -0.012520 1.863440 
# 
# From -- ./inp_files/514655.got.cif
#   From: 2010.06.25/outbox.cif.g09.slc.cpg/sg2_258_cif.got.tgz:514655.got - 2010.06.27 13:26:56.
