data_PCOD8001104
_publ_section_title
;
Structure prediction by ZEFSAII (Michael W. Deem and Ramdas Pophale) SiO2 
 PCOD8001104
Probable space group: P -1
;
_chemical_formula_sum "Si O2"
_cell_formula_units_Z 16
_cell_length_a 16.077107
_cell_length_b 21.723477
_cell_length_c 9.007890
_cell_angle_alpha 57.616536
_cell_angle_beta 65.080635
_cell_angle_gamma 16.648453
_cell_volume 704.251256
_symmetry_space_group_name_H-M "P -1"
_symmetry_group_IT_number 2
_symmetry_cell_setting 'triclinic'
loop_
_space_group_symop_operation_xyz
x,y,z
-x,-y,-z
loop_
_atom_site_type_symbol
_atom_site_label
_atom_site_fract_x
_atom_site_fract_y
_atom_site_fract_z
Si Si1 0.755765 0.791336 0.955830
Si Si2 0.851620 0.548332 0.645214
Si Si3 0.163686 0.088528 0.584781
Si Si4 0.840960 0.381285 0.181233
Si Si5 0.199304 0.910487 0.890063
Si Si6 0.211490 0.140463 0.759135
Si Si7 0.196635 0.825120 0.721662
Si Si8 0.872884 0.274999 0.993574
O O1 0.868176 0.784320 0.825511
O O2 0.577332 0.884590 0.837349
O O3 0.027266 0.539611 0.161036
O O4 0.500000 0.000000 0.000000
O O5 0.476786 0.838129 0.571707
O O6 0.000000 0.500000 0.500000
O O7 0.957510 0.392529 0.685342
O O8 0.072661 0.089540 0.759679
O O9 0.178829 0.149857 0.595657
O O10 0.872117 0.315804 0.398027
O O11 0.527932 0.666599 0.042755
O O12 0.817742 0.340996 0.119270
O O13 0.223767 0.874333 0.743602
O O14 0.000000 0.000000 0.000000
O O15 0.155599 0.107569 0.931734
O O16 0.556929 0.525411 0.806541
O O17 0.031037 0.883545 0.860712
O O18 0.000000 0.000000 0.500000
#
# Coordination Sequence:
#
# PCOD8001104 Si02
#       8
#     2   2   2   2   2   2   2   2
#     4  10  19  41  66  92 137 177 216 280 335 394
#     4  11  23  42  67 100 138 180 227 280 340 404
#     4  12  25  43  70 102 137 180 230 282 338 404
#     4  11  22  42  68  95 139 179 226 283 340 406
#     4  11  24  44  64  95 140 177 224 285 346 402
#     4  11  24  42  66 100 136 180 234 270 338 415
#     4  10  21  38  64  92 124 169 228 274 334 401
#     4  10  20  39  63  92 130 173 216 280 336 395
#
# _framework density 22.719163000000002
#
# number of rings (size 3 to 8) (size 9 to 14) (size 15 to 20)
#    0.000    1.250    3.750    3.750    0.000    4.000 
#    2.250    0.000    0.000    0.000    0.000    0.000 
#    0.000    0.000    0.000    0.000    0.000    0.000 
#
# Total GULP energy -198287.804473 kJ/mol
# GULP energy per Si atom -12392.987780 kJ/mol
# Density = 2.266745 g / cm^3
# Si number density = 22.719163 Si / 1000 Ang^3
#
#
#
# Elastic Constant Matrix: (Units=GPa)
#
#
# Indices 1 2 3 4 5 6 
#
# 1 119.3596 34.0945 50.5933 -7.7987 2.5383 -5.6700
# 2 34.0945 52.6218 21.0132 1.4628 4.9701 -8.1213
# 3 50.5933 21.0132 153.7701 -22.2976 13.4138 0.4356
# 4 -7.7987 1.4628 -22.2976 24.0643 -13.0508 -2.5435
# 5 2.5383 4.9701 13.4138 -13.0508 43.2801 8.1304
# 6 -5.6700 -8.1213 0.4356 -2.5435 8.1304 40.0335
#
#
#
# Elastic Compliance Matrix: (Units=1/GPa)
#
#
# Indices 1 2 3 4 5 6 
#
# 1 0.011538 -0.006619 -0.002661 0.002593 0.001662 0.000147
# 2 -0.006619 0.025552 -0.002016 -0.007879 -0.005203 0.004824
# 3 -0.002661 -0.002016 0.008713 0.007266 -0.000045 -0.000410
# 4 0.002593 -0.007879 0.007266 0.058329 0.016260 -0.000906
# 5 0.001662 -0.005203 -0.000045 0.016260 0.029612 -0.005800
# 6 0.000147 0.004824 -0.000410 -0.000906 -0.005800 0.027103
#
#
# Mechanical properties :
#
#
# Convention : Reuss Voigt Hill
#
# Bulk Modulus (GPa) = 43.08462 59.68373 51.38417
# Shear Modulus (GPa) = 26.15371 36.14560 31.14966
#
# Velocity S-wave (km/s) = 3.39658 3.99303 3.70682
# Velocity P-wave (km/s) = 5.86408 6.89828 6.40210
#
# Compressibility (1/GPa) = 0.02321014
#
# Stress axis : x y z
#
# Youngs Moduli (GPa) = 86.67145 39.13538 114.77196
#
# Poissons Ratio (x) = 0.25905 0.30541
# Poissons Ratio (y) = 0.57370 0.23140
# Poissons Ratio (z) = 0.23064 0.07890
#
# Static dielectric constant tensor:
#      x y z
#    x 4.719920 -0.398640 0.703480 
#    y -0.398640 4.229530 -0.713100 
#    z 0.703480 -0.713100 5.253500 
# 
# 
# High freq. dielectric constant tensor:
#      x y z
#    x 1.907900 -0.013530 0.000610 
#    y -0.013530 1.875880 0.001760 
#    z 0.000610 0.001760 1.898800 
# 
# From -- ./inp_files/319290.got.cif
#   From: 2010.06.25/outbox.cif.g09.slc.cpg/sg2_160_cif.got.tgz:319290.got - 2010.06.27 13:26:56.
