data_PCOD8001923
_publ_section_title
;
Structure prediction by ZEFSAII (Michael W. Deem and Ramdas Pophale) SiO2 
 PCOD8001923
Probable space group: P -1
;
_chemical_formula_sum "Si O2"
_cell_formula_units_Z 16
_cell_length_a 9.493001
_cell_length_b 19.878609
_cell_length_c 5.108429
_cell_angle_alpha 63.449423
_cell_angle_beta 106.780224
_cell_angle_gamma 115.611754
_cell_volume 772.139748
_symmetry_space_group_name_H-M "P -1"
_symmetry_group_IT_number 2
_symmetry_cell_setting 'triclinic'
loop_
_space_group_symop_operation_xyz
x,y,z
-x,-y,-z
loop_
_atom_site_type_symbol
_atom_site_label
_atom_site_fract_x
_atom_site_fract_y
_atom_site_fract_z
Si Si1 0.423041 0.230038 0.090897
Si Si2 0.129500 0.205266 0.689214
Si Si3 0.564751 0.317544 0.531941
Si Si4 0.770345 0.900712 0.465408
Si Si5 0.424361 0.449174 0.298312
Si Si6 0.927398 0.404517 0.637941
Si Si7 0.071208 0.361134 0.288129
Si Si8 0.946476 0.051395 0.088188
O O1 0.526782 0.289342 0.263612
O O2 0.374047 0.138121 0.339954
O O3 0.253939 0.241971 0.931378
O O4 0.528342 0.245695 0.854422
O O5 0.234374 0.167216 0.633413
O O6 0.083675 0.273797 0.403657
O O7 0.963090 0.136566 0.812097
O O8 0.451885 0.365263 0.472157
O O9 0.743088 0.376779 0.534888
O O10 0.940116 0.922863 0.648408
O O11 0.773361 0.987784 0.198022
O O12 0.500000 0.500000 0.500000
O O13 0.238900 0.431818 0.222767
O O14 0.500000 0.500000 0.000000
O O15 0.006603 0.365091 0.535368
O O16 0.000000 0.500000 0.500000
O O17 0.953279 0.373287 0.990409
O O18 0.000000 0.000000 0.000000
#
# Coordination Sequence:
#
# PCOD8001923 Si02
#       8
#     2   2   2   2   2   2   2   2
#     4  11  20  35  61  89 123 152 203 252 301 356
#     4  10  20  34  59  95 128 158 203 258 308 359
#     4  12  24  41  62  86 120 160 204 259 313 370
#     4   9  16  31  53  93 133 163 191 245 310 358
#     4  12  24  39  62  92 115 149 200 257 319 375
#     4  12  28  48  62  85 123 168 212 258 318 382
#     4  12  25  42  67  90 122 162 207 264 311 364
#     4   8  16  28  51  87 141 163 189 235 313 364
#
# _framework density 20.721637999999999
#
# number of rings (size 3 to 8) (size 9 to 14) (size 15 to 20)
#    0.000    1.250    2.500    4.125    5.250    0.000 
#    0.000    0.000    0.000    0.000    0.000    5.250 
#    0.000    0.000    0.000    0.000    0.000    0.000 
#
# Total GULP energy -198220.818981 kJ/mol
# GULP energy per Si atom -12388.801186 kJ/mol
# Density = 2.067448 g / cm^3
# Si number density = 20.721638 Si / 1000 Ang^3
#
#
#
# Elastic Constant Matrix: (Units=GPa)
#
#
# Indices 1 2 3 4 5 6 
#
# 1 56.7310 19.7505 18.3786 -2.1614 -10.1356 14.3587
# 2 19.7505 102.8682 51.8157 -2.0370 -0.3612 15.4364
# 3 18.3786 51.8157 111.3224 -5.3993 -14.3205 9.5118
# 4 -2.1614 -2.0370 -5.3993 46.7338 7.9661 -10.0939
# 5 -10.1356 -0.3612 -14.3205 7.9661 33.8426 0.5314
# 6 14.3587 15.4364 9.5118 -10.0939 0.5314 23.9561
#
#
#
# Elastic Compliance Matrix: (Units=1/GPa)
#
#
# Indices 1 2 3 4 5 6 
#
# 1 0.023385 -0.001957 -0.000941 -0.003433 0.007612 -0.013997
# 2 -0.001957 0.014007 -0.006096 -0.000974 -0.002696 -0.005782
# 3 -0.000941 -0.006096 0.012675 0.000182 0.004983 -0.000574
# 4 -0.003433 -0.000974 0.000182 0.025339 -0.007137 0.013448
# 5 0.007612 -0.002696 0.004983 -0.007137 0.035723 -0.008603
# 6 -0.013997 -0.005782 -0.000574 0.013448 -0.008603 0.059944
#
#
# Mechanical properties :
#
#
# Convention : Reuss Voigt Hill
#
# Bulk Modulus (GPa) = 31.17407 50.09014 40.63210
# Shear Modulus (GPa) = 25.03090 32.97165 29.00127
#
# Velocity S-wave (km/s) = 3.47934 3.99327 3.74513
# Velocity P-wave (km/s) = 5.58730 6.74441 6.19294
#
# Compressibility (1/GPa) = 0.03207794
#
# Stress axis : x y z
#
# Youngs Moduli (GPa) = 42.76213 71.39473 78.89694
#
# Poissons Ratio (x) = 0.13969 0.07427
# Poissons Ratio (y) = 0.08367 0.48099
# Poissons Ratio (z) = 0.04025 0.43525
#
# Static dielectric constant tensor:
#      x y z
#    x 3.326800 0.180410 -0.407100 
#    y 0.180410 3.339690 -0.550940 
#    z -0.407100 -0.550940 4.093060 
# 
# 
# High freq. dielectric constant tensor:
#      x y z
#    x 1.749440 0.026920 -0.040600 
#    y 0.026920 1.835150 0.000890 
#    z -0.040600 0.000890 1.828850 
# 
# From -- ./inp_files/51066.got.cif
#   From: 2010.06.25/outbox.cif.g09.slc.cpg/sg2_26_cif.got.tgz:51066.got - 2010.06.27 13:26:56.
