data_PCOD8001228
_publ_section_title
;
Structure prediction by ZEFSAII (Michael W. Deem and Ramdas Pophale) SiO2 
 PCOD8001228
Probable space group: P -1
;
_chemical_formula_sum "Si O2"
_cell_formula_units_Z 12
_cell_length_a 7.502683
_cell_length_b 13.685714
_cell_length_c 10.645761
_cell_angle_alpha 146.047808
_cell_angle_beta 58.742233
_cell_angle_gamma 107.101683
_cell_volume 500.143316
_symmetry_space_group_name_H-M "P -1"
_symmetry_group_IT_number 2
_symmetry_cell_setting 'triclinic'
loop_
_space_group_symop_operation_xyz
x,y,z
-x,-y,-z
loop_
_atom_site_type_symbol
_atom_site_label
_atom_site_fract_x
_atom_site_fract_y
_atom_site_fract_z
Si Si1 0.079625 0.441060 0.769288
Si Si2 0.657971 0.002549 0.330079
Si Si3 0.091392 0.730148 0.883303
Si Si4 0.325934 0.603345 0.273027
Si Si5 0.737593 0.661082 0.786304
Si Si6 0.457926 0.211068 0.262665
O O1 0.128396 0.616871 0.876897
O O2 0.308292 0.277916 0.512298
O O3 0.907842 0.370176 0.676551
O O4 0.000000 0.500000 0.000000
O O5 0.500000 0.000000 0.500000
O O6 0.631949 0.204444 0.502506
O O7 0.607871 0.869707 0.099570
O O8 0.912683 0.919978 0.187554
O O9 0.309276 0.756058 0.774532
O O10 0.995132 0.629878 0.697096
O O11 0.359071 0.481704 0.256759
O O12 0.500000 0.500000 0.000000
O O13 0.686466 0.657772 0.654046
O O14 0.500000 0.000000 0.000000
#
# Coordination Sequence:
#
# PCOD8001228 Si02
#       6
#     2   2   2   2   2   2
#     4  11  26  47  69 107 145 188 246 302 357 433
#     4  10  19  42  69 106 146 185 243 293 354 433
#     4   9  23  46  69 103 144 185 238 297 360 421
#     4  11  21  42  71 104 140 193 236 294 371 420
#     4   9  24  44  70 104 142 187 243 292 357 430
#     4  12  26  48  71 109 144 194 243 296 368 429
#
# _framework density 23.993122
#
# number of rings (size 3 to 8) (size 9 to 14) (size 15 to 20)
#    1.000    0.667    1.667    1.500    2.333    6.000 
#    6.000    2.500    0.000    0.000    0.000    0.000 
#    0.000    0.000    0.000    0.000    0.000    0.000 
#
# Total GULP energy -148772.716159 kJ/mol
# GULP energy per Si atom -12397.726347 kJ/mol
# Density = 2.393851 g / cm^3
# Si number density = 23.993122 Si / 1000 Ang^3
#
#
#
# Elastic Constant Matrix: (Units=GPa)
#
#
# Indices 1 2 3 4 5 6 
#
# 1 88.3564 39.2682 40.2801 -13.1527 -18.2516 12.2028
# 2 39.2682 150.9634 87.3328 10.0421 -0.2524 18.8402
# 3 40.2801 87.3328 153.2098 -5.9275 -15.5050 11.2216
# 4 -13.1527 10.0421 -5.9275 56.8393 9.5585 -4.0593
# 5 -18.2516 -0.2524 -15.5050 9.5585 40.7648 -9.4692
# 6 12.2028 18.8402 11.2216 -4.0593 -9.4692 39.1821
#
#
#
# Elastic Compliance Matrix: (Units=1/GPa)
#
#
# Indices 1 2 3 4 5 6 
#
# 1 0.015035 -0.003101 -0.001458 0.002915 0.005192 -0.001217
# 2 -0.003101 0.011624 -0.006015 -0.003047 -0.003853 -0.004148
# 3 -0.001458 -0.006015 0.010637 0.001364 0.003325 0.001245
# 4 0.002915 -0.003047 0.001364 0.019464 -0.002386 0.001606
# 5 0.005192 -0.003853 0.003325 -0.002386 0.030123 0.006316
# 6 -0.001217 -0.004148 0.001245 0.001606 0.006316 0.029232
#
#
# Mechanical properties :
#
#
# Convention : Reuss Voigt Hill
#
# Bulk Modulus (GPa) = 61.92319 80.69909 71.31114
# Shear Modulus (GPa) = 35.05198 42.40048 38.72623
#
# Velocity S-wave (km/s) = 3.82634 4.20836 4.02189
# Velocity P-wave (km/s) = 6.73691 7.57106 7.16613
#
# Compressibility (1/GPa) = 0.01614904
#
# Stress axis : x y z
#
# Youngs Moduli (GPa) = 66.51167 86.02790 94.01135
#
# Poissons Ratio (x) = 0.26674 0.13707
# Poissons Ratio (y) = 0.20623 0.56546
# Poissons Ratio (z) = 0.09698 0.51744
#
# Static dielectric constant tensor:
#      x y z
#    x 4.338260 0.063940 -0.085170 
#    y 0.063940 4.560900 0.003440 
#    z -0.085170 0.003440 4.604530 
# 
# 
# High freq. dielectric constant tensor:
#      x y z
#    x 1.939960 0.007740 -0.013270 
#    y 0.007740 1.953640 -0.000780 
#    z -0.013270 -0.000780 1.981990 
# 
# From -- ./inp_files/399885.got.cif
#   From: 2010.06.25/outbox.cif.g09.slc.cpg/sg2_200_cif.got.tgz:399885.got - 2010.06.27 13:26:56.
