data_PCOD8001043
_publ_section_title
;
Structure prediction by ZEFSAII (Michael W. Deem and Ramdas Pophale) SiO2 
 PCOD8001043
Probable space group: P -1
;
_chemical_formula_sum "Si O2"
_cell_formula_units_Z 14
_cell_length_a 16.191377
_cell_length_b 11.409254
_cell_length_c 8.788476
_cell_angle_alpha 84.976876
_cell_angle_beta 116.653710
_cell_angle_gamma 42.994659
_cell_volume 723.628960
_symmetry_space_group_name_H-M "P -1"
_symmetry_group_IT_number 2
_symmetry_cell_setting 'triclinic'
loop_
_space_group_symop_operation_xyz
x,y,z
-x,-y,-z
loop_
_atom_site_type_symbol
_atom_site_label
_atom_site_fract_x
_atom_site_fract_y
_atom_site_fract_z
Si Si1 0.732295 0.502775 0.531318
Si Si2 0.400158 0.834812 0.046256
Si Si3 0.311196 0.924503 0.610920
Si Si4 0.941257 0.698211 0.118565
Si Si5 0.574156 0.444038 0.401770
Si Si6 0.423148 0.204092 0.339874
Si Si7 0.022187 0.605017 0.853370
O O1 0.596333 0.684426 0.256535
O O2 0.750403 0.339657 0.571112
O O3 0.634236 0.645928 0.590963
O O4 0.924789 0.355449 0.682746
O O5 0.412588 0.688688 0.143706
O O6 0.355525 0.879244 0.828961
O O7 0.254362 0.072950 0.991145
O O8 0.368241 0.736346 0.615356
O O9 0.418976 0.911158 0.618220
O O10 0.089916 0.186347 0.377543
O O11 0.019859 0.480549 0.229364
O O12 0.928210 0.735735 0.923760
O O13 0.500000 0.500000 0.500000
O O14 0.500000 0.000000 0.500000
O O15 0.242339 0.381922 0.064755
#
# Coordination Sequence:
#
# PCOD8001043 Si02
#       7
#     2   2   2   2   2   2   2
#     4   9  20  37  61  88 109 161 203 242 290 348
#     4  10  23  37  61  88 125 159 191 248 308 356
#     4  12  22  40  58  92 128 153 194 250 306 357
#     4  10  19  41  60  87 118 152 205 252 289 354
#     4  10  20  41  64  86 117 159 208 244 290 356
#     4  11  21  39  65  89 117 158 208 247 290 350
#     4  10  22  36  64  89 116 159 202 249 293 348
#
# _framework density 19.346931000000001
#
# number of rings (size 3 to 8) (size 9 to 14) (size 15 to 20)
#    0.857    0.857    1.429    5.571    0.000    1.714 
#    2.571    7.857    0.000    0.000    0.000    0.000 
#    0.000    0.000    0.000    0.000    0.000    0.000 
#
# Total GULP energy -173492.714926 kJ/mol
# GULP energy per Si atom -12392.336780 kJ/mol
# Density = 1.930290 g / cm^3
# Si number density = 19.346931 Si / 1000 Ang^3
#
#
#
# Elastic Constant Matrix: (Units=GPa)
#
#
# Indices 1 2 3 4 5 6 
#
# 1 66.4864 41.3452 40.5149 4.3985 6.1756 17.4430
# 2 41.3452 65.6244 39.2937 3.3593 -4.6764 16.9039
# 3 40.5149 39.2937 136.5416 9.5074 -7.3730 5.5180
# 4 4.3985 3.3593 9.5074 16.1147 6.3056 8.2223
# 5 6.1756 -4.6764 -7.3730 6.3056 27.8042 1.9405
# 6 17.4430 16.9039 5.5180 8.2223 1.9405 21.4114
#
#
#
# Elastic Compliance Matrix: (Units=1/GPa)
#
#
# Indices 1 2 3 4 5 6 
#
# 1 0.032359 -0.013529 -0.006496 0.011586 -0.012605 -0.017313
# 2 -0.013529 0.029992 -0.003962 0.004087 0.007038 -0.013843
# 3 -0.006496 -0.003962 0.011068 -0.010789 0.005515 0.009211
# 4 0.011586 0.004087 -0.010789 0.096456 -0.023495 -0.044796
# 5 -0.012605 0.007038 0.005515 -0.023495 0.046173 0.008129
# 6 -0.017313 -0.013843 0.009211 -0.044796 0.008129 0.085830
#
#
# Mechanical properties :
#
#
# Convention : Reuss Voigt Hill
#
# Bulk Modulus (GPa) = 39.29950 56.77334 48.03642
# Shear Modulus (GPa) = 13.95349 22.89930 18.42640
#
# Velocity S-wave (km/s) = 2.68848 3.44410 3.08948
# Velocity P-wave (km/s) = 5.47671 6.72491 6.13265
#
# Compressibility (1/GPa) = 0.02544562
#
# Stress axis : x y z
#
# Youngs Moduli (GPa) = 30.90350 33.34192 90.34866
#
# Poissons Ratio (x) = 0.45108 0.58690
# Poissons Ratio (y) = 0.41809 0.35795
# Poissons Ratio (z) = 0.20075 0.13210
#
# Static dielectric constant tensor:
#      x y z
#    x 3.440870 0.044960 0.066060 
#    y 0.044960 1.957850 -0.475420 
#    z 0.066060 -0.475420 3.420990 
# 
# 
# High freq. dielectric constant tensor:
#      x y z
#    x 1.735730 0.015720 0.007830 
#    y 0.015720 1.755130 0.001030 
#    z 0.007830 0.001030 1.755810 
# 
# From -- ./inp_files/268469.got.cif
#   From: 2010.06.25/outbox.cif.g09.slc.cpg/sg2_135_cif.got.tgz:268469.got - 2010.06.27 13:26:56.
