data_PCOD8001701
_publ_section_title
;
Structure prediction by ZEFSAII (Michael W. Deem and Ramdas Pophale) SiO2 
 PCOD8001701
Probable space group: P -1
;
_chemical_formula_sum "Si O2"
_cell_formula_units_Z 16
_cell_length_a 13.997781
_cell_length_b 13.650145
_cell_length_c 14.496773
_cell_angle_alpha 20.592895
_cell_angle_beta 108.909216
_cell_angle_gamma 99.641284
_cell_volume 841.319892
_symmetry_space_group_name_H-M "P -1"
_symmetry_group_IT_number 2
_symmetry_cell_setting 'triclinic'
loop_
_space_group_symop_operation_xyz
x,y,z
-x,-y,-z
loop_
_atom_site_type_symbol
_atom_site_label
_atom_site_fract_x
_atom_site_fract_y
_atom_site_fract_z
Si Si1 0.730634 0.297322 0.422434
Si Si2 0.444743 0.170338 0.985816
Si Si3 0.156265 0.276402 0.918430
Si Si4 0.530012 0.276321 0.291632
Si Si5 0.788882 0.286814 0.908123
Si Si6 0.100664 0.379075 0.457032
Si Si7 0.257014 0.095311 0.909655
Si Si8 0.438247 0.432067 0.325899
O O1 0.642614 0.520012 0.269551
O O2 0.796587 0.486372 0.233407
O O3 0.661398 0.184995 0.428117
O O4 0.820443 0.999741 0.761114
O O5 0.381170 0.085709 0.957110
O O6 0.538323 0.279435 0.881166
O O7 0.489181 0.892175 0.317973
O O8 0.214229 0.133322 0.966939
O O9 0.026472 0.445901 0.711624
O O10 0.459304 0.424887 0.229635
O O11 0.500000 0.000000 0.500000
O O12 0.500000 0.500000 0.000000
O O13 0.865078 0.464182 0.754710
O O14 0.690431 0.488525 0.767358
O O15 0.869586 0.967396 0.261501
O O16 0.736814 0.220412 0.854852
O O17 0.172320 0.375412 0.574391
#
# Coordination Sequence:
#
# PCOD8001701 Si02
#       8
#     2   2   2   2   2   2   2   2
#     4  10  21  35  55  86 108 136 175 213 281 329
#     4  10  20  34  54  74 114 148 177 220 260 316
#     4  11  20  35  57  75 114 149 176 234 264 289
#     4  11  21  37  62  87 108 128 165 219 274 341
#     4  10  23  35  50  75 112 143 200 216 250 319
#     4  10  22  35  50  78 105 153 195 225 253 291
#     4   9  22  32  52  77 112 141 199 221 260 295
#     4  11  22  38  54  79 110 147 172 214 280 321
#
# _framework density 19.017737
#
# number of rings (size 3 to 8) (size 9 to 14) (size 15 to 20)
#    0.750    1.000    0.000    7.125    5.250    1.500 
#    0.000    0.000    0.000    0.000    0.000   17.500 
#    0.000    0.000    0.000    0.000    0.000    0.000 
#
# Total GULP energy -198256.244237 kJ/mol
# GULP energy per Si atom -12391.015265 kJ/mol
# Density = 1.897445 g / cm^3
# Si number density = 19.017737 Si / 1000 Ang^3
#
#
#
# Elastic Constant Matrix: (Units=GPa)
#
#
# Indices 1 2 3 4 5 6 
#
# 1 74.5534 21.4958 23.3953 0.3382 -16.4235 -4.2276
# 2 21.4958 53.3765 26.7152 2.0506 -1.3115 4.0279
# 3 23.3953 26.7152 125.0760 -2.2495 -15.3032 1.6519
# 4 0.3382 2.0506 -2.2495 16.4223 7.2224 1.3309
# 5 -16.4235 -1.3115 -15.3032 7.2224 35.0372 -9.0233
# 6 -4.2276 4.0279 1.6519 1.3309 -9.0233 11.7788
#
#
#
# Elastic Compliance Matrix: (Units=1/GPa)
#
#
# Indices 1 2 3 4 5 6 
#
# 1 0.022055 -0.009958 -0.000231 -0.009669 0.018765 0.026822
# 2 -0.009958 0.026402 -0.004906 0.003272 -0.012035 -0.021504
# 3 -0.000231 -0.004906 0.009649 -0.000678 0.005163 0.004274
# 4 -0.009669 0.003272 -0.000678 0.076586 -0.029747 -0.035936
# 5 0.018765 -0.012035 0.005163 -0.029747 0.060728 0.060009
# 6 0.026822 -0.021504 0.004274 -0.035936 0.060009 0.151310
#
#
# Mechanical properties :
#
#
# Convention : Reuss Voigt Hill
#
# Bulk Modulus (GPa) = 35.82081 44.02427 39.92254
# Shear Modulus (GPa) = 12.94579 24.74097 18.84338
#
# Velocity S-wave (km/s) = 2.61190 3.61077 3.15116
# Velocity P-wave (km/s) = 5.28889 6.37047 5.85471
#
# Compressibility (1/GPa) = 0.02791674
#
# Stress axis : x y z
#
# Youngs Moduli (GPa) = 45.34029 37.87576 103.63460
#
# Poissons Ratio (x) = 0.37717 0.02390
# Poissons Ratio (y) = 0.45151 0.50846
# Poissons Ratio (z) = 0.01046 0.18583
#
# Static dielectric constant tensor:
#      x y z
#    x 3.671040 0.401070 -0.149290 
#    y 0.401070 3.337120 -0.095210 
#    z -0.149290 -0.095210 3.486080 
# 
# 
# High freq. dielectric constant tensor:
#      x y z
#    x 1.743070 0.018500 -0.010610 
#    y 0.018500 1.695480 -0.008560 
#    z -0.010610 -0.008560 1.749350 
# 
# From -- ./inp_files/533129.got.cif
#   From: 2010.06.25/outbox.cif.g09.slc.cpg/sg2_267_cif.got.tgz:533129.got - 2010.06.27 13:26:56.
