data_PCOD8001052
_publ_section_title
;
Structure prediction by ZEFSAII (Michael W. Deem and Ramdas Pophale) SiO2 
 PCOD8001052
Probable space group: P -1
;
_chemical_formula_sum "Si O2"
_cell_formula_units_Z 16
_cell_length_a 8.942066
_cell_length_b 17.806661
_cell_length_c 20.364678
_cell_angle_alpha 152.259430
_cell_angle_beta 31.048782
_cell_angle_gamma 137.578195
_cell_volume 775.748760
_symmetry_space_group_name_H-M "P -1"
_symmetry_group_IT_number 2
_symmetry_cell_setting 'triclinic'
loop_
_space_group_symop_operation_xyz
x,y,z
-x,-y,-z
loop_
_atom_site_type_symbol
_atom_site_label
_atom_site_fract_x
_atom_site_fract_y
_atom_site_fract_z
Si Si1 0.439361 0.731848 0.142060
Si Si2 0.164550 0.383668 0.295619
Si Si3 0.229501 0.443540 0.519631
Si Si4 0.253666 0.597804 0.233913
Si Si5 0.347616 0.976046 0.645733
Si Si6 0.239960 0.625700 0.997669
Si Si7 0.262295 0.147575 0.185723
Si Si8 0.723456 0.791239 0.267795
O O1 0.209458 0.701686 0.263745
O O2 0.299760 0.721681 0.115789
O O3 0.556663 0.908673 0.242565
O O4 0.708500 0.594311 0.944227
O O5 0.244527 0.205213 0.159686
O O6 0.000000 0.500000 0.500000
O O7 0.942983 0.398097 0.327724
O O8 0.464563 0.448610 0.205923
O O9 0.500000 0.500000 0.500000
O O10 0.340015 0.304225 0.318888
O O11 0.025495 0.359580 0.583245
O O12 0.548806 0.638810 0.192502
O O13 0.602644 0.839583 0.424045
O O14 0.058704 0.897654 0.713460
O O15 0.302598 0.068874 0.666641
O O16 0.071015 0.753517 0.111339
O O17 0.000000 0.500000 0.000000
O O18 0.500000 0.000000 0.000000
#
# Coordination Sequence:
#
# PCOD8001052 Si02
#       8
#     2   2   2   2   2   2   2   2
#     4  10  22  35  64  92 122 159 207 267 313 376
#     4  10  24  44  64  95 134 171 219 270 319 394
#     4  11  23  42  67  91 126 172 220 267 321 388
#     4  10  19  41  61  93 124 161 212 266 317 375
#     4  10  22  40  61  89 130 167 206 262 323 385
#     4  12  22  38  67  97 123 163 216 269 319 374
#     4  11  24  42  66  93 129 177 217 261 332 393
#     4  10  20  39  67  90 126 168 206 260 327 386
#
# _framework density 20.625235
#
# number of rings (size 3 to 8) (size 9 to 14) (size 15 to 20)
#    0.000    1.500    3.750    0.750    3.500    2.500 
#    0.000    3.750    0.000    0.000    0.000    0.000 
#    0.000    0.000    0.000    0.000    0.000    0.000 
#
# Total GULP energy -198244.174135 kJ/mol
# GULP energy per Si atom -12390.260883 kJ/mol
# Density = 2.057829 g / cm^3
# Si number density = 20.625235 Si / 1000 Ang^3
#
#
#
# Elastic Constant Matrix: (Units=GPa)
#
#
# Indices 1 2 3 4 5 6 
#
# 1 119.9015 57.6385 50.2811 -15.0123 -4.4508 9.4287
# 2 57.6385 92.0075 34.3326 -10.5366 -1.7505 6.2819
# 3 50.2811 34.3326 89.0256 -8.5150 -9.0530 -1.3345
# 4 -15.0123 -10.5366 -8.5150 36.3922 4.6383 3.1905
# 5 -4.4508 -1.7505 -9.0530 4.6383 38.1108 2.4785
# 6 9.4287 6.2819 -1.3345 3.1905 2.4785 29.8074
#
#
#
# Elastic Compliance Matrix: (Units=1/GPa)
#
#
# Indices 1 2 3 4 5 6 
#
# 1 0.014357 -0.006354 -0.005417 0.003151 -0.000040 -0.003779
# 2 -0.006354 0.016090 -0.002553 0.001672 -0.000708 -0.001615
# 3 -0.005417 -0.002553 0.015608 0.000087 0.002771 0.002711
# 4 0.003151 0.001672 0.000087 0.030032 -0.002909 -0.004318
# 5 -0.000040 -0.000708 0.002771 -0.002909 0.027323 -0.001675
# 6 -0.003779 -0.001615 0.002711 -0.004318 -0.001675 0.035807
#
#
# Mechanical properties :
#
#
# Convention : Reuss Voigt Hill
#
# Bulk Modulus (GPa) = 57.45128 65.04878 61.25003
# Shear Modulus (GPa) = 28.79063 31.44091 30.11577
#
# Velocity S-wave (km/s) = 3.74022 3.90858 3.82533
# Velocity P-wave (km/s) = 6.82405 7.20945 7.01940
#
# Compressibility (1/GPa) = 0.01740605
#
# Stress axis : x y z
#
# Youngs Moduli (GPa) = 69.65337 62.15001 64.07152
#
# Poissons Ratio (x) = 0.39492 0.34710
# Poissons Ratio (y) = 0.44259 0.16355
# Poissons Ratio (z) = 0.37734 0.15864
#
# Static dielectric constant tensor:
#      x y z
#    x 4.095860 -0.285070 -0.212830 
#    y -0.285070 3.888100 0.000990 
#    z -0.212830 0.000990 4.431680 
# 
# 
# High freq. dielectric constant tensor:
#      x y z
#    x 1.805340 -0.012990 0.002260 
#    y -0.012990 1.799810 -0.006930 
#    z 0.002260 -0.006930 1.805560 
# 
# From -- ./inp_files/298029.got.cif
#   From: 2010.06.25/outbox.cif.g09.slc.cpg/sg2_150_cif.got.tgz:298029.got - 2010.06.27 13:26:56.
