data_PCOD8001245
_publ_section_title
;
Structure prediction by ZEFSAII (Michael W. Deem and Ramdas Pophale) SiO2 
 PCOD8001245
Probable space group: P -1
;
_chemical_formula_sum "Si O2"
_cell_formula_units_Z 14
_cell_length_a 8.678030
_cell_length_b 13.343726
_cell_length_c 7.695156
_cell_angle_alpha 135.260293
_cell_angle_beta 100.454914
_cell_angle_gamma 61.965128
_cell_volume 536.709668
_symmetry_space_group_name_H-M "P -1"
_symmetry_group_IT_number 2
_symmetry_cell_setting 'triclinic'
loop_
_space_group_symop_operation_xyz
x,y,z
-x,-y,-z
loop_
_atom_site_type_symbol
_atom_site_label
_atom_site_fract_x
_atom_site_fract_y
_atom_site_fract_z
Si Si1 0.346005 0.293731 0.566883
Si Si2 0.869876 0.877135 0.774243
Si Si3 0.404364 0.335593 0.250108
Si Si4 0.331101 0.054084 0.829873
Si Si5 0.021215 0.824943 0.270610
Si Si6 0.169289 0.516388 0.109462
Si Si7 0.790801 0.213072 0.073389
O O1 0.181650 0.252977 0.476294
O O2 0.349475 0.384341 0.500201
O O3 0.532944 0.127370 0.431175
O O4 0.324665 0.407725 0.866812
O O5 0.823338 0.028414 0.822023
O O6 0.760466 0.959178 0.029237
O O7 0.082627 0.783342 0.742961
O O8 0.239365 0.460510 0.249599
O O9 0.440508 0.150470 0.003989
O O10 0.585611 0.339897 0.242687
O O11 0.176711 0.153028 0.777663
O O12 0.107096 0.710326 0.316378
O O13 0.158013 0.729509 0.023002
O O14 0.000000 0.000000 0.500000
O O15 0.000000 0.500000 0.000000
#
# Coordination Sequence:
#
# PCOD8001245 Si02
#       7
#     2   2   2   2   2   2   2
#     4  11  23  44  79 105 143 190 249 299 350 429
#     4   9  18  37  68 108 145 186 241 289 353 427
#     4  11  22  45  76 106 151 188 244 297 359 431
#     4  10  19  42  72 109 139 195 249 281 349 450
#     4  11  27  47  69 101 153 193 239 301 367 435
#     4  12  29  49  71 110 145 190 249 299 364 433
#     4  10  20  38  69 107 144 190 240 290 356 429
#
# _framework density 26.084866999999999
#
# number of rings (size 3 to 8) (size 9 to 14) (size 15 to 20)
#    0.000    1.429    4.286    0.857    4.000    1.714 
#    0.000    0.714    0.000    0.000    0.000    0.000 
#    0.000    0.000    0.000    0.000    0.000    0.000 
#
# Total GULP energy -173648.220169 kJ/mol
# GULP energy per Si atom -12403.444298 kJ/mol
# Density = 2.602550 g / cm^3
# Si number density = 26.084867 Si / 1000 Ang^3
#
#
#
# Elastic Constant Matrix: (Units=GPa)
#
#
# Indices 1 2 3 4 5 6 
#
# 1 122.1969 24.6660 -7.5738 1.4551 -9.5682 -16.9188
# 2 24.6660 149.0669 12.0987 6.2553 -20.6677 5.4804
# 3 -7.5738 12.0987 77.2168 15.0363 -10.6499 0.6533
# 4 1.4551 6.2553 15.0363 31.1406 3.5308 -3.1764
# 5 -9.5682 -20.6677 -10.6499 3.5308 19.4613 2.2377
# 6 -16.9188 5.4804 0.6533 -3.1764 2.2377 33.4130
#
#
#
# Elastic Compliance Matrix: (Units=1/GPa)
#
#
# Indices 1 2 3 4 5 6 
#
# 1 0.009527 -0.001302 0.001853 -0.001056 0.003974 0.004635
# 2 -0.001302 0.008457 0.000534 -0.003289 0.009576 -0.003011
# 3 0.001853 0.000534 0.016698 -0.009805 0.012538 -0.001248
# 4 -0.001056 -0.003289 -0.009805 0.040037 -0.017234 0.005157
# 5 0.003974 0.009576 0.012538 -0.017234 0.074233 -0.006413
# 6 0.004635 -0.003011 -0.001248 0.005157 -0.006413 0.033713
#
#
# Mechanical properties :
#
#
# Convention : Reuss Voigt Hill
#
# Bulk Modulus (GPa) = 27.13618 45.20695 36.17157
# Shear Modulus (GPa) = 25.93653 38.08895 32.01274
#
# Velocity S-wave (km/s) = 3.15669 3.82539 3.50702
# Velocity P-wave (km/s) = 4.86949 6.07288 5.50417
#
# Compressibility (1/GPa) = 0.03685117
#
# Stress axis : x y z
#
# Youngs Moduli (GPa) = 104.96963 118.24722 59.88796
#
# Poissons Ratio (x) = 0.15394 -0.11097
# Poissons Ratio (y) = 0.13665 -0.03197
# Poissons Ratio (z) = -0.19450 -0.06313
#
# Static dielectric constant tensor:
#      x y z
#    x 5.029850 0.014360 -0.059260 
#    y 0.014360 4.800240 -0.162600 
#    z -0.059260 -0.162600 4.555180 
# 
# 
# High freq. dielectric constant tensor:
#      x y z
#    x 2.049830 0.004840 -0.012060 
#    y 0.004840 2.045990 0.004910 
#    z -0.012060 0.004910 2.035980 
# 
# From -- ./inp_files/209419.got.cif
#   From: 2010.06.25/outbox.cif.g09.slc.cpg/sg2_105_cif.got.tgz:209419.got - 2010.06.27 13:26:56.
