data_PCOD8001553
_publ_section_title
;
Structure prediction by ZEFSAII (Michael W. Deem and Ramdas Pophale) SiO2 
 PCOD8001553
Probable space group: P -1
;
_chemical_formula_sum "Si O2"
_cell_formula_units_Z 16
_cell_length_a 11.464704
_cell_length_b 5.217809
_cell_length_c 20.239666
_cell_angle_alpha 54.422455
_cell_angle_beta 133.642549
_cell_angle_gamma 120.730325
_cell_volume 700.182460
_symmetry_space_group_name_H-M "P -1"
_symmetry_group_IT_number 2
_symmetry_cell_setting 'triclinic'
loop_
_space_group_symop_operation_xyz
x,y,z
-x,-y,-z
loop_
_atom_site_type_symbol
_atom_site_label
_atom_site_fract_x
_atom_site_fract_y
_atom_site_fract_z
Si Si1 0.763770 0.606327 0.866084
Si Si2 0.499875 0.013641 0.137379
Si Si3 0.958151 0.474056 0.589878
Si Si4 0.751408 0.709421 0.073821
Si Si5 0.734093 0.703076 0.211045
Si Si6 0.813747 0.035026 0.490264
Si Si7 0.072957 0.581280 0.922282
Si Si8 0.535077 0.127623 0.283050
O O1 0.640889 0.290200 0.886455
O O2 0.655845 0.883877 0.770293
O O3 0.876557 0.573862 0.851223
O O4 0.882974 0.669950 0.967557
O O5 0.657781 0.025680 0.146788
O O6 0.548347 0.984124 0.237070
O O7 0.402600 0.296682 0.034825
O O8 0.823534 0.213694 0.537878
O O9 0.071457 0.267848 0.705783
O O10 0.067472 0.728947 0.546814
O O11 0.867913 0.688901 0.570820
O O12 0.687344 0.534610 0.145492
O O13 0.888185 0.547109 0.115371
O O14 0.834741 0.053054 0.086432
O O15 0.636642 0.489662 0.263622
O O16 0.627320 0.955769 0.400607
#
# Coordination Sequence:
#
# PCOD8001553 Si02
#       8
#     2   2   2   2   2   2   2   2
#     4   9  20  36  54  80 107 140 181 229 271 307
#     4  10  21  34  53  80 113 145 176 218 266 321
#     4   9  19  33  49  74 104 141 173 220 257 315
#     4  11  23  38  53  80 110 151 182 213 256 323
#     4  10  23  34  53  78 113 149 179 211 264 325
#     4   9  19  31  51  75 105 134 176 217 270 312
#     4  10  22  37  57  77 107 144 185 227 260 304
#     4  10  20  33  55  81 112 143 171 222 274 324
#
# _framework density 22.851189000000002
#
# number of rings (size 3 to 8) (size 9 to 14) (size 15 to 20)
#    0.000    2.250    1.250    0.375   14.000    2.000 
#    0.000    0.000    0.000    0.000    0.000    5.250 
#    0.000    0.000    0.000    0.000    0.000    0.000 
#
# Total GULP energy -198224.496233 kJ/mol
# GULP energy per Si atom -12389.031015 kJ/mol
# Density = 2.279918 g / cm^3
# Si number density = 22.851189 Si / 1000 Ang^3
#
#
#
# Elastic Constant Matrix: (Units=GPa)
#
#
# Indices 1 2 3 4 5 6 
#
# 1 121.7018 41.9238 63.2830 -3.4682 30.4270 -40.5553
# 2 41.9238 59.0327 27.0129 9.7449 10.3853 -38.6710
# 3 63.2830 27.0129 126.0675 20.8815 32.1484 -19.9522
# 4 -3.4682 9.7449 20.8815 25.8993 -7.8937 -5.3004
# 5 30.4270 10.3853 32.1484 -7.8937 32.8541 -4.9550
# 6 -40.5553 -38.6710 -19.9522 -5.3004 -4.9550 38.4795
#
#
#
# Elastic Compliance Matrix: (Units=1/GPa)
#
#
# Indices 1 2 3 4 5 6 
#
# 1 0.019635 0.000839 -0.007180 0.009956 -0.006260 0.018380
# 2 0.000839 0.057522 0.004231 -0.019443 -0.019369 0.055714
# 3 -0.007180 0.004231 0.019930 -0.024467 -0.019905 0.001085
# 4 0.009956 -0.019443 -0.024467 0.077494 0.038567 -0.006092
# 5 -0.006260 -0.019369 -0.019905 0.038567 0.067730 -0.022349
# 6 0.018380 0.055714 0.001085 -0.006092 -0.022349 0.098196
#
#
# Mechanical properties :
#
#
# Convention : Reuss Voigt Hill
#
# Bulk Modulus (GPa) = 10.76814 63.47126 37.11970
# Shear Modulus (GPa) = 13.30912 31.08539 22.19726
#
# Velocity S-wave (km/s) = 2.41597 3.69228 3.12008
# Velocity P-wave (km/s) = 3.53625 6.78332 5.40918
#
# Compressibility (1/GPa) = 0.09286658
#
# Stress axis : x y z
#
# Youngs Moduli (GPa) = 50.93053 17.38464 50.17536
#
# Poissons Ratio (x) = -0.01459 0.36025
# Poissons Ratio (y) = -0.04274 -0.21228
# Poissons Ratio (z) = 0.36568 -0.07355
#
# Static dielectric constant tensor:
#      x y z
#    x 4.010030 -0.198690 0.379890 
#    y -0.198690 4.056150 -0.087090 
#    z 0.379890 -0.087090 4.368200 
# 
# 
# High freq. dielectric constant tensor:
#      x y z
#    x 1.870290 -0.028340 0.027210 
#    y -0.028340 1.894560 0.006750 
#    z 0.027210 0.006750 1.890150 
# 
# From -- ./inp_files/78650.got.cif
#   From: 2010.06.25/outbox.cif.g09.slc.cpg/sg2_40_cif.got.tgz:78650.got - 2010.06.27 13:26:56.
