data_PCOD8001897
_publ_section_title
;
Structure prediction by ZEFSAII (Michael W. Deem and Ramdas Pophale) SiO2 
 PCOD8001897
Probable space group: P -1
;
_chemical_formula_sum "Si O2"
_cell_formula_units_Z 16
_cell_length_a 8.796361
_cell_length_b 15.442821
_cell_length_c 8.474948
_cell_angle_alpha 85.285596
_cell_angle_beta 115.446956
_cell_angle_gamma 62.012274
_cell_volume 857.851681
_symmetry_space_group_name_H-M "P -1"
_symmetry_group_IT_number 2
_symmetry_cell_setting 'triclinic'
loop_
_space_group_symop_operation_xyz
x,y,z
-x,-y,-z
loop_
_atom_site_type_symbol
_atom_site_label
_atom_site_fract_x
_atom_site_fract_y
_atom_site_fract_z
Si Si1 0.478781 0.265015 0.547284
Si Si2 0.099552 0.126694 0.783566
Si Si3 0.239204 0.894815 0.886188
Si Si4 0.638270 0.810022 0.232102
Si Si5 0.060895 0.395515 0.457424
Si Si6 0.737205 0.215889 0.378007
Si Si7 0.179545 0.754875 0.089216
Si Si8 0.288854 0.610607 0.870706
O O1 0.474379 0.170954 0.649138
O O2 0.557535 0.235186 0.409625
O O3 0.618029 0.291004 0.707344
O O4 0.245484 0.366409 0.423693
O O5 0.934638 0.183937 0.566258
O O6 0.016051 0.201391 0.890326
O O7 0.304978 0.108668 0.805279
O O8 0.143475 0.015140 0.866839
O O9 0.204135 0.882575 0.689875
O O10 0.482706 0.819607 0.030890
O O11 0.129230 0.855594 0.951534
O O12 0.848976 0.693974 0.351428
O O13 0.875784 0.405163 0.279849
O O14 0.000000 0.500000 0.500000
O O15 0.666500 0.318675 0.228350
O O16 0.208121 0.664498 0.998955
O O17 0.500000 0.500000 0.000000
#
# Coordination Sequence:
#
# PCOD8001897 Si02
#       8
#     2   2   2   2   2   2   2   2
#     4   8  18  37  55  77 114 147 174 224 282 319
#     4  11  19  37  57  85 109 153 185 226 278 320
#     4  10  20  34  59  81 115 148 187 226 273 324
#     4   9  20  37  54  79 115 144 185 227 271 330
#     4  10  20  38  60  76 111 147 180 224 287 322
#     4  10  20  37  57  84 114 143 184 233 267 332
#     4   9  20  36  56  83 115 143 186 231 265 332
#     4  11  22  38  59  85 109 143 185 232 276 328
#
# _framework density 18.651243000000001
#
# number of rings (size 3 to 8) (size 9 to 14) (size 15 to 20)
#    0.750    1.500    1.250    1.875    1.750    1.000 
#    2.250    3.125    0.000    0.000    0.000    0.000 
#    0.000    0.000    0.000    0.000    0.000    0.000 
#
# Total GULP energy -198224.904342 kJ/mol
# GULP energy per Si atom -12389.056521 kJ/mol
# Density = 1.860879 g / cm^3
# Si number density = 18.651243 Si / 1000 Ang^3
#
#
#
# Elastic Constant Matrix: (Units=GPa)
#
#
# Indices 1 2 3 4 5 6 
#
# 1 106.2312 26.4967 31.2117 18.1987 -5.0332 -8.1393
# 2 26.4967 94.0471 39.6451 11.9556 -6.5698 -3.1296
# 3 31.2117 39.6451 76.0448 7.4336 -10.8578 -9.3033
# 4 18.1987 11.9556 7.4336 29.8904 -4.0099 -5.1253
# 5 -5.0332 -6.5698 -10.8578 -4.0099 19.7483 2.2087
# 6 -8.1393 -3.1296 -9.3033 -5.1253 2.2087 21.4291
#
#
#
# Elastic Compliance Matrix: (Units=1/GPa)
#
#
# Indices 1 2 3 4 5 6 
#
# 1 0.011807 -0.001060 -0.003655 -0.005697 -0.000672 0.001450
# 2 -0.001060 0.014237 -0.006869 -0.003694 0.000186 -0.002209
# 3 -0.003655 -0.006869 0.019818 0.002060 0.007433 0.005939
# 4 -0.005697 -0.003694 0.002060 0.039885 0.005752 0.007137
# 5 -0.000672 0.000186 0.007433 0.005752 0.055938 -0.001391
# 6 0.001450 -0.002209 0.005939 0.007137 -0.001391 0.051322
#
#
# Mechanical properties :
#
#
# Convention : Reuss Voigt Hill
#
# Bulk Modulus (GPa) = 44.06760 52.33668 48.20214
# Shear Modulus (GPa) = 22.34728 26.14487 24.24607
#
# Velocity S-wave (km/s) = 3.46521 3.74809 3.60942
# Velocity P-wave (km/s) = 6.29990 6.84489 6.57804
#
# Compressibility (1/GPa) = 0.02269241
#
# Stress axis : x y z
#
# Youngs Moduli (GPa) = 84.69578 70.24159 50.45873
#
# Poissons Ratio (x) = 0.07447 0.18443
# Poissons Ratio (y) = 0.08979 0.34662
# Poissons Ratio (z) = 0.30956 0.48252
#
# Static dielectric constant tensor:
#      x y z
#    x 3.536800 -0.039710 -0.006610 
#    y -0.039710 3.182590 -0.002000 
#    z -0.006610 -0.002000 3.500480 
# 
# 
# High freq. dielectric constant tensor:
#      x y z
#    x 1.724530 -0.001240 0.001800 
#    y -0.001240 1.700670 -0.003070 
#    z 0.001800 -0.003070 1.728600 
# 
# From -- ./inp_files/207427.got.cif
#   From: 2010.06.25/outbox.cif.g09.slc.cpg/sg2_104_cif.got.tgz:207427.got - 2010.06.27 13:26:56.
