data_PCOD8001584
_publ_section_title
;
Structure prediction by ZEFSAII (Michael W. Deem and Ramdas Pophale) SiO2 
 PCOD8001584
Probable space group: P -1
;
_chemical_formula_sum "Si O2"
_cell_formula_units_Z 16
_cell_length_a 12.994577
_cell_length_b 13.616672
_cell_length_c 11.194301
_cell_angle_alpha 73.491567
_cell_angle_beta 128.355597
_cell_angle_gamma 147.596925
_cell_volume 683.561068
_symmetry_space_group_name_H-M "P -1"
_symmetry_group_IT_number 2
_symmetry_cell_setting 'triclinic'
loop_
_space_group_symop_operation_xyz
x,y,z
-x,-y,-z
loop_
_atom_site_type_symbol
_atom_site_label
_atom_site_fract_x
_atom_site_fract_y
_atom_site_fract_z
Si Si1 0.789664 0.133195 0.331780
Si Si2 0.033184 0.784051 0.189535
Si Si3 0.361839 0.333793 0.160798
Si Si4 0.420295 0.052412 0.149159
Si Si5 0.008655 0.923801 0.804245
Si Si6 0.289473 0.436438 0.442509
Si Si7 0.266508 0.082823 0.459076
Si Si8 0.212942 0.518436 0.691859
O O1 0.505388 0.006892 0.157512
O O2 0.950677 0.229419 0.288688
O O3 0.998609 0.341113 0.495604
O O4 0.706710 0.965067 0.385422
O O5 0.929889 0.608470 0.239840
O O6 0.740001 0.640153 0.998344
O O7 0.205278 0.874546 0.162564
O O8 0.236583 0.988535 0.355151
O O9 0.086394 0.105767 0.120279
O O10 0.611714 0.536914 0.365103
O O11 0.482510 0.330976 0.158933
O O12 0.708753 0.307026 0.318171
O O13 0.285055 0.042942 0.963123
O O14 0.731255 0.666461 0.640194
O O15 0.014071 0.034504 0.695192
O O16 0.451062 0.651917 0.444133
#
# Coordination Sequence:
#
# PCOD8001584 Si02
#       8
#     2   2   2   2   2   2   2   2
#     4  10  23  37  56  84 110 145 186 222 271 331
#     4  10  20  33  56  87 114 141 176 223 280 331
#     4   9  17  33  56  83 111 137 178 227 271 322
#     4  11  22  37  55  82 116 145 181 224 269 328
#     4  10  21  37  59  81 108 148 187 227 272 315
#     4  10  21  38  57  78 110 148 187 228 269 315
#     4  10  20  37  59  83 110 141 180 229 277 323
#     4  10  20  34  57  83 112 144 176 221 279 332
#
# _framework density 23.406834
#
# number of rings (size 3 to 8) (size 9 to 14) (size 15 to 20)
#    0.000    2.000    0.000    5.250    0.000    9.500 
#    0.000    4.375    0.000    0.000    0.000    0.000 
#    0.000    0.000    0.000    0.000    0.000    0.000 
#
# Total GULP energy -198263.360964 kJ/mol
# GULP energy per Si atom -12391.460060 kJ/mol
# Density = 2.335356 g / cm^3
# Si number density = 23.406834 Si / 1000 Ang^3
#
#
#
# Elastic Constant Matrix: (Units=GPa)
#
#
# Indices 1 2 3 4 5 6 
#
# 1 92.2893 48.4000 9.8405 -13.7694 22.4344 1.0903
# 2 48.4000 101.2716 16.1955 -3.6004 6.0826 -0.8631
# 3 9.8405 16.1955 27.6057 -4.5645 13.0330 -7.6760
# 4 -13.7694 -3.6004 -4.5645 22.9174 -7.8002 5.6118
# 5 22.4344 6.0826 13.0330 -7.8002 33.3908 0.9541
# 6 1.0903 -0.8631 -7.6760 5.6118 0.9541 22.5753
#
#
#
# Elastic Compliance Matrix: (Units=1/GPa)
#
#
# Indices 1 2 3 4 5 6 
#
# 1 0.018732 -0.008776 0.004614 0.007279 -0.011058 -0.001014
# 2 -0.008776 0.015145 -0.009753 -0.002116 0.006509 -0.002062
# 3 0.004614 -0.009753 0.057303 -0.000561 -0.024394 0.020059
# 4 0.007279 -0.002116 -0.000561 0.054081 0.008760 -0.014437
# 5 -0.011058 0.006509 -0.024394 0.008760 0.048095 -0.011721
# 6 -0.001014 -0.002062 0.020059 -0.014437 -0.011721 0.055171
#
#
# Mechanical properties :
#
#
# Convention : Reuss Voigt Hill
#
# Bulk Modulus (GPa) = 15.78546 41.11542 28.45044
# Shear Modulus (GPa) = 16.80823 25.55874 21.18349
#
# Velocity S-wave (km/s) = 2.68263 3.30803 3.01161
# Velocity P-wave (km/s) = 4.04400 5.67401 4.92688
#
# Compressibility (1/GPa) = 0.06334944
#
# Stress axis : x y z
#
# Youngs Moduli (GPa) = 53.38378 66.02974 17.45120
#
# Poissons Ratio (x) = 0.57948 -0.08052
# Poissons Ratio (y) = 0.46850 0.17020
# Poissons Ratio (z) = -0.24631 0.64398
#
# Static dielectric constant tensor:
#      x y z
#    x 4.464620 0.066520 0.257420 
#    y 0.066520 3.989160 -0.002840 
#    z 0.257420 -0.002840 4.258970 
# 
# 
# High freq. dielectric constant tensor:
#      x y z
#    x 1.925250 0.001490 0.010800 
#    y 0.001490 1.906070 0.006070 
#    z 0.010800 0.006070 1.919980 
# 
# From -- ./inp_files/281386.got.cif
#   From: 2010.06.25/outbox.cif.g09.slc.cpg/sg2_141_cif.got.tgz:281386.got - 2010.06.27 13:26:56.
