data_PCOD8001281
_publ_section_title
;
Structure prediction by ZEFSAII (Michael W. Deem and Ramdas Pophale) SiO2 
 PCOD8001281
Probable space group: P -1
;
_chemical_formula_sum "Si O2"
_cell_formula_units_Z 16
_cell_length_a 11.683276
_cell_length_b 11.124480
_cell_length_c 9.136195
_cell_angle_alpha 118.133001
_cell_angle_beta 52.002425
_cell_angle_gamma 87.607011
_cell_volume 724.906471
_symmetry_space_group_name_H-M "P -1"
_symmetry_group_IT_number 2
_symmetry_cell_setting 'triclinic'
loop_
_space_group_symop_operation_xyz
x,y,z
-x,-y,-z
loop_
_atom_site_type_symbol
_atom_site_label
_atom_site_fract_x
_atom_site_fract_y
_atom_site_fract_z
Si Si1 0.150764 0.109938 0.555089
Si Si2 0.744811 0.434018 0.604322
Si Si3 0.916322 0.842764 0.802820
Si Si4 0.815578 0.124288 0.825257
Si Si5 0.862349 0.648522 0.499889
Si Si6 0.226413 0.457923 0.038708
Si Si7 0.308349 0.115685 0.736965
Si Si8 0.433453 0.546969 0.740353
O O1 0.221886 0.206083 0.460955
O O2 0.206516 0.109396 0.674556
O O3 0.950915 0.185304 0.736753
O O4 0.221916 0.936357 0.333327
O O5 0.756709 0.562052 0.564193
O O6 0.729642 0.477096 0.811883
O O7 0.572875 0.448231 0.694107
O O8 0.891731 0.258095 0.354406
O O9 0.888653 0.709593 0.670176
O O10 0.892618 0.982319 0.797175
O O11 0.782556 0.923102 0.082132
O O12 0.640562 0.266506 0.089510
O O13 0.031127 0.523857 0.220665
O O14 0.306714 0.274629 0.865651
O O15 0.286967 0.508882 0.874809
O O16 0.500000 0.000000 0.500000
O O17 0.500000 0.500000 0.500000
#
# Coordination Sequence:
#
# PCOD8001281 Si02
#       8
#     2   2   2   2   2   2   2   2
#     4  10  24  42  71  95 131 184 221 276 341 404
#     4  11  23  43  73  98 132 184 225 283 339 398
#     4  10  22  43  68  98 132 173 231 274 335 410
#     4  10  24  47  67  95 137 180 226 271 344 409
#     4  10  19  43  73  96 124 180 231 271 333 404
#     4  11  23  46  67  97 139 175 227 277 339 409
#     4  12  27  40  66 103 138 175 227 282 340 399
#     4  12  29  43  67 104 138 176 230 284 338 397
#
# _framework density 22.071814
#
# number of rings (size 3 to 8) (size 9 to 14) (size 15 to 20)
#    0.000    1.250    3.750    1.125    8.750    2.000 
#    0.000    2.500    0.000    0.000    0.000    0.000 
#    0.000    0.000    0.000    0.000    0.000    0.000 
#
# Total GULP energy -198348.580984 kJ/mol
# GULP energy per Si atom -12396.786311 kJ/mol
# Density = 2.202158 g / cm^3
# Si number density = 22.071814 Si / 1000 Ang^3
#
#
#
# Elastic Constant Matrix: (Units=GPa)
#
#
# Indices 1 2 3 4 5 6 
#
# 1 50.2766 -5.9178 28.3875 2.3082 4.0543 -10.4186
# 2 -5.9178 67.6515 23.9428 -10.3677 -1.3993 -3.2136
# 3 28.3875 23.9428 157.6851 -1.7388 1.1955 -9.2871
# 4 2.3082 -10.3677 -1.7388 41.7392 -11.5050 -2.9198
# 5 4.0543 -1.3993 1.1955 -11.5050 26.5099 -0.7949
# 6 -10.4186 -3.2136 -9.2871 -2.9198 -0.7949 18.3306
#
#
#
# Elastic Compliance Matrix: (Units=1/GPa)
#
#
# Indices 1 2 3 4 5 6 
#
# 1 0.025957 0.004338 -0.004548 -0.000576 -0.003397 0.012970
# 2 0.004338 0.017310 -0.003089 0.005018 0.002713 0.004852
# 3 -0.004548 -0.003089 0.007671 -0.000098 0.000167 0.000752
# 4 -0.000576 0.005018 -0.000098 0.029283 0.013238 0.005741
# 5 -0.003397 0.002713 0.000167 0.013238 0.044202 0.002655
# 6 0.012970 0.004852 0.000752 0.005741 0.002655 0.064187
#
#
# Mechanical properties :
#
#
# Convention : Reuss Voigt Hill
#
# Bulk Modulus (GPa) = 22.55313 40.93760 31.74537
# Shear Modulus (GPa) = 23.81086 32.59598 28.20342
#
# Velocity S-wave (km/s) = 3.28806 3.84710 3.57851
# Velocity P-wave (km/s) = 4.96542 6.19042 5.61145
#
# Compressibility (1/GPa) = 0.04433974
#
# Stress axis : x y z
#
# Youngs Moduli (GPa) = 38.52563 57.77046 130.35282
#
# Poissons Ratio (x) = -0.25059 0.59288
# Poissons Ratio (y) = -0.16711 0.40262
# Poissons Ratio (z) = 0.17522 0.17844
#
# Static dielectric constant tensor:
#      x y z
#    x 3.720900 -0.016460 -0.016850 
#    y -0.016460 3.994160 0.045910 
#    z -0.016850 0.045910 4.164370 
# 
# 
# High freq. dielectric constant tensor:
#      x y z
#    x 1.842700 -0.001240 0.001050 
#    y -0.001240 1.876980 -0.003650 
#    z 0.001050 -0.003650 1.881120 
# 
# From -- ./inp_files/262914.got.cif
#   From: 2010.06.25/outbox.cif.g09.slc.cpg/sg2_132_cif.got.tgz:262914.got - 2010.06.27 13:26:56.
