data_PCOD8001694
_publ_section_title
;
Structure prediction by ZEFSAII (Michael W. Deem and Ramdas Pophale) SiO2 
 PCOD8001694
Probable space group: P -1
;
_chemical_formula_sum "Si O2"
_cell_formula_units_Z 14
_cell_length_a 27.834260
_cell_length_b 11.871859
_cell_length_c 15.485513
_cell_angle_alpha 154.622705
_cell_angle_beta 160.629433
_cell_angle_gamma 24.866954
_cell_volume 670.895888
_symmetry_space_group_name_H-M "P -1"
_symmetry_group_IT_number 2
_symmetry_cell_setting 'triclinic'
loop_
_space_group_symop_operation_xyz
x,y,z
-x,-y,-z
loop_
_atom_site_type_symbol
_atom_site_label
_atom_site_fract_x
_atom_site_fract_y
_atom_site_fract_z
Si Si1 0.658293 0.293018 0.533001
Si Si2 0.108601 0.226935 0.144820
Si Si3 0.189644 0.866322 0.491947
Si Si4 0.661070 0.585024 0.432155
Si Si5 0.854258 0.651551 0.109367
Si Si6 0.611518 0.124114 0.515914
Si Si7 0.600163 0.106403 0.904735
O O1 0.720350 0.102702 0.420252
O O2 0.646540 0.088483 0.447967
O O3 0.489915 0.545609 0.405233
O O4 0.783881 0.426564 0.867924
O O5 0.197211 0.318671 0.282568
O O6 0.030729 0.488045 0.261376
O O7 0.228218 0.962287 0.218145
O O8 0.978163 0.137805 0.817762
O O9 0.305374 0.566502 0.523235
O O10 0.157590 0.131055 0.683692
O O11 0.488212 0.846950 0.306946
O O12 0.655541 0.362408 0.195403
O O13 0.753575 0.813633 0.966188
O O14 0.521331 0.918080 0.245094
#
# Coordination Sequence:
#
# PCOD8001694 Si02
#       7
#     2   2   2   2   2   2   2
#     4   9  19  38  58  74 102 138 176 220 255 301
#     4  10  20  35  54  78 109 139 169 212 262 314
#     4  10  20  34  53  82 108 135 172 214 261 310
#     4   9  17  33  53  77 106 137 176 214 253 306
#     4   9  19  35  53  79 108 138 172 210 262 311
#     4   9  18  37  57  75 102 139 177 214 260 306
#     4   8  16  32  54  75 100 137 177 210 250 303
#
# _framework density 20.867619999999999
#
# number of rings (size 3 to 8) (size 9 to 14) (size 15 to 20)
#    0.000    2.857    0.000    0.429    0.000    4.571 
#    0.000   37.143    0.000    0.000    0.000    0.000 
#    0.000    0.000    0.000    0.000    0.000    0.000 
#
# Total GULP energy -173493.242884 kJ/mol
# GULP energy per Si atom -12392.374492 kJ/mol
# Density = 2.082012 g / cm^3
# Si number density = 20.867620 Si / 1000 Ang^3
#
#
#
# Elastic Constant Matrix: (Units=GPa)
#
#
# Indices 1 2 3 4 5 6 
#
# 1 69.0330 17.8123 23.6727 0.9650 -14.8083 1.7843
# 2 17.8123 49.5898 33.6541 -12.3516 -6.7171 13.8346
# 3 23.6727 33.6541 70.9575 -17.5387 -12.5285 -1.2091
# 4 0.9650 -12.3516 -17.5387 31.7564 -3.8991 -4.4421
# 5 -14.8083 -6.7171 -12.5285 -3.8991 25.9769 3.6924
# 6 1.7843 13.8346 -1.2091 -4.4421 3.6924 30.9547
#
#
#
# Elastic Compliance Matrix: (Units=1/GPa)
#
#
# Indices 1 2 3 4 5 6 
#
# 1 0.018404 -0.003389 -0.004107 -0.003401 0.007275 -0.001063
# 2 -0.003389 0.038469 -0.015690 0.004406 0.003584 -0.017406
# 3 -0.004107 -0.015690 0.027037 0.011084 0.007018 0.009058
# 4 -0.003401 0.004406 0.011084 0.041154 0.010248 0.003343
# 5 0.007275 0.003584 0.007018 0.010248 0.049369 -0.006165
# 6 -0.001063 -0.017406 0.009058 0.003343 -0.006165 0.041715
#
#
# Mechanical properties :
#
#
# Convention : Reuss Voigt Hill
#
# Bulk Modulus (GPa) = 26.63819 37.76205 32.20012
# Shear Modulus (GPa) = 18.17971 25.36702 21.77336
#
# Velocity S-wave (km/s) = 2.95480 3.49035 3.23368
# Velocity P-wave (km/s) = 4.94309 5.86333 5.42277
#
# Compressibility (1/GPa) = 0.03754008
#
# Stress axis : x y z
#
# Youngs Moduli (GPa) = 54.33566 25.99490 36.98574
#
# Poissons Ratio (x) = 0.08809 0.15190
# Poissons Ratio (y) = 0.18413 0.58029
# Poissons Ratio (z) = 0.22315 0.40785
#
# Static dielectric constant tensor:
#      x y z
#    x 3.677920 0.206350 0.066650 
#    y 0.206350 3.920150 -0.298950 
#    z 0.066650 -0.298950 3.693420 
# 
# 
# High freq. dielectric constant tensor:
#      x y z
#    x 1.803310 0.012290 0.004330 
#    y 0.012290 1.814620 -0.017610 
#    z 0.004330 -0.017610 1.811910 
# 
# From -- ./inp_files/187017.got.cif
#   From: 2010.06.25/outbox.cif.g09.slc.cpg/sg2_94_cif.got.tgz:187017.got - 2010.06.27 13:26:56.
