data_PCOD8001574
_publ_section_title
;
Structure prediction by ZEFSAII (Michael W. Deem and Ramdas Pophale) SiO2 
 PCOD8001574
Probable space group: P -1
;
_chemical_formula_sum "Si O2"
_cell_formula_units_Z 14
_cell_length_a 8.460928
_cell_length_b 28.417828
_cell_length_c 22.550025
_cell_angle_alpha 10.800831
_cell_angle_beta 42.246454
_cell_angle_gamma 42.809643
_cell_volume 682.210668
_symmetry_space_group_name_H-M "P -1"
_symmetry_group_IT_number 2
_symmetry_cell_setting 'triclinic'
loop_
_space_group_symop_operation_xyz
x,y,z
-x,-y,-z
loop_
_atom_site_type_symbol
_atom_site_label
_atom_site_fract_x
_atom_site_fract_y
_atom_site_fract_z
Si Si1 0.960499 0.105544 0.730592
Si Si2 0.400628 0.633332 0.092806
Si Si3 0.084008 0.126252 0.097581
Si Si4 0.352890 0.447754 0.701759
Si Si5 0.763176 0.651965 0.393462
Si Si6 0.496923 0.992875 0.307432
Si Si7 0.792135 0.329031 0.286463
O O1 0.869693 0.392650 0.406174
O O2 0.238720 0.095442 0.675121
O O3 0.886098 0.984127 0.839473
O O4 0.828506 0.943638 0.017957
O O5 0.340432 0.442716 0.398786
O O6 0.588797 0.493009 0.172868
O O7 0.166718 0.720534 0.013926
O O8 0.508044 0.891940 0.767584
O O9 0.103461 0.896955 0.422223
O O10 0.281885 0.332503 0.800209
O O11 0.581191 0.615182 0.434657
O O12 0.403345 0.209447 0.022806
O O13 0.000000 0.500000 0.500000
O O14 0.323432 0.767086 0.624103
O O15 0.000000 0.500000 0.000000
#
# Coordination Sequence:
#
# PCOD8001574 Si02
#       7
#     2   2   2   2   2   2   2
#     4  11  20  38  60  85 122 157 190 232 285 346
#     4  10  21  41  60  83 123 155 189 237 291 339
#     4  10  21  38  61  85 116 152 195 240 284 346
#     4  10  20  33  56  84 117 158 193 230 281 335
#     4  11  19  38  59  86 124 160 186 235 284 340
#     4   9  20  39  60  82 121 149 189 246 290 341
#     4  11  24  41  62  88 113 149 199 246 294 345
#
# _framework density 20.521519999999999
#
# number of rings (size 3 to 8) (size 9 to 14) (size 15 to 20)
#    0.000    1.714    4.286    3.000    0.000    1.714 
#    0.000    8.571    0.000    0.000    0.000    0.000 
#    0.000    0.000    0.000    0.000    0.000    0.000 
#
# Total GULP energy -173463.152423 kJ/mol
# GULP energy per Si atom -12390.225173 kJ/mol
# Density = 2.047481 g / cm^3
# Si number density = 20.521520 Si / 1000 Ang^3
#
#
#
# Elastic Constant Matrix: (Units=GPa)
#
#
# Indices 1 2 3 4 5 6 
#
# 1 118.3779 19.1610 36.3778 -11.5371 -9.8346 -22.5680
# 2 19.1610 73.6726 48.4530 -21.0563 3.3080 -8.3792
# 3 36.3778 48.4530 109.5551 -11.3681 -18.7079 -17.4931
# 4 -11.5371 -21.0563 -11.3681 33.3470 -7.5147 2.2995
# 5 -9.8346 3.3080 -18.7079 -7.5147 35.7942 -1.5638
# 6 -22.5680 -8.3792 -17.4931 2.2995 -1.5638 21.2541
#
#
#
# Elastic Compliance Matrix: (Units=1/GPa)
#
#
# Indices 1 2 3 4 5 6 
#
# 1 0.011629 -0.000319 -0.000816 0.003671 0.004069 0.011453
# 2 -0.000319 0.023454 -0.010374 0.009971 -0.005633 -0.001123
# 3 -0.000816 -0.010374 0.017471 0.000786 0.010472 0.010109
# 4 0.003671 0.009971 0.000786 0.039516 0.009007 0.004864
# 5 0.004069 -0.005633 0.010472 0.009007 0.037487 0.012503
# 6 0.011453 -0.001123 0.010109 0.004864 0.012503 0.067481
#
#
# Mechanical properties :
#
#
# Convention : Reuss Voigt Hill
#
# Bulk Modulus (GPa) = 33.85587 56.62102 45.23845
# Shear Modulus (GPa) = 21.74853 31.25331 26.50092
#
# Velocity S-wave (km/s) = 3.25898 3.90674 3.59747
# Velocity P-wave (km/s) = 5.54029 6.92828 6.27279
#
# Compressibility (1/GPa) = 0.02953698
#
# Stress axis : x y z
#
# Youngs Moduli (GPa) = 85.99070 42.63651 57.23877
#
# Poissons Ratio (x) = 0.01359 0.04670
# Poissons Ratio (y) = 0.02742 0.59378
# Poissons Ratio (z) = 0.07016 0.44230
#
# Static dielectric constant tensor:
#      x y z
#    x 4.459500 -0.180250 -0.483260 
#    y -0.180250 3.604320 -0.296010 
#    z -0.483260 -0.296010 3.576240 
# 
# 
# High freq. dielectric constant tensor:
#      x y z
#    x 1.823290 -0.023000 -0.009350 
#    y -0.023000 1.776210 -0.030500 
#    z -0.009350 -0.030500 1.798980 
# 
# From -- ./inp_files/196670.got.cif
#   From: 2010.06.25/outbox.cif.g09.slc.cpg/sg2_99_cif.got.tgz:196670.got - 2010.06.27 13:26:56.
