data_PCOD8001299
_publ_section_title
;
Structure prediction by ZEFSAII (Michael W. Deem and Ramdas Pophale) SiO2 
 PCOD8001299
Probable space group: P -1
;
_chemical_formula_sum "Si O2"
_cell_formula_units_Z 14
_cell_length_a 9.764059
_cell_length_b 11.955953
_cell_length_c 8.960425
_cell_angle_alpha 59.297652
_cell_angle_beta 43.895810
_cell_angle_gamma 65.887857
_cell_volume 622.155560
_symmetry_space_group_name_H-M "P -1"
_symmetry_group_IT_number 2
_symmetry_cell_setting 'triclinic'
loop_
_space_group_symop_operation_xyz
x,y,z
-x,-y,-z
loop_
_atom_site_type_symbol
_atom_site_label
_atom_site_fract_x
_atom_site_fract_y
_atom_site_fract_z
Si Si1 0.655830 0.761652 0.290053
Si Si2 0.287227 0.352307 0.353653
Si Si3 0.331669 0.461316 0.770823
Si Si4 0.611657 0.371267 0.870739
Si Si5 0.050051 0.791682 0.437129
Si Si6 0.195598 0.743180 0.677334
Si Si7 0.963137 0.949591 0.899026
O O1 0.724045 0.711075 0.432898
O O2 0.760198 0.662922 0.150656
O O3 0.420847 0.776300 0.447093
O O4 0.740283 0.902311 0.099879
O O5 0.251292 0.509534 0.283642
O O6 0.122549 0.297816 0.414478
O O7 0.508891 0.317949 0.136558
O O8 0.500000 0.500000 0.500000
O O9 0.426336 0.423899 0.880024
O O10 0.178749 0.588013 0.824885
O O11 0.742095 0.256011 0.769151
O O12 0.064589 0.785107 0.607912
O O13 0.002652 0.940232 0.324433
O O14 0.114866 0.825177 0.827923
O O15 0.000000 0.000000 0.000000
#
# Coordination Sequence:
#
# PCOD8001299 Si02
#       7
#     2   2   2   2   2   2   2
#     4  11  23  47  71  99 136 183 225 284 337 401
#     4  11  24  40  71 103 138 173 225 283 345 391
#     4  10  19  44  72 101 131 174 227 279 344 400
#     4  11  23  43  70 104 137 176 221 282 350 398
#     4  12  25  46  65 103 139 177 230 279 327 413
#     4  11  25  46  73  97 141 178 225 285 340 402
#     4  12  29  45  68 103 137 184 235 270 336 408
#
# _framework density 22.502409
#
# number of rings (size 3 to 8) (size 9 to 14) (size 15 to 20)
#    0.000    0.857    7.143    0.857    4.000    2.857 
#    2.571    0.000    0.000    0.000    0.000    0.000 
#    0.000    0.000    0.000    0.000    0.000    0.000 
#
# Total GULP energy -173630.705836 kJ/mol
# GULP energy per Si atom -12402.193274 kJ/mol
# Density = 2.245119 g / cm^3
# Si number density = 22.502409 Si / 1000 Ang^3
#
#
#
# Elastic Constant Matrix: (Units=GPa)
#
#
# Indices 1 2 3 4 5 6 
#
# 1 120.9349 49.6068 24.1932 -12.9795 -9.0286 22.1347
# 2 49.6068 134.8186 36.7526 5.1824 6.6010 19.4463
# 3 24.1932 36.7526 64.1478 -7.5441 -6.9206 12.5860
# 4 -12.9795 5.1824 -7.5441 40.7995 8.2177 -0.9920
# 5 -9.0286 6.6010 -6.9206 8.2177 13.7294 -3.7469
# 6 22.1347 19.4463 12.5860 -0.9920 -3.7469 37.9042
#
#
#
# Elastic Compliance Matrix: (Units=1/GPa)
#
#
# Indices 1 2 3 4 5 6 
#
# 1 0.011455 -0.004037 -0.000220 0.002669 0.006726 -0.003810
# 2 -0.004037 0.011503 -0.005913 -0.001714 -0.010877 -0.002700
# 3 -0.000220 -0.005913 0.021059 0.002246 0.011243 -0.002660
# 4 0.002669 -0.001714 0.002246 0.028777 -0.014077 -0.002064
# 5 0.006726 -0.010877 0.011243 -0.014077 0.098573 0.007295
# 6 -0.003810 -0.002700 -0.002660 -0.002064 0.007295 0.031543
#
#
# Mechanical properties :
#
#
# Convention : Reuss Voigt Hill
#
# Bulk Modulus (GPa) = 42.23667 60.11183 51.17425
# Shear Modulus (GPa) = 21.63173 32.44322 27.03747
#
# Velocity S-wave (km/s) = 3.10386 3.80118 3.47008
# Velocity P-wave (km/s) = 5.62635 6.78504 6.23268
#
# Compressibility (1/GPa) = 0.02367611
#
# Stress axis : x y z
#
# Youngs Moduli (GPa) = 87.29868 86.93594 47.48616
#
# Poissons Ratio (x) = 0.35098 0.01045
# Poissons Ratio (y) = 0.35244 0.28078
# Poissons Ratio (z) = 0.01921 0.51404
#
# Static dielectric constant tensor:
#      x y z
#    x 4.209870 0.477420 0.240120 
#    y 0.477420 4.505990 0.119900 
#    z 0.240120 0.119900 4.229320 
# 
# 
# High freq. dielectric constant tensor:
#      x y z
#    x 1.887300 0.021040 0.002990 
#    y 0.021040 1.885760 0.002470 
#    z 0.002990 0.002470 1.890980 
# 
# From -- ./inp_files/180820.got.cif
#   From: 2010.06.25/outbox.cif.g09.slc.cpg/sg2_91_cif.got.tgz:180820.got - 2010.06.27 13:26:56.
