data_PCOD8001315
_publ_section_title
;
Structure prediction by ZEFSAII (Michael W. Deem and Ramdas Pophale) SiO2 
 PCOD8001315
Probable space group: P -1
;
_chemical_formula_sum "Si O2"
_cell_formula_units_Z 16
_cell_length_a 15.374604
_cell_length_b 15.253337
_cell_length_c 11.663506
_cell_angle_alpha 102.095282
_cell_angle_beta 105.248182
_cell_angle_gamma 18.395495
_cell_volume 825.562340
_symmetry_space_group_name_H-M "P -1"
_symmetry_group_IT_number 2
_symmetry_cell_setting 'triclinic'
loop_
_space_group_symop_operation_xyz
x,y,z
-x,-y,-z
loop_
_atom_site_type_symbol
_atom_site_label
_atom_site_fract_x
_atom_site_fract_y
_atom_site_fract_z
Si Si1 0.853808 0.977295 0.884931
Si Si2 0.645763 0.316605 0.752509
Si Si3 0.630674 0.848891 0.125602
Si Si4 0.424951 0.463055 0.036851
Si Si5 0.849285 0.129544 0.363697
Si Si6 0.907632 0.727632 0.901030
Si Si7 0.065567 0.265549 0.818538
Si Si8 0.486145 0.302489 0.232145
O O1 0.842112 0.880860 0.851841
O O2 0.715181 0.149314 0.768594
O O3 0.182287 0.693831 0.920752
O O4 0.715857 0.154798 0.997348
O O5 0.564538 0.449000 0.876459
O O6 0.359934 0.588229 0.651933
O O7 0.915671 0.103112 0.718638
O O8 0.838600 0.731864 0.209463
O O9 0.799899 0.595520 0.118130
O O10 0.353136 0.092832 0.173058
O O11 0.500000 0.000000 0.000000
O O12 0.346645 0.464931 0.108427
O O13 0.635020 0.247042 0.329058
O O14 0.000000 0.000000 0.500000
O O15 0.928451 0.725860 0.041998
O O16 0.764928 0.511454 0.735446
O O17 0.280473 0.989259 0.782588
#
# Coordination Sequence:
#
# PCOD8001315 Si02
#       8
#     2   2   2   2   2   2   2   2
#     4  12  21  32  52  75 113 144 182 214 246 319
#     4  11  23  37  55  79 101 142 183 216 270 319
#     4  10  20  30  45  68 104 148 186 211 247 295
#     4  11  19  33  48  76 111 143 176 216 254 301
#     4  11  24  42  58  76 106 133 175 237 285 316
#     4  11  19  31  45  72 107 150 177 208 256 293
#     4  11  18  31  48  71 104 137 185 212 243 305
#     4  11  19  32  52  76  97 139 178 213 262 310
#
# _framework density 19.380728999999999
#
# number of rings (size 3 to 8) (size 9 to 14) (size 15 to 20)
#    0.000    1.000    2.500    9.375    0.000    0.000 
#    0.000    0.000    0.000    0.000    0.000    0.000 
#    0.000   20.000    0.000    0.000    0.000    0.000 
#
# Total GULP energy -198225.779253 kJ/mol
# GULP energy per Si atom -12389.111203 kJ/mol
# Density = 1.933662 g / cm^3
# Si number density = 19.380729 Si / 1000 Ang^3
#
#
#
# Elastic Constant Matrix: (Units=GPa)
#
#
# Indices 1 2 3 4 5 6 
#
# 1 130.6356 62.3477 29.7089 -9.4386 5.6823 8.5298
# 2 62.3477 154.4907 29.3904 -7.9378 2.8565 7.4415
# 3 29.7089 29.3904 46.7454 -15.2236 2.6246 1.0770
# 4 -9.4386 -7.9378 -15.2236 27.4631 -0.2768 1.1602
# 5 5.6823 2.8565 2.6246 -0.2768 10.3848 -3.6511
# 6 8.5298 7.4415 1.0770 1.1602 -3.6511 47.3307
#
#
#
# Elastic Compliance Matrix: (Units=1/GPa)
#
#
# Indices 1 2 3 4 5 6 
#
# 1 0.010488 -0.003252 -0.004227 0.000346 -0.004338 -0.001626
# 2 -0.003252 0.008434 -0.003400 -0.000537 0.000078 -0.000643
# 3 -0.004227 -0.003400 0.031307 0.014880 -0.004307 -0.000113
# 4 0.000346 -0.000537 0.014880 0.044663 -0.003195 -0.001658
# 5 -0.004338 0.000078 -0.004307 -0.003195 0.102770 0.008873
# 6 -0.001626 -0.000643 -0.000113 -0.001658 0.008873 0.022250
#
#
# Mechanical properties :
#
#
# Convention : Reuss Voigt Hill
#
# Bulk Modulus (GPa) = 35.12413 63.86283 49.49348
# Shear Modulus (GPa) = 19.90746 31.06405 25.48575
#
# Velocity S-wave (km/s) = 3.20844 4.00788 3.63023
# Velocity P-wave (km/s) = 5.64695 7.37840 6.56996
#
# Compressibility (1/GPa) = 0.02847046
#
# Stress axis : x y z
#
# Youngs Moduli (GPa) = 95.34450 118.56458 31.94127
#
# Poissons Ratio (x) = 0.38560 0.13502
# Poissons Ratio (y) = 0.31008 0.10861
# Poissons Ratio (z) = 0.40304 0.40316
#
# Static dielectric constant tensor:
#      x y z
#    x 4.000830 -0.100910 0.034970 
#    y -0.100910 3.942140 -0.104100 
#    z 0.034970 -0.104100 2.802280 
# 
# 
# High freq. dielectric constant tensor:
#      x y z
#    x 1.765150 -0.002850 0.008290 
#    y -0.002850 1.793070 0.000740 
#    z 0.008290 0.000740 1.658490 
# 
# From -- ./inp_files/455745.got.cif
#   From: 2010.06.25/outbox.cif.g09.slc.cpg/sg2_228_cif.got.tgz:455745.got - 2010.06.27 13:26:56.
