data_PCOD8001144
_publ_section_title
;
Structure prediction by ZEFSAII (Michael W. Deem and Ramdas Pophale) SiO2 
 PCOD8001144
Probable space group: P -1
;
_chemical_formula_sum "Si O2"
_cell_formula_units_Z 16
_cell_length_a 9.902122
_cell_length_b 11.446835
_cell_length_c 8.343197
_cell_angle_alpha 78.763345
_cell_angle_beta 69.072054
_cell_angle_gamma 63.185422
_cell_volume 787.672187
_symmetry_space_group_name_H-M "P -1"
_symmetry_group_IT_number 2
_symmetry_cell_setting 'triclinic'
loop_
_space_group_symop_operation_xyz
x,y,z
-x,-y,-z
loop_
_atom_site_type_symbol
_atom_site_label
_atom_site_fract_x
_atom_site_fract_y
_atom_site_fract_z
Si Si1 0.901907 0.992165 0.302769
Si Si2 0.228043 0.966487 0.306610
Si Si3 0.944116 0.491654 0.206208
Si Si4 0.969896 0.743316 0.154663
Si Si5 0.611660 0.486273 0.307627
Si Si6 0.508125 0.267152 0.912066
Si Si7 0.194024 0.230227 0.117949
Si Si8 0.731904 0.244436 0.104259
O O1 0.890982 0.859167 0.285549
O O2 0.084982 0.963196 0.262343
O O3 0.799518 0.045474 0.491139
O O4 0.833184 0.098630 0.164103
O O5 0.389467 0.844761 0.225901
O O6 0.250638 0.098693 0.231619
O O7 0.956989 0.612512 0.264024
O O8 0.765387 0.506922 0.294131
O O9 0.066305 0.347044 0.251139
O O10 0.000000 0.500000 0.000000
O O11 0.884142 0.788239 0.008423
O O12 0.155775 0.709671 0.062658
O O13 0.500000 0.500000 0.500000
O O14 0.515555 0.592797 0.185931
O O15 0.661835 0.341770 0.255952
O O16 0.339042 0.264599 0.004335
O O17 0.588997 0.245276 0.056712
#
# Coordination Sequence:
#
# PCOD8001144 Si02
#       8
#     2   2   2   2   2   2   2   2
#     4  11  23  40  64  95 127 170 212 272 324 378
#     4  11  23  40  62  96 132 162 215 271 330 369
#     4  10  19  41  70  90 122 174 216 251 315 393
#     4  11  19  40  70  89 119 172 225 249 307 397
#     4  12  24  42  67 100 133 166 208 275 329 369
#     4  12  24  40  64 101 129 165 217 267 320 381
#     4  11  21  42  69  89 127 173 220 259 312 393
#     4  12  22  42  68  94 127 171 222 258 315 390
#
# _framework density 20.313016999999999
#
# number of rings (size 3 to 8) (size 9 to 14) (size 15 to 20)
#    0.000    0.750    7.500    2.625    0.000    1.000 
#    2.250    1.875    0.000    0.000    0.000    0.000 
#    0.000    0.000    0.000    0.000    0.000    0.000 
#
# Total GULP energy -198463.428625 kJ/mol
# GULP energy per Si atom -12403.964289 kJ/mol
# Density = 2.026678 g / cm^3
# Si number density = 20.313017 Si / 1000 Ang^3
#
#
#
# Elastic Constant Matrix: (Units=GPa)
#
#
# Indices 1 2 3 4 5 6 
#
# 1 74.6516 44.6411 40.1849 12.1779 -8.3262 5.4532
# 2 44.6411 125.3762 29.2832 21.4228 2.3736 13.4665
# 3 40.1849 29.2832 70.8503 10.4085 -15.9346 3.5705
# 4 12.1779 21.4228 10.4085 30.7209 0.0629 1.9670
# 5 -8.3262 2.3736 -15.9346 0.0629 26.8732 4.1829
# 6 5.4532 13.4665 3.5705 1.9670 4.1829 36.3779
#
#
#
# Elastic Compliance Matrix: (Units=1/GPa)
#
#
# Indices 1 2 3 4 5 6 
#
# 1 0.022403 -0.005352 -0.009831 -0.001788 0.001668 -0.000507
# 2 -0.005352 0.011466 -0.001515 -0.005184 -0.003145 -0.002651
# 3 -0.009831 -0.001515 0.023313 -0.002879 0.011132 -0.001378
# 4 -0.001788 -0.005184 -0.002879 0.037813 -0.001994 0.000654
# 5 0.001668 -0.003145 0.011132 -0.001994 0.045436 -0.005295
# 6 -0.000507 -0.002651 -0.001378 0.000654 -0.005295 0.029255
#
#
# Mechanical properties :
#
#
# Convention : Reuss Voigt Hill
#
# Bulk Modulus (GPa) = 42.04433 55.45517 48.74975
# Shear Modulus (GPa) = 23.69545 29.24566 26.47056
#
# Velocity S-wave (km/s) = 3.41913 3.79852 3.61381
# Velocity P-wave (km/s) = 6.02748 6.82627 6.43927
#
# Compressibility (1/GPa) = 0.02378442
#
# Stress axis : x y z
#
# Youngs Moduli (GPa) = 44.63710 87.21647 42.89500
#
# Poissons Ratio (x) = 0.46679 0.42170
# Poissons Ratio (y) = 0.23890 0.06500
# Poissons Ratio (z) = 0.43883 0.13216
#
# Static dielectric constant tensor:
#      x y z
#    x 3.680810 0.111930 -0.093590 
#    y 0.111930 4.184060 0.085720 
#    z -0.093590 0.085720 3.422410 
# 
# 
# High freq. dielectric constant tensor:
#      x y z
#    x 1.788870 0.005530 -0.011650 
#    y 0.005530 1.816420 0.008510 
#    z -0.011650 0.008510 1.774980 
# 
# From -- ./inp_files/186504.got.cif
#   From: 2010.06.25/outbox.cif.g09.slc.cpg/sg2_94_cif.got.tgz:186504.got - 2010.06.27 13:26:56.
