data_PCOD8001132
_publ_section_title
;
Structure prediction by ZEFSAII (Michael W. Deem and Ramdas Pophale) SiO2 
 PCOD8001132
Probable space group: P -1
;
_chemical_formula_sum "Si O2"
_cell_formula_units_Z 16
_cell_length_a 11.548316
_cell_length_b 15.796849
_cell_length_c 8.969699
_cell_angle_alpha 114.714254
_cell_angle_beta 59.570571
_cell_angle_gamma 150.267550
_cell_volume 698.843945
_symmetry_space_group_name_H-M "P -1"
_symmetry_group_IT_number 2
_symmetry_cell_setting 'triclinic'
loop_
_space_group_symop_operation_xyz
x,y,z
-x,-y,-z
loop_
_atom_site_type_symbol
_atom_site_label
_atom_site_fract_x
_atom_site_fract_y
_atom_site_fract_z
Si Si1 0.252314 0.390828 0.154092
Si Si2 0.381304 0.776523 0.188328
Si Si3 0.624168 0.455429 0.517154
Si Si4 0.987118 0.598484 0.865929
Si Si5 0.275436 0.676649 0.505911
Si Si6 0.933664 0.259235 0.770985
Si Si7 0.922848 0.859046 0.371547
Si Si8 0.072160 0.952177 0.010093
O O1 0.280523 0.412701 0.329795
O O2 0.199251 0.460562 0.170601
O O3 0.021005 0.190582 0.126080
O O4 0.500000 0.500000 0.000000
O O5 0.160127 0.581614 0.128281
O O6 0.417377 0.802512 0.363779
O O7 0.306828 0.835972 0.220785
O O8 0.636325 0.889244 0.034520
O O9 0.587888 0.336294 0.537978
O O10 0.356684 0.328791 0.535908
O O11 0.817337 0.558819 0.334335
O O12 0.245650 0.727783 0.706286
O O13 0.051371 0.701409 0.038018
O O14 0.000000 0.500000 0.500000
O O15 0.911644 0.133716 0.681916
O O16 0.000000 0.000000 0.500000
O O17 0.932541 0.877691 0.202374
O O18 0.000000 0.000000 0.000000
#
# Coordination Sequence:
#
# PCOD8001132 Si02
#       8
#     2   2   2   2   2   2   2   2
#     4  12  22  44  72  97 132 184 238 283 330 406
#     4  11  23  43  72 107 140 177 226 288 352 406
#     4  12  23  46  75  98 134 182 235 283 335 414
#     4  11  21  42  70 102 140 175 231 284 335 414
#     4  10  19  41  69 102 132 169 229 281 339 399
#     4  12  25  45  69 105 136 187 231 274 350 422
#     4  12  30  49  64 101 146 183 226 287 353 407
#     4  12  27  47  71 102 140 186 232 288 346 400
#
# _framework density 22.894955
#
# number of rings (size 3 to 8) (size 9 to 14) (size 15 to 20)
#    0.000    0.500    7.500    2.250    3.500    0.500 
#    2.250    1.250    0.000    0.000    0.000    0.000 
#    0.000    0.000    0.000    0.000    0.000    0.000 
#
# Total GULP energy -198438.751901 kJ/mol
# GULP energy per Si atom -12402.421994 kJ/mol
# Density = 2.284284 g / cm^3
# Si number density = 22.894955 Si / 1000 Ang^3
#
#
#
# Elastic Constant Matrix: (Units=GPa)
#
#
# Indices 1 2 3 4 5 6 
#
# 1 125.9439 17.3620 15.7352 6.3658 -24.5357 -7.3779
# 2 17.3620 67.4693 33.9267 9.1923 -6.2107 0.0668
# 3 15.7352 33.9267 125.7035 12.1699 -7.0225 1.6519
# 4 6.3658 9.1923 12.1699 42.8411 0.9498 -8.1331
# 5 -24.5357 -6.2107 -7.0225 0.9498 38.4703 -2.1507
# 6 -7.3779 0.0668 1.6519 -8.1331 -2.1507 24.8743
#
#
#
# Elastic Compliance Matrix: (Units=1/GPa)
#
#
# Indices 1 2 3 4 5 6 
#
# 1 0.009596 -0.001648 -0.000420 -0.000470 0.005971 0.003241
# 2 -0.001648 0.017853 -0.004290 -0.002581 0.001056 -0.001005
# 3 -0.000420 -0.004290 0.009413 -0.001957 0.000733 -0.001315
# 4 -0.000470 -0.002581 -0.001957 0.026152 -0.001248 0.008440
# 5 0.005971 0.001056 0.000733 -0.001248 0.030357 0.003936
# 6 0.003241 -0.001005 -0.001315 0.008440 0.003936 0.044354
#
#
# Mechanical properties :
#
#
# Convention : Reuss Voigt Hill
#
# Bulk Modulus (GPa) = 41.41348 50.35162 45.88255
# Shear Modulus (GPa) = 31.54784 38.04333 34.79558
#
# Velocity S-wave (km/s) = 3.71609 4.08075 3.90268
# Velocity P-wave (km/s) = 6.04484 6.65158 6.35546
#
# Compressibility (1/GPa) = 0.02414672
#
# Stress axis : x y z
#
# Youngs Moduli (GPa) = 104.20491 56.01411 106.23235
#
# Poissons Ratio (x) = 0.09230 0.04462
# Poissons Ratio (y) = 0.17171 0.45574
# Poissons Ratio (z) = 0.04377 0.24030
#
# Static dielectric constant tensor:
#      x y z
#    x 2.648320 -0.620990 0.631860 
#    y -0.620990 3.661990 0.150710 
#    z 0.631860 0.150710 4.434980 
# 
# 
# High freq. dielectric constant tensor:
#      x y z
#    x 1.918920 -0.001210 -0.009300 
#    y -0.001210 1.869890 -0.004620 
#    z -0.009300 -0.004620 1.921870 
# 
# From -- ./inp_files/262335.got.cif
#   From: 2010.06.25/outbox.cif.g09.slc.cpg/sg2_132_cif.got.tgz:262335.got - 2010.06.27 13:26:56.
