data_PCOD8001232
_publ_section_title
;
Structure prediction by ZEFSAII (Michael W. Deem and Ramdas Pophale) SiO2 
 PCOD8001232
Probable space group: P -1
;
_chemical_formula_sum "Si O2"
_cell_formula_units_Z 16
_cell_length_a 15.843979
_cell_length_b 11.966503
_cell_length_c 8.936465
_cell_angle_alpha 73.539747
_cell_angle_beta 129.049919
_cell_angle_gamma 66.688065
_cell_volume 803.551976
_symmetry_space_group_name_H-M "P -1"
_symmetry_group_IT_number 2
_symmetry_cell_setting 'triclinic'
loop_
_space_group_symop_operation_xyz
x,y,z
-x,-y,-z
loop_
_atom_site_type_symbol
_atom_site_label
_atom_site_fract_x
_atom_site_fract_y
_atom_site_fract_z
Si Si1 0.948741 0.004497 0.181035
Si Si2 0.011441 0.166594 0.998091
Si Si3 0.214431 0.621730 0.767923
Si Si4 0.854440 0.690219 0.850607
Si Si5 0.671426 0.801788 0.325280
Si Si6 0.658967 0.541552 0.345671
Si Si7 0.613716 0.367145 0.816009
Si Si8 0.021245 0.549454 0.657993
O O1 0.023849 0.066574 0.187291
O O2 0.776773 0.161035 0.021987
O O3 0.091400 0.830832 0.511848
O O4 0.903664 0.958733 0.007432
O O5 0.108628 0.203486 0.135684
O O6 0.812563 0.351924 0.674963
O O7 0.332940 0.489025 0.810768
O O8 0.099819 0.609889 0.696796
O O9 0.334310 0.559790 0.062841
O O10 0.682702 0.814813 0.513013
O O11 0.000000 0.500000 0.000000
O O12 0.846612 0.637948 0.025139
O O13 0.672343 0.666210 0.341276
O O14 0.837270 0.721813 0.463364
O O15 0.500000 0.000000 0.000000
O O16 0.483828 0.637712 0.178332
O O17 0.500000 0.500000 0.500000
O O18 0.000000 0.500000 0.500000
#
# Coordination Sequence:
#
# PCOD8001232 Si02
#       8
#     2   2   2   2   2   2   2   2
#     4  10  23  40  64  98 126 171 217 269 313 389
#     4  10  19  42  69  93 130 169 223 264 322 389
#     4  11  25  43  66  96 130 175 223 260 325 398
#     4  10  21  39  71  94 122 177 221 263 325 393
#     4  11  25  41  63 100 129 166 214 281 330 379
#     4  11  22  45  64  90 137 171 213 268 339 383
#     4  12  26  40  64  94 131 171 215 272 324 379
#     4  11  21  43  71  93 125 174 222 261 322 403
#
# _framework density 19.911594000000001
#
# number of rings (size 3 to 8) (size 9 to 14) (size 15 to 20)
#    0.000    1.250    5.000    1.500    7.000    1.000 
#    2.250    0.625    0.000    0.000    0.000    0.000 
#    0.000    0.000    0.000    0.000    0.000    0.000 
#
# Total GULP energy -198436.414788 kJ/mol
# GULP energy per Si atom -12402.275924 kJ/mol
# Density = 1.986627 g / cm^3
# Si number density = 19.911594 Si / 1000 Ang^3
#
#
#
# Elastic Constant Matrix: (Units=GPa)
#
#
# Indices 1 2 3 4 5 6 
#
# 1 138.9029 64.5352 58.9932 -0.9598 -6.7838 2.8393
# 2 64.5352 133.6586 55.0465 16.5504 -6.3849 7.3278
# 3 58.9932 55.0465 122.2007 24.5980 -21.2604 -3.9413
# 4 -0.9598 16.5504 24.5980 27.2180 -4.0639 -3.8453
# 5 -6.7838 -6.3849 -21.2604 -4.0639 30.8002 -7.7805
# 6 2.8393 7.3278 -3.9413 -3.8453 -7.7805 34.3635
#
#
#
# Elastic Compliance Matrix: (Units=1/GPa)
#
#
# Indices 1 2 3 4 5 6 
#
# 1 0.011482 -0.004361 -0.005306 0.007700 -0.001021 0.000003
# 2 -0.004361 0.011328 -0.002260 -0.005740 -0.001778 -0.003359
# 3 -0.005306 -0.002260 0.015600 -0.011161 0.008514 0.003388
# 4 0.007700 -0.005740 -0.011161 0.051473 0.000926 0.005277
# 5 -0.001021 -0.001778 0.008514 0.000926 0.040585 0.010733
# 6 0.000003 -0.003359 0.003388 0.005277 0.010733 0.033226
#
#
# Mechanical properties :
#
#
# Convention : Reuss Voigt Hill
#
# Bulk Modulus (GPa) = 68.69850 83.54578 76.12214
# Shear Modulus (GPa) = 25.98742 32.88882 29.43812
#
# Velocity S-wave (km/s) = 3.61659 4.06857 3.84922
# Velocity P-wave (km/s) = 7.21223 8.00753 7.62026
#
# Compressibility (1/GPa) = 0.01455636
#
# Stress axis : x y z
#
# Youngs Moduli (GPa) = 87.09001 88.27547 64.10218
#
# Poissons Ratio (x) = 0.38499 0.34014
# Poissons Ratio (y) = 0.37982 0.14486
# Poissons Ratio (z) = 0.46211 0.19948
#
# Static dielectric constant tensor:
#      x y z
#    x 3.615710 -0.276760 -0.213190 
#    y -0.276760 3.315670 0.366100 
#    z -0.213190 0.366100 4.196960 
# 
# 
# High freq. dielectric constant tensor:
#      x y z
#    x 1.780650 0.002540 -0.014840 
#    y 0.002540 1.790800 0.011770 
#    z -0.014840 0.011770 1.770040 
# 
# From -- ./inp_files/245595.got.cif
#   From: 2010.06.25/outbox.cif.g09.slc.cpg/sg2_123_cif.got.tgz:245595.got - 2010.06.27 13:26:56.
