data_PCOD8001379
_publ_section_title
;
Structure prediction by ZEFSAII (Michael W. Deem and Ramdas Pophale) SiO2 
 PCOD8001379
Probable space group: P -1
;
_chemical_formula_sum "Si O2"
_cell_formula_units_Z 14
_cell_length_a 14.662172
_cell_length_b 14.627898
_cell_length_c 11.734900
_cell_angle_alpha 115.966322
_cell_angle_beta 117.207598
_cell_angle_gamma 19.121049
_cell_volume 733.069291
_symmetry_space_group_name_H-M "P -1"
_symmetry_group_IT_number 2
_symmetry_cell_setting 'triclinic'
loop_
_space_group_symop_operation_xyz
x,y,z
-x,-y,-z
loop_
_atom_site_type_symbol
_atom_site_label
_atom_site_fract_x
_atom_site_fract_y
_atom_site_fract_z
Si Si1 0.354585 0.176317 0.900656
Si Si2 0.733355 0.265157 0.145164
Si Si3 0.224774 0.754074 0.590518
Si Si4 0.550243 0.627062 0.621311
Si Si5 0.868876 0.826388 0.247433
Si Si6 0.901887 0.763882 0.976085
Si Si7 0.158468 0.719564 0.996975
O O1 0.228304 0.194338 0.772748
O O2 0.099113 0.484899 0.957555
O O3 0.605318 0.001680 0.877665
O O4 0.500000 0.000000 0.000000
O O5 0.886894 0.143336 0.287753
O O6 0.758316 0.343122 0.123013
O O7 0.408494 0.530714 0.117378
O O8 0.877448 0.040182 0.038624
O O9 0.482312 0.596998 0.652245
O O10 0.351143 0.523609 0.518692
O O11 0.000000 0.000000 0.500000
O O12 0.795647 0.474542 0.718674
O O13 0.274346 0.953976 0.635437
O O14 0.806865 0.900878 0.118047
O O15 0.079424 0.675506 0.949962
#
# Coordination Sequence:
#
# PCOD8001379 Si02
#       7
#     2   2   2   2   2   2   2
#     4  10  20  32  49  76 108 139 172 222 273 320
#     4  10  22  37  55  79 114 141 184 223 255 325
#     4  11  23  37  52  82 113 142 182 222 267 314
#     4  11  22  32  51  75 105 145 173 207 275 309
#     4  11  19  33  49  76 107 139 173 215 269 326
#     4  11  19  32  53  76 108 139 177 217 271 324
#     4  10  21  37  57  81 105 151 179 215 272 313
#
# _framework density 19.097784999999998
#
# number of rings (size 3 to 8) (size 9 to 14) (size 15 to 20)
#    0.000    1.429    1.429    6.857    4.000    0.000 
#    0.000    0.000    0.000    0.000    0.000    6.000 
#    0.000    0.000    0.000    0.000    0.000    0.000 
#
# Total GULP energy -173443.609378 kJ/mol
# GULP energy per Si atom -12388.829241 kJ/mol
# Density = 1.905432 g / cm^3
# Si number density = 19.097785 Si / 1000 Ang^3
#
#
#
# Elastic Constant Matrix: (Units=GPa)
#
#
# Indices 1 2 3 4 5 6 
#
# 1 120.0044 25.4937 45.0676 -6.1093 14.9323 -18.4411
# 2 25.4937 89.1101 22.4054 7.9416 4.3889 -6.4572
# 3 45.0676 22.4054 76.2411 2.3018 -4.3047 2.8931
# 4 -6.1093 7.9416 2.3018 28.2872 6.8404 9.4235
# 5 14.9323 4.3889 -4.3047 6.8404 27.5678 -2.6217
# 6 -18.4411 -6.4572 2.8931 9.4235 -2.6217 33.4125
#
#
#
# Elastic Compliance Matrix: (Units=1/GPa)
#
#
# Indices 1 2 3 4 5 6 
#
# 1 0.014406 -0.001293 -0.009048 0.004326 -0.009463 0.006522
# 2 -0.001293 0.013050 -0.003076 -0.004732 -0.000362 0.003381
# 3 -0.009048 -0.003076 0.020169 -0.002892 0.008702 -0.005836
# 4 0.004326 -0.004732 -0.002892 0.045422 -0.014475 -0.012223
# 5 -0.009463 -0.000362 0.008702 -0.014475 0.046569 0.001690
# 6 0.006522 0.003381 -0.005836 -0.012223 0.001690 0.038267
#
#
# Mechanical properties :
#
#
# Convention : Reuss Voigt Hill
#
# Bulk Modulus (GPa) = 48.10141 52.36545 50.23343
# Shear Modulus (GPa) = 23.62429 30.67942 27.15186
#
# Velocity S-wave (km/s) = 3.52094 4.01239 3.77467
# Velocity P-wave (km/s) = 6.46305 6.99606 6.73483
#
# Compressibility (1/GPa) = 0.02078941
#
# Stress axis : x y z
#
# Youngs Moduli (GPa) = 69.41766 76.62776 49.58157
#
# Poissons Ratio (x) = 0.09911 0.44860
# Poissons Ratio (y) = 0.08978 0.15254
# Poissons Ratio (z) = 0.62807 0.23574
#
# Static dielectric constant tensor:
#      x y z
#    x 3.905860 -0.349390 0.355140 
#    y -0.349390 3.636900 0.006360 
#    z 0.355140 0.006360 3.306420 
# 
# 
# High freq. dielectric constant tensor:
#      x y z
#    x 1.735570 -0.021550 0.031850 
#    y -0.021550 1.761820 0.012430 
#    z 0.031850 0.012430 1.695050 
# 
# From -- ./inp_files/408330.got.cif
#   From: 2010.06.25/outbox.cif.g09.slc.cpg/sg2_205_cif.got.tgz:408330.got - 2010.06.27 13:26:56.
