data_PCOD8001074
_publ_section_title
;
Structure prediction by ZEFSAII (Michael W. Deem and Ramdas Pophale) SiO2 
 PCOD8001074
Probable space group: P -1
;
_chemical_formula_sum "Si O2"
_cell_formula_units_Z 16
_cell_length_a 8.876640
_cell_length_b 12.027295
_cell_length_c 9.551718
_cell_angle_alpha 85.754920
_cell_angle_beta 49.221848
_cell_angle_gamma 101.577376
_cell_volume 727.008873
_symmetry_space_group_name_H-M "P -1"
_symmetry_group_IT_number 2
_symmetry_cell_setting 'triclinic'
loop_
_space_group_symop_operation_xyz
x,y,z
-x,-y,-z
loop_
_atom_site_type_symbol
_atom_site_label
_atom_site_fract_x
_atom_site_fract_y
_atom_site_fract_z
Si Si1 0.392706 0.438408 0.930018
Si Si2 0.999451 0.394949 0.329166
Si Si3 0.117448 0.201355 0.718608
Si Si4 0.306168 0.103816 0.380668
Si Si5 0.992530 0.145791 0.365320
Si Si6 0.236313 0.445709 0.470341
Si Si7 0.644764 0.038242 0.043156
Si Si8 0.747302 0.816291 0.054207
O O1 0.510378 0.515358 0.716399
O O2 0.402266 0.304518 0.917451
O O3 0.500000 0.500000 0.000000
O O4 0.147417 0.427980 0.096341
O O5 0.135104 0.443359 0.380329
O O6 0.901109 0.253695 0.415992
O O7 0.814547 0.451376 0.420014
O O8 0.281777 0.148263 0.547190
O O9 0.144106 0.327434 0.624222
O O10 0.171013 0.217450 0.846718
O O11 0.878520 0.117152 0.847460
O O12 0.548041 0.117243 0.195524
O O13 0.207089 0.175271 0.325760
O O14 0.183717 0.964777 0.451892
O O15 0.050398 0.122966 0.173560
O O16 0.638994 0.916430 0.134099
O O17 0.500000 0.000000 0.000000
#
# Coordination Sequence:
#
# PCOD8001074 Si02
#       8
#     2   2   2   2   2   2   2   2
#     4   9  21  41  65  94 126 171 224 272 317 393
#     4   9  19  36  62  95 122 165 224 275 310 385
#     4  12  26  45  62 102 148 170 212 284 349 389
#     4  11  22  39  68  95 132 176 224 275 323 398
#     4  10  19  41  64  96 133 171 221 278 330 383
#     4  10  21  37  64  90 129 174 214 267 332 392
#     4  12  25  41  71 101 130 181 236 269 321 410
#     4  11  24  44  68  98 143 173 209 289 346 384
#
# _framework density 22.007984
#
# number of rings (size 3 to 8) (size 9 to 14) (size 15 to 20)
#    0.000    1.500    3.750    1.125    1.750    4.000 
#    0.000    2.500    0.000    0.000    0.000    0.000 
#    0.000    0.000    0.000    0.000    0.000    0.000 
#
# Total GULP energy -198298.057135 kJ/mol
# GULP energy per Si atom -12393.628571 kJ/mol
# Density = 2.195789 g / cm^3
# Si number density = 22.007984 Si / 1000 Ang^3
#
#
#
# Elastic Constant Matrix: (Units=GPa)
#
#
# Indices 1 2 3 4 5 6 
#
# 1 52.9050 37.2312 37.0120 -2.7767 6.0059 -2.7952
# 2 37.2312 137.8563 52.2433 1.1910 -5.3111 -12.9382
# 3 37.0120 52.2433 133.1768 1.6391 0.9478 -12.8274
# 4 -2.7767 1.1910 1.6391 40.7481 -1.6428 -3.9370
# 5 6.0059 -5.3111 0.9478 -1.6428 20.6218 5.0331
# 6 -2.7952 -12.9382 -12.8274 -3.9370 5.0331 18.4534
#
#
#
# Elastic Compliance Matrix: (Units=1/GPa)
#
#
# Indices 1 2 3 4 5 6 
#
# 1 0.027999 -0.005925 -0.005499 0.001853 -0.009068 -0.000867
# 2 -0.005925 0.010095 -0.001967 -0.000108 0.003469 0.003844
# 3 -0.005499 -0.001967 0.010304 -0.000268 -0.000637 0.005068
# 4 0.001853 -0.000108 -0.000268 0.025205 0.000145 0.005356
# 5 -0.009068 0.003469 -0.000637 0.000145 0.055612 -0.014521
# 6 -0.000867 0.003844 0.005068 0.005356 -0.014521 0.065380
#
#
# Mechanical properties :
#
#
# Convention : Reuss Voigt Hill
#
# Bulk Modulus (GPa) = 46.25783 64.10124 55.17953
# Shear Modulus (GPa) = 21.87406 29.12810 25.50108
#
# Velocity S-wave (km/s) = 3.15606 3.64197 3.40769
# Velocity P-wave (km/s) = 5.86048 6.84652 6.37260
#
# Compressibility (1/GPa) = 0.02161796
#
# Stress axis : x y z
#
# Youngs Moduli (GPa) = 35.71535 99.06297 97.04520
#
# Poissons Ratio (x) = 0.58690 0.53366
# Poissons Ratio (y) = 0.21160 0.19084
# Poissons Ratio (z) = 0.19640 0.19481
#
# Static dielectric constant tensor:
#      x y z
#    x 3.491590 -0.070610 -0.218030 
#    y -0.070610 4.125000 0.189480 
#    z -0.218030 0.189480 4.565210 
# 
# 
# High freq. dielectric constant tensor:
#      x y z
#    x 1.805710 0.000090 -0.001840 
#    y 0.000090 1.878360 0.006250 
#    z -0.001840 0.006250 1.885210 
# 
# From -- ./inp_files/186456.got.cif
#   From: 2010.06.25/outbox.cif.g09.slc.cpg/sg2_94_cif.got.tgz:186456.got - 2010.06.27 13:26:56.
