data_PCOD8001937
_publ_section_title
;
Structure prediction by ZEFSAII (Michael W. Deem and Ramdas Pophale) SiO2 
 PCOD8001937
Probable space group: P -1
;
_chemical_formula_sum "Si O2"
_cell_formula_units_Z 16
_cell_length_a 11.703956
_cell_length_b 9.427161
_cell_length_c 8.844857
_cell_angle_alpha 88.642193
_cell_angle_beta 54.508219
_cell_angle_gamma 93.120980
_cell_volume 791.558525
_symmetry_space_group_name_H-M "P -1"
_symmetry_group_IT_number 2
_symmetry_cell_setting 'triclinic'
loop_
_space_group_symop_operation_xyz
x,y,z
-x,-y,-z
loop_
_atom_site_type_symbol
_atom_site_label
_atom_site_fract_x
_atom_site_fract_y
_atom_site_fract_z
Si Si1 0.197458 0.440095 0.929434
Si Si2 0.452667 0.372955 0.929093
Si Si3 0.149514 0.740962 0.066741
Si Si4 0.824535 0.749990 0.321358
Si Si5 0.975440 0.258878 0.309186
Si Si6 0.758508 0.371958 0.692658
Si Si7 0.226806 0.295370 0.304916
Si Si8 0.145171 0.959080 0.826281
O O1 0.353188 0.424179 0.873357
O O2 0.208937 0.390540 0.748893
O O3 0.159221 0.601672 0.959337
O O4 0.069834 0.345081 0.109004
O O5 0.600423 0.325040 0.752102
O O6 0.500000 0.500000 0.000000
O O7 0.361665 0.253387 0.104047
O O8 0.224516 0.727850 0.170819
O O9 0.990237 0.770295 0.225427
O O10 0.219002 0.870060 0.903451
O O11 0.743755 0.730335 0.542404
O O12 0.766773 0.890857 0.284185
O O13 0.867070 0.353267 0.474810
O O14 0.884239 0.128651 0.304168
O O15 0.084839 0.208171 0.353375
O O16 0.787284 0.535596 0.721381
O O17 0.000000 0.000000 0.000000
#
# Coordination Sequence:
#
# PCOD8001937 Si02
#       8
#     2   2   2   2   2   2   2   2
#     4  11  20  34  64  88 116 152 189 240 292 339
#     4   9  19  38  55  87 122 149 185 243 291 342
#     4  11  19  34  59  87 118 147 185 244 288 336
#     4  11  22  37  55  90 120 151 191 237 293 340
#     4  11  19  34  59  89 113 151 190 239 289 333
#     4  11  20  35  59  91 119 143 194 244 293 329
#     4  10  20  34  60  86 116 149 193 241 282 343
#     4  10  23  37  52  87 125 154 181 241 290 348
#
# _framework density 20.213287999999999
#
# number of rings (size 3 to 8) (size 9 to 14) (size 15 to 20)
#    0.000    1.500    7.500    1.500    1.750    0.500 
#    0.000    3.750    0.000    4.500    0.000    0.000 
#    0.000    0.000    0.000    0.000    0.000    0.000 
#
# Total GULP energy -198252.075082 kJ/mol
# GULP energy per Si atom -12390.754693 kJ/mol
# Density = 2.016728 g / cm^3
# Si number density = 20.213288 Si / 1000 Ang^3
#
#
#
# Elastic Constant Matrix: (Units=GPa)
#
#
# Indices 1 2 3 4 5 6 
#
# 1 64.5728 4.7204 22.0951 -8.1076 -7.7306 -6.7673
# 2 4.7204 61.7373 7.1620 -9.9345 7.0146 -17.5736
# 3 22.0951 7.1620 57.0162 -11.1725 7.9261 -3.6291
# 4 -8.1076 -9.9345 -11.1725 23.4388 -3.9274 13.8426
# 5 -7.7306 7.0146 7.9261 -3.9274 34.0831 -6.7337
# 6 -6.7673 -17.5736 -3.6291 13.8426 -6.7337 17.6236
#
#
#
# Elastic Compliance Matrix: (Units=1/GPa)
#
#
# Indices 1 2 3 4 5 6 
#
# 1 0.020574 0.001881 -0.009150 -0.003015 0.008747 0.013603
# 2 0.001881 0.023838 -0.003800 -0.009610 0.001593 0.031868
# 3 -0.009150 -0.003800 0.024852 0.016552 -0.008832 -0.018561
# 4 -0.003015 -0.009610 0.016552 0.093738 -0.008382 -0.084162
# 5 0.008747 0.001593 -0.008832 -0.008382 0.036780 0.023765
# 6 0.013603 0.031868 -0.018561 -0.084162 0.023765 0.165107
#
#
# Mechanical properties :
#
#
# Convention : Reuss Voigt Hill
#
# Bulk Modulus (GPa) = 21.21913 27.92012 24.56962
# Shear Modulus (GPa) = 12.41509 24.98569 18.70039
#
# Velocity S-wave (km/s) = 2.48100 3.51964 3.04493
# Velocity P-wave (km/s) = 4.32754 5.50998 4.95416
#
# Compressibility (1/GPa) = 0.04712729
#
# Stress axis : x y z
#
# Youngs Moduli (GPa) = 48.60497 41.94906 40.23820
#
# Poissons Ratio (x) = -0.07892 0.36819
# Poissons Ratio (y) = -0.09144 0.15289
# Poissons Ratio (z) = 0.44475 0.15939
#
# Static dielectric constant tensor:
#      x y z
#    x 3.866110 1.173010 0.099090 
#    y 1.173010 -3.287040 -1.647610 
#    z 0.099090 -1.647610 3.710930 
# 
# 
# High freq. dielectric constant tensor:
#      x y z
#    x 1.774350 -0.005550 0.017970 
#    y -0.005550 1.757250 0.002250 
#    z 0.017970 0.002250 1.790520 
# 
# From -- ./inp_files/243886.got.cif
#   From: 2010.06.25/outbox.cif.g09.slc.cpg/sg2_122_cif.got.tgz:243886.got - 2010.06.27 13:26:56.
