data_PCOD8001230
_publ_section_title
;
Structure prediction by ZEFSAII (Michael W. Deem and Ramdas Pophale) SiO2 
 PCOD8001230
Probable space group: P -1
;
_chemical_formula_sum "Si O2"
_cell_formula_units_Z 16
_cell_length_a 11.000613
_cell_length_b 9.130646
_cell_length_c 25.785119
_cell_angle_alpha 128.805596
_cell_angle_beta 21.640361
_cell_angle_gamma 128.641728
_cell_volume 736.328128
_symmetry_space_group_name_H-M "P -1"
_symmetry_group_IT_number 2
_symmetry_cell_setting 'triclinic'
loop_
_space_group_symop_operation_xyz
x,y,z
-x,-y,-z
loop_
_atom_site_type_symbol
_atom_site_label
_atom_site_fract_x
_atom_site_fract_y
_atom_site_fract_z
Si Si1 0.702063 0.203189 0.277604
Si Si2 0.739192 0.807888 0.712782
Si Si3 0.303693 0.708310 0.533861
Si Si4 0.047862 0.506510 0.285662
Si Si5 0.671585 0.313173 0.991744
Si Si6 0.289742 0.983248 0.002131
Si Si7 0.360395 0.531184 0.729854
Si Si8 0.809980 0.887038 0.452720
O O1 0.620117 0.279545 0.270838
O O2 0.373737 0.111441 0.418870
O O3 0.894155 0.383338 0.271171
O O4 0.929639 0.038173 0.144158
O O5 0.455289 0.928354 0.870937
O O6 0.573804 0.600837 0.711921
O O7 0.973912 0.791786 0.665979
O O8 0.953341 0.914777 0.604700
O O9 0.479524 0.636460 0.398016
O O10 0.546218 0.866952 0.504908
O O11 0.194821 0.533689 0.577438
O O12 0.049366 0.724828 0.318848
O O13 0.412809 0.455735 0.141670
O O14 0.986795 0.447672 0.874034
O O15 0.523985 0.161551 0.973672
O O16 0.767494 0.200550 0.978923
#
# Coordination Sequence:
#
# PCOD8001230 Si02
#       8
#     2   2   2   2   2   2   2   2
#     4  10  22  40  65  95 126 160 208 260 308 365
#     4  12  27  40  61  96 130 165 205 254 314 376
#     4  11  21  45  65  90 122 163 215 261 302 365
#     4  10  19  42  69  92 117 162 217 260 301 358
#     4  10  23  41  69  90 124 165 208 261 307 360
#     4  10  23  43  63  96 122 160 218 257 300 365
#     4  12  25  42  61  94 132 168 200 248 322 378
#     4  11  22  41  70  93 119 163 215 265 301 351
#
# _framework density 21.729444000000001
#
# number of rings (size 3 to 8) (size 9 to 14) (size 15 to 20)
#    0.000    1.250    3.750    2.250    5.250    2.500 
#    0.000    0.000    0.000    0.000    0.000    0.000 
#    0.000    0.000    0.000    0.000    0.000    0.000 
#
# Total GULP energy -198467.008298 kJ/mol
# GULP energy per Si atom -12404.188019 kJ/mol
# Density = 2.167999 g / cm^3
# Si number density = 21.729444 Si / 1000 Ang^3
#
#
#
# Elastic Constant Matrix: (Units=GPa)
#
#
# Indices 1 2 3 4 5 6 
#
# 1 52.4756 22.5030 25.1163 -4.0855 0.3647 -5.7810
# 2 22.5030 53.7821 29.4480 -7.8893 -0.7330 1.2735
# 3 25.1163 29.4480 122.4393 1.3807 3.9405 6.6069
# 4 -4.0855 -7.8893 1.3807 27.1395 -17.2519 -3.8655
# 5 0.3647 -0.7330 3.9405 -17.2519 23.5415 4.7992
# 6 -5.7810 1.2735 6.6069 -3.8655 4.7992 24.1538
#
#
#
# Elastic Compliance Matrix: (Units=1/GPa)
#
#
# Indices 1 2 3 4 5 6 
#
# 1 0.025537 -0.008372 -0.003710 0.003143 0.000649 0.007943
# 2 -0.008372 0.027539 -0.005396 0.015338 0.013584 -0.002224
# 3 -0.003710 -0.005396 0.010705 -0.007347 -0.006594 -0.003397
# 4 0.003143 0.015338 -0.007347 0.080957 0.060393 0.002910
# 5 0.000649 0.013584 -0.006594 0.060393 0.089661 -0.006907
# 6 0.007943 -0.002224 -0.003397 0.002910 -0.006907 0.046187
#
#
# Mechanical properties :
#
#
# Convention : Reuss Voigt Hill
#
# Bulk Modulus (GPa) = 34.69242 42.53685 38.61463
# Shear Modulus (GPa) = 15.37752 25.07560 20.22656
#
# Velocity S-wave (km/s) = 2.66311 3.40073 3.05427
# Velocity P-wave (km/s) = 5.04545 5.91930 5.49976
#
# Compressibility (1/GPa) = 0.02882474
#
# Stress axis : x y z
#
# Youngs Moduli (GPa) = 39.15811 36.31246 93.41822
#
# Poissons Ratio (x) = 0.30401 0.34658
# Poissons Ratio (y) = 0.32783 0.50410
# Poissons Ratio (z) = 0.14527 0.19595
#
# Static dielectric constant tensor:
#      x y z
#    x 3.755370 -0.197860 -0.075170 
#    y -0.197860 3.636310 0.051950 
#    z -0.075170 0.051950 4.026580 
# 
# 
# High freq. dielectric constant tensor:
#      x y z
#    x 1.841030 -0.016680 -0.000690 
#    y -0.016680 1.840060 0.002830 
#    z -0.000690 0.002830 1.867350 
# 
# From -- ./inp_files/177698.got.cif
#   From: 2010.06.25/outbox.cif.g09.slc.cpg/sg2_89_cif.got.tgz:177698.got - 2010.06.27 13:26:56.
