data_PCOD8001972
_publ_section_title
;
Structure prediction by ZEFSAII (Michael W. Deem and Ramdas Pophale) SiO2 
 PCOD8001972
Probable space group: P -1
;
_chemical_formula_sum "Si O2"
_cell_formula_units_Z 16
_cell_length_a 8.263280
_cell_length_b 6.506723
_cell_length_c 18.193004
_cell_angle_alpha 132.736905
_cell_angle_beta 82.462136
_cell_angle_gamma 100.154797
_cell_volume 707.107503
_symmetry_space_group_name_H-M "P -1"
_symmetry_group_IT_number 2
_symmetry_cell_setting 'triclinic'
loop_
_space_group_symop_operation_xyz
x,y,z
-x,-y,-z
loop_
_atom_site_type_symbol
_atom_site_label
_atom_site_fract_x
_atom_site_fract_y
_atom_site_fract_z
Si Si1 0.906612 0.085008 0.682086
Si Si2 0.280328 0.410697 0.151720
Si Si3 0.194258 0.336084 0.638572
Si Si4 0.406239 0.888306 0.051969
Si Si5 0.617431 0.783245 0.544886
Si Si6 0.875635 0.063944 0.241170
Si Si7 0.415711 0.231568 0.722175
Si Si8 0.718085 0.709398 0.046248
O O1 0.848694 0.397102 0.760931
O O2 0.052607 0.090902 0.614647
O O3 0.968936 0.020551 0.743957
O O4 0.761616 0.838716 0.611026
O O5 0.464535 0.573930 0.184072
O O6 0.283532 0.126817 0.133041
O O7 0.234090 0.338857 0.052686
O O8 0.297329 0.216571 0.538880
O O9 0.315008 0.421590 0.721359
O O10 0.105964 0.600944 0.683813
O O11 0.546245 0.851189 0.095789
O O12 0.297588 0.584541 0.978447
O O13 0.500000 0.000000 0.000000
O O14 0.500000 0.500000 0.500000
O O15 0.511898 0.043325 0.616163
O O16 0.703574 0.970507 0.268616
O O17 0.864982 0.915320 0.125493
#
# Coordination Sequence:
#
# PCOD8001972 Si02
#       8
#     2   2   2   2   2   2   2   2
#     4  10  26  43  61  93 136 161 208 260 312 385
#     4  10  21  39  60  92 128 170 214 260 299 367
#     4  11  23  43  66  93 126 173 199 258 330 373
#     4   9  17  32  56  91 120 162 213 264 303 349
#     4  11  22  46  70  96 120 161 210 266 318 377
#     4  11  22  40  60  93 130 171 208 253 316 372
#     4  10  21  39  64  96 126 156 219 264 301 377
#     4  10  20  34  61  89 128 170 212 257 308 360
#
# _framework density 22.627392
#
# number of rings (size 3 to 8) (size 9 to 14) (size 15 to 20)
#    0.000    1.750    1.250    3.750    0.000    5.000 
#    6.750    1.250    0.000    0.000    0.000    0.000 
#    0.000    0.000    0.000    0.000    0.000    0.000 
#
# Total GULP energy -198348.391813 kJ/mol
# GULP energy per Si atom -12396.774488 kJ/mol
# Density = 2.257589 g / cm^3
# Si number density = 22.627392 Si / 1000 Ang^3
#
#
#
# Elastic Constant Matrix: (Units=GPa)
#
#
# Indices 1 2 3 4 5 6 
#
# 1 94.2732 35.8472 38.2593 -4.3885 14.0907 -8.4258
# 2 35.8472 102.1859 36.7869 9.4356 1.1695 -18.8313
# 3 38.2593 36.7869 105.5500 -5.8332 10.6418 -1.0367
# 4 -4.3885 9.4356 -5.8332 34.6443 -1.9845 -3.5689
# 5 14.0907 1.1695 10.6418 -1.9845 33.9473 -2.0834
# 6 -8.4258 -18.8313 -1.0367 -3.5689 -2.0834 31.8287
#
#
#
# Elastic Compliance Matrix: (Units=1/GPa)
#
#
# Indices 1 2 3 4 5 6 
#
# 1 0.014255 -0.003703 -0.003286 0.002147 -0.004547 0.001419
# 2 -0.003703 0.014165 -0.004006 -0.004141 0.002490 0.006969
# 3 -0.003286 -0.004006 0.012408 0.002344 -0.002418 -0.002731
# 4 0.002147 -0.004141 0.002344 0.030857 0.000424 0.001682
# 5 -0.004547 0.002490 -0.002418 0.000424 0.032186 0.002345
# 6 0.001419 0.006969 -0.002731 0.001682 0.002345 0.036170
#
#
# Mechanical properties :
#
#
# Convention : Reuss Voigt Hill
#
# Bulk Modulus (GPa) = 53.08062 58.19956 55.64009
# Shear Modulus (GPa) = 29.70699 32.82512 31.26605
#
# Velocity S-wave (km/s) = 3.62730 3.81291 3.72126
# Velocity P-wave (km/s) = 6.40722 6.72020 6.56558
#
# Compressibility (1/GPa) = 0.01883927
#
# Stress axis : x y z
#
# Youngs Moduli (GPa) = 70.14984 70.59446 80.59267
#
# Poissons Ratio (x) = 0.26138 0.26480
# Poissons Ratio (y) = 0.25973 0.32289
# Poissons Ratio (z) = 0.23049 0.28283
#
# Static dielectric constant tensor:
#      x y z
#    x 4.203760 -0.305790 -0.072090 
#    y -0.305790 4.082590 0.171940 
#    z -0.072090 0.171940 4.086960 
# 
# 
# High freq. dielectric constant tensor:
#      x y z
#    x 1.890090 -0.011390 0.000260 
#    y -0.011390 1.889900 0.001480 
#    z 0.000260 0.001480 1.885720 
# 
# From -- ./inp_files/525959.got.cif
#   From: 2010.06.25/outbox.cif.g09.slc.cpg/sg2_263_cif.got.tgz:525959.got - 2010.06.27 13:26:56.
