data_PCOD8001261
_publ_section_title
;
Structure prediction by ZEFSAII (Michael W. Deem and Ramdas Pophale) SiO2 
 PCOD8001261
Probable space group: P -1
;
_chemical_formula_sum "Si O2"
_cell_formula_units_Z 16
_cell_length_a 13.718863
_cell_length_b 13.789824
_cell_length_c 11.028754
_cell_angle_alpha 108.320347
_cell_angle_beta 93.816940
_cell_angle_gamma 148.303876
_cell_volume 772.874921
_symmetry_space_group_name_H-M "P -1"
_symmetry_group_IT_number 2
_symmetry_cell_setting 'triclinic'
loop_
_space_group_symop_operation_xyz
x,y,z
-x,-y,-z
loop_
_atom_site_type_symbol
_atom_site_label
_atom_site_fract_x
_atom_site_fract_y
_atom_site_fract_z
Si Si1 0.998012 0.637392 0.781699
Si Si2 0.875183 0.170670 0.386886
Si Si3 0.897545 0.493248 0.258733
Si Si4 0.627380 0.394097 0.815251
Si Si5 0.704679 0.580734 0.453471
Si Si6 0.038492 0.786455 0.193485
Si Si7 0.375957 0.270688 0.538850
Si Si8 0.586693 0.880695 0.842471
O O1 0.990396 0.641127 0.638223
O O2 0.054369 0.576317 0.802138
O O3 0.740321 0.422422 0.738770
O O4 0.218831 0.925363 0.955604
O O5 0.887371 0.258546 0.536936
O O6 0.022358 0.206966 0.438207
O O7 0.584021 0.865481 0.223486
O O8 0.631833 0.246590 0.208393
O O9 0.896797 0.560875 0.164378
O O10 0.496313 0.357242 0.712074
O O11 0.840046 0.641504 0.021849
O O12 0.595532 0.478926 0.539937
O O13 0.730856 0.717975 0.453101
O O14 0.524975 0.341263 0.256979
O O15 0.141850 0.973233 0.365564
O O16 0.271609 0.960033 0.209833
#
# Coordination Sequence:
#
# PCOD8001261 Si02
#       8
#     2   2   2   2   2   2   2   2
#     4  11  23  39  59  91 123 159 206 247 299 356
#     4  11  22  39  59  90 124 158 203 252 293 362
#     4  11  22  38  63  86 122 168 198 247 304 352
#     4  11  23  39  63  89 127 157 200 251 295 362
#     4   9  20  39  67  85 118 165 195 244 316 351
#     4  10  22  41  61  91 125 157 204 244 301 358
#     4  10  19  43  64  88 124 159 195 254 302 355
#     4   9  21  39  60  86 121 156 200 255 289 362
#
# _framework density 20.701927000000001
#
# number of rings (size 3 to 8) (size 9 to 14) (size 15 to 20)
#    0.000    1.750    2.500    1.500    0.000    4.000 
#    2.250    3.125    0.000    0.000    0.000    0.000 
#    0.000    0.000    0.000    0.000    0.000    0.000 
#
# Total GULP energy -198409.696493 kJ/mol
# GULP energy per Si atom -12400.606031 kJ/mol
# Density = 2.065481 g / cm^3
# Si number density = 20.701927 Si / 1000 Ang^3
#
#
#
# Elastic Constant Matrix: (Units=GPa)
#
#
# Indices 1 2 3 4 5 6 
#
# 1 100.3289 45.4704 38.6993 1.6784 2.8513 -12.9075
# 2 45.4704 93.8782 38.9367 4.9660 8.6893 -5.2322
# 3 38.6993 38.9367 105.4645 -1.1267 6.9775 -10.6667
# 4 1.6784 4.9660 -1.1267 35.8377 2.5932 8.6950
# 5 2.8513 8.6893 6.9775 2.5932 20.0668 -2.1871
# 6 -12.9075 -5.2322 -10.6667 8.6950 -2.1871 26.7057
#
#
#
# Elastic Compliance Matrix: (Units=1/GPa)
#
#
# Indices 1 2 3 4 5 6 
#
# 1 0.014201 -0.005550 -0.002781 -0.001423 0.002114 0.005302
# 2 -0.005550 0.015182 -0.003382 -0.001384 -0.004537 -0.000980
# 3 -0.002781 -0.003382 0.012152 0.000532 -0.002162 0.002497
# 4 -0.001423 -0.001384 0.000532 0.031258 -0.004655 -0.011305
# 5 0.002114 -0.004537 -0.002162 -0.004655 0.053413 0.005159
# 6 0.005302 -0.000980 0.002497 -0.011305 0.005159 0.044917
#
#
# Mechanical properties :
#
#
# Convention : Reuss Voigt Hill
#
# Bulk Modulus (GPa) = 55.22073 60.65380 57.93727
# Shear Modulus (GPa) = 24.92710 28.29306 26.61008
#
# Velocity S-wave (km/s) = 3.47377 3.70088 3.58913
# Velocity P-wave (km/s) = 6.54382 6.90104 6.72480
#
# Compressibility (1/GPa) = 0.01810914
#
# Stress axis : x y z
#
# Youngs Moduli (GPa) = 70.41795 65.86947 82.28979
#
# Poissons Ratio (x) = 0.36557 0.22883
# Poissons Ratio (y) = 0.39081 0.27832
# Poissons Ratio (z) = 0.19582 0.22278
#
# Static dielectric constant tensor:
#      x y z
#    x 3.659790 0.179710 -0.050320 
#    y 0.179710 3.749350 0.077900 
#    z -0.050320 0.077900 3.724280 
# 
# 
# High freq. dielectric constant tensor:
#      x y z
#    x 1.794880 0.015950 -0.002050 
#    y 0.015950 1.816670 0.003690 
#    z -0.002050 0.003690 1.808650 
# 
# From -- ./inp_files/272042.got.cif
#   From: 2010.06.25/outbox.cif.g09.slc.cpg/sg2_137_cif.got.tgz:272042.got - 2010.06.27 13:26:56.
