data_PCOD8001675
_publ_section_title
;
Structure prediction by ZEFSAII (Michael W. Deem and Ramdas Pophale) SiO2 
 PCOD8001675
Probable space group: P -1
;
_chemical_formula_sum "Si O2"
_cell_formula_units_Z 10
_cell_length_a 10.847089
_cell_length_b 5.392714
_cell_length_c 9.724555
_cell_angle_alpha 116.003423
_cell_angle_beta 92.192033
_cell_angle_gamma 91.415891
_cell_volume 510.336084
_symmetry_space_group_name_H-M "P -1"
_symmetry_group_IT_number 2
_symmetry_cell_setting 'triclinic'
loop_
_space_group_symop_operation_xyz
x,y,z
-x,-y,-z
loop_
_atom_site_type_symbol
_atom_site_label
_atom_site_fract_x
_atom_site_fract_y
_atom_site_fract_z
Si Si1 0.311234 0.794142 0.757491
Si Si2 0.106792 0.728460 0.533320
Si Si3 0.153638 0.683754 0.963404
Si Si4 0.966628 0.226806 0.752296
Si Si5 0.387431 0.397671 0.877275
O O1 0.236406 0.656796 0.591467
O O2 0.213205 0.880094 0.893743
O O3 0.396467 0.556893 0.767638
O O4 0.391362 0.065964 0.779473
O O5 0.126238 0.758400 0.377736
O O6 0.000000 0.500000 0.500000
O O7 0.070708 0.014990 0.670005
O O8 0.033666 0.524005 0.854811
O O9 0.113557 0.860853 0.137159
O O10 0.257824 0.470280 0.961385
O O11 0.500000 0.500000 0.000000
#
# Coordination Sequence:
#
# PCOD8001675 Si02
#       5
#     2   2   2   2   2
#     4  10  20  35  56  83 107 143 187 225 270 325
#     4  11  19  32  52  82 115 153 171 216 282 339
#     4   9  20  34  55  84 107 149 181 232 264 327
#     4  10  20  34  52  82 120 143 179 220 279 335
#     4  10  20  37  59  81 104 143 192 236 269 310
#
# _framework density 19.594930999999999
#
# number of rings (size 3 to 8) (size 9 to 14) (size 15 to 20)
#    1.200    0.800    4.000    0.600    2.800    2.400 
#    0.000    0.000    0.000    2.400    0.000    0.000 
#    0.000    0.000    0.000    0.000    0.000    0.000 
#
# Total GULP energy -123893.241253 kJ/mol
# GULP energy per Si atom -12389.324125 kJ/mol
# Density = 1.955033 g / cm^3
# Si number density = 19.594931 Si / 1000 Ang^3
#
#
#
# Elastic Constant Matrix: (Units=GPa)
#
#
# Indices 1 2 3 4 5 6 
#
# 1 46.0612 14.9240 30.8243 -6.5122 31.6097 -1.3026
# 2 14.9240 114.4974 37.8114 -8.2022 26.6806 5.5051
# 3 30.8243 37.8114 124.4077 -13.8265 24.2863 -4.8259
# 4 -6.5122 -8.2022 -13.8265 25.6939 -5.5264 10.5967
# 5 31.6097 26.6806 24.2863 -5.5264 47.8053 -1.0842
# 6 -1.3026 5.5051 -4.8259 10.5967 -1.0842 22.9064
#
#
#
# Elastic Compliance Matrix: (Units=1/GPa)
#
#
# Indices 1 2 3 4 5 6 
#
# 1 0.044106 0.003085 -0.006182 0.004078 -0.027335 -0.002716
# 2 0.003085 0.011274 -0.002687 0.003596 -0.006667 -0.005079
# 3 -0.006182 -0.002687 0.010653 0.002925 0.000541 0.001211
# 4 0.004078 0.003596 0.002925 0.052585 -0.000663 -0.024374
# 5 -0.027335 -0.006667 0.000541 -0.000663 0.042418 0.002476
# 6 -0.002716 -0.005079 0.001211 -0.024374 0.002476 0.056370
#
#
# Mechanical properties :
#
#
# Convention : Reuss Voigt Hill
#
# Bulk Modulus (GPa) = 18.36003 50.23175 34.29589
# Shear Modulus (GPa) = 20.23234 32.70821 26.47028
#
# Velocity S-wave (km/s) = 3.21679 4.09004 3.67941
# Velocity P-wave (km/s) = 4.81530 6.92786 5.96583
#
# Compressibility (1/GPa) = 0.05446614
#
# Stress axis : x y z
#
# Youngs Moduli (GPa) = 22.67259 88.69684 93.87173
#
# Poissons Ratio (x) = -0.27362 0.58028
# Poissons Ratio (y) = -0.06994 0.25223
# Poissons Ratio (z) = 0.14015 0.23832
#
# Static dielectric constant tensor:
#      x y z
#    x 3.169990 -0.009590 0.165200 
#    y -0.009590 3.571590 -0.226120 
#    z 0.165200 -0.226120 3.681780 
# 
# 
# High freq. dielectric constant tensor:
#      x y z
#    x 1.717270 0.002840 0.032980 
#    y 0.002840 1.761900 -0.016200 
#    z 0.032980 -0.016200 1.758300 
# 
# From -- ./inp_files/16265.got.cif
#   From: 2010.06.25/outbox.cif.g09.slc.cpg/sg2_9_cif.got.tgz:16265.got - 2010.06.27 13:26:56.
