data_PCOD8001064
_publ_section_title
;
Structure prediction by ZEFSAII (Michael W. Deem and Ramdas Pophale) SiO2 
 PCOD8001064
Probable space group: P -1
;
_chemical_formula_sum "Si O2"
_cell_formula_units_Z 16
_cell_length_a 11.583067
_cell_length_b 8.522531
_cell_length_c 12.607758
_cell_angle_alpha 50.983067
_cell_angle_beta 113.806977
_cell_angle_gamma 127.585733
_cell_volume 765.903895
_symmetry_space_group_name_H-M "P -1"
_symmetry_group_IT_number 2
_symmetry_cell_setting 'triclinic'
loop_
_space_group_symop_operation_xyz
x,y,z
-x,-y,-z
loop_
_atom_site_type_symbol
_atom_site_label
_atom_site_fract_x
_atom_site_fract_y
_atom_site_fract_z
Si Si1 0.492197 0.589129 0.343911
Si Si2 0.969065 0.686816 0.721396
Si Si3 0.771131 0.989367 0.174661
Si Si4 0.903245 0.346211 0.431996
Si Si5 0.712740 0.200019 0.867565
Si Si6 0.247949 0.158651 0.341078
Si Si7 0.796515 0.923622 0.878625
Si Si8 0.123493 0.263490 0.829576
O O1 0.500000 0.500000 0.500000
O O2 0.654234 0.762733 0.291137
O O3 0.402840 0.724316 0.240309
O O4 0.411981 0.351387 0.348504
O O5 0.876188 0.420384 0.838595
O O6 0.874164 0.811768 0.653512
O O7 0.000008 0.689883 0.605862
O O8 0.122007 0.811949 0.788228
O O9 0.867096 0.906737 0.180414
O O10 0.690541 0.084028 0.025876
O O11 0.818651 0.473408 0.300040
O O12 0.000000 0.500000 0.500000
O O13 0.779042 0.097361 0.534824
O O14 0.691686 0.013168 0.848528
O O15 0.245613 0.194351 0.200115
O O16 0.787652 0.722547 0.038075
O O17 0.954426 0.153614 0.840681
#
# Coordination Sequence:
#
# PCOD8001064 Si02
#       8
#     2   2   2   2   2   2   2   2
#     4  11  26  45  59  86 131 173 209 257 307 370
#     4  11  21  36  64  99 121 156 208 268 308 368
#     4  11  22  42  65  94 125 164 209 257 314 370
#     4  12  21  35  57  93 124 161 202 256 309 366
#     4  10  22  40  69  92 124 162 206 259 317 371
#     4  11  23  40  63  90 123 169 212 252 308 374
#     4  10  19  41  63  95 126 157 201 261 318 367
#     4  10  21  36  64  93 131 155 197 261 320 363
#
# _framework density 20.890349000000001
#
# number of rings (size 3 to 8) (size 9 to 14) (size 15 to 20)
#    0.000    1.250    3.750    1.875    0.000    6.000 
#    0.000    7.500    0.000    0.000    0.000    0.000 
#    0.000    0.000    0.000    0.000    0.000    0.000 
#
# Total GULP energy -198372.579659 kJ/mol
# GULP energy per Si atom -12398.286229 kJ/mol
# Density = 2.084280 g / cm^3
# Si number density = 20.890349 Si / 1000 Ang^3
#
#
#
# Elastic Constant Matrix: (Units=GPa)
#
#
# Indices 1 2 3 4 5 6 
#
# 1 45.3310 33.8099 36.0086 8.7867 0.7124 -5.6366
# 2 33.8099 109.8642 54.5290 7.5008 -3.9863 -11.7786
# 3 36.0086 54.5290 150.0639 -1.9236 0.8666 -13.6111
# 4 8.7867 7.5008 -1.9236 30.5191 -7.4242 -10.0027
# 5 0.7124 -3.9863 0.8666 -7.4242 35.6017 -2.2341
# 6 -5.6366 -11.7786 -13.6111 -10.0027 -2.2341 29.7586
#
#
#
# Elastic Compliance Matrix: (Units=1/GPa)
#
#
# Indices 1 2 3 4 5 6 
#
# 1 0.033760 -0.007236 -0.005835 -0.010113 -0.003629 -0.002810
# 2 -0.007236 0.013059 -0.002777 0.000025 0.001848 0.002675
# 3 -0.005835 -0.002777 0.009453 0.004317 0.000703 0.003623
# 4 -0.010113 0.000025 0.004317 0.043470 0.010134 0.015441
# 5 -0.003629 0.001848 0.000703 0.010134 0.030846 0.006088
# 6 -0.002810 0.002675 0.003623 0.015441 0.006088 0.041435
#
#
# Mechanical properties :
#
#
# Convention : Reuss Voigt Hill
#
# Bulk Modulus (GPa) = 40.68906 61.55046 51.11976
# Shear Modulus (GPa) = 23.59492 31.23666 27.41579
#
# Velocity S-wave (km/s) = 3.36440 3.87106 3.62659
# Velocity P-wave (km/s) = 5.88319 7.03617 6.48536
#
# Compressibility (1/GPa) = 0.02457663
#
# Stress axis : x y z
#
# Youngs Moduli (GPa) = 29.62123 76.57404 105.78752
#
# Poissons Ratio (x) = 0.55406 0.61728
# Poissons Ratio (y) = 0.21433 0.29375
# Poissons Ratio (z) = 0.17284 0.21263
#
# Static dielectric constant tensor:
#      x y z
#    x 3.688580 -0.141260 0.033010 
#    y -0.141260 3.789150 -0.021300 
#    z 0.033010 -0.021300 4.141020 
# 
# 
# High freq. dielectric constant tensor:
#      x y z
#    x 1.799260 -0.021220 -0.002100 
#    y -0.021220 1.812090 -0.002560 
#    z -0.002100 -0.002560 1.837550 
# 
# From -- ./inp_files/243857.got.cif
#   From: 2010.06.25/outbox.cif.g09.slc.cpg/sg2_122_cif.got.tgz:243857.got - 2010.06.27 13:26:56.
