data_PCOD8001744
_publ_section_title
;
Structure prediction by ZEFSAII (Michael W. Deem and Ramdas Pophale) SiO2 
 PCOD8001744
Probable space group: P -1
;
_chemical_formula_sum "Si O2"
_cell_formula_units_Z 14
_cell_length_a 16.605882
_cell_length_b 16.163087
_cell_length_c 12.136452
_cell_angle_alpha 117.891280
_cell_angle_beta 53.203627
_cell_angle_gamma 162.607601
_cell_volume 702.590463
_symmetry_space_group_name_H-M "P -1"
_symmetry_group_IT_number 2
_symmetry_cell_setting 'triclinic'
loop_
_space_group_symop_operation_xyz
x,y,z
-x,-y,-z
loop_
_atom_site_type_symbol
_atom_site_label
_atom_site_fract_x
_atom_site_fract_y
_atom_site_fract_z
Si Si1 0.895702 0.181822 0.589182
Si Si2 0.817604 0.873519 0.243578
Si Si3 0.282185 0.110258 0.024391
Si Si4 0.308492 0.535971 0.875276
Si Si5 0.714121 0.539930 0.742853
Si Si6 0.435115 0.605019 0.576726
Si Si7 0.367283 0.799207 0.912034
O O1 0.145745 0.418391 0.428647
O O2 0.088691 0.332796 0.639349
O O3 0.704343 0.922951 0.542796
O O4 0.621334 0.019023 0.736360
O O5 0.566823 0.650078 0.207776
O O6 0.599023 0.667904 0.407957
O O7 0.049581 0.990822 0.112784
O O8 0.017199 0.147258 0.242072
O O9 0.438787 0.266895 0.113324
O O10 0.573301 0.360981 0.852731
O O11 0.069723 0.825921 0.011374
O O12 0.387421 0.541686 0.705975
O O13 0.354760 0.687035 0.910280
O O14 0.000000 0.500000 0.000000
O O15 0.500000 0.000000 0.000000
#
# Coordination Sequence:
#
# PCOD8001744 Si02
#       7
#     2   2   2   2   2   2   2
#     4   9  18  34  57  81 103 135 178 225 265 307
#     4  10  20  34  55  79 106 152 199 220 239 292
#     4  12  22  34  54  79 117 151 176 221 261 309
#     4  11  23  36  52  82 113 138 173 222 290 325
#     4  10  20  36  55  78 111 150 191 215 246 306
#     4   9  18  34  52  76 112 142 177 223 260 310
#     4  11  21  38  63  82 100 130 176 229 275 334
#
# _framework density 19.926258000000001
#
# number of rings (size 3 to 8) (size 9 to 14) (size 15 to 20)
#    0.000    1.714    0.000    6.857    0.000    1.143 
#    0.000    0.000    0.000    5.143    0.000    0.000 
#    0.000    0.000    0.000    0.000    0.000    0.000 
#
# Total GULP energy -173460.531186 kJ/mol
# GULP energy per Si atom -12390.037942 kJ/mol
# Density = 1.988091 g / cm^3
# Si number density = 19.926258 Si / 1000 Ang^3
#
#
#
# Elastic Constant Matrix: (Units=GPa)
#
#
# Indices 1 2 3 4 5 6 
#
# 1 39.2032 15.1078 41.3509 -4.8092 5.9038 -0.9331
# 2 15.1078 99.5036 21.5079 -5.8916 -0.4774 5.2909
# 3 41.3509 21.5079 137.8437 -13.3716 -2.3185 -3.6381
# 4 -4.8092 -5.8916 -13.3716 30.2936 1.7827 -2.0668
# 5 5.9038 -0.4774 -2.3185 1.7827 29.0514 -1.9624
# 6 -0.9331 5.2909 -3.6381 -2.0668 -1.9624 36.8979
#
#
#
# Elastic Compliance Matrix: (Units=1/GPa)
#
#
# Indices 1 2 3 4 5 6 
#
# 1 0.040832 -0.003640 -0.011728 0.001146 -0.009366 -0.000036
# 2 -0.003640 0.010872 -0.000523 0.001156 0.000698 -0.001601
# 3 -0.011728 -0.000523 0.011220 0.002885 0.003175 0.001215
# 4 0.001146 0.001156 0.002885 0.034944 -0.001993 0.001999
# 5 -0.009366 0.000698 0.003175 -0.001993 0.036836 0.001824
# 6 -0.000036 -0.001601 0.001215 0.001999 0.001824 0.027659
#
#
# Mechanical properties :
#
#
# Convention : Reuss Voigt Hill
#
# Bulk Modulus (GPa) = 32.11079 48.05374 40.08227
# Shear Modulus (GPa) = 24.44682 32.48751 28.46716
#
# Velocity S-wave (km/s) = 3.50646 4.04219 3.78382
# Velocity P-wave (km/s) = 5.70469 6.77892 6.26488
#
# Compressibility (1/GPa) = 0.03114218
#
# Stress axis : x y z
#
# Youngs Moduli (GPa) = 24.49069 91.97562 89.12803
#
# Poissons Ratio (x) = 0.33476 1.04532
# Poissons Ratio (y) = 0.08914 0.04662
# Poissons Ratio (z) = 0.28723 0.04810
#
# Static dielectric constant tensor:
#      x y z
#    x 3.263300 0.072410 0.058830 
#    y 0.072410 3.864330 -0.158970 
#    z 0.058830 -0.158970 4.157730 
# 
# 
# High freq. dielectric constant tensor:
#      x y z
#    x 1.721770 0.016390 0.010940 
#    y 0.016390 1.805620 -0.007720 
#    z 0.010940 -0.007720 1.792660 
# 
# From -- ./inp_files/35090.got.cif
#   From: 2010.06.25/outbox.cif.g09.slc.cpg/sg2_18_cif.got.tgz:35090.got - 2010.06.27 13:26:56.
