data_PCOD8001151
_publ_section_title
;
Structure prediction by ZEFSAII (Michael W. Deem and Ramdas Pophale) SiO2 
 PCOD8001151
Probable space group: P -1
;
_chemical_formula_sum "Si O2"
_cell_formula_units_Z 14
_cell_length_a 9.392298
_cell_length_b 9.713561
_cell_length_c 13.857448
_cell_angle_alpha 132.046024
_cell_angle_beta 53.338749
_cell_angle_gamma 136.508898
_cell_volume 630.669265
_symmetry_space_group_name_H-M "P -1"
_symmetry_group_IT_number 2
_symmetry_cell_setting 'triclinic'
loop_
_space_group_symop_operation_xyz
x,y,z
-x,-y,-z
loop_
_atom_site_type_symbol
_atom_site_label
_atom_site_fract_x
_atom_site_fract_y
_atom_site_fract_z
Si Si1 0.816349 0.513674 0.532127
Si Si2 0.150638 0.198130 0.100301
Si Si3 0.472329 0.183403 0.647201
Si Si4 0.056983 0.629188 0.137197
Si Si5 0.499792 0.799426 0.131393
Si Si6 0.984097 0.984076 0.726660
Si Si7 0.170503 0.690574 0.755628
O O1 0.618041 0.413599 0.639239
O O2 0.735586 0.376056 0.401388
O O3 0.000000 0.500000 0.500000
O O4 0.904455 0.768558 0.591362
O O5 0.147183 0.102564 0.161753
O O6 0.052892 0.349318 0.211241
O O7 0.384934 0.320434 0.014888
O O8 0.000000 0.000000 0.000000
O O9 0.546575 0.229716 0.749657
O O10 0.500000 0.000000 0.500000
O O11 0.231522 0.109756 0.707645
O O12 0.283578 0.689783 0.109454
O O13 0.874928 0.468522 0.210739
O O14 0.064661 0.854613 0.232301
O O15 0.000000 0.500000 0.000000
O O16 0.654065 0.060223 0.166928
#
# Coordination Sequence:
#
# PCOD8001151 Si02
#       7
#     2   2   2   2   2   2   2
#     4  12  22  42  73 107 141 178 234 298 348 415
#     4  10  19  41  71 102 135 180 240 293 335 408
#     4  12  22  43  76 108 136 185 239 287 352 421
#     4  12  30  48  67 104 150 190 233 292 363 421
#     4  11  24  44  78 102 144 186 238 294 355 416
#     4  12  26  46  69 105 148 182 235 299 347 418
#     4  11  23  45  72 105 143 181 237 297 348 422
#
# _framework density 22.198640999999999
#
# number of rings (size 3 to 8) (size 9 to 14) (size 15 to 20)
#    0.000    0.571    7.143    2.571    0.000    5.714 
#    0.000    1.429    0.000    0.000    0.000    0.000 
#    0.000    0.000    0.000    0.000    0.000    0.000 
#
# Total GULP energy -173617.565176 kJ/mol
# GULP energy per Si atom -12401.254655 kJ/mol
# Density = 2.214812 g / cm^3
# Si number density = 22.198641 Si / 1000 Ang^3
#
#
#
# Elastic Constant Matrix: (Units=GPa)
#
#
# Indices 1 2 3 4 5 6 
#
# 1 86.5673 23.7350 39.0611 -12.5034 4.0134 14.8825
# 2 23.7350 123.1207 34.5230 -18.4641 2.4830 -3.8260
# 3 39.0611 34.5230 121.9698 -24.6983 4.1894 3.2371
# 4 -12.5034 -18.4641 -24.6983 37.6903 -6.3054 6.2258
# 5 4.0134 2.4830 4.1894 -6.3054 28.4980 1.7941
# 6 14.8825 -3.8260 3.2371 6.2258 1.7941 41.4797
#
#
#
# Elastic Compliance Matrix: (Units=1/GPa)
#
#
# Indices 1 2 3 4 5 6 
#
# 1 0.015018 -0.001643 -0.003644 0.002636 -0.000499 -0.005630
# 2 -0.001643 0.009339 -0.001579 0.002842 0.000207 0.001139
# 3 -0.003644 -0.001579 0.010885 0.005273 0.000248 -0.000490
# 4 0.002636 0.002842 0.005273 0.034447 0.006640 -0.006552
# 5 -0.000499 0.000207 0.000248 0.006640 0.036727 -0.002407
# 6 -0.005630 0.001139 -0.000490 -0.006552 -0.002407 0.027359
#
#
# Mechanical properties :
#
#
# Convention : Reuss Voigt Hill
#
# Bulk Modulus (GPa) = 46.49117 58.47735 52.48426
# Shear Modulus (GPa) = 32.32541 37.15620 34.74081
#
# Velocity S-wave (km/s) = 3.82014 4.09565 3.96030
# Velocity P-wave (km/s) = 6.35977 6.98325 6.67879
#
# Compressibility (1/GPa) = 0.02150946
#
# Stress axis : x y z
#
# Youngs Moduli (GPa) = 66.58596 107.07791 91.86962
#
# Poissons Ratio (x) = 0.17592 0.33480
# Poissons Ratio (y) = 0.10940 0.14507
# Poissons Ratio (z) = 0.24266 0.16908
#
# Static dielectric constant tensor:
#      x y z
#    x 4.231330 0.077330 -0.480900 
#    y 0.077330 4.360060 -0.131410 
#    z -0.480900 -0.131410 4.664810 
# 
# 
# High freq. dielectric constant tensor:
#      x y z
#    x 1.844630 0.011730 0.002330 
#    y 0.011730 1.892800 -0.000980 
#    z 0.002330 -0.000980 1.893140 
# 
# From -- ./inp_files/184636.got.cif
#   From: 2010.06.25/outbox.cif.g09.slc.cpg/sg2_93_cif.got.tgz:184636.got - 2010.06.27 13:26:56.
