data_PCOD8001784
_publ_section_title
;
Structure prediction by ZEFSAII (Michael W. Deem and Ramdas Pophale) SiO2 
 PCOD8001784
Probable space group: P -1
;
_chemical_formula_sum "Si O2"
_cell_formula_units_Z 16
_cell_length_a 11.797676
_cell_length_b 8.488783
_cell_length_c 20.034001
_cell_angle_alpha 139.260470
_cell_angle_beta 46.069709
_cell_angle_gamma 103.856496
_cell_volume 748.052876
_symmetry_space_group_name_H-M "P -1"
_symmetry_group_IT_number 2
_symmetry_cell_setting 'triclinic'
loop_
_space_group_symop_operation_xyz
x,y,z
-x,-y,-z
loop_
_atom_site_type_symbol
_atom_site_label
_atom_site_fract_x
_atom_site_fract_y
_atom_site_fract_z
Si Si1 0.886962 0.094374 0.238895
Si Si2 0.681958 0.648282 0.305131
Si Si3 0.168069 0.500188 0.186028
Si Si4 0.494257 0.728571 0.933931
Si Si5 0.680160 0.799897 0.212866
Si Si6 0.765716 0.679600 0.423733
Si Si7 0.705174 0.156426 0.077131
Si Si8 0.162607 0.734667 0.122666
O O1 0.751384 0.458477 0.405734
O O2 0.752859 0.003090 0.236455
O O3 0.951571 0.995277 0.258089
O O4 0.079184 0.956966 0.070889
O O5 0.782989 0.613841 0.180859
O O6 0.816910 0.563432 0.287792
O O7 0.634127 0.402001 0.244841
O O8 0.500000 0.000000 0.500000
O O9 0.302211 0.525152 0.192132
O O10 0.131967 0.698328 0.200149
O O11 0.956331 0.660582 0.360781
O O12 0.279971 0.141632 0.006152
O O13 0.455838 0.632810 0.847993
O O14 0.309610 0.828389 0.089139
O O15 0.500000 0.000000 0.000000
O O16 0.442463 0.991719 0.377750
O O17 0.744606 0.580639 0.054203
#
# Coordination Sequence:
#
# PCOD8001784 Si02
#       8
#     2   2   2   2   2   2   2   2
#     4  10  20  34  56  81 114 156 183 231 276 337
#     4  10  20  35  54  77 120 149 186 225 283 339
#     4  10  21  35  60  86 110 149 193 238 273 332
#     4   9  18  37  60  85 111 143 189 242 282 322
#     4  11  21  36  53  82 120 152 182 230 284 336
#     4  10  23  36  54  84 120 152 189 223 284 341
#     4   9  19  35  57  87 112 149 192 234 280 331
#     4  11  21  35  60  85 114 142 195 233 281 332
#
# _framework density 21.388862
#
# number of rings (size 3 to 8) (size 9 to 14) (size 15 to 20)
#    0.000    2.000    2.500    2.625    3.500    1.000 
#    0.000    0.625    0.000    0.000    0.000    7.875 
#    0.000    0.000    0.000    0.000    0.000    0.000 
#
# Total GULP energy -198222.344742 kJ/mol
# GULP energy per Si atom -12388.896546 kJ/mol
# Density = 2.134018 g / cm^3
# Si number density = 21.388862 Si / 1000 Ang^3
#
#
#
# Elastic Constant Matrix: (Units=GPa)
#
#
# Indices 1 2 3 4 5 6 
#
# 1 68.0033 7.0653 16.0857 -7.8156 -24.9770 0.0691
# 2 7.0653 94.7248 5.8279 5.3485 -12.3814 -0.4294
# 3 16.0857 5.8279 32.6635 5.2873 -12.8634 -5.5016
# 4 -7.8156 5.3485 5.2873 21.4590 -2.3942 -7.9273
# 5 -24.9770 -12.3814 -12.8634 -2.3942 22.8197 -0.5770
# 6 0.0691 -0.4294 -5.5016 -7.9273 -0.5770 40.6875
#
#
#
# Elastic Compliance Matrix: (Units=1/GPa)
#
#
# Indices 1 2 3 4 5 6 
#
# 1 0.029145 0.001387 -0.004025 0.015948 0.032133 0.002984
# 2 0.001387 0.011549 0.000670 -0.001646 0.007989 0.000003
# 3 -0.004025 0.000670 0.041976 -0.008265 0.018863 0.004347
# 4 0.015948 -0.001646 -0.008265 0.060987 0.018580 0.010984
# 5 0.032133 0.007989 0.018863 0.018580 0.096101 0.007563
# 6 0.002984 0.000003 0.004347 0.010984 0.007563 0.027408
#
#
# Mechanical properties :
#
#
# Convention : Reuss Voigt Hill
#
# Bulk Modulus (GPa) = 12.70105 28.14994 20.42549
# Shear Modulus (GPa) = 16.81531 28.08740 22.45136
#
# Velocity S-wave (km/s) = 2.80692 3.62771 3.24338
# Velocity P-wave (km/s) = 4.05661 5.54407 4.85761
#
# Compressibility (1/GPa) = 0.07873367
#
# Stress axis : x y z
#
# Youngs Moduli (GPa) = 34.31096 86.58395 23.82287
#
# Poissons Ratio (x) = -0.12008 0.09589
# Poissons Ratio (y) = -0.04758 -0.01595
# Poissons Ratio (z) = 0.13810 -0.05797
#
# Static dielectric constant tensor:
#      x y z
#    x 4.524410 -0.052090 -0.216910 
#    y -0.052090 4.120080 0.249380 
#    z -0.216910 0.249380 3.487460 
# 
# 
# High freq. dielectric constant tensor:
#      x y z
#    x 1.842720 0.001630 -0.021730 
#    y 0.001630 1.849680 0.019860 
#    z -0.021730 0.019860 1.794870 
# 
# From -- ./inp_files/201930.got.cif
#   From: 2010.06.25/outbox.cif.g09.slc.cpg/sg2_101_cif.got.tgz:201930.got - 2010.06.27 13:26:56.
