data_PCOD8001954
_publ_section_title
;
Structure prediction by ZEFSAII (Michael W. Deem and Ramdas Pophale) SiO2 
 PCOD8001954
Probable space group: P -1
;
_chemical_formula_sum "Si O2"
_cell_formula_units_Z 14
_cell_length_a 9.262156
_cell_length_b 14.447429
_cell_length_c 5.367317
_cell_angle_alpha 69.516076
_cell_angle_beta 69.845160
_cell_angle_gamma 115.079990
_cell_volume 496.001592
_symmetry_space_group_name_H-M "P -1"
_symmetry_group_IT_number 2
_symmetry_cell_setting 'triclinic'
loop_
_space_group_symop_operation_xyz
x,y,z
-x,-y,-z
loop_
_atom_site_type_symbol
_atom_site_label
_atom_site_fract_x
_atom_site_fract_y
_atom_site_fract_z
Si Si1 0.915085 0.649942 0.560994
Si Si2 0.589113 0.287516 0.354673
Si Si3 0.013390 0.120259 0.267244
Si Si4 0.208438 0.618047 0.364126
Si Si5 0.143188 0.142661 0.669133
Si Si6 0.728627 0.586806 0.232813
Si Si7 0.613415 0.072152 0.615128
O O1 0.898896 0.760587 0.474012
O O2 0.817381 0.564878 0.444668
O O3 0.144128 0.707381 0.382143
O O4 0.789077 0.559098 0.959771
O O5 0.694448 0.389485 0.428897
O O6 0.357580 0.208836 0.585006
O O7 0.654956 0.203810 0.452555
O O8 0.642819 0.336814 0.994531
O O9 0.101631 0.081681 0.470750
O O10 0.816495 0.095056 0.488218
O O11 0.988436 0.054941 0.071292
O O12 0.179354 0.266618 0.952736
O O13 0.000000 0.500000 0.500000
O O14 0.500000 0.500000 0.500000
O O15 0.500000 0.000000 0.500000
O O16 0.500000 0.000000 0.000000
#
# Coordination Sequence:
#
# PCOD8001954 Si02
#       7
#     2   2   2   2   2   2   2
#     4  10  21  38  58  88 129 180 226 266 321 401
#     4  12  25  46  68 102 142 178 235 301 347 418
#     4  10  21  41  64  94 133 173 222 281 342 417
#     4  12  26  43  67 101 144 193 235 281 347 424
#     4  10  21  40  67  95 131 177 216 282 354 403
#     4  10  20  34  60  93 125 171 220 267 329 404
#     4  12  26  48  76 103 133 186 243 296 361 421
#
# _framework density 28.225717
#
# number of rings (size 3 to 8) (size 9 to 14) (size 15 to 20)
#    0.000    1.143    0.000    7.714    0.000    6.857 
#    0.000    4.286    0.000    0.000    0.000    0.000 
#    0.000    0.000    0.000    0.000    0.000    0.000 
#
# Total GULP energy -173571.329100 kJ/mol
# GULP energy per Si atom -12397.952079 kJ/mol
# Density = 2.816147 g / cm^3
# Si number density = 28.225717 Si / 1000 Ang^3
#
#
#
# Elastic Constant Matrix: (Units=GPa)
#
#
# Indices 1 2 3 4 5 6 
#
# 1 178.5073 53.6011 78.6216 18.4125 12.4055 34.9757
# 2 53.6011 119.6283 60.4336 32.1708 10.2206 27.6817
# 3 78.6216 60.4336 265.6161 36.1761 26.9094 23.3463
# 4 18.4125 32.1708 36.1761 56.0262 7.4862 5.5299
# 5 12.4055 10.2206 26.9094 7.4862 65.6429 8.8214
# 6 34.9757 27.6817 23.3463 5.5299 8.8214 50.0435
#
#
#
# Elastic Compliance Matrix: (Units=1/GPa)
#
#
# Indices 1 2 3 4 5 6 
#
# 1 0.007494 -0.001741 -0.001485 -0.000148 -0.000041 -0.003558
# 2 -0.001741 0.012140 -0.001158 -0.005230 0.000101 -0.004398
# 3 -0.001485 -0.001158 0.004858 -0.001794 -0.001305 -0.000160
# 4 -0.000148 -0.005230 -0.001794 0.022055 -0.001153 0.001599
# 5 -0.000041 0.000101 -0.001305 -0.001153 0.016180 -0.002143
# 6 -0.003558 -0.004398 -0.000160 0.001599 -0.002143 0.025178
#
#
# Mechanical properties :
#
#
# Convention : Reuss Voigt Hill
#
# Bulk Modulus (GPa) = 63.59651 105.45160 84.52406
# Shear Modulus (GPa) = 49.06015 59.08222 54.07118
#
# Velocity S-wave (km/s) = 4.17362 4.58012 4.38159
# Velocity P-wave (km/s) = 6.76800 8.08772 7.45711
#
# Compressibility (1/GPa) = 0.01572413
#
# Stress axis : x y z
#
# Youngs Moduli (GPa) = 133.43712 82.37233 205.82686
#
# Poissons Ratio (x) = 0.14342 0.30567
# Poissons Ratio (y) = 0.23232 0.23837
# Poissons Ratio (z) = 0.19817 0.09539
#
# Static dielectric constant tensor:
#      x y z
#    x 4.637420 0.541980 1.151370 
#    y 0.541980 6.306660 0.172470 
#    z 1.151370 0.172470 5.154370 
# 
# 
# High freq. dielectric constant tensor:
#      x y z
#    x 2.162360 -0.015110 0.032260 
#    y -0.015110 2.217070 0.018890 
#    z 0.032260 0.018890 2.167780 
# 
# From -- ./inp_files/43635.got.cif
#   From: 2010.06.25/outbox.cif.g09.slc.cpg/sg2_22_cif.got.tgz:43635.got - 2010.06.27 13:26:56.
