data_PCOD8001732
_publ_section_title
;
Structure prediction by ZEFSAII (Michael W. Deem and Ramdas Pophale) SiO2 
 PCOD8001732
Probable space group: P -1
;
_chemical_formula_sum "Si O2"
_cell_formula_units_Z 16
_cell_length_a 11.818655
_cell_length_b 11.279127
_cell_length_c 6.682956
_cell_angle_alpha 64.752810
_cell_angle_beta 77.545067
_cell_angle_gamma 84.522619
_cell_volume 786.797527
_symmetry_space_group_name_H-M "P -1"
_symmetry_group_IT_number 2
_symmetry_cell_setting 'triclinic'
loop_
_space_group_symop_operation_xyz
x,y,z
-x,-y,-z
loop_
_atom_site_type_symbol
_atom_site_label
_atom_site_fract_x
_atom_site_fract_y
_atom_site_fract_z
Si Si1 0.794379 0.527019 0.028194
Si Si2 0.500142 0.209255 0.834860
Si Si3 0.600699 0.333969 0.328089
Si Si4 0.299687 0.845258 0.920216
Si Si5 0.691729 0.866991 0.325670
Si Si6 0.386298 0.304533 0.193211
Si Si7 0.136575 0.371496 0.666811
Si Si8 0.876148 0.375565 0.757218
O O1 0.690117 0.450871 0.229261
O O2 0.863440 0.608593 0.108011
O O3 0.736570 0.620230 0.813798
O O4 0.879433 0.429994 0.944859
O O5 0.572356 0.298285 0.591331
O O6 0.410414 0.121232 0.808357
O O7 0.593248 0.129828 0.988005
O O8 0.423978 0.294577 0.955755
O O9 0.655269 0.214824 0.262677
O O10 0.483563 0.383300 0.225618
O O11 0.246927 0.990494 0.791450
O O12 0.205090 0.752418 0.129542
O O13 0.633817 0.835113 0.586611
O O14 0.780705 0.750052 0.327605
O O15 0.172211 0.510351 0.453112
O O16 0.006206 0.334132 0.675308
#
# Coordination Sequence:
#
# PCOD8001732 Si02
#       8
#     2   2   2   2   2   2   2   2
#     4  11  19  37  59  83 114 147 189 234 284 331
#     4  10  20  37  57  87 115 152 187 229 279 339
#     4   9  21  34  55  86 117 150 185 228 280 339
#     4  10  22  39  58  83 119 151 184 233 282 331
#     4  11  22  37  58  87 116 150 190 227 279 342
#     4  10  20  34  54  86 117 150 183 232 277 333
#     4  11  22  39  63  85 109 149 193 234 285 335
#     4  10  23  41  60  84 113 146 191 241 282 329
#
# _framework density 20.335599999999999
#
# number of rings (size 3 to 8) (size 9 to 14) (size 15 to 20)
#    0.000    1.750    2.500    1.875    0.000    6.500 
#    0.000    0.000    0.000    0.750    0.000    0.000 
#    0.000    0.000    0.000    0.000    0.000    0.000 
#
# Total GULP energy -198291.243250 kJ/mol
# GULP energy per Si atom -12393.202703 kJ/mol
# Density = 2.028932 g / cm^3
# Si number density = 20.335600 Si / 1000 Ang^3
#
#
#
# Elastic Constant Matrix: (Units=GPa)
#
#
# Indices 1 2 3 4 5 6 
#
# 1 80.3941 38.3095 27.9698 -14.7019 -3.7252 -1.8456
# 2 38.3095 81.8895 48.4006 -23.8325 3.4628 3.8605
# 3 27.9698 48.4006 83.1344 11.6978 -8.2725 -7.4890
# 4 -14.7019 -23.8325 11.6978 22.9049 7.6601 7.9694
# 5 -3.7252 3.4628 -8.2725 7.6601 27.0662 -2.3949
# 6 -1.8456 3.8605 -7.4890 7.9694 -2.3949 6.0953
#
#
#
# Elastic Compliance Matrix: (Units=1/GPa)
#
#
# Indices 1 2 3 4 5 6 
#
# 1 0.016755 -0.006380 -0.001672 0.002665 0.002252 0.004460
# 2 -0.006380 0.003100 0.007224 -0.019865 0.009629 0.034737
# 3 -0.001672 0.007224 0.001887 0.019523 -0.008916 -0.031791
# 4 0.002665 -0.019865 0.019523 -0.012044 0.017596 0.060036
# 5 0.002252 0.009629 -0.008916 0.017596 0.025730 -0.029268
# 6 0.004460 0.034737 -0.031791 0.060036 -0.029268 0.014355
#
#
# Mechanical properties :
#
#
# Convention : Reuss Voigt Hill
#
# Bulk Modulus (GPa) = 49.78339 52.75307 51.26823
# Shear Modulus (GPa) = 86.00809 19.92914 52.96862
#
# Velocity S-wave (km/s) = 6.51047 3.13391 5.10919
# Velocity P-wave (km/s) = 9.00272 6.25242 7.75054
#
# Compressibility (1/GPa) = 0.02008702
#
# Stress axis : x y z
#
# Youngs Moduli (GPa) = 59.68520 322.55665 529.85360
#
# Poissons Ratio (x) = 2.05784 0.88584
# Poissons Ratio (y) = 0.38078 -3.82770
# Poissons Ratio (z) = 0.09979 -2.33017
#
# Static dielectric constant tensor:
#      x y z
#    x 3.563010 -0.068400 0.010480 
#    y -0.068400 3.386770 0.041800 
#    z 0.010480 0.041800 3.758700 
# 
# 
# High freq. dielectric constant tensor:
#      x y z
#    x 1.784130 -0.004900 -0.000250 
#    y -0.004900 1.771880 0.006250 
#    z -0.000250 0.006250 1.806470 
# 
# From -- ./inp_files/68452.got.cif
#   From: 2010.06.25/outbox.cif.g09.slc.cpg/sg2_35_cif.got.tgz:68452.got - 2010.06.27 13:26:56.
