data_PCOD8001367
_publ_section_title
;
Structure prediction by ZEFSAII (Michael W. Deem and Ramdas Pophale) SiO2 
 PCOD8001367
Probable space group: P -1
;
_chemical_formula_sum "Si O2"
_cell_formula_units_Z 16
_cell_length_a 9.122766
_cell_length_b 24.528389
_cell_length_c 11.771757
_cell_angle_alpha 149.880166
_cell_angle_beta 129.368759
_cell_angle_gamma 42.058657
_cell_volume 885.238907
_symmetry_space_group_name_H-M "P -1"
_symmetry_group_IT_number 2
_symmetry_cell_setting 'triclinic'
loop_
_space_group_symop_operation_xyz
x,y,z
-x,-y,-z
loop_
_atom_site_type_symbol
_atom_site_label
_atom_site_fract_x
_atom_site_fract_y
_atom_site_fract_z
Si Si1 0.641506 0.307295 0.105973
Si Si2 0.976947 0.665224 0.595489
Si Si3 0.170424 0.409837 0.165683
Si Si4 0.996243 0.884009 0.923277
Si Si5 0.297258 0.367788 0.409593
Si Si6 0.175284 0.651038 0.185747
Si Si7 0.789567 0.164087 0.300934
Si Si8 0.594677 0.429424 0.079157
O O1 0.404962 0.364797 0.147438
O O2 0.618307 0.322056 0.984926
O O3 0.764843 0.384278 0.338964
O O4 0.797617 0.165431 0.975275
O O5 0.870609 0.804825 0.740381
O O6 0.837986 0.674716 0.654271
O O7 0.999557 0.558432 0.325713
O O8 0.180578 0.398312 0.286102
O O9 0.063218 0.333805 0.921370
O O10 0.074066 0.856850 0.783348
O O11 0.833802 0.030339 0.129231
O O12 0.537280 0.250015 0.302621
O O13 0.295610 0.489025 0.679462
O O14 0.132412 0.774194 0.453909
O O15 0.336025 0.524829 0.106493
O O16 0.289881 0.646006 0.113634
#
# Coordination Sequence:
#
# PCOD8001367 Si02
#       8
#     2   2   2   2   2   2   2   2
#     4  10  21  35  58  83 113 147 193 232 268 330
#     4  10  20  31  58  86 109 138 190 234 266 328
#     4  12  20  34  57  92 112 147 182 230 295 331
#     4   9  21  40  60  81 108 152 200 229 265 323
#     4  11  18  34  63  83 112 151 186 230 275 338
#     4  10  23  35  56  85 120 147 175 229 298 337
#     4  10  21  41  61  77 115 153 190 230 278 329
#     4  10  20  38  54  86 119 148 177 229 292 339
#
# _framework density 18.074216
#
# number of rings (size 3 to 8) (size 9 to 14) (size 15 to 20)
#    0.750    1.000    3.750    1.500    3.500    1.000 
#    0.000    1.250    0.000    0.000    0.000    0.000 
#    0.000    0.000    0.000    0.000    0.000    0.000 
#
# Total GULP energy -198247.535728 kJ/mol
# GULP energy per Si atom -12390.470983 kJ/mol
# Density = 1.803308 g / cm^3
# Si number density = 18.074216 Si / 1000 Ang^3
#
#
#
# Elastic Constant Matrix: (Units=GPa)
#
#
# Indices 1 2 3 4 5 6 
#
# 1 67.9254 4.6445 24.5335 -1.4119 3.7377 4.0679
# 2 4.6445 50.4610 46.6228 -0.9044 -0.5251 18.3978
# 3 24.5335 46.6228 97.0606 6.9810 0.9216 2.1628
# 4 -1.4119 -0.9044 6.9810 25.9492 -2.5021 5.9105
# 5 3.7377 -0.5251 0.9216 -2.5021 19.5531 -2.0924
# 6 4.0679 18.3978 2.1628 5.9105 -2.0924 34.2468
#
#
#
# Elastic Compliance Matrix: (Units=1/GPa)
#
#
# Indices 1 2 3 4 5 6 
#
# 1 0.018375 0.010657 -0.009957 0.005689 -0.002932 -0.008440
# 2 0.010657 0.064544 -0.034344 0.020565 -0.000047 -0.037323
# 3 -0.009957 -0.034344 0.029903 -0.014400 -0.000107 0.020223
# 4 0.005689 0.020565 -0.014400 0.048147 0.004286 -0.018862
# 5 -0.002932 -0.000047 -0.000107 0.004286 0.052561 0.002852
# 6 -0.008440 -0.037323 0.020223 -0.018862 0.002852 0.052405
#
#
# Mechanical properties :
#
#
# Convention : Reuss Voigt Hill
#
# Bulk Modulus (GPa) = 21.96212 40.78317 31.37264
# Shear Modulus (GPa) = 14.35132 25.25958 19.80545
#
# Velocity S-wave (km/s) = 2.82090 3.74243 3.31386
# Velocity P-wave (km/s) = 4.77361 6.42555 5.66017
#
# Compressibility (1/GPa) = 0.04553295
#
# Stress axis : x y z
#
# Youngs Moduli (GPa) = 54.42302 15.49328 33.44173
#
# Poissons Ratio (x) = -0.16511 0.33297
# Poissons Ratio (y) = -0.57996 1.14853
# Poissons Ratio (z) = 0.54187 0.53210
#
# Static dielectric constant tensor:
#      x y z
#    x 3.337690 0.117310 0.005500 
#    y 0.117310 3.446200 -0.022580 
#    z 0.005500 -0.022580 3.182780 
# 
# 
# High freq. dielectric constant tensor:
#      x y z
#    x 1.709520 0.003600 -0.004440 
#    y 0.003600 1.694450 -0.004070 
#    z -0.004440 -0.004070 1.673180 
# 
# From -- ./inp_files/218658.got.cif
#   From: 2010.06.25/outbox.cif.g09.slc.cpg/sg2_110_cif.got.tgz:218658.got - 2010.06.27 13:26:56.
