data_PCOD8001256
_publ_section_title
;
Structure prediction by ZEFSAII (Michael W. Deem and Ramdas Pophale) SiO2 
 PCOD8001256
Probable space group: P -1
;
_chemical_formula_sum "Si O2"
_cell_formula_units_Z 16
_cell_length_a 6.784753
_cell_length_b 9.260031
_cell_length_c 18.129942
_cell_angle_alpha 94.948531
_cell_angle_beta 42.793787
_cell_angle_gamma 106.873254
_cell_volume 726.307490
_symmetry_space_group_name_H-M "P -1"
_symmetry_group_IT_number 2
_symmetry_cell_setting 'triclinic'
loop_
_space_group_symop_operation_xyz
x,y,z
-x,-y,-z
loop_
_atom_site_type_symbol
_atom_site_label
_atom_site_fract_x
_atom_site_fract_y
_atom_site_fract_z
Si Si1 0.677253 0.809214 0.200577
Si Si2 0.210441 0.166007 0.425986
Si Si3 0.828994 0.162364 0.187892
Si Si4 0.054330 0.348315 0.602132
Si Si5 0.813795 0.599776 0.657851
Si Si6 0.764165 0.594409 0.282858
Si Si7 0.267031 0.439719 0.148948
Si Si8 0.900568 0.636747 0.004149
O O1 0.798951 0.754546 0.239535
O O2 0.807114 0.737517 0.094978
O O3 0.305632 0.757909 0.294702
O O4 0.828914 0.992290 0.164844
O O5 0.545873 0.160836 0.316316
O O6 0.236711 0.276909 0.493274
O O7 0.058792 0.223033 0.398285
O O8 0.000000 0.000000 0.500000
O O9 0.145362 0.263421 0.146208
O O10 0.826420 0.247597 0.114405
O O11 0.247067 0.372829 0.625752
O O12 0.064381 0.514265 0.574298
O O13 0.534142 0.532718 0.674103
O O14 0.699618 0.572671 0.771954
O O15 0.040404 0.529307 0.189407
O O16 0.601770 0.546391 0.031986
O O17 0.000000 0.500000 0.000000
#
# Coordination Sequence:
#
# PCOD8001256 Si02
#       8
#     2   2   2   2   2   2   2   2
#     4  11  23  46  68 105 138 179 223 286 348 404
#     4  12  24  43  66  99 144 186 222 281 345 401
#     4  12  26  43  68 105 145 178 228 280 350 409
#     4  10  22  42  72  97 135 182 232 281 334 404
#     4  10  21  42  71  97 135 179 234 283 334 399
#     4  10  19  42  74  98 132 176 235 279 335 411
#     4  11  22  46  72 102 134 176 234 281 341 411
#     4  12  24  47  77  99 135 182 228 288 340 410
#
# _framework density 22.029237999999999
#
# number of rings (size 3 to 8) (size 9 to 14) (size 15 to 20)
#    0.000    1.000    6.250    2.625    0.000    1.500 
#    6.750    2.500    0.000    0.000    0.000    0.000 
#    0.000    0.000    0.000    0.000    0.000    0.000 
#
# Total GULP energy -198314.826190 kJ/mol
# GULP energy per Si atom -12394.676637 kJ/mol
# Density = 2.197910 g / cm^3
# Si number density = 22.029238 Si / 1000 Ang^3
#
#
#
# Elastic Constant Matrix: (Units=GPa)
#
#
# Indices 1 2 3 4 5 6 
#
# 1 125.0016 46.0883 24.7371 -8.7969 2.5397 -6.8609
# 2 46.0883 169.4213 45.8990 -13.3267 -3.6068 -12.1462
# 3 24.7371 45.8990 98.7400 -5.4147 -12.0591 -3.9436
# 4 -8.7969 -13.3267 -5.4147 42.1452 -7.8512 11.8546
# 5 2.5397 -3.6068 -12.0591 -7.8512 17.6367 -2.4256
# 6 -6.8609 -12.1462 -3.9436 11.8546 -2.4256 28.3647
#
#
#
# Elastic Compliance Matrix: (Units=1/GPa)
#
#
# Indices 1 2 3 4 5 6 
#
# 1 0.009190 -0.002032 -0.001622 0.000376 -0.002577 0.000750
# 2 -0.002032 0.007435 -0.002716 0.001187 0.000743 0.001882
# 3 -0.001622 -0.002716 0.013105 0.002242 0.009658 0.000156
# 4 0.000376 0.001187 0.002242 0.029942 0.013615 -0.010438
# 5 -0.002577 0.000743 0.009658 0.013615 0.070072 0.001340
# 6 0.000750 0.001882 0.000156 -0.010438 0.001340 0.040741
#
#
# Mechanical properties :
#
#
# Convention : Reuss Voigt Hill
#
# Bulk Modulus (GPa) = 58.85741 69.62351 64.24046
# Shear Modulus (GPa) = 26.47052 36.05855 31.26454
#
# Velocity S-wave (km/s) = 3.47018 4.05019 3.77135
# Velocity P-wave (km/s) = 6.54462 7.31749 6.94182
#
# Compressibility (1/GPa) = 0.01699021
#
# Stress axis : x y z
#
# Youngs Moduli (GPa) = 108.81258 134.49494 76.30552
#
# Poissons Ratio (x) = 0.27331 0.12376
# Poissons Ratio (y) = 0.22112 0.20725
# Poissons Ratio (z) = 0.17649 0.36530
#
# Static dielectric constant tensor:
#      x y z
#    x 4.133610 -0.087130 0.173670 
#    y -0.087130 3.998610 -0.030720 
#    z 0.173670 -0.030720 4.201920 
# 
# 
# High freq. dielectric constant tensor:
#      x y z
#    x 1.864150 -0.005060 0.013890 
#    y -0.005060 1.869050 0.003050 
#    z 0.013890 0.003050 1.880890 
# 
# From -- ./inp_files/548084.got.cif
#   From: 2010.06.25/outbox.cif.g09.slc.cpg/sg2_275_cif.got.tgz:548084.got - 2010.06.27 13:26:56.
