data_PCOD8001081
_publ_section_title
;
Structure prediction by ZEFSAII (Michael W. Deem and Ramdas Pophale) SiO2 
 PCOD8001081
Probable space group: P -1
;
_chemical_formula_sum "Si O2"
_cell_formula_units_Z 14
_cell_length_a 17.529205
_cell_length_b 9.369356
_cell_length_c 9.795628
_cell_angle_alpha 121.003836
_cell_angle_beta 47.528738
_cell_angle_gamma 83.343546
_cell_volume 691.386905
_symmetry_space_group_name_H-M "P -1"
_symmetry_group_IT_number 2
_symmetry_cell_setting 'triclinic'
loop_
_space_group_symop_operation_xyz
x,y,z
-x,-y,-z
loop_
_atom_site_type_symbol
_atom_site_label
_atom_site_fract_x
_atom_site_fract_y
_atom_site_fract_z
Si Si1 0.604807 0.883377 0.028443
Si Si2 0.174685 0.159620 0.093645
Si Si3 0.273939 0.408636 0.722893
Si Si4 0.961582 0.426940 0.718215
Si Si5 0.766868 0.820939 0.542134
Si Si6 0.511158 0.330621 0.001983
Si Si7 0.620235 0.393569 0.420513
O O1 0.449336 0.148587 0.402397
O O2 0.739808 0.780806 0.914913
O O3 0.640160 0.910714 0.848389
O O4 0.593004 0.696642 0.945308
O O5 0.095296 0.319893 0.130490
O O6 0.045568 0.245237 0.396766
O O7 0.290066 0.877701 0.779586
O O8 0.189808 0.383364 0.708332
O O9 0.261286 0.610251 0.780655
O O10 0.183556 0.509382 0.025877
O O11 0.079518 0.295340 0.634925
O O12 0.686071 0.061734 0.669610
O O13 0.461457 0.442207 0.267097
O O14 0.500000 0.500000 0.000000
O O15 0.500000 0.500000 0.500000
#
# Coordination Sequence:
#
# PCOD8001081 Si02
#       7
#     2   2   2   2   2   2   2
#     4  10  19  41  65  88 122 168 200 254 310 374
#     4  10  23  41  62  88 128 162 208 254 310 363
#     4  11  20  36  64  91 118 163 211 248 310 368
#     4  10  23  40  60  87 125 172 201 245 309 388
#     4  10  19  42  63  87 125 167 198 243 318 381
#     4  11  23  38  66 100 124 152 214 269 307 354
#     4  12  22  40  63  98 124 159 206 270 306 355
#
# _framework density 20.249154999999998
#
# number of rings (size 3 to 8) (size 9 to 14) (size 15 to 20)
#    0.000    1.429    4.286    2.143    4.000    2.286 
#    0.000    5.000    0.000    0.000    0.000    0.000 
#    0.000    0.000    0.000    0.000    0.000    0.000 
#
# Total GULP energy -173583.911669 kJ/mol
# GULP energy per Si atom -12398.850834 kJ/mol
# Density = 2.020307 g / cm^3
# Si number density = 20.249155 Si / 1000 Ang^3
#
#
#
# Elastic Constant Matrix: (Units=GPa)
#
#
# Indices 1 2 3 4 5 6 
#
# 1 53.7996 43.0160 32.7308 5.5904 8.2161 1.6649
# 2 43.0160 122.0349 26.2860 8.2676 -1.9070 6.3132
# 3 32.7308 26.2860 78.7424 -4.5989 -5.9113 6.2279
# 4 5.5904 8.2676 -4.5989 45.3087 3.3390 -0.3007
# 5 8.2161 -1.9070 -5.9113 3.3390 23.8349 7.6124
# 6 1.6649 6.3132 6.2279 -0.3007 7.6124 25.3273
#
#
#
# Elastic Compliance Matrix: (Units=1/GPa)
#
#
# Indices 1 2 3 4 5 6 
#
# 1 0.040810 -0.011705 -0.015707 -0.002809 -0.021907 0.010648
# 2 -0.011705 0.012430 0.001567 -0.001224 0.007147 -0.004877
# 3 -0.015707 0.001567 0.020481 0.002728 0.012865 -0.008229
# 4 -0.002809 -0.001224 0.002728 0.023062 -0.001895 0.000662
# 5 -0.021907 0.007147 0.012865 -0.001895 0.060466 -0.021701
# 6 0.010648 -0.004877 -0.008229 0.000662 -0.021701 0.048552
#
#
# Mechanical properties :
#
#
# Convention : Reuss Voigt Hill
#
# Bulk Modulus (GPa) = 45.39024 50.96026 48.17525
# Shear Modulus (GPa) = 18.87976 29.06381 23.97178
#
# Velocity S-wave (km/s) = 3.05679 3.79266 3.44443
# Velocity P-wave (km/s) = 5.90958 6.66335 6.29775
#
# Compressibility (1/GPa) = 0.02203117
#
# Stress axis : x y z
#
# Youngs Moduli (GPa) = 24.50392 80.45329 48.82471
#
# Poissons Ratio (x) = 0.94168 0.76688
# Poissons Ratio (y) = 0.28681 -0.07650
# Poissons Ratio (z) = 0.38488 -0.12605
#
# Static dielectric constant tensor:
#      x y z
#    x 3.655710 -0.001560 0.027430 
#    y -0.001560 3.732750 -0.033410 
#    z 0.027430 -0.033410 3.750420 
# 
# 
# High freq. dielectric constant tensor:
#      x y z
#    x 1.778890 -0.005760 -0.002340 
#    y -0.005760 1.785270 -0.002090 
#    z -0.002340 -0.002090 1.796650 
# 
# From -- ./inp_files/156659.got.cif
#   From: 2010.06.25/outbox.cif.g09.slc.cpg/sg2_79_cif.got.tgz:156659.got - 2010.06.27 13:26:56.
