data_PCOD8001123
_publ_section_title
;
Structure prediction by ZEFSAII (Michael W. Deem and Ramdas Pophale) SiO2 
 PCOD8001123
Probable space group: P -1
;
_chemical_formula_sum "Si O2"
_cell_formula_units_Z 16
_cell_length_a 21.427387
_cell_length_b 8.960467
_cell_length_c 20.790670
_cell_angle_alpha 40.384920
_cell_angle_beta 19.000154
_cell_angle_gamma 50.728419
_cell_volume 766.707746
_symmetry_space_group_name_H-M "P -1"
_symmetry_group_IT_number 2
_symmetry_cell_setting 'triclinic'
loop_
_space_group_symop_operation_xyz
x,y,z
-x,-y,-z
loop_
_atom_site_type_symbol
_atom_site_label
_atom_site_fract_x
_atom_site_fract_y
_atom_site_fract_z
Si Si1 0.880155 0.706101 0.227948
Si Si2 0.532204 0.047876 0.854688
Si Si3 0.786311 0.704276 0.905957
Si Si4 0.166268 0.994945 0.524694
Si Si5 0.949624 0.542729 0.964024
Si Si6 0.559225 0.293330 0.355963
Si Si7 0.077382 0.571578 0.593232
Si Si8 0.831575 0.498544 0.611613
O O1 0.948953 0.571408 0.149765
O O2 0.634835 0.631828 0.481601
O O3 0.915076 0.615491 0.295067
O O4 0.000000 0.000000 0.000000
O O5 0.715801 0.157445 0.693763
O O6 0.650052 0.078776 0.660093
O O7 0.409408 0.223809 0.928526
O O8 0.376370 0.757727 0.107915
O O9 0.873615 0.640420 0.774948
O O10 0.722389 0.441633 0.092410
O O11 0.979306 0.933394 0.675736
O O12 0.254864 0.291133 0.356777
O O13 0.060432 0.842779 0.742934
O O14 0.000000 0.500000 0.000000
O O15 0.694183 0.406320 0.252468
O O16 0.500000 0.000000 0.500000
O O17 0.057679 0.441484 0.586022
O O18 0.000000 0.500000 0.500000
#
# Coordination Sequence:
#
# PCOD8001123 Si02
#       8
#     2   2   2   2   2   2   2   2
#     4  12  22  41  70  97 130 174 222 268 322 398
#     4  11  21  45  68  90 124 177 218 269 326 391
#     4  10  19  41  68  91 123 169 216 266 326 387
#     4  10  22  44  64  92 138 167 215 269 332 390
#     4  11  24  42  66  99 135 172 212 278 335 389
#     4  11  20  38  66  94 128 169 219 263 321 392
#     4  11  24  43  68  96 130 172 222 273 326 392
#     4  12  26  43  65  98 134 173 219 279 330 389
#
# _framework density 20.868447
#
# number of rings (size 3 to 8) (size 9 to 14) (size 15 to 20)
#    0.000    1.000    7.500    0.750    1.750    1.000 
#    4.500    1.250    0.000    0.000    0.000    0.000 
#    0.000    0.000    0.000    0.000    0.000    0.000 
#
# Total GULP energy -198221.503314 kJ/mol
# GULP energy per Si atom -12388.843957 kJ/mol
# Density = 2.082095 g / cm^3
# Si number density = 20.868447 Si / 1000 Ang^3
#
#
#
# Elastic Constant Matrix: (Units=GPa)
#
#
# Indices 1 2 3 4 5 6 
#
# 1 127.1992 39.4448 36.5701 14.4066 8.1807 8.2439
# 2 39.4448 118.4541 46.7284 9.7958 -1.2233 0.6068
# 3 36.5701 46.7284 102.2872 2.5521 -7.5731 1.3733
# 4 14.4066 9.7958 2.5521 53.2743 -3.4241 0.9350
# 5 8.1807 -1.2233 -7.5731 -3.4241 18.6058 5.8248
# 6 8.2439 0.6068 1.3733 0.9350 5.8248 20.1016
#
#
#
# Elastic Compliance Matrix: (Units=1/GPa)
#
#
# Indices 1 2 3 4 5 6 
#
# 1 0.010149 -0.002021 -0.003030 -0.002552 -0.005626 -0.002145
# 2 -0.002021 0.010905 -0.004294 -0.001318 -0.000717 0.001062
# 3 -0.003030 -0.004294 0.013347 0.001468 0.007291 -0.001721
# 4 -0.002552 -0.001318 0.001468 0.020036 0.005832 -0.001636
# 5 -0.005626 -0.000717 0.007291 0.005832 0.065685 -0.017474
# 6 -0.002145 0.001062 -0.001721 -0.001636 -0.017474 0.055852
#
#
# Mechanical properties :
#
#
# Convention : Reuss Voigt Hill
#
# Bulk Modulus (GPa) = 63.63945 65.93633 64.78789
# Shear Modulus (GPa) = 25.01241 33.40950 29.21095
#
# Velocity S-wave (km/s) = 3.46580 4.00554 3.74540
# Velocity P-wave (km/s) = 6.82477 7.28404 7.05814
#
# Compressibility (1/GPa) = 0.01571352
#
# Stress axis : x y z
#
# Youngs Moduli (GPa) = 98.52973 91.70172 74.92077
#
# Poissons Ratio (x) = 0.18529 0.22698
# Poissons Ratio (y) = 0.19909 0.32170
# Poissons Ratio (z) = 0.29851 0.39375
#
# Static dielectric constant tensor:
#      x y z
#    x 3.256770 0.102550 0.171280 
#    y 0.102550 3.797840 0.127040 
#    z 0.171280 0.127040 4.111480 
# 
# 
# High freq. dielectric constant tensor:
#      x y z
#    x 1.790520 -0.003810 0.005700 
#    y -0.003810 1.827350 0.002460 
#    z 0.005700 0.002460 1.838990 
# 
# From -- ./inp_files/601106.got.cif
#   From: 2010.06.25/outbox.cif.g09.slc.cpg/sg2_301_cif.got.tgz:601106.got - 2010.06.27 13:26:56.
