data_PCOD8001235
_publ_section_title
;
Structure prediction by ZEFSAII (Michael W. Deem and Ramdas Pophale) SiO2 
 PCOD8001235
Probable space group: P -1
;
_chemical_formula_sum "Si O2"
_cell_formula_units_Z 16
_cell_length_a 7.893528
_cell_length_b 7.733072
_cell_length_c 12.254249
_cell_angle_alpha 87.564128
_cell_angle_beta 64.124822
_cell_angle_gamma 84.858415
_cell_volume 670.310726
_symmetry_space_group_name_H-M "P -1"
_symmetry_group_IT_number 2
_symmetry_cell_setting 'triclinic'
loop_
_space_group_symop_operation_xyz
x,y,z
-x,-y,-z
loop_
_atom_site_type_symbol
_atom_site_label
_atom_site_fract_x
_atom_site_fract_y
_atom_site_fract_z
Si Si1 0.425279 0.585266 0.314624
Si Si2 0.381428 0.892931 0.456576
Si Si3 0.013195 0.848205 0.688145
Si Si4 0.411290 0.314694 0.954038
Si Si5 0.254960 0.246804 0.403994
Si Si6 0.795696 0.350366 0.926619
Si Si7 0.032972 0.175014 0.046299
Si Si8 0.957434 0.246111 0.667757
O O1 0.501963 0.721912 0.377403
O O2 0.548076 0.587091 0.171791
O O3 0.418519 0.382736 0.356609
O O4 0.212087 0.666376 0.357591
O O5 0.212280 0.819214 0.573256
O O6 0.500000 0.000000 0.500000
O O7 0.324389 0.042111 0.378509
O O8 0.876798 0.720008 0.667625
O O9 0.037267 0.805969 0.810377
O O10 0.928470 0.044287 0.692263
O O11 0.610550 0.238452 0.956522
O O12 0.295352 0.452992 0.061272
O O13 0.261426 0.174254 0.976745
O O14 0.147863 0.277570 0.548966
O O15 0.954739 0.323813 0.788815
O O16 0.903479 0.320461 0.011930
O O17 0.000000 0.000000 0.000000
#
# Coordination Sequence:
#
# PCOD8001235 Si02
#       8
#     2   2   2   2   2   2   2   2
#     4  11  23  43  71 101 137 184 227 287 352 415
#     4  11  25  43  66 103 145 176 223 295 346 414
#     4  11  23  43  67 103 132 180 237 284 350 419
#     4  10  26  45  68 101 141 184 237 286 355 417
#     4  11  23  42  73 101 130 181 238 277 356 425
#     4  10  23  46  68 100 139 184 231 295 346 413
#     4  12  26  44  69 102 136 186 236 284 355 418
#     4  10  19  42  70  97 135 175 226 295 344 411
#
# _framework density 23.869524999999999
#
# number of rings (size 3 to 8) (size 9 to 14) (size 15 to 20)
#    0.000    1.250    3.750    1.500    7.000    2.000 
#    0.000    0.000    0.000    0.000    0.000    0.000 
#    0.000    0.000    0.000    0.000    0.000    0.000 
#
# Total GULP energy -198223.314311 kJ/mol
# GULP energy per Si atom -12388.957144 kJ/mol
# Density = 2.381520 g / cm^3
# Si number density = 23.869525 Si / 1000 Ang^3
#
#
#
# Elastic Constant Matrix: (Units=GPa)
#
#
# Indices 1 2 3 4 5 6 
#
# 1 88.7789 20.9166 19.4049 -6.9425 21.0993 21.9848
# 2 20.9166 73.5900 62.9341 7.3058 0.7344 29.5672
# 3 19.4049 62.9341 113.7561 3.4861 19.9773 10.6636
# 4 -6.9425 7.3058 3.4861 36.6629 2.1880 2.6386
# 5 21.0993 0.7344 19.9773 2.1880 37.1010 0.4581
# 6 21.9848 29.5672 10.6636 2.6386 0.4581 38.6109
#
#
#
# Elastic Compliance Matrix: (Units=1/GPa)
#
#
# Indices 1 2 3 4 5 6 
#
# 1 0.016338 -0.003038 0.001223 0.004725 -0.010076 -0.007518
# 2 -0.003038 0.048877 -0.026445 -0.006716 0.015743 -0.028123
# 3 0.001223 -0.026445 0.024307 0.003081 -0.013600 0.012792
# 4 0.004725 -0.006716 0.003081 0.029596 -0.005954 -0.000350
# 5 -0.010076 0.015743 -0.013600 -0.005954 0.040079 -0.002631
# 6 -0.007518 -0.028123 0.012792 -0.000350 -0.002631 0.048238
#
#
# Mechanical properties :
#
#
# Convention : Reuss Voigt Hill
#
# Bulk Modulus (GPa) = 30.30036 53.62624 41.96330
# Shear Modulus (GPa) = 18.18469 33.99959 26.09214
#
# Velocity S-wave (km/s) = 2.76313 3.77821 3.30982
# Velocity P-wave (km/s) = 4.78556 6.44580 5.67670
#
# Compressibility (1/GPa) = 0.03300290
#
# Stress axis : x y z
#
# Youngs Moduli (GPa) = 61.20675 20.45942 41.13975
#
# Poissons Ratio (x) = 0.06215 -0.05031
# Poissons Ratio (y) = 0.18593 1.08795
# Poissons Ratio (z) = -0.07485 0.54105
#
# Static dielectric constant tensor:
#      x y z
#    x 5.493100 -0.234790 0.272540 
#    y -0.234790 4.588480 0.212640 
#    z 0.272540 0.212640 4.305780 
# 
# 
# High freq. dielectric constant tensor:
#      x y z
#    x 1.937350 0.013470 0.010260 
#    y 0.013470 1.939400 0.013390 
#    z 0.010260 0.013390 1.949560 
# 
# From -- ./inp_files/379043.got.cif
#   From: 2010.06.25/outbox.cif.g09.slc.cpg/sg2_190_cif.got.tgz:379043.got - 2010.06.27 13:26:56.
