data_PCOD8001789
_publ_section_title
;
Structure prediction by ZEFSAII (Michael W. Deem and Ramdas Pophale) SiO2 
 PCOD8001789
Probable space group: P -1
;
_chemical_formula_sum "Si O2"
_cell_formula_units_Z 12
_cell_length_a 13.928826
_cell_length_b 10.726004
_cell_length_c 17.898164
_cell_angle_alpha 147.468033
_cell_angle_beta 154.166505
_cell_angle_gamma 32.244201
_cell_volume 581.890690
_symmetry_space_group_name_H-M "P -1"
_symmetry_group_IT_number 2
_symmetry_cell_setting 'triclinic'
loop_
_space_group_symop_operation_xyz
x,y,z
-x,-y,-z
loop_
_atom_site_type_symbol
_atom_site_label
_atom_site_fract_x
_atom_site_fract_y
_atom_site_fract_z
Si Si1 0.556224 0.012849 0.420229
Si Si2 0.521989 0.353086 0.707363
Si Si3 0.210160 0.304147 0.907399
Si Si4 0.065786 0.718223 0.621695
Si Si5 0.327670 0.034293 0.008304
Si Si6 0.694054 0.624174 0.695835
O O1 0.573431 0.187271 0.587054
O O2 0.364364 0.163417 0.301072
O O3 0.484186 0.794516 0.295091
O O4 0.816495 0.909618 0.510795
O O5 0.271795 0.589685 0.639727
O O6 0.734011 0.450263 0.912326
O O7 0.942685 0.403423 0.738916
O O8 0.390811 0.130515 0.884220
O O9 0.224116 0.151047 0.915063
O O10 0.000000 0.500000 0.500000
O O11 0.178592 0.855848 0.831097
O O12 0.287054 0.249787 0.148789
O O13 0.500000 0.500000 0.500000
#
# Coordination Sequence:
#
# PCOD8001789 Si02
#       6
#     2   2   2   2   2   2
#     4  10  20  34  56  82 111 141 179 225 270 319
#     4   9  19  37  57  78 105 147 186 218 265 323
#     4  10  21  38  58  78 107 146 185 221 268 323
#     4   9  18  36  59  80 104 142 184 220 265 321
#     4  10  21  38  59  80 108 145 183 222 267 323
#     4  12  24  35  54  85 114 142 178 226 275 317
#
# _framework density 20.622430000000001
#
# number of rings (size 3 to 8) (size 9 to 14) (size 15 to 20)
#    0.000    2.000    0.000    3.500    0.000    2.667 
#    0.000    7.500    0.000    0.000    0.000    0.000 
#    0.000    0.000    0.000    0.000    0.000    0.000 
#
# Total GULP energy -148738.966893 kJ/mol
# GULP energy per Si atom -12394.913908 kJ/mol
# Density = 2.057549 g / cm^3
# Si number density = 20.622430 Si / 1000 Ang^3
#
#
#
# Elastic Constant Matrix: (Units=GPa)
#
#
# Indices 1 2 3 4 5 6 
#
# 1 49.4161 28.6218 21.9870 -10.1248 8.1703 1.6282
# 2 28.6218 118.0848 41.3297 -25.9831 11.0322 -7.8052
# 3 21.9870 41.3297 89.0349 -1.6442 29.4235 0.6588
# 4 -10.1248 -25.9831 -1.6442 52.3086 0.5560 6.1767
# 5 8.1703 11.0322 29.4235 0.5560 26.8259 -7.7612
# 6 1.6282 -7.8052 0.6588 6.1767 -7.7612 17.2151
#
#
#
# Elastic Compliance Matrix: (Units=1/GPa)
#
#
# Indices 1 2 3 4 5 6 
#
# 1 0.025980 -0.004787 -0.001931 0.003696 -0.006445 -0.008785
# 2 -0.004787 0.012857 -0.006550 0.004320 0.005412 0.007423
# 3 -0.001931 -0.006550 0.023973 -0.000704 -0.027596 -0.015894
# 4 0.003696 0.004320 -0.000704 0.023074 -0.005210 -0.008992
# 5 -0.006445 0.005412 -0.027596 -0.005210 0.079492 0.041827
# 6 -0.008785 0.007423 -0.015894 -0.008992 0.041827 0.084976
#
#
# Mechanical properties :
#
#
# Convention : Reuss Voigt Hill
#
# Bulk Modulus (GPa) = 27.56670 48.93476 38.25073
# Shear Modulus (GPa) = 17.30235 30.24307 23.77271
#
# Velocity S-wave (km/s) = 2.89970 3.83366 3.39892
# Velocity P-wave (km/s) = 4.96058 6.58607 5.83026
#
# Compressibility (1/GPa) = 0.03627565
#
# Stress axis : x y z
#
# Youngs Moduli (GPa) = 38.49092 77.78099 41.71332
#
# Poissons Ratio (x) = 0.37231 0.08054
# Poissons Ratio (y) = 0.18424 0.27321
# Poissons Ratio (z) = 0.07431 0.50945
#
# Static dielectric constant tensor:
#      x y z
#    x 3.722280 -0.173580 0.431350 
#    y -0.173580 4.292840 -0.039430 
#    z 0.431350 -0.039430 3.705060 
# 
# 
# High freq. dielectric constant tensor:
#      x y z
#    x 1.784510 -0.012780 0.034420 
#    y -0.012780 1.832420 0.010190 
#    z 0.034420 0.010190 1.797160 
# 
# From -- ./inp_files/27997.got.cif
#   From: 2010.06.25/outbox.cif.g09.slc.cpg/sg2_14_cif.got.tgz:27997.got - 2010.06.27 13:26:56.
