data_PCOD8001521
_publ_section_title
;
Structure prediction by ZEFSAII (Michael W. Deem and Ramdas Pophale) SiO2 
 PCOD8001521
Probable space group: P -1
;
_chemical_formula_sum "Si O2"
_cell_formula_units_Z 16
_cell_length_a 18.193135
_cell_length_b 12.729099
_cell_length_c 12.491192
_cell_angle_alpha 103.618412
_cell_angle_beta 19.777213
_cell_angle_gamma 115.105896
_cell_volume 749.017118
_symmetry_space_group_name_H-M "P -1"
_symmetry_group_IT_number 2
_symmetry_cell_setting 'triclinic'
loop_
_space_group_symop_operation_xyz
x,y,z
-x,-y,-z
loop_
_atom_site_type_symbol
_atom_site_label
_atom_site_fract_x
_atom_site_fract_y
_atom_site_fract_z
Si Si1 0.199604 0.527761 0.523025
Si Si2 0.089346 0.222620 0.938421
Si Si3 0.504627 0.001189 0.367870
Si Si4 0.608782 0.599393 0.623857
Si Si5 0.897228 0.695648 0.825007
Si Si6 0.252741 0.627501 0.246078
Si Si7 0.375266 0.732631 0.724111
Si Si8 0.450423 0.222234 0.745234
O O1 0.287833 0.439777 0.427903
O O2 0.310086 0.578632 0.264458
O O3 0.318219 0.660912 0.464416
O O4 0.865507 0.424195 0.950419
O O5 0.149001 0.315908 0.775180
O O6 0.339724 0.215705 0.600084
O O7 0.061746 0.282658 0.099151
O O8 0.801885 0.074544 0.276777
O O9 0.631451 0.924225 0.137548
O O10 0.500000 0.000000 0.500000
O O11 0.682318 0.161724 0.128943
O O12 0.353136 0.463443 0.884579
O O13 0.518607 0.688743 0.819688
O O14 0.178973 0.730996 0.396813
O O15 0.824642 0.787327 0.888026
O O16 0.000000 0.500000 0.500000
O O17 0.401638 0.737702 0.561798
#
# Coordination Sequence:
#
# PCOD8001521 Si02
#       8
#     2   2   2   2   2   2   2   2
#     4  11  20  34  55  81 110 145 183 227 272 325
#     4  11  20  34  55  81 110 145 183 227 272 325
#     4  10  20  34  51  80 114 146 180 226 276 325
#     4  10  20  33  53  84 115 145 180 226 277 324
#     4   9  19  33  53  81 113 144 181 225 274 322
#     4  10  20  34  51  80 114 146 180 226 276 325
#     4  10  20  33  53  84 115 145 180 226 277 324
#     4   9  19  33  53  81 113 144 181 225 274 322
#
# _framework density 21.361328
#
# number of rings (size 3 to 8) (size 9 to 14) (size 15 to 20)
#    0.000    2.000    0.000    5.250    0.000    4.000 
#    0.000    0.000    0.000    0.000    0.000  124.250 
#    0.000    0.000    0.000    0.000    0.000    0.000 
#
# Total GULP energy -198248.999125 kJ/mol
# GULP energy per Si atom -12390.562445 kJ/mol
# Density = 2.131271 g / cm^3
# Si number density = 21.361328 Si / 1000 Ang^3
#
#
#
# Elastic Constant Matrix: (Units=GPa)
#
#
# Indices 1 2 3 4 5 6 
#
# 1 107.5751 40.8056 28.0554 3.1545 -16.6305 13.5743
# 2 40.8056 109.3477 30.3229 26.3668 -9.0499 1.7567
# 3 28.0554 30.3229 45.8245 21.3128 -13.4359 13.4335
# 4 3.1545 26.3668 21.3128 32.2276 -2.2791 -8.8214
# 5 -16.6305 -9.0499 -13.4359 -2.2791 23.2369 4.2439
# 6 13.5743 1.7567 13.4335 -8.8214 4.2439 23.8022
#
#
#
# Elastic Compliance Matrix: (Units=1/GPa)
#
#
# Indices 1 2 3 4 5 6 
#
# 1 0.013521 -0.004193 -0.001818 0.001949 0.008492 -0.007167
# 2 -0.004193 0.013746 0.003854 -0.015031 0.004413 -0.007156
# 3 -0.001818 0.003854 0.244953 -0.221437 0.165608 -0.249089
# 4 0.001949 -0.015031 -0.221437 0.245322 -0.152843 0.243144
# 5 0.008492 0.004413 0.165608 -0.152843 0.165341 -0.184761
# 6 -0.007167 -0.007156 -0.249089 0.243144 -0.184761 0.310265
#
#
# Mechanical properties :
#
#
# Convention : Reuss Voigt Hill
#
# Bulk Modulus (GPa) = 3.73268 51.23502 27.48385
# Shear Modulus (GPa) = 4.60081 26.75758 15.67919
#
# Velocity S-wave (km/s) = 1.46918 3.54307 2.71218
# Velocity P-wave (km/s) = 2.15155 6.38552 4.76466
#
# Compressibility (1/GPa) = 0.26790395
#
# Stress axis : x y z
#
# Youngs Moduli (GPa) = 73.96061 72.74959 4.08242
#
# Poissons Ratio (x) = 0.30505 0.00742
# Poissons Ratio (y) = 0.31013 -0.01573
# Poissons Ratio (z) = 0.13449 -0.28036
#
# Static dielectric constant tensor:
#      x y z
#    x 4.067730 -0.022450 -0.204280 
#    y -0.022450 4.333100 0.370670 
#    z -0.204280 0.370670 3.943480 
# 
# 
# High freq. dielectric constant tensor:
#      x y z
#    x 1.852030 0.010510 -0.031850 
#    y 0.010510 1.831020 0.026730 
#    z -0.031850 0.026730 1.800190 
# 
# From -- ./inp_files/455369.got.cif
#   From: 2010.06.25/outbox.cif.g09.slc.cpg/sg2_228_cif.got.tgz:455369.got - 2010.06.27 13:26:56.
