data_PCOD8001803
_publ_section_title
;
Structure prediction by ZEFSAII (Michael W. Deem and Ramdas Pophale) SiO2 
 PCOD8001803
Probable space group: P -1
;
_chemical_formula_sum "Si O2"
_cell_formula_units_Z 16
_cell_length_a 11.658540
_cell_length_b 9.173257
_cell_length_c 12.679279
_cell_angle_alpha 145.327149
_cell_angle_beta 92.333439
_cell_angle_gamma 89.271776
_cell_volume 770.264673
_symmetry_space_group_name_H-M "P -1"
_symmetry_group_IT_number 2
_symmetry_cell_setting 'triclinic'
loop_
_space_group_symop_operation_xyz
x,y,z
-x,-y,-z
loop_
_atom_site_type_symbol
_atom_site_label
_atom_site_fract_x
_atom_site_fract_y
_atom_site_fract_z
Si Si1 0.253561 0.570533 0.923980
Si Si2 0.791629 0.036184 0.674688
Si Si3 0.947600 0.735845 0.385094
Si Si4 0.461698 0.868615 0.028246
Si Si5 0.340245 0.661033 0.509898
Si Si6 0.591996 0.726540 0.559327
Si Si7 0.180743 0.535811 0.241926
Si Si8 0.313396 0.228404 0.910705
O O1 0.154585 0.389422 0.763240
O O2 0.348215 0.674676 0.902932
O O3 0.320701 0.414845 0.921811
O O4 0.193997 0.807309 0.122627
O O5 0.791772 0.208567 0.672487
O O6 0.891825 0.825775 0.547459
O O7 0.670068 0.879601 0.569537
O O8 0.047836 0.530577 0.273188
O O9 0.000000 0.000000 0.500000
O O10 0.567932 0.719210 0.991347
O O11 0.500000 0.000000 0.000000
O O12 0.431557 0.101504 0.238738
O O13 0.468496 0.657379 0.460886
O O14 0.343107 0.518490 0.538483
O O15 0.256593 0.520388 0.340293
O O16 0.294056 0.940513 0.697978
O O17 0.207278 0.294541 0.024080
#
# Coordination Sequence:
#
# PCOD8001803 Si02
#       8
#     2   2   2   2   2   2   2   2
#     4  10  21  37  59  85 115 147 185 233 280 330
#     4   9  20  37  57  81 110 145 188 233 276 331
#     4  10  21  36  57  84 112 149 192 230 276 327
#     4  10  20  36  60  87 116 147 183 230 284 341
#     4  10  20  36  56  81 116 146 180 234 282 331
#     4   9  20  37  56  82 112 148 187 223 285 346
#     4  10  21  35  55  83 109 142 190 232 272 330
#     4  10  20  34  56  86 114 145 184 230 286 335
#
# _framework density 20.772081
#
# number of rings (size 3 to 8) (size 9 to 14) (size 15 to 20)
#    0.000    2.250    0.000    2.625    0.000   11.000 
#    0.000    0.625    0.000   12.000    0.000    0.000 
#    0.000    0.000    0.000    0.000    0.000    0.000 
#
# Total GULP energy -198267.076564 kJ/mol
# GULP energy per Si atom -12391.692285 kJ/mol
# Density = 2.072480 g / cm^3
# Si number density = 20.772081 Si / 1000 Ang^3
#
#
#
# Elastic Constant Matrix: (Units=GPa)
#
#
# Indices 1 2 3 4 5 6 
#
# 1 129.2706 53.7678 47.1261 -4.2831 -1.4810 2.7205
# 2 53.7678 74.6980 33.0628 -2.6312 -4.7168 0.5968
# 3 47.1261 33.0628 61.7978 3.1156 -10.0423 2.2991
# 4 -4.2831 -2.6312 3.1156 19.1568 -3.1682 1.4622
# 5 -1.4810 -4.7168 -10.0423 -3.1682 46.6047 0.9731
# 6 2.7205 0.5968 2.2991 1.4622 0.9731 16.4310
#
#
#
# Elastic Compliance Matrix: (Units=1/GPa)
#
#
# Indices 1 2 3 4 5 6 
#
# 1 0.012952 -0.006257 -0.006878 0.002997 -0.001476 -0.001134
# 2 -0.006257 0.020870 -0.006447 0.002559 0.000679 0.000912
# 3 -0.006878 -0.006447 0.025952 -0.005768 0.004371 -0.002004
# 4 0.002997 0.002559 -0.005768 0.055019 0.002953 -0.004853
# 5 -0.001476 0.000679 0.004371 0.002953 0.022663 -0.001997
# 6 -0.001134 0.000912 -0.002004 -0.004853 -0.001997 0.061846
#
#
# Mechanical properties :
#
#
# Convention : Reuss Voigt Hill
#
# Bulk Modulus (GPa) = 48.52081 59.29776 53.90929
# Shear Modulus (GPa) = 20.38015 25.22582 22.80299
#
# Velocity S-wave (km/s) = 3.13570 3.48862 3.31686
# Velocity P-wave (km/s) = 6.04314 6.69598 6.37792
#
# Compressibility (1/GPa) = 0.02060971
#
# Stress axis : x y z
#
# Youngs Moduli (GPa) = 77.20849 47.91484 38.53279
#
# Poissons Ratio (x) = 0.29980 0.26504
# Poissons Ratio (y) = 0.48309 0.24842
# Poissons Ratio (z) = 0.53106 0.30891
#
# Static dielectric constant tensor:
#      x y z
#    x 4.314250 0.143390 -0.424670 
#    y 0.143390 3.556280 0.125230 
#    z -0.424670 0.125230 3.998060 
# 
# 
# High freq. dielectric constant tensor:
#      x y z
#    x 1.812080 0.004320 -0.016580 
#    y 0.004320 1.785970 0.007710 
#    z -0.016580 0.007710 1.824030 
# 
# From -- ./inp_files/342657.got.cif
#   From: 2010.06.25/outbox.cif.g09.slc.cpg/sg2_172_cif.got.tgz:342657.got - 2010.06.27 13:26:56.
