data_PCOD8001695
_publ_section_title
;
Structure prediction by ZEFSAII (Michael W. Deem and Ramdas Pophale) SiO2 
 PCOD8001695
Probable space group: P -1
;
_chemical_formula_sum "Si O2"
_cell_formula_units_Z 14
_cell_length_a 15.649975
_cell_length_b 9.257544
_cell_length_c 8.769320
_cell_angle_alpha 94.058666
_cell_angle_beta 50.407326
_cell_angle_gamma 120.810123
_cell_volume 775.601785
_symmetry_space_group_name_H-M "P -1"
_symmetry_group_IT_number 2
_symmetry_cell_setting 'triclinic'
loop_
_space_group_symop_operation_xyz
x,y,z
-x,-y,-z
loop_
_atom_site_type_symbol
_atom_site_label
_atom_site_fract_x
_atom_site_fract_y
_atom_site_fract_z
Si Si1 0.486502 0.560451 0.355466
Si Si2 0.724074 0.637728 0.921440
Si Si3 0.099782 0.972566 0.793608
Si Si4 0.742775 0.934158 0.083583
Si Si5 0.037767 0.369100 0.278164
Si Si6 0.948493 0.287402 0.711004
Si Si7 0.208250 0.302344 0.495737
O O1 0.500000 0.500000 0.500000
O O2 0.327043 0.463953 0.483519
O O3 0.562310 0.506013 0.149430
O O4 0.573125 0.781912 0.263070
O O5 0.801876 0.550425 0.868604
O O6 0.727628 0.667780 0.740531
O O7 0.805420 0.833808 0.931918
O O8 0.025023 0.770720 0.800239
O O9 0.169575 0.112798 0.584894
O O10 0.215407 0.010271 0.784383
O O11 0.000000 0.000000 0.000000
O O12 0.799899 0.111584 0.929306
O O13 0.950169 0.271327 0.525330
O O14 0.034708 0.533254 0.246238
O O15 0.073656 0.299201 0.650955
#
# Coordination Sequence:
#
# PCOD8001695 Si02
#       7
#     2   2   2   2   2   2   2
#     4  10  20  35  55  80 114 141 178 235 272 325
#     4   9  19  34  56  81 105 147 183 226 266 319
#     4  12  19  32  55  86 109 143 179 234 271 318
#     4  10  20  34  53  83 108 140 184 218 278 313
#     4  10  21  36  57  81 115 141 184 224 275 322
#     4  10  21  37  57  83 108 148 180 228 268 327
#     4  11  19  34  59  80 111 140 191 220 274 325
#
# _framework density 18.050498000000001
#
# number of rings (size 3 to 8) (size 9 to 14) (size 15 to 20)
#    0.857    0.857    4.286    1.286    0.000    2.857 
#    0.000    0.000    3.143    4.286    0.000    0.000 
#    0.000    0.000    0.000    0.000    0.000    0.000 
#
# Total GULP energy -173512.152204 kJ/mol
# GULP energy per Si atom -12393.725157 kJ/mol
# Density = 1.800941 g / cm^3
# Si number density = 18.050498 Si / 1000 Ang^3
#
#
#
# Elastic Constant Matrix: (Units=GPa)
#
#
# Indices 1 2 3 4 5 6 
#
# 1 56.1690 33.0471 18.3022 -5.1361 11.7593 6.7053
# 2 33.0471 100.5601 29.0007 -3.7177 3.9178 3.4200
# 3 18.3022 29.0007 71.2618 -13.7116 10.4074 -0.5782
# 4 -5.1361 -3.7177 -13.7116 33.1470 4.2178 3.4553
# 5 11.7593 3.9178 10.4074 4.2178 22.3221 -3.3164
# 6 6.7053 3.4200 -0.5782 3.4553 -3.3164 28.8504
#
#
#
# Elastic Compliance Matrix: (Units=1/GPa)
#
#
# Indices 1 2 3 4 5 6 
#
# 1 0.027095 -0.007668 -0.000611 0.005795 -0.014898 -0.007807
# 2 -0.007668 0.013505 -0.004580 -0.002211 0.004349 0.000854
# 3 -0.000611 -0.004580 0.019101 0.008621 -0.009567 -0.001065
# 4 0.005795 -0.002211 0.008621 0.036991 -0.014719 -0.007034
# 5 -0.014898 0.004349 -0.009567 -0.014719 0.060836 0.011511
# 6 -0.007807 0.000854 -0.001065 -0.007034 0.011511 0.038519
#
#
# Mechanical properties :
#
#
# Convention : Reuss Voigt Hill
#
# Bulk Modulus (GPa) = 29.42646 43.18788 36.30717
# Shear Modulus (GPa) = 21.45077 26.70661 24.07869
#
# Velocity S-wave (km/s) = 3.45102 3.85066 3.65631
# Velocity P-wave (km/s) = 5.67601 6.61425 6.16301
#
# Compressibility (1/GPa) = 0.03398302
#
# Stress axis : x y z
#
# Youngs Moduli (GPa) = 36.90758 74.04740 52.35315
#
# Poissons Ratio (x) = 0.56778 0.03198
# Poissons Ratio (y) = 0.28300 0.23979
# Poissons Ratio (z) = 0.02254 0.33915
#
# Static dielectric constant tensor:
#      x y z
#    x 3.211390 0.114510 0.145100 
#    y 0.114510 3.192810 -0.065040 
#    z 0.145100 -0.065040 3.415710 
# 
# 
# High freq. dielectric constant tensor:
#      x y z
#    x 1.684710 0.015980 0.020090 
#    y 0.015980 1.679830 -0.005380 
#    z 0.020090 -0.005380 1.705180 
# 
# From -- ./inp_files/184377.got.cif
#   From: 2010.06.25/outbox.cif.g09.slc.cpg/sg2_93_cif.got.tgz:184377.got - 2010.06.27 13:26:56.
