data_PCOD8001801
_publ_section_title
;
Structure prediction by ZEFSAII (Michael W. Deem and Ramdas Pophale) SiO2 
 PCOD8001801
Probable space group: P -1
;
_chemical_formula_sum "Si O2"
_cell_formula_units_Z 16
_cell_length_a 16.427922
_cell_length_b 12.195370
_cell_length_c 11.736765
_cell_angle_alpha 23.904455
_cell_angle_beta 61.178025
_cell_angle_gamma 62.458691
_cell_volume 833.229100
_symmetry_space_group_name_H-M "P -1"
_symmetry_group_IT_number 2
_symmetry_cell_setting 'triclinic'
loop_
_space_group_symop_operation_xyz
x,y,z
-x,-y,-z
loop_
_atom_site_type_symbol
_atom_site_label
_atom_site_fract_x
_atom_site_fract_y
_atom_site_fract_z
Si Si1 0.190784 0.271372 0.597594
Si Si2 0.488336 0.355449 0.025501
Si Si3 0.946659 0.917935 0.315678
Si Si4 0.072139 0.398615 0.766494
Si Si5 0.181938 0.984341 0.479200
Si Si6 0.892598 0.530212 0.075869
Si Si7 0.308930 0.747311 0.992063
Si Si8 0.368579 0.846849 0.601619
O O1 0.104961 0.201723 0.642951
O O2 0.152234 0.411598 0.605728
O O3 0.250982 0.998735 0.849686
O O4 0.253760 0.476236 0.294286
O O5 0.593139 0.292865 0.967217
O O6 0.440639 0.077878 0.339788
O O7 0.500000 0.500000 0.000000
O O8 0.425258 0.566768 0.789874
O O9 0.015455 0.686137 0.542657
O O10 0.874201 0.033417 0.348706
O O11 0.004649 0.165387 0.998824
O O12 0.119688 0.344280 0.908914
O O13 0.148381 0.763794 0.622748
O O14 0.290994 0.927542 0.483862
O O15 0.165309 0.278872 0.155150
O O16 0.000000 0.500000 0.000000
O O17 0.321601 0.810417 0.790455
#
# Coordination Sequence:
#
# PCOD8001801 Si02
#       8
#     2   2   2   2   2   2   2   2
#     4  12  24  37  57  87 116 158 193 228 280 350
#     4  10  20  34  56  85 120 152 175 227 292 357
#     4  12  22  38  58  81 119 152 193 234 289 335
#     4  12  25  40  57  79 118 158 201 237 273 333
#     4  12  23  36  62  84 112 154 189 238 291 332
#     4  12  23  40  57  83 110 155 200 241 285 320
#     4  11  21  36  58  85 120 152 183 226 293 349
#     4  11  21  36  56  88 119 146 187 231 287 350
#
# _framework density 19.202401999999999
#
# number of rings (size 3 to 8) (size 9 to 14) (size 15 to 20)
#    0.000    0.500    3.750    7.875    1.750    0.000 
#    0.000    0.000    0.000    0.000    0.000   17.500 
#    0.000    0.000    0.000    0.000    0.000    0.000 
#
# Total GULP energy -198481.869165 kJ/mol
# GULP energy per Si atom -12405.116823 kJ/mol
# Density = 1.915870 g / cm^3
# Si number density = 19.202402 Si / 1000 Ang^3
#
#
#
# Elastic Constant Matrix: (Units=GPa)
#
#
# Indices 1 2 3 4 5 6 
#
# 1 97.5136 36.6650 17.8913 -1.9225 11.2106 -9.7129
# 2 36.6650 63.9866 14.4998 2.7877 -0.3911 8.5511
# 3 17.8913 14.4998 88.9482 -10.8443 -3.4478 -8.0258
# 4 -1.9225 2.7877 -10.8443 23.1417 -4.9255 4.0974
# 5 11.2106 -0.3911 -3.4478 -4.9255 44.9623 -8.8304
# 6 -9.7129 8.5511 -8.0258 4.0974 -8.8304 22.4097
#
#
#
# Elastic Compliance Matrix: (Units=1/GPa)
#
#
# Indices 1 2 3 4 5 6 
#
# 1 0.015248 -0.009829 -0.000707 0.000028 -0.002119 0.009266
# 2 -0.009829 0.024169 -0.003680 -0.003047 -0.000815 -0.014565
# 3 -0.000707 -0.003680 0.013401 0.006255 0.003025 0.005945
# 4 0.000028 -0.003047 0.006255 0.048192 0.005057 -0.003404
# 5 -0.002119 -0.000815 0.003025 0.005057 0.025428 0.009571
# 6 0.009266 -0.014565 0.005945 -0.003404 0.009571 0.060720
#
#
# Mechanical properties :
#
#
# Convention : Reuss Voigt Hill
#
# Bulk Modulus (GPa) = 41.01031 43.17339 42.09185
# Shear Modulus (GPa) = 22.34954 30.19555 26.27255
#
# Velocity S-wave (km/s) = 3.41529 3.96976 3.70292
# Velocity P-wave (km/s) = 6.07910 6.59880 6.34428
#
# Compressibility (1/GPa) = 0.02438411
#
# Stress axis : x y z
#
# Youngs Moduli (GPa) = 65.58414 41.37592 74.62121
#
# Poissons Ratio (x) = 0.40669 0.05278
# Poissons Ratio (y) = 0.64464 0.27461
# Poissons Ratio (z) = 0.04639 0.15226
#
# Static dielectric constant tensor:
#      x y z
#    x 4.228000 -0.344980 0.154460 
#    y -0.344980 3.393430 -0.256610 
#    z 0.154460 -0.256610 3.746960 
# 
# 
# High freq. dielectric constant tensor:
#      x y z
#    x 1.750020 -0.014980 0.000460 
#    y -0.014980 1.713200 -0.018760 
#    z 0.000460 -0.018760 1.766770 
# 
# From -- ./inp_files/433902.got.cif
#   From: 2010.06.25/outbox.cif.g09.slc.cpg/sg2_217_cif.got.tgz:433902.got - 2010.06.27 13:26:56.
