data_PCOD8001693
_publ_section_title
;
Structure prediction by ZEFSAII (Michael W. Deem and Ramdas Pophale) SiO2 
 PCOD8001693
Probable space group: P -1
;
_chemical_formula_sum "Si O2"
_cell_formula_units_Z 16
_cell_length_a 5.302252
_cell_length_b 10.851980
_cell_length_c 18.581786
_cell_angle_alpha 63.490386
_cell_angle_beta 63.818210
_cell_angle_gamma 79.553688
_cell_volume 858.449683
_symmetry_space_group_name_H-M "P -1"
_symmetry_group_IT_number 2
_symmetry_cell_setting 'triclinic'
loop_
_space_group_symop_operation_xyz
x,y,z
-x,-y,-z
loop_
_atom_site_type_symbol
_atom_site_label
_atom_site_fract_x
_atom_site_fract_y
_atom_site_fract_z
Si Si1 0.367520 0.042871 0.268700
Si Si2 0.451801 0.658088 0.985719
Si Si3 0.053922 0.649984 0.921081
Si Si4 0.492886 0.834121 0.543848
Si Si5 0.907578 0.124976 0.530409
Si Si6 0.192610 0.830477 0.078062
Si Si7 0.184557 0.796424 0.735786
Si Si8 0.590167 0.937311 0.118125
O O1 0.641019 0.097429 0.263413
O O2 0.127346 0.154885 0.257117
O O3 0.227278 0.922573 0.365611
O O4 0.460146 0.980613 0.198211
O O5 0.266729 0.678811 0.076002
O O6 0.500000 0.500000 0.000000
O O7 0.757968 0.730851 0.940659
O O8 0.287571 0.728177 0.920815
O O9 0.153638 0.655029 0.823847
O O10 0.000000 0.500000 0.000000
O O11 0.314639 0.783718 0.509934
O O12 0.354462 0.768061 0.649597
O O13 0.812984 0.782909 0.511407
O O14 0.500000 0.000000 0.500000
O O15 0.000000 0.000000 0.500000
O O16 0.348734 0.850773 0.128916
O O17 0.858991 0.842947 0.124834
O O18 0.317106 0.931923 0.974692
#
# Coordination Sequence:
#
# PCOD8001693 Si02
#       8
#     2   2   2   2   2   2   2   2
#     4  12  20  29  46  70  92 131 181 190 231 296
#     4  10  20  36  55  69  90 127 166 213 261 281
#     4  10  21  33  46  71  95 120 161 207 248 288
#     4  10  16  28  40  63  89 126 163 188 245 275
#     4  10  16  29  41  61  96 122 160 202 233 274
#     4  10  19  35  46  65  97 124 168 203 241 284
#     4  12  19  28  48  64  94 134 170 195 233 306
#     4  10  21  30  46  67  96 134 160 200 231 292
#
# _framework density 18.638251
#
# number of rings (size 3 to 8) (size 9 to 14) (size 15 to 20)
#    0.000    1.500    5.000    3.750    0.000    2.000 
#    0.000    0.000    0.000    0.000    0.000    0.000 
#    0.000    0.000    0.000   90.000    3.000    0.000 
#
# Total GULP energy -198223.078005 kJ/mol
# GULP energy per Si atom -12388.942375 kJ/mol
# Density = 1.859583 g / cm^3
# Si number density = 18.638251 Si / 1000 Ang^3
#
#
#
# Elastic Constant Matrix: (Units=GPa)
#
#
# Indices 1 2 3 4 5 6 
#
# 1 182.8954 14.1472 33.4091 5.0729 4.8976 -15.0308
# 2 14.1472 39.8814 15.2052 9.1915 0.1520 0.0549
# 3 33.4091 15.2052 131.1405 1.2817 13.0187 -7.8851
# 4 5.0729 9.1915 1.2817 18.3402 -1.4578 1.7190
# 5 4.8976 0.1520 13.0187 -1.4578 29.2299 8.5462
# 6 -15.0308 0.0549 -7.8851 1.7190 8.5462 11.4791
#
#
#
# Elastic Compliance Matrix: (Units=1/GPa)
#
#
# Indices 1 2 3 4 5 6 
#
# 1 0.006923 -0.001748 -0.000262 -0.002631 -0.004961 0.012981
# 2 -0.001748 0.030173 -0.003403 -0.013812 0.002241 -0.004372
# 3 -0.000262 -0.003403 0.009601 -0.000655 -0.007808 0.012178
# 4 -0.002631 -0.013812 -0.000655 0.065022 0.010243 -0.021192
# 5 -0.004961 0.002241 -0.007808 0.010243 0.054885 -0.054265
# 6 0.012981 -0.004372 0.012178 -0.021192 -0.054265 0.156072
#
#
# Mechanical properties :
#
#
# Convention : Reuss Voigt Hill
#
# Bulk Modulus (GPa) = 27.87951 53.27114 40.57533
# Shear Modulus (GPa) = 14.47344 31.22022 22.84683
#
# Velocity S-wave (km/s) = 2.78968 4.09719 3.50495
# Velocity P-wave (km/s) = 5.03658 7.14327 6.18035
#
# Compressibility (1/GPa) = 0.03586864
#
# Stress axis : x y z
#
# Youngs Moduli (GPa) = 144.43749 33.14219 104.16027
#
# Poissons Ratio (x) = 0.05795 0.02733
# Poissons Ratio (y) = 0.25254 0.35450
# Poissons Ratio (z) = 0.03790 0.11279
#
# Static dielectric constant tensor:
#      x y z
#    x -0.370530 0.217880 0.726930 
#    y 0.217880 2.819740 0.089690 
#    z 0.726930 0.089690 3.441850 
# 
# 
# High freq. dielectric constant tensor:
#      x y z
#    x 1.771640 -0.012130 0.002250 
#    y -0.012130 1.638860 0.017160 
#    z 0.002250 0.017160 1.719780 
# 
# From -- ./inp_files/77139.got.cif
#   From: 2010.06.25/outbox.cif.g09.slc.cpg/sg2_39_cif.got.tgz:77139.got - 2010.06.27 13:26:56.
