data_PCOD8001006
_publ_section_title
;
Structure prediction by ZEFSAII (Michael W. Deem and Ramdas Pophale) SiO2 
 PCOD8001006
Probable space group: P -1
;
_chemical_formula_sum "Si O2"
_cell_formula_units_Z 16
_cell_length_a 13.746326
_cell_length_b 11.788416
_cell_length_c 11.222215
_cell_angle_alpha 60.289635
_cell_angle_beta 32.623843
_cell_angle_gamma 76.306599
_cell_volume 785.568999
_symmetry_space_group_name_H-M "P -1"
_symmetry_group_IT_number 2
_symmetry_cell_setting 'triclinic'
loop_
_space_group_symop_operation_xyz
x,y,z
-x,-y,-z
loop_
_atom_site_type_symbol
_atom_site_label
_atom_site_fract_x
_atom_site_fract_y
_atom_site_fract_z
Si Si1 0.717419 0.843626 0.438069
Si Si2 0.294677 0.110324 0.840032
Si Si3 0.873945 0.358502 0.273060
Si Si4 0.735117 0.310185 0.012963
Si Si5 0.720908 0.137333 0.348094
Si Si6 0.844709 0.622563 0.814758
Si Si7 0.534649 0.628023 0.309243
Si Si8 0.992722 0.195564 0.667774
O O1 0.763034 0.840745 0.252237
O O2 0.845470 0.773231 0.412059
O O3 0.781354 0.006182 0.328995
O O4 0.493621 0.751938 0.747768
O O5 0.487802 0.077197 0.637598
O O6 0.325848 0.230944 0.841645
O O7 0.125784 0.971486 0.136768
O O8 0.835767 0.222157 0.300326
O O9 0.669470 0.364452 0.521425
O O10 0.984624 0.338994 0.284459
O O11 0.000000 0.500000 0.000000
O O12 0.815151 0.478020 0.854312
O O13 0.848731 0.274626 0.805619
O O14 0.781024 0.244376 0.120030
O O15 0.903081 0.748547 0.594048
O O16 0.639826 0.606856 0.093367
O O17 0.500000 0.500000 0.500000
#
# Coordination Sequence:
#
# PCOD8001006 Si02
#       8
#     2   2   2   2   2   2   2   2
#     4  11  22  39  69  95 122 166 218 268 317 367
#     4  10  21  41  65  96 129 164 213 270 311 373
#     4  11  22  41  68  96 121 166 214 263 317 376
#     4  11  22  44  65  91 132 162 216 273 310 374
#     4  10  19  40  69  96 122 157 220 273 313 365
#     4  12  27  43  62  96 134 172 209 259 322 384
#     4  11  23  42  68  96 128 162 217 271 313 373
#     4  12  26  40  63  97 130 174 213 253 323 384
#
# _framework density 20.367402999999999
#
# number of rings (size 3 to 8) (size 9 to 14) (size 15 to 20)
#    0.000    1.000    5.000    3.000    1.750    4.000 
#    0.000    1.250    0.000    0.000    0.000    0.000 
#    0.000    0.000    0.000    0.000    0.000    0.000 
#
# Total GULP energy -198507.540020 kJ/mol
# GULP energy per Si atom -12406.721251 kJ/mol
# Density = 2.032105 g / cm^3
# Si number density = 20.367403 Si / 1000 Ang^3
#
#
#
# Elastic Constant Matrix: (Units=GPa)
#
#
# Indices 1 2 3 4 5 6 
#
# 1 93.8222 20.6870 56.2854 -13.2348 -3.3622 -3.9330
# 2 20.6870 50.4236 26.9819 0.2978 -6.2624 7.6490
# 3 56.2854 26.9819 124.7358 -1.6787 9.3264 0.9547
# 4 -13.2348 0.2978 -1.6787 25.6401 4.5424 -2.3383
# 5 -3.3622 -6.2624 9.3264 4.5424 34.0670 -3.4758
# 6 -3.9330 7.6490 0.9547 -2.3383 -3.4758 18.7044
#
#
#
# Elastic Compliance Matrix: (Units=1/GPa)
#
#
# Indices 1 2 3 4 5 6 
#
# 1 0.017496 -0.004239 -0.007099 0.008849 0.002460 0.007338
# 2 -0.004239 0.026068 -0.004077 -0.004644 0.004987 -0.010997
# 3 -0.007099 -0.004077 0.012440 -0.002109 -0.004738 -0.001605
# 4 0.008849 -0.004644 -0.002109 0.045077 -0.004530 0.008661
# 5 0.002460 0.004987 -0.004738 -0.004530 0.032849 0.004258
# 6 0.007338 -0.010997 -0.001605 0.008661 0.004258 0.061459
#
#
# Mechanical properties :
#
#
# Convention : Reuss Voigt Hill
#
# Bulk Modulus (GPa) = 39.72387 52.98779 46.35583
# Shear Modulus (GPa) = 21.31185 26.68413 23.99799
#
# Velocity S-wave (km/s) = 3.23827 3.62351 3.43630
# Velocity P-wave (km/s) = 5.79033 6.60143 6.20914
#
# Compressibility (1/GPa) = 0.02517378
#
# Stress axis : x y z
#
# Youngs Moduli (GPa) = 57.15638 38.36131 80.38418
#
# Poissons Ratio (x) = 0.16262 0.57063
# Poissons Ratio (y) = 0.24230 0.32773
# Poissons Ratio (z) = 0.40574 0.15640
#
# Static dielectric constant tensor:
#      x y z
#    x 3.648140 0.047010 -0.228340 
#    y 0.047010 3.835890 0.069690 
#    z -0.228340 0.069690 3.922910 
# 
# 
# High freq. dielectric constant tensor:
#      x y z
#    x 1.782820 0.004010 -0.018420 
#    y 0.004010 1.803900 0.000300 
#    z -0.018420 0.000300 1.803750 
# 
# From -- ./inp_files/405759.got.cif
#   From: 2010.06.25/outbox.cif.g09.slc.cpg/sg2_203_cif.got.tgz:405759.got - 2010.06.27 13:26:56.
