data_PCOD8001190
_publ_section_title
;
Structure prediction by ZEFSAII (Michael W. Deem and Ramdas Pophale) SiO2 
 PCOD8001190
Probable space group: P -1
;
_chemical_formula_sum "Si O2"
_cell_formula_units_Z 16
_cell_length_a 16.301647
_cell_length_b 8.627766
_cell_length_c 9.065655
_cell_angle_alpha 56.269282
_cell_angle_beta 93.077284
_cell_angle_gamma 56.332003
_cell_volume 752.587579
_symmetry_space_group_name_H-M "P -1"
_symmetry_group_IT_number 2
_symmetry_cell_setting 'triclinic'
loop_
_space_group_symop_operation_xyz
x,y,z
-x,-y,-z
loop_
_atom_site_type_symbol
_atom_site_label
_atom_site_fract_x
_atom_site_fract_y
_atom_site_fract_z
Si Si1 0.335392 0.270424 0.828714
Si Si2 0.295766 0.901031 0.067422
Si Si3 0.493444 0.015975 0.239110
Si Si4 0.336613 0.931608 0.373702
Si Si5 0.092359 0.696581 0.702055
Si Si6 0.908362 0.510636 0.908188
Si Si7 0.495145 0.388585 0.203472
Si Si8 0.042887 0.383097 0.727611
O O1 0.209873 0.558591 0.698262
O O2 0.382177 0.245441 0.681912
O O3 0.420607 0.218024 0.988683
O O4 0.335146 0.046928 0.957722
O O5 0.308472 0.850039 0.271741
O O6 0.372166 0.622253 0.144385
O O7 0.165481 0.081883 0.900562
O O8 0.508946 0.148045 0.295522
O O9 0.428907 0.945238 0.340279
O O10 0.399783 0.713836 0.624229
O O11 0.216262 0.199582 0.280299
O O12 0.046902 0.572575 0.709314
O O13 0.109551 0.645681 0.908427
O O14 0.000000 0.000000 0.500000
O O15 0.954625 0.393309 0.808545
O O16 0.000000 0.500000 0.000000
O O17 0.500000 0.500000 0.000000
O O18 0.000000 0.500000 0.500000
#
# Coordination Sequence:
#
# PCOD8001190 Si02
#       8
#     2   2   2   2   2   2   2   2
#     4   9  18  38  63  83 127 164 193 245 315 367
#     4  10  20  42  59  89 128 159 207 252 304 376
#     4  10  20  39  61  88 123 167 196 247 312 368
#     4  11  22  42  65  83 127 173 201 249 319 379
#     4  10  20  39  64  91 118 159 215 254 297 374
#     4  10  19  42  65  86 118 167 211 246 309 379
#     4  12  25  37  61  98 125 154 214 263 301 360
#     4  10  22  39  65  90 124 165 203 257 318 358
#
# _framework density 21.259983999999999
#
# number of rings (size 3 to 8) (size 9 to 14) (size 15 to 20)
#    0.000    1.750    6.250    0.750    1.750    1.000 
#    4.500    0.625    0.000    0.000    0.000    0.000 
#    0.000    0.000    0.000    0.000    0.000    0.000 
#
# Total GULP energy -198298.045647 kJ/mol
# GULP energy per Si atom -12393.627853 kJ/mol
# Density = 2.121159 g / cm^3
# Si number density = 21.259984 Si / 1000 Ang^3
#
#
#
# Elastic Constant Matrix: (Units=GPa)
#
#
# Indices 1 2 3 4 5 6 
#
# 1 54.9138 37.1409 28.4979 1.2643 10.7091 -35.5860
# 2 37.1409 135.1846 76.2056 -4.0326 17.9917 -44.8023
# 3 28.4979 76.2056 148.1335 5.2138 17.9127 -29.5780
# 4 1.2643 -4.0326 5.2138 40.7661 -1.7999 5.7166
# 5 10.7091 17.9917 17.9127 -1.7999 21.9245 -3.4049
# 6 -35.5860 -44.8023 -29.5780 5.7166 -3.4049 39.2499
#
#
#
# Elastic Compliance Matrix: (Units=1/GPa)
#
#
# Indices 1 2 3 4 5 6 
#
# 1 0.056677 0.006447 0.000984 -0.010621 -0.025515 0.058820
# 2 0.006447 0.015956 -0.004169 -0.001363 -0.009801 0.020264
# 3 0.000984 -0.004169 0.010132 -0.002477 -0.004967 0.003699
# 4 -0.010621 -0.001363 -0.002477 0.027695 0.008058 -0.016386
# 5 -0.025515 -0.009801 -0.004967 0.008058 0.065627 -0.033544
# 6 0.058820 0.020264 0.003699 -0.016386 -0.033544 0.104202
#
#
# Mechanical properties :
#
#
# Convention : Reuss Voigt Hill
#
# Bulk Modulus (GPa) = 11.19968 69.10229 40.15099
# Shear Modulus (GPa) = 16.47284 33.48061 24.97672
#
# Velocity S-wave (km/s) = 2.78659 3.97270 3.43129
# Velocity P-wave (km/s) = 3.95384 7.32238 5.88430
#
# Compressibility (1/GPa) = 0.08928825
#
# Stress axis : x y z
#
# Youngs Moduli (GPa) = 17.64376 62.67162 98.69283
#
# Poissons Ratio (x) = -0.40401 -0.09711
# Poissons Ratio (y) = -0.11374 0.41148
# Poissons Ratio (z) = -0.01736 0.26130
#
# Static dielectric constant tensor:
#      x y z
#    x 3.697770 -0.211160 0.284930 
#    y -0.211160 4.225940 0.150120 
#    z 0.284930 0.150120 3.634660 
# 
# 
# High freq. dielectric constant tensor:
#      x y z
#    x 1.811720 -0.031480 0.008150 
#    y -0.031480 1.835450 0.012340 
#    z 0.008150 0.012340 1.832140 
# 
# From -- ./inp_files/272526.got.cif
#   From: 2010.06.25/outbox.cif.g09.slc.cpg/sg2_137_cif.got.tgz:272526.got - 2010.06.27 13:26:56.
