data_PCOD8001547
_publ_section_title
;
Structure prediction by ZEFSAII (Michael W. Deem and Ramdas Pophale) SiO2 
 PCOD8001547
Probable space group: P -1
;
_chemical_formula_sum "Si O2"
_cell_formula_units_Z 14
_cell_length_a 19.963837
_cell_length_b 8.820193
_cell_length_c 11.268679
_cell_angle_alpha 114.863733
_cell_angle_beta 32.165153
_cell_angle_gamma 92.453184
_cell_volume 729.755132
_symmetry_space_group_name_H-M "P -1"
_symmetry_group_IT_number 2
_symmetry_cell_setting 'triclinic'
loop_
_space_group_symop_operation_xyz
x,y,z
-x,-y,-z
loop_
_atom_site_type_symbol
_atom_site_label
_atom_site_fract_x
_atom_site_fract_y
_atom_site_fract_z
Si Si1 0.809758 0.969498 0.700088
Si Si2 0.481407 0.104736 0.186263
Si Si3 0.989014 0.243443 0.895435
Si Si4 0.662884 0.452818 0.130820
Si Si5 0.156823 0.297435 0.848483
Si Si6 0.651756 0.442833 0.416817
Si Si7 0.924395 0.476805 0.718295
O O1 0.866116 0.943373 0.470090
O O2 0.956409 0.771013 0.494022
O O3 0.660818 0.963778 0.932464
O O4 0.756203 0.195435 0.902235
O O5 0.353390 0.115844 0.467290
O O6 0.421461 0.344272 0.324332
O O7 0.500000 0.000000 0.000000
O O8 0.064836 0.213657 0.902553
O O9 0.909848 0.480914 0.042917
O O10 0.835952 0.240415 0.124336
O O11 0.658386 0.508366 0.293820
O O12 0.477233 0.601558 0.402200
O O13 0.758463 0.519763 0.942578
O O14 0.116003 0.345065 0.065015
O O15 0.000000 0.500000 0.500000
#
# Coordination Sequence:
#
# PCOD8001547 Si02
#       7
#     2   2   2   2   2   2   2
#     4  10  19  29  53  85  99 131 177 217 253 304
#     4  10  16  27  49  83 108 124 164 227 268 289
#     4   9  15  28  49  79 100 124 170 225 257 293
#     4  10  18  33  51  77 107 131 174 213 260 301
#     4   9  17  30  48  73 108 131 167 212 266 296
#     4   9  18  28  50  77 106 132 160 223 265 292
#     4  11  22  36  52  74 110 144 169 204 259 318
#
# _framework density 19.184517
#
# number of rings (size 3 to 8) (size 9 to 14) (size 15 to 20)
#    0.000    2.286    5.714    0.429    2.000    0.000 
#    0.000    0.714    0.000    1.714    0.000    0.000 
#    0.000    0.000    0.000    0.000    0.000    0.000 
#
# Total GULP energy -173486.768491 kJ/mol
# GULP energy per Si atom -12391.912035 kJ/mol
# Density = 1.914085 g / cm^3
# Si number density = 19.184517 Si / 1000 Ang^3
#
#
#
# Elastic Constant Matrix: (Units=GPa)
#
#
# Indices 1 2 3 4 5 6 
#
# 1 114.2375 38.3658 64.3990 -25.8703 0.1033 30.5740
# 2 38.3658 42.0737 29.8994 -22.8698 3.1676 12.4681
# 3 64.3990 29.8994 128.7903 -28.1174 -2.7851 16.1266
# 4 -25.8703 -22.8698 -28.1174 34.8490 13.1655 -4.4213
# 5 0.1033 3.1676 -2.7851 13.1655 45.1690 -9.7763
# 6 30.5740 12.4681 16.1266 -4.4213 -9.7763 21.3140
#
#
#
# Elastic Compliance Matrix: (Units=1/GPa)
#
#
# Indices 1 2 3 4 5 6 
#
# 1 0.022975 -0.000173 -0.004867 0.013174 -0.010995 -0.031483
# 2 -0.000173 0.062000 -0.000167 0.045333 -0.025874 -0.038358
# 3 -0.004867 -0.000167 0.011657 0.006017 -0.001242 -0.001062
# 4 0.013174 0.045333 0.006017 0.080778 -0.037272 -0.050309
# 5 -0.010995 -0.025874 -0.001242 -0.037272 0.044392 0.044477
# 6 -0.031483 -0.038358 -0.001062 -0.050309 0.044477 0.125285
#
#
# Mechanical properties :
#
#
# Convention : Reuss Voigt Hill
#
# Bulk Modulus (GPa) = 11.59843 61.15890 36.37866
# Shear Modulus (GPa) = 12.94529 30.42888 21.68708
#
# Velocity S-wave (km/s) = 2.60047 3.98693 3.36586
# Velocity P-wave (km/s) = 3.88271 7.28990 5.84029
#
# Compressibility (1/GPa) = 0.08621859
#
# Stress axis : x y z
#
# Youngs Moduli (GPa) = 43.52561 16.12892 85.78680
#
# Poissons Ratio (x) = 0.00279 0.41756
# Poissons Ratio (y) = 0.00752 0.01430
# Poissons Ratio (z) = 0.21186 0.00269
#
# Static dielectric constant tensor:
#      x y z
#    x 3.761040 0.554730 -0.210900 
#    y 0.554730 2.836540 -0.194070 
#    z -0.210900 -0.194070 4.085510 
# 
# 
# High freq. dielectric constant tensor:
#      x y z
#    x 1.746300 0.056950 -0.003480 
#    y 0.056950 1.664560 -0.009780 
#    z -0.003480 -0.009780 1.774910 
# 
# From -- ./inp_files/175100.got.cif
#   From: 2010.06.25/outbox.cif.g09.slc.cpg/sg2_88_cif.got.tgz:175100.got - 2010.06.27 13:26:56.
