data_PCOD8001049
_publ_section_title
;
Structure prediction by ZEFSAII (Michael W. Deem and Ramdas Pophale) SiO2 
 PCOD8001049
Probable space group: P -1
;
_chemical_formula_sum "Si O2"
_cell_formula_units_Z 16
_cell_length_a 11.386527
_cell_length_b 18.124912
_cell_length_c 14.644301
_cell_angle_alpha 150.682048
_cell_angle_beta 145.452391
_cell_angle_gamma 53.337698
_cell_volume 755.270205
_symmetry_space_group_name_H-M "P -1"
_symmetry_group_IT_number 2
_symmetry_cell_setting 'triclinic'
loop_
_space_group_symop_operation_xyz
x,y,z
-x,-y,-z
loop_
_atom_site_type_symbol
_atom_site_label
_atom_site_fract_x
_atom_site_fract_y
_atom_site_fract_z
Si Si1 0.754191 0.411909 0.788996
Si Si2 0.465074 0.090274 0.817250
Si Si3 0.935722 0.321361 0.310644
Si Si4 0.259958 0.254690 0.582039
Si Si5 0.200789 0.275377 0.768480
Si Si6 0.333722 0.767938 0.280973
Si Si7 0.329036 0.894423 0.698615
Si Si8 0.221527 0.913754 0.214491
O O1 0.797577 0.359947 0.861787
O O2 0.601492 0.250754 0.454128
O O3 0.666427 0.556565 0.901941
O O4 0.000000 0.500000 0.000000
O O5 0.288696 0.138154 0.700429
O O6 0.499867 0.947021 0.627362
O O7 0.355624 0.024272 0.774779
O O8 0.709266 0.254774 0.158481
O O9 0.000000 0.500000 0.500000
O O10 0.141996 0.322786 0.504977
O O11 0.878963 0.192578 0.053748
O O12 0.265202 0.339692 0.774723
O O13 0.514020 0.298838 0.754335
O O14 0.126553 0.054500 0.301532
O O15 0.927390 0.191170 0.518677
O O16 0.140610 0.789560 0.116805
O O17 0.500000 0.000000 0.000000
O O18 0.500000 0.000000 0.500000
#
# Coordination Sequence:
#
# PCOD8001049 Si02
#       8
#     2   2   2   2   2   2   2   2
#     4   9  22  40  65  92 128 164 213 261 320 374
#     4  11  21  42  65  90 129 167 222 257 306 399
#     4  12  26  38  57  95 137 167 209 274 323 363
#     4  11  22  38  63  94 129 168 212 259 324 374
#     4  11  22  40  68  97 123 166 220 262 321 378
#     4  10  20  39  67  91 124 175 215 256 308 389
#     4  10  22  44  68  93 125 166 214 265 324 380
#     4  10  19  41  61  86 122 167 214 248 308 391
#
# _framework density 21.184472
#
# number of rings (size 3 to 8) (size 9 to 14) (size 15 to 20)
#    0.000    1.500    3.750    2.250    3.500    0.500 
#    0.000    0.625    0.000    0.000    0.000    0.000 
#    0.000    0.000    0.000    0.000    0.000    0.000 
#
# Total GULP energy -198218.823764 kJ/mol
# GULP energy per Si atom -12388.676485 kJ/mol
# Density = 2.113626 g / cm^3
# Si number density = 21.184472 Si / 1000 Ang^3
#
#
#
# Elastic Constant Matrix: (Units=GPa)
#
#
# Indices 1 2 3 4 5 6 
#
# 1 126.8220 45.8040 42.3841 9.4667 -7.1251 16.2549
# 2 45.8040 118.2478 33.1053 0.4527 1.8068 13.4152
# 3 42.3841 33.1053 79.4537 9.5171 -13.9330 1.3644
# 4 9.4667 0.4527 9.5171 27.9877 8.1863 -3.7376
# 5 -7.1251 1.8068 -13.9330 8.1863 32.7880 3.9608
# 6 16.2549 13.4152 1.3644 -3.7376 3.9608 39.4430
#
#
#
# Elastic Compliance Matrix: (Units=1/GPa)
#
#
# Indices 1 2 3 4 5 6 
#
# 1 0.011099 -0.002781 -0.003850 -0.003624 0.002326 -0.004072
# 2 -0.002781 0.010888 -0.003957 0.002857 -0.003381 -0.001810
# 3 -0.003850 -0.003957 0.018806 -0.007636 0.009203 0.000634
# 4 -0.003624 0.002857 -0.007636 0.045161 -0.016275 0.006700
# 5 0.002326 -0.003381 0.009203 -0.016275 0.039850 -0.005671
# 6 -0.004072 -0.001810 0.000634 0.006700 -0.005671 0.028829
#
#
# Mechanical properties :
#
#
# Convention : Reuss Voigt Hill
#
# Bulk Modulus (GPa) = 50.97700 63.01225 56.99462
# Shear Modulus (GPa) = 27.41996 33.59241 30.50619
#
# Velocity S-wave (km/s) = 3.60160 3.98642 3.79888
# Velocity P-wave (km/s) = 6.43514 7.14127 6.79738
#
# Compressibility (1/GPa) = 0.01961669
#
# Stress axis : x y z
#
# Youngs Moduli (GPa) = 90.09480 91.84415 53.17451
#
# Poissons Ratio (x) = 0.25544 0.20473
# Poissons Ratio (y) = 0.25057 0.21041
# Poissons Ratio (z) = 0.34688 0.36343
#
# Static dielectric constant tensor:
#      x y z
#    x 4.414640 0.184670 -0.283770 
#    y 0.184670 4.323250 0.458720 
#    z -0.283770 0.458720 3.874880 
# 
# 
# High freq. dielectric constant tensor:
#      x y z
#    x 1.841570 0.019020 -0.013680 
#    y 0.019020 1.833300 0.030110 
#    z -0.013680 0.030110 1.808740 
# 
# From -- ./inp_files/523499.got.cif
#   From: 2010.06.25/outbox.cif.g09.slc.cpg/sg2_262_cif.got.tgz:523499.got - 2010.06.27 13:26:56.
