data_PCOD8001240
_publ_section_title
;
Structure prediction by ZEFSAII (Michael W. Deem and Ramdas Pophale) SiO2 
 PCOD8001240
Probable space group: P -1
;
_chemical_formula_sum "Si O2"
_cell_formula_units_Z 16
_cell_length_a 8.200123
_cell_length_b 9.089107
_cell_length_c 16.725352
_cell_angle_alpha 145.038650
_cell_angle_beta 95.307880
_cell_angle_gamma 90.368328
_cell_volume 703.824016
_symmetry_space_group_name_H-M "P -1"
_symmetry_group_IT_number 2
_symmetry_cell_setting 'triclinic'
loop_
_space_group_symop_operation_xyz
x,y,z
-x,-y,-z
loop_
_atom_site_type_symbol
_atom_site_label
_atom_site_fract_x
_atom_site_fract_y
_atom_site_fract_z
Si Si1 0.894056 0.755975 0.430547
Si Si2 0.742198 0.747625 0.581071
Si Si3 0.174645 0.571889 0.866194
Si Si4 0.562254 0.185213 0.302663
Si Si5 0.662507 0.858446 0.865849
Si Si6 0.318814 0.342747 0.919382
Si Si7 0.840593 0.760533 0.978007
Si Si8 0.956861 0.725049 0.721966
O O1 0.775485 0.850521 0.536735
O O2 0.790234 0.587611 0.282195
O O3 0.997992 0.564475 0.398182
O O4 0.000000 0.000000 0.500000
O O5 0.681355 0.441137 0.446117
O O6 0.597903 0.884331 0.677293
O O7 0.914138 0.799389 0.661909
O O8 0.205167 0.400814 0.867204
O O9 0.986237 0.635853 0.885020
O O10 0.302825 0.831307 0.993578
O O11 0.512634 0.213406 0.219024
O O12 0.673880 0.961503 0.217343
O O13 0.788306 0.719417 0.759109
O O14 0.679245 0.756664 0.911630
O O15 0.221031 0.411379 0.024853
O O16 0.500000 0.500000 0.000000
O O17 0.903378 0.059825 0.137926
#
# Coordination Sequence:
#
# PCOD8001240 Si02
#       8
#     2   2   2   2   2   2   2   2
#     4  12  25  38  62  96 130 164 210 273 324 373
#     4  10  24  43  66  89 125 179 221 256 311 387
#     4  11  23  43  62 100 132 157 217 267 328 379
#     4  10  23  44  67  90 131 173 222 254 318 397
#     4  10  19  42  71  93 122 161 216 274 310 378
#     4  12  26  40  61  98 134 170 202 263 334 390
#     4  11  22  41  73  94 125 167 216 273 321 371
#     4  10  20  41  66  95 120 163 221 264 314 379
#
# _framework density 22.732955
#
# number of rings (size 3 to 8) (size 9 to 14) (size 15 to 20)
#    0.000    1.250    3.750    2.250    3.500    2.500 
#    0.000    0.625    0.000    0.000    0.000    0.000 
#    0.000    0.000    0.000    0.000    0.000    0.000 
#
# Total GULP energy -198349.289205 kJ/mol
# GULP energy per Si atom -12396.830575 kJ/mol
# Density = 2.268121 g / cm^3
# Si number density = 22.732955 Si / 1000 Ang^3
#
#
#
# Elastic Constant Matrix: (Units=GPa)
#
#
# Indices 1 2 3 4 5 6 
#
# 1 37.5198 28.2157 19.0148 -7.0467 -2.5441 -1.7312
# 2 28.2157 107.4254 16.0473 -38.3679 -5.7888 -12.7573
# 3 19.0148 16.0473 78.6700 -31.2804 -2.8213 -11.0515
# 4 -7.0467 -38.3679 -31.2804 39.7148 2.2387 -2.7521
# 5 -2.5441 -5.7888 -2.8213 2.2387 19.4665 -7.3033
# 6 -1.7312 -12.7573 -11.0515 -2.7521 -7.3033 39.7707
#
#
#
# Elastic Compliance Matrix: (Units=1/GPa)
#
#
# Indices 1 2 3 4 5 6 
#
# 1 0.047068 -0.021813 -0.020917 -0.029863 -0.005096 -0.013763
# 2 -0.021813 0.028815 0.017543 0.038424 0.010504 0.017756
# 3 -0.020917 0.017543 0.033014 0.039976 0.009580 0.018416
# 4 -0.029863 0.038424 0.039976 0.089814 0.014632 0.031036
# 5 -0.005096 0.010504 0.009580 0.014632 0.060243 0.017885
# 6 -0.013763 0.017756 0.018416 0.031036 0.017885 0.040790
#
#
# Mechanical properties :
#
#
# Convention : Reuss Voigt Hill
#
# Bulk Modulus (GPa) = 17.08686 38.90787 27.99736
# Shear Modulus (GPa) = 13.52720 30.47956 22.00338
#
# Velocity S-wave (km/s) = 2.44201 3.66562 3.11450
# Velocity P-wave (km/s) = 3.93495 5.92183 5.02752
#
# Compressibility (1/GPa) = 0.05852449
#
# Stress axis : x y z
#
# Youngs Moduli (GPa) = 21.24604 34.70364 30.28994
#
# Poissons Ratio (x) = 0.75698 0.63358
# Poissons Ratio (y) = 0.46343 -0.53139
# Poissons Ratio (z) = 0.44440 -0.60882
#
# Static dielectric constant tensor:
#      x y z
#    x 4.098780 -0.038810 -0.144900 
#    y -0.038810 4.149960 -0.319510 
#    z -0.144900 -0.319510 4.329740 
# 
# 
# High freq. dielectric constant tensor:
#      x y z
#    x 1.886780 -0.004120 -0.007220 
#    y -0.004120 1.890880 -0.021440 
#    z -0.007220 -0.021440 1.906660 
# 
# From -- ./inp_files/182578.got.cif
#   From: 2010.06.25/outbox.cif.g09.slc.cpg/sg2_92_cif.got.tgz:182578.got - 2010.06.27 13:26:56.
