data_PCOD8001834
_publ_section_title
;
Structure prediction by ZEFSAII (Michael W. Deem and Ramdas Pophale) SiO2 
 PCOD8001834
Probable space group: P -1
;
_chemical_formula_sum "Si O2"
_cell_formula_units_Z 16
_cell_length_a 11.660126
_cell_length_b 11.954832
_cell_length_c 8.792669
_cell_angle_alpha 47.806266
_cell_angle_beta 122.495162
_cell_angle_gamma 109.061067
_cell_volume 764.739411
_symmetry_space_group_name_H-M "P -1"
_symmetry_group_IT_number 2
_symmetry_cell_setting 'triclinic'
loop_
_space_group_symop_operation_xyz
x,y,z
-x,-y,-z
loop_
_atom_site_type_symbol
_atom_site_label
_atom_site_fract_x
_atom_site_fract_y
_atom_site_fract_z
Si Si1 0.510983 0.767152 0.947781
Si Si2 0.067105 0.838514 0.658856
Si Si3 0.325479 0.944793 0.874678
Si Si4 0.208989 0.271558 0.387716
Si Si5 0.634054 0.836354 0.662744
Si Si6 0.651090 0.198011 0.669647
Si Si7 0.368436 0.477266 0.523470
Si Si8 0.742903 0.159786 0.458978
O O1 0.466114 0.887592 0.941044
O O2 0.617496 0.827638 0.841976
O O3 0.374207 0.719875 0.802023
O O4 0.591775 0.623843 0.209502
O O5 0.210103 0.825150 0.862559
O O6 0.108381 0.821544 0.525232
O O7 0.956183 0.718493 0.732360
O O8 0.000000 0.000000 0.500000
O O9 0.279631 0.117483 0.648771
O O10 0.344914 0.930645 0.082228
O O11 0.255151 0.281203 0.233438
O O12 0.255736 0.408608 0.397703
O O13 0.493586 0.803601 0.512824
O O14 0.681426 0.002412 0.502859
O O15 0.688277 0.359733 0.611689
O O16 0.764240 0.162906 0.651844
O O17 0.500000 0.500000 0.500000
#
# Coordination Sequence:
#
# PCOD8001834 Si02
#       8
#     2   2   2   2   2   2   2   2
#     4  10  20  34  57  86 116 149 188 225 303 328
#     4   9  18  40  59  85 113 148 197 239 284 331
#     4  10  20  36  64  83 114 151 194 239 286 340
#     4  11  22  37  61  86 116 150 190 242 283 341
#     4  11  20  33  59  89 117 143 186 244 283 342
#     4  11  23  38  56  89 120 151 190 235 294 337
#     4  12  24  38  55  87 125 151 186 235 287 353
#     4  10  21  36  61  88 118 147 192 243 280 343
#
# _framework density 20.922158
#
# number of rings (size 3 to 8) (size 9 to 14) (size 15 to 20)
#    0.000    1.500    6.250    1.500    3.500    3.000 
#    0.000    5.000    0.000    0.000    0.000    0.000 
#    0.000    0.000    0.000    0.000    0.000    0.000 
#
# Total GULP energy -198231.863823 kJ/mol
# GULP energy per Si atom -12389.491489 kJ/mol
# Density = 2.087454 g / cm^3
# Si number density = 20.922158 Si / 1000 Ang^3
#
#
#
# Elastic Constant Matrix: (Units=GPa)
#
#
# Indices 1 2 3 4 5 6 
#
# 1 157.7600 29.2891 8.1710 20.2699 -20.2975 -7.7295
# 2 29.2891 86.3483 -17.8970 8.0674 4.0026 -2.2599
# 3 8.1710 -17.8970 15.1627 5.8565 -8.8692 -6.6720
# 4 20.2699 8.0674 5.8565 23.3416 -9.9547 -6.1641
# 5 -20.2975 4.0026 -8.8692 -9.9547 23.0715 12.4550
# 6 -7.7295 -2.2599 -6.6720 -6.1641 12.4550 41.6008
#
#
#
# Elastic Compliance Matrix: (Units=1/GPa)
#
#
# Indices 1 2 3 4 5 6 
#
# 1 0.008369 -0.004147 -0.005893 -0.002367 0.005698 -0.001672
# 2 -0.004147 0.020902 0.031921 -0.011457 -0.002375 0.004498
# 3 -0.005893 0.031921 0.136157 -0.026892 0.023896 0.011337
# 4 -0.002367 -0.011457 -0.026892 0.062639 0.017278 -0.001267
# 5 0.005698 -0.002375 0.023896 0.017278 0.073305 -0.014625
# 6 -0.001672 0.004498 0.011337 -0.001267 -0.014625 0.029981
#
#
# Mechanical properties :
#
#
# Convention : Reuss Voigt Hill
#
# Bulk Modulus (GPa) = 4.78033 33.15527 18.96780
# Shear Modulus (GPa) = 13.99300 33.58332 23.78816
#
# Velocity S-wave (km/s) = 2.58895 4.01079 3.37558
# Velocity P-wave (km/s) = 3.35062 6.10982 4.92730
#
# Compressibility (1/GPa) = 0.20919041
#
# Stress axis : x y z
#
# Youngs Moduli (GPa) = 119.48457 47.84223 7.34444
#
# Poissons Ratio (x) = 0.19840 0.04328
# Poissons Ratio (y) = 0.49551 -0.23444
# Poissons Ratio (z) = 0.70416 -1.52718
#
# Static dielectric constant tensor:
#      x y z
#    x 4.496630 0.010860 -0.271330 
#    y 0.010860 3.078700 0.457720 
#    z -0.271330 0.457720 3.875380 
# 
# 
# High freq. dielectric constant tensor:
#      x y z
#    x 1.823410 -0.011620 -0.027030 
#    y -0.011620 1.810810 0.013980 
#    z -0.027030 0.013980 1.786400 
# 
# From -- ./inp_files/174963.got.cif
#   From: 2010.06.25/outbox.cif.g09.slc.cpg/sg2_88_cif.got.tgz:174963.got - 2010.06.27 13:26:56.
