data_PCOD8001993
_publ_section_title
;
Structure prediction by ZEFSAII (Michael W. Deem and Ramdas Pophale) SiO2 
 PCOD8001993
Probable space group: P -1
;
_chemical_formula_sum "Si O2"
_cell_formula_units_Z 14
_cell_length_a 11.702857
_cell_length_b 9.683031
_cell_length_c 9.753571
_cell_angle_alpha 115.929755
_cell_angle_beta 50.570990
_cell_angle_gamma 77.849208
_cell_volume 546.185827
_symmetry_space_group_name_H-M "P -1"
_symmetry_group_IT_number 2
_symmetry_cell_setting 'triclinic'
loop_
_space_group_symop_operation_xyz
x,y,z
-x,-y,-z
loop_
_atom_site_type_symbol
_atom_site_label
_atom_site_fract_x
_atom_site_fract_y
_atom_site_fract_z
Si Si1 0.718420 0.975001 0.954608
Si Si2 0.846423 0.936902 0.224875
Si Si3 0.266989 0.254277 0.381887
Si Si4 0.345407 0.422853 0.146652
Si Si5 0.802255 0.147953 0.618444
Si Si6 0.279283 0.741965 0.765704
Si Si7 0.159913 0.334438 0.051692
O O1 0.479103 0.112425 0.244285
O O2 0.760003 0.125080 0.010330
O O3 0.749911 0.905505 0.740811
O O4 0.868224 0.768022 0.848358
O O5 0.816018 0.999459 0.433638
O O6 0.719942 0.152328 0.323971
O O7 0.767024 0.819254 0.203424
O O8 0.090869 0.758581 0.916205
O O9 0.270868 0.368915 0.301419
O O10 0.067220 0.427782 0.703816
O O11 0.203858 0.679556 0.374236
O O12 0.313386 0.359243 0.995232
O O13 0.586695 0.288110 0.926672
O O14 0.000000 0.000000 0.500000
O O15 0.500000 0.500000 0.500000
#
# Coordination Sequence:
#
# PCOD8001993 Si02
#       7
#     2   2   2   2   2   2   2
#     4   9  19  31  55  94 123 160 192 242 322 370
#     4  10  24  39  61  93 125 162 207 253 318 364
#     4  10  20  34  62  95 125 155 202 257 314 371
#     4  10  24  41  63  86 123 170 210 255 303 366
#     4  11  27  44  61  88 124 174 218 250 296 371
#     4  10  21  35  60  93 130 160 195 262 317 372
#     4  10  21  40  62  94 124 156 200 268 315 365
#
# _framework density 25.632304000000001
#
# number of rings (size 3 to 8) (size 9 to 14) (size 15 to 20)
#    0.000    2.000    0.000    2.571   12.000    4.000 
#    0.000    0.714    0.000    0.000    0.000    0.000 
#    0.000    0.000    0.000    0.000    0.000    0.000 
#
# Total GULP energy -173558.957389 kJ/mol
# GULP energy per Si atom -12397.068385 kJ/mol
# Density = 2.557396 g / cm^3
# Si number density = 25.632304 Si / 1000 Ang^3
#
#
#
# Elastic Constant Matrix: (Units=GPa)
#
#
# Indices 1 2 3 4 5 6 
#
# 1 127.0518 8.2744 30.9890 18.3245 12.0737 6.4437
# 2 8.2744 29.8534 21.0409 21.7169 0.6460 4.2530
# 3 30.9890 21.0409 83.5402 33.1968 -12.4955 -13.7723
# 4 18.3245 21.7169 33.1968 35.4266 -1.5473 -0.5374
# 5 12.0737 0.6460 -12.4955 -1.5473 53.9120 13.2529
# 6 6.4437 4.2530 -13.7723 -0.5374 13.2529 38.8093
#
#
#
# Elastic Compliance Matrix: (Units=1/GPa)
#
#
# Indices 1 2 3 4 5 6 
#
# 1 0.009409 0.002725 -0.003635 -0.003276 -0.002500 -0.002342
# 2 0.002725 0.063719 -0.004079 -0.036835 -0.001165 -0.008995
# 3 -0.003635 -0.004079 0.022811 -0.016713 0.003798 0.007617
# 4 -0.003276 -0.036835 -0.016713 0.068130 -0.000702 -0.000167
# 5 -0.002500 -0.001165 0.003798 -0.000702 0.021309 -0.005396
# 6 -0.002342 -0.008995 0.007617 -0.000167 -0.005396 0.031685
#
#
# Mechanical properties :
#
#
# Convention : Reuss Voigt Hill
#
# Bulk Modulus (GPa) = 11.63325 40.11709 25.87517
# Shear Modulus (GPa) = 19.55443 37.63899 28.59671
#
# Velocity S-wave (km/s) = 2.76503 3.83615 3.34376
# Velocity P-wave (km/s) = 3.83956 5.94192 5.00243
#
# Compressibility (1/GPa) = 0.08596047
#
# Stress axis : x y z
#
# Youngs Moduli (GPa) = 106.28373 15.69384 43.83764
#
# Poissons Ratio (x) = -0.04276 0.15935
# Poissons Ratio (y) = -0.28960 0.17883
# Poissons Ratio (z) = 0.38633 0.06402
#
# Static dielectric constant tensor:
#      x y z
#    x 5.140890 0.301100 0.037880 
#    y 0.301100 4.357230 0.493830 
#    z 0.037880 0.493830 4.387800 
# 
# 
# High freq. dielectric constant tensor:
#      x y z
#    x 2.041970 0.012790 -0.011740 
#    y 0.012790 1.997250 0.038340 
#    z -0.011740 0.038340 2.010870 
# 
# From -- ./inp_files/426649.got.cif
#   From: 2010.06.25/outbox.cif.g09.slc.cpg/sg2_214_cif.got.tgz:426649.got - 2010.06.27 13:26:56.
