data_PCOD8001871
_publ_section_title
;
Structure prediction by ZEFSAII (Michael W. Deem and Ramdas Pophale) SiO2 
 PCOD8001871
Probable space group: P -1
;
_chemical_formula_sum "Si O2"
_cell_formula_units_Z 16
_cell_length_a 11.284592
_cell_length_b 8.839751
_cell_length_c 14.318685
_cell_angle_alpha 97.955496
_cell_angle_beta 118.832255
_cell_angle_gamma 41.651610
_cell_volume 768.806371
_symmetry_space_group_name_H-M "P -1"
_symmetry_group_IT_number 2
_symmetry_cell_setting 'triclinic'
loop_
_space_group_symop_operation_xyz
x,y,z
-x,-y,-z
loop_
_atom_site_type_symbol
_atom_site_label
_atom_site_fract_x
_atom_site_fract_y
_atom_site_fract_z
Si Si1 0.034759 0.517469 0.719335
Si Si2 0.289056 0.538629 0.721636
Si Si3 0.236405 0.829905 0.175508
Si Si4 0.934345 0.051548 0.585822
Si Si5 0.969690 0.281813 0.985203
Si Si6 0.803009 0.479684 0.523949
Si Si7 0.323810 0.928347 0.396790
Si Si8 0.749259 0.754783 0.037085
O O1 0.235587 0.451216 0.766287
O O2 0.089163 0.385437 0.825089
O O3 0.997080 0.426522 0.615190
O O4 0.810783 0.808944 0.669180
O O5 0.540111 0.355794 0.814264
O O6 0.204621 0.554543 0.590428
O O7 0.145784 0.819321 0.710459
O O8 0.294870 0.813881 0.303036
O O9 0.148117 0.735752 0.128521
O O10 0.065973 0.104502 0.094883
O O11 0.837608 0.304081 0.591562
O O12 0.759073 0.070280 0.536925
O O13 0.000000 0.000000 0.500000
O O14 0.168656 0.184114 0.995757
O O15 0.787439 0.561834 0.978716
O O16 0.572459 0.759698 0.487983
O O17 0.500000 0.000000 0.000000
#
# Coordination Sequence:
#
# PCOD8001871 Si02
#       8
#     2   2   2   2   2   2   2   2
#     4  11  21  37  57  87 118 156 201 240 297 369
#     4   9  20  37  59  84 121 153 193 249 296 357
#     4  10  20  41  64  86 114 160 206 245 308 346
#     4   9  19  35  52  83 121 152 193 250 284 351
#     4  10  23  43  64  89 123 155 206 262 295 362
#     4  10  20  34  58  85 118 156 195 238 302 354
#     4  10  20  36  59  83 120 158 196 242 297 359
#     4  11  24  43  63  91 127 157 199 254 312 355
#
# _framework density 20.811482000000002
#
# number of rings (size 3 to 8) (size 9 to 14) (size 15 to 20)
#    0.000    2.000    1.250    1.875    1.750    1.000 
#    2.250    1.875    0.000    0.000    0.000    0.000 
#    0.000    0.000    0.000    0.000    0.000    0.000 
#
# Total GULP energy -198289.254901 kJ/mol
# GULP energy per Si atom -12393.078431 kJ/mol
# Density = 2.076411 g / cm^3
# Si number density = 20.811482 Si / 1000 Ang^3
#
#
#
# Elastic Constant Matrix: (Units=GPa)
#
#
# Indices 1 2 3 4 5 6 
#
# 1 89.1168 33.1341 23.0927 -5.0360 2.5101 -2.5095
# 2 33.1341 95.5053 17.2368 -16.3919 8.5827 0.3237
# 3 23.0927 17.2368 59.6216 3.6182 3.6084 11.0506
# 4 -5.0360 -16.3919 3.6182 27.9965 0.0041 2.4972
# 5 2.5101 8.5827 3.6084 0.0041 30.6022 -0.0075
# 6 -2.5095 0.3237 11.0506 2.4972 -0.0075 34.1578
#
#
#
# Elastic Compliance Matrix: (Units=1/GPa)
#
#
# Indices 1 2 3 4 5 6 
#
# 1 0.014037 -0.003947 -0.004845 0.000609 0.000527 0.002592
# 2 -0.003947 0.013981 -0.002773 0.007843 -0.003271 -0.000100
# 3 -0.004845 -0.002773 0.021072 -0.004610 -0.001311 -0.006810
# 4 0.000609 0.007843 -0.004610 0.041155 -0.001712 -0.001547
# 5 0.000527 -0.003271 -0.001311 -0.001712 0.033707 0.000626
# 6 0.002592 -0.000100 -0.006810 -0.001547 0.000626 0.031784
#
#
# Mechanical properties :
#
#
# Convention : Reuss Voigt Hill
#
# Bulk Modulus (GPa) = 38.52032 43.46344 40.99188
# Shear Modulus (GPa) = 26.66422 29.93662 28.30042
#
# Velocity S-wave (km/s) = 3.58331 3.79683 3.69161
# Velocity P-wave (km/s) = 5.97239 6.33647 6.15712
#
# Compressibility (1/GPa) = 0.02596033
#
# Stress axis : x y z
#
# Youngs Moduli (GPa) = 71.24153 71.52583 47.45669
#
# Poissons Ratio (x) = 0.28232 0.22992
# Poissons Ratio (y) = 0.28120 0.13158
# Poissons Ratio (z) = 0.34515 0.19832
#
# Static dielectric constant tensor:
#      x y z
#    x 3.811870 0.102220 -0.078590 
#    y 0.102220 4.166110 -0.206150 
#    z -0.078590 -0.206150 3.519740 
# 
# 
# High freq. dielectric constant tensor:
#      x y z
#    x 1.818090 0.002760 -0.008010 
#    y 0.002760 1.822180 -0.013990 
#    z -0.008010 -0.013990 1.792180 
# 
# From -- ./inp_files/258712.got.cif
#   From: 2010.06.25/outbox.cif.g09.slc.cpg/sg2_130_cif.got.tgz:258712.got - 2010.06.27 13:26:56.
