data_PCOD8001139
_publ_section_title
;
Structure prediction by ZEFSAII (Michael W. Deem and Ramdas Pophale) SiO2 
 PCOD8001139
Probable space group: P -1
;
_chemical_formula_sum "Si O2"
_cell_formula_units_Z 16
_cell_length_a 14.776922
_cell_length_b 9.353048
_cell_length_c 9.568927
_cell_angle_alpha 115.082093
_cell_angle_beta 41.811500
_cell_angle_gamma 98.513516
_cell_volume 767.052872
_symmetry_space_group_name_H-M "P -1"
_symmetry_group_IT_number 2
_symmetry_cell_setting 'triclinic'
loop_
_space_group_symop_operation_xyz
x,y,z
-x,-y,-z
loop_
_atom_site_type_symbol
_atom_site_label
_atom_site_fract_x
_atom_site_fract_y
_atom_site_fract_z
Si Si1 0.952188 0.379414 0.610287
Si Si2 0.113609 0.413775 0.949116
Si Si3 0.770977 0.898085 0.803263
Si Si4 0.378915 0.938980 0.681454
Si Si5 0.562994 0.645318 0.514301
Si Si6 0.467112 0.191326 0.087552
Si Si7 0.761558 0.156926 0.679786
Si Si8 0.135182 0.033819 0.791953
O O1 0.815785 0.320238 0.696107
O O2 0.000000 0.500000 0.500000
O O3 0.068271 0.205807 0.417263
O O4 0.923461 0.474483 0.826680
O O5 0.270641 0.407480 0.722412
O O6 0.111249 0.228579 0.904655
O O7 0.000000 0.500000 0.000000
O O8 0.685474 0.769719 0.794440
O O9 0.766474 0.057655 0.779406
O O10 0.710355 0.950128 0.047736
O O11 0.468607 0.767289 0.563768
O O12 0.500000 0.000000 0.500000
O O13 0.269709 0.929873 0.681284
O O14 0.500000 0.500000 0.500000
O O15 0.538066 0.707486 0.725161
O O16 0.594150 0.221120 0.858199
O O17 0.500000 0.000000 0.000000
O O18 0.847217 0.029910 0.413597
O O19 0.000000 0.000000 0.000000
#
# Coordination Sequence:
#
# PCOD8001139 Si02
#       8
#     2   2   2   2   2   2   2   2
#     4  12  26  44  63  98 140 173 216 278 341 390
#     4  12  26  45  68  98 139 179 221 275 338 403
#     4  11  23  43  74  95 127 182 229 267 323 409
#     4  12  24  44  71 103 137 174 226 284 341 394
#     4  12  25  43  69 104 136 174 224 282 337 401
#     4  10  19  41  69  96 123 165 231 266 316 394
#     4  11  22  44  69  95 127 176 231 265 320 409
#     4  12  26  44  69 100 136 179 227 281 337 395
#
# _framework density 20.859057
#
# number of rings (size 3 to 8) (size 9 to 14) (size 15 to 20)
#    0.000    0.500    3.750    7.125    1.750    0.000 
#    2.250    0.625    0.000    0.000    0.000    0.000 
#    0.000    0.000    0.000    0.000    0.000    0.000 
#
# Total GULP energy -198304.995425 kJ/mol
# GULP energy per Si atom -12394.062214 kJ/mol
# Density = 2.081158 g / cm^3
# Si number density = 20.859057 Si / 1000 Ang^3
#
#
#
# Elastic Constant Matrix: (Units=GPa)
#
#
# Indices 1 2 3 4 5 6 
#
# 1 106.2550 45.9792 42.6470 2.9756 -11.3991 20.7806
# 2 45.9792 113.1144 53.0177 -3.8072 -4.0246 33.0087
# 3 42.6470 53.0177 160.1705 -5.8223 4.1383 19.1079
# 4 2.9756 -3.8072 -5.8223 33.9478 11.2905 -12.0625
# 5 -11.3991 -4.0246 4.1383 11.2905 50.6607 3.5749
# 6 20.7806 33.0087 19.1079 -12.0625 3.5749 38.3898
#
#
#
# Elastic Compliance Matrix: (Units=1/GPa)
#
#
# Indices 1 2 3 4 5 6 
#
# 1 0.013269 -0.002606 -0.002278 -0.005499 0.004611 -0.005965
# 2 -0.002606 0.014388 -0.002967 -0.003229 0.002274 -0.010710
# 3 -0.002278 -0.002967 0.007874 0.002102 -0.001910 0.000703
# 4 -0.005499 -0.003229 0.002102 0.040525 -0.012007 0.018558
# 5 0.004611 0.002274 -0.001910 -0.012007 0.024463 -0.009552
# 6 -0.005965 -0.010710 0.000703 0.018558 -0.009552 0.044857
#
#
# Mechanical properties :
#
#
# Convention : Reuss Voigt Hill
#
# Bulk Modulus (GPa) = 50.43212 73.64752 62.03982
# Shear Modulus (GPa) = 29.81745 40.45940 35.13842
#
# Velocity S-wave (km/s) = 3.78494 4.40893 4.10880
# Velocity P-wave (km/s) = 6.58263 7.82957 7.23302
#
# Compressibility (1/GPa) = 0.01982863
#
# Stress axis : x y z
#
# Youngs Moduli (GPa) = 75.36645 69.50026 127.00403
#
# Poissons Ratio (x) = 0.18114 0.28926
# Poissons Ratio (y) = 0.19643 0.37684
# Poissons Ratio (z) = 0.17165 0.20622
#
# Static dielectric constant tensor:
#      x y z
#    x 4.344470 0.151860 -0.146660 
#    y 0.151860 3.710130 -0.087180 
#    z -0.146660 -0.087180 3.967330 
# 
# 
# High freq. dielectric constant tensor:
#      x y z
#    x 1.829860 0.013710 -0.007070 
#    y 0.013710 1.809460 -0.005720 
#    z -0.007070 -0.005720 1.844570 
# 
# From -- ./inp_files/245154.got.cif
#   From: 2010.06.25/outbox.cif.g09.slc.cpg/sg2_123_cif.got.tgz:245154.got - 2010.06.27 13:26:56.
