data_PCOD8001855
_publ_section_title
;
Structure prediction by ZEFSAII (Michael W. Deem and Ramdas Pophale) SiO2 
 PCOD8001855
Probable space group: P -1
;
_chemical_formula_sum "Si O2"
_cell_formula_units_Z 14
_cell_length_a 10.902596
_cell_length_b 13.852298
_cell_length_c 11.727582
_cell_angle_alpha 43.166495
_cell_angle_beta 104.575872
_cell_angle_gamma 135.904267
_cell_volume 691.793195
_symmetry_space_group_name_H-M "P -1"
_symmetry_group_IT_number 2
_symmetry_cell_setting 'triclinic'
loop_
_space_group_symop_operation_xyz
x,y,z
-x,-y,-z
loop_
_atom_site_type_symbol
_atom_site_label
_atom_site_fract_x
_atom_site_fract_y
_atom_site_fract_z
Si Si1 0.120171 0.480337 0.601350
Si Si2 0.660395 0.728234 0.754381
Si Si3 0.793417 0.145511 0.978138
Si Si4 0.910018 0.268211 0.148880
Si Si5 0.881901 0.751449 0.606531
Si Si6 0.489271 0.867673 0.519633
Si Si7 0.325720 0.639252 0.286984
O O1 0.263119 0.669275 0.574838
O O2 0.246431 0.515723 0.499655
O O3 0.000000 0.500000 0.500000
O O4 0.943150 0.222766 0.843411
O O5 0.699103 0.688680 0.673733
O O6 0.532417 0.758230 0.684839
O O7 0.500000 0.500000 0.000000
O O8 0.910669 0.984268 0.632425
O O9 0.747048 0.270476 0.844384
O O10 0.927030 0.244152 0.040745
O O11 0.581798 0.861384 0.164600
O O12 0.032778 0.262576 0.255412
O O13 0.658925 0.048535 0.304717
O O14 0.000000 0.500000 0.000000
O O15 0.761480 0.549936 0.660258
O O16 0.500000 0.000000 0.500000
#
# Coordination Sequence:
#
# PCOD8001855 Si02
#       7
#     2   2   2   2   2   2   2
#     4  10  22  36  57  93 131 159 204 265 312 376
#     4  10  25  44  65  94 132 168 218 269 320 380
#     4  10  20  34  57  93 131 162 203 266 320 367
#     4  11  20  35  63  98 129 161 214 267 315 374
#     4  10  23  42  66  91 127 176 214 260 323 385
#     4  11  24  40  65 100 125 162 222 269 316 380
#     4  10  20  38  58  90 130 167 207 257 321 379
#
# _framework density 20.237262000000001
#
# number of rings (size 3 to 8) (size 9 to 14) (size 15 to 20)
#    0.000    1.714    2.857    0.857   10.000    1.143 
#    0.000    0.714    0.000    1.714    0.000    0.000 
#    0.000    0.000    0.000    0.000    0.000    0.000 
#
# Total GULP energy -173456.858533 kJ/mol
# GULP energy per Si atom -12389.775609 kJ/mol
# Density = 2.019120 g / cm^3
# Si number density = 20.237262 Si / 1000 Ang^3
#
#
#
# Elastic Constant Matrix: (Units=GPa)
#
#
# Indices 1 2 3 4 5 6 
#
# 1 92.1374 52.8098 53.2562 -3.2587 -10.0564 -10.5745
# 2 52.8098 157.4422 60.9106 -8.1581 -14.5202 -20.8873
# 3 53.2562 60.9106 156.0302 -4.9053 -30.4426 -11.6910
# 4 -3.2587 -8.1581 -4.9053 31.2379 -4.3290 1.8337
# 5 -10.0564 -14.5202 -30.4426 -4.3290 36.6051 2.7434
# 6 -10.5745 -20.8873 -11.6910 1.8337 2.7434 30.9985
#
#
#
# Elastic Compliance Matrix: (Units=1/GPa)
#
#
# Indices 1 2 3 4 5 6 
#
# 1 0.015151 -0.003466 -0.003809 -0.000077 -0.000498 0.001445
# 2 -0.003466 0.008891 -0.001742 0.001595 0.001017 0.003967
# 3 -0.003809 -0.001742 0.009749 0.001550 0.006513 0.000535
# 4 -0.000077 0.001595 0.001550 0.033538 0.005932 -0.000876
# 5 -0.000498 0.001017 0.006513 0.005932 0.033731 -0.000364
# 6 0.001445 0.003967 0.000535 -0.000876 -0.000364 0.035711
#
#
# Mechanical properties :
#
#
# Convention : Reuss Voigt Hill
#
# Bulk Modulus (GPa) = 63.47118 82.17368 72.82243
# Shear Modulus (GPa) = 31.23876 35.67718 33.45797
#
# Velocity S-wave (km/s) = 3.93316 4.20330 4.07047
# Velocity P-wave (km/s) = 7.21512 8.01563 7.62588
#
# Compressibility (1/GPa) = 0.01575518
#
# Stress axis : x y z
#
# Youngs Moduli (GPa) = 66.00328 112.47505 102.57638
#
# Poissons Ratio (x) = 0.38989 0.39076
# Poissons Ratio (y) = 0.22880 0.17867
# Poissons Ratio (z) = 0.25143 0.19591
#
# Static dielectric constant tensor:
#      x y z
#    x 3.727560 -0.053110 -0.423120 
#    y -0.053110 3.655680 0.033550 
#    z -0.423120 0.033550 4.272910 
# 
# 
# High freq. dielectric constant tensor:
#      x y z
#    x 1.773920 0.002180 -0.024040 
#    y 0.002180 1.790980 -0.003400 
#    z -0.024040 -0.003400 1.803480 
# 
# From -- ./inp_files/277760.got.cif
#   From: 2010.06.25/outbox.cif.g09.slc.cpg/sg2_139_cif.got.tgz:277760.got - 2010.06.27 13:26:56.
