data_PCOD8001071
_publ_section_title
;
Structure prediction by ZEFSAII (Michael W. Deem and Ramdas Pophale) SiO2 
 PCOD8001071
Probable space group: P -1
;
_chemical_formula_sum "Si O2"
_cell_formula_units_Z 16
_cell_length_a 8.286304
_cell_length_b 12.571751
_cell_length_c 16.015078
_cell_angle_alpha 142.800085
_cell_angle_beta 129.759427
_cell_angle_gamma 50.905720
_cell_volume 748.594807
_symmetry_space_group_name_H-M "P -1"
_symmetry_group_IT_number 2
_symmetry_cell_setting 'triclinic'
loop_
_space_group_symop_operation_xyz
x,y,z
-x,-y,-z
loop_
_atom_site_type_symbol
_atom_site_label
_atom_site_fract_x
_atom_site_fract_y
_atom_site_fract_z
Si Si1 0.012771 0.255598 0.438501
Si Si2 0.213471 0.212323 0.074361
Si Si3 0.459600 0.039570 0.414392
Si Si4 0.325590 0.792300 0.833885
Si Si5 0.901655 0.042047 0.581051
Si Si6 0.483160 0.361695 0.836186
Si Si7 0.929429 0.325075 0.891977
Si Si8 0.914400 0.415670 0.249898
O O1 0.226872 0.177080 0.401975
O O2 0.976434 0.471834 0.578023
O O3 0.804397 0.223044 0.302903
O O4 0.056978 0.144065 0.469388
O O5 0.417367 0.287979 0.155989
O O6 0.104818 0.298618 0.179836
O O7 0.027256 0.248932 0.965563
O O8 0.296217 0.997764 0.983463
O O9 0.655419 0.130875 0.520797
O O10 0.500000 0.000000 0.500000
O O11 0.482074 0.847674 0.252347
O O12 0.232050 0.695903 0.819167
O O13 0.007259 0.178785 0.752969
O O14 0.000000 0.000000 0.500000
O O15 0.669799 0.365873 0.833779
O O16 0.247516 0.428874 0.759990
O O17 0.500000 0.500000 0.000000
O O18 0.000000 0.500000 0.000000
#
# Coordination Sequence:
#
# PCOD8001071 Si02
#       8
#     2   2   2   2   2   2   2   2
#     4  11  22  46  68  89 137 172 217 279 324 392
#     4  11  25  46  67  94 141 171 220 284 321 392
#     4  10  19  41  64  89 128 170 198 264 339 377
#     4  11  25  48  66  92 133 183 223 272 332 381
#     4  11  23  40  64  98 132 171 211 265 338 403
#     4  12  22  38  66  96 131 163 212 273 333 396
#     4  12  24  40  66  99 133 169 210 275 343 391
#     4  12  24  42  71 101 124 177 232 266 329 408
#
# _framework density 21.373377000000001
#
# number of rings (size 3 to 8) (size 9 to 14) (size 15 to 20)
#    0.000    0.750    7.500    1.500    3.500    0.500 
#    2.250    0.000    0.000    0.000    0.000    0.000 
#    0.000    0.000    0.000    0.000    0.000    0.000 
#
# Total GULP energy -198225.914005 kJ/mol
# GULP energy per Si atom -12389.119625 kJ/mol
# Density = 2.132473 g / cm^3
# Si number density = 21.373377 Si / 1000 Ang^3
#
#
#
# Elastic Constant Matrix: (Units=GPa)
#
#
# Indices 1 2 3 4 5 6 
#
# 1 144.0273 33.1629 51.3363 4.3030 -5.2646 -11.0889
# 2 33.1629 48.1447 29.5639 10.7975 -4.7376 -7.4200
# 3 51.3363 29.5639 149.6012 17.4011 -6.7865 -5.7951
# 4 4.3030 10.7975 17.4011 35.6662 -1.6290 7.2401
# 5 -5.2646 -4.7376 -6.7865 -1.6290 38.9738 0.3227
# 6 -11.0889 -7.4200 -5.7951 7.2401 0.3227 33.0174
#
#
#
# Elastic Compliance Matrix: (Units=1/GPa)
#
#
# Indices 1 2 3 4 5 6 
#
# 1 0.008906 -0.004850 -0.002178 0.001215 0.000275 0.001250
# 2 -0.004850 0.028707 -0.002767 -0.007893 0.001973 0.006048
# 3 -0.002178 -0.002767 0.008406 -0.003132 0.000696 0.000802
# 4 0.001215 -0.007893 -0.003132 0.033705 0.000145 -0.009308
# 5 0.000275 0.001973 0.000696 0.000145 0.026059 0.000371
# 6 0.001250 0.006048 0.000802 -0.009308 0.000371 0.034244
#
#
# Mechanical properties :
#
#
# Convention : Reuss Voigt Hill
#
# Bulk Modulus (GPa) = 37.83789 63.32216 50.58003
# Shear Modulus (GPa) = 29.68650 36.71213 33.19931
#
# Velocity S-wave (km/s) = 3.73090 4.14896 3.94547
# Velocity P-wave (km/s) = 6.02505 7.25553 6.66873
#
# Compressibility (1/GPa) = 0.02642853
#
# Stress axis : x y z
#
# Youngs Moduli (GPa) = 112.28083 34.83461 118.96900
#
# Poissons Ratio (x) = 0.16895 0.25914
# Poissons Ratio (y) = 0.54458 0.32916
# Poissons Ratio (z) = 0.24458 0.09638
#
# Static dielectric constant tensor:
#      x y z
#    x 4.019450 -0.338010 0.031430 
#    y -0.338010 3.679770 0.024480 
#    z 0.031430 0.024480 4.218020 
# 
# 
# High freq. dielectric constant tensor:
#      x y z
#    x 1.840800 -0.015550 0.009000 
#    y -0.015550 1.817120 0.006650 
#    z 0.009000 0.006650 1.857190 
# 
# From -- ./inp_files/501039.got.cif
#   From: 2010.06.25/outbox.cif.g09.slc.cpg/sg2_251_cif.got.tgz:501039.got - 2010.06.27 13:26:56.
