data_PCOD8001397
_publ_section_title
;
Structure prediction by ZEFSAII (Michael W. Deem and Ramdas Pophale) SiO2 
 PCOD8001397
Probable space group: P -1
;
_chemical_formula_sum "Si O2"
_cell_formula_units_Z 16
_cell_length_a 16.311575
_cell_length_b 17.796156
_cell_length_c 8.161451
_cell_angle_alpha 115.130021
_cell_angle_beta 117.601849
_cell_angle_gamma 23.569014
_cell_volume 839.491769
_symmetry_space_group_name_H-M "P -1"
_symmetry_group_IT_number 2
_symmetry_cell_setting 'triclinic'
loop_
_space_group_symop_operation_xyz
x,y,z
-x,-y,-z
loop_
_atom_site_type_symbol
_atom_site_label
_atom_site_fract_x
_atom_site_fract_y
_atom_site_fract_z
Si Si1 0.547182 0.285569 0.184352
Si Si2 0.881678 0.285571 0.815650
Si Si3 0.961393 0.000000 0.145449
Si Si4 0.934934 0.713999 0.816902
Si Si5 0.145490 0.000002 0.513356
Si Si6 0.498558 0.000002 0.303422
Si Si7 0.689503 0.999999 0.576043
Si Si8 0.637063 0.714004 0.183094
O O1 0.365165 0.499999 0.232964
O O2 0.651823 0.186512 0.365391
O O3 0.714104 0.185153 0.114349
O O4 0.455903 0.271830 0.026369
O O5 0.915583 0.185157 0.885645
O O6 0.975154 0.186514 0.634614
O O7 0.000435 0.271830 0.973638
O O8 0.041231 0.000006 0.354135
O O9 0.000000 0.000000 0.000000
O O10 0.867965 0.814557 0.681806
O O11 0.124436 0.499997 0.751181
O O12 0.742595 0.814630 0.807082
O O13 0.212450 0.000000 0.420191
O O14 0.607740 0.000003 0.359225
O O15 0.628140 0.814635 0.192915
O O16 0.500000 0.000000 0.500000
O O17 0.497090 0.185434 0.681816
#
# Coordination Sequence:
#
# PCOD8001397 Si02
#       8
#     2   2   2   2   2   2   2   2
#     4  10  21  37  56  77 104 138 171 207 256 309
#     4  10  21  37  56  77 104 138 171 207 256 309
#     4  11  22  37  58  80 103 131 169 215 256 302
#     4   9  17  33  55  76 102 135 173 216 257 301
#     4  11  22  36  53  75 108 139 168 211 254 304
#     4   8  16  29  50  78 104 134 171 213 258 301
#     4  10  20  32  51  79 106 136 174 215 256 299
#     4   9  17  33  55  76 102 135 173 216 257 301
#
# _framework density 19.059151
#
# number of rings (size 3 to 8) (size 9 to 14) (size 15 to 20)
#    0.000    2.500    0.000    6.000    0.000    8.000 
#    0.000    2.500    0.000    3.000    0.000    0.000 
#    0.000    0.000    0.000    0.000    0.000    0.000 
#
# Total GULP energy -198350.023224 kJ/mol
# GULP energy per Si atom -12396.876452 kJ/mol
# Density = 1.901577 g / cm^3
# Si number density = 19.059151 Si / 1000 Ang^3
#
#
#
# Elastic Constant Matrix: (Units=GPa)
#
#
# Indices 1 2 3 4 5 6 
#
# 1 23.7368 15.5286 8.2505 0.6792 7.9972 0.7095
# 2 15.5286 170.8581 42.2164 3.6990 9.8847 13.8085
# 3 8.2505 42.2164 85.8283 -0.7443 15.5849 3.3334
# 4 0.6792 3.6990 -0.7443 28.4719 -0.7185 5.2305
# 5 7.9972 9.8847 15.5849 -0.7185 33.4784 -1.1206
# 6 0.7095 13.8085 3.3334 5.2305 -1.1206 11.5822
#
#
#
# Elastic Compliance Matrix: (Units=1/GPa)
#
#
# Indices 1 2 3 4 5 6 
#
# 1 0.048215 -0.003607 -0.001119 -0.001190 -0.009915 0.001247
# 2 -0.003607 0.007594 -0.003021 0.000525 -0.000238 -0.008224
# 3 -0.001119 -0.003021 0.014311 0.000910 -0.005530 -0.001394
# 4 -0.001190 0.000525 0.000910 0.038445 -0.000078 -0.018184
# 5 -0.009915 -0.000238 -0.005530 -0.000078 0.035079 0.005912
# 6 0.001247 -0.008224 -0.001394 -0.018184 0.005912 0.105253
#
#
# Mechanical properties :
#
#
# Convention : Reuss Voigt Hill
#
# Bulk Modulus (GPa) = 18.30657 45.82382 32.06520
# Shear Modulus (GPa) = 17.69286 29.00169 23.34728
#
# Velocity S-wave (km/s) = 3.05013 3.90509 3.50378
# Velocity P-wave (km/s) = 4.69365 6.66544 5.76448
#
# Compressibility (1/GPa) = 0.05462519
#
# Stress axis : x y z
#
# Youngs Moduli (GPa) = 20.74060 131.67923 69.87613
#
# Poissons Ratio (x) = 0.47496 0.07819
# Poissons Ratio (y) = 0.07481 0.21113
# Poissons Ratio (z) = 0.02321 0.39786
#
# Static dielectric constant tensor:
#      x y z
#    x 3.621720 -0.041920 0.560090 
#    y -0.041920 3.647070 -0.067080 
#    z 0.560090 -0.067080 3.695910 
# 
# 
# High freq. dielectric constant tensor:
#      x y z
#    x 1.724620 -0.000140 0.029290 
#    y -0.000140 1.744100 -0.003710 
#    z 0.029290 -0.003710 1.749440 
# 
# From -- ./inp_files/338157.got.cif
#   From: 2010.06.25/outbox.cif.g09.slc.cpg/sg2_170_cif.got.tgz:338157.got - 2010.06.27 13:26:56.
