data_PCOD8001900
_publ_section_title
;
Structure prediction by ZEFSAII (Michael W. Deem and Ramdas Pophale) SiO2 
 PCOD8001900
Probable space group: P -1
;
_chemical_formula_sum "Si O2"
_cell_formula_units_Z 16
_cell_length_a 9.093669
_cell_length_b 24.222863
_cell_length_c 7.802716
_cell_angle_alpha 73.368946
_cell_angle_beta 85.163618
_cell_angle_gamma 33.819845
_cell_volume 877.831707
_symmetry_space_group_name_H-M "P -1"
_symmetry_group_IT_number 2
_symmetry_cell_setting 'triclinic'
loop_
_space_group_symop_operation_xyz
x,y,z
-x,-y,-z
loop_
_atom_site_type_symbol
_atom_site_label
_atom_site_fract_x
_atom_site_fract_y
_atom_site_fract_z
Si Si1 0.009380 0.273217 0.556155
Si Si2 0.379870 0.467543 0.363160
Si Si3 0.730523 0.594595 0.832065
Si Si4 0.189791 0.113387 0.870764
Si Si5 0.956046 0.420766 0.386605
Si Si6 0.180964 0.765180 0.890404
Si Si7 0.802726 0.887689 0.508115
Si Si8 0.570294 0.435628 0.894500
O O1 0.134346 0.200969 0.778818
O O2 0.155178 0.195147 0.445743
O O3 0.686071 0.363822 0.500613
O O4 0.078684 0.317196 0.501306
O O5 0.353969 0.438115 0.219445
O O6 0.167771 0.512846 0.483959
O O7 0.307053 0.559822 0.261931
O O8 0.482013 0.694599 0.895821
O O9 0.787795 0.624421 0.657247
O O10 0.000000 0.500000 0.000000
O O11 0.141283 0.101179 0.696020
O O12 0.973091 0.159934 0.990911
O O13 0.500000 0.000000 0.000000
O O14 0.713303 0.500257 0.198525
O O15 0.010776 0.841328 0.673078
O O16 0.209773 0.686078 0.972489
O O17 0.500000 0.000000 0.500000
O O18 0.500000 0.500000 0.000000
#
# Coordination Sequence:
#
# PCOD8001900 Si02
#       8
#     2   2   2   2   2   2   2   2
#     4   9  19  35  57  85 108 146 189 237 292 320
#     4  11  20  36  53  81 112 156 193 229 274 332
#     4  12  23  34  50  81 122 161 188 214 276 349
#     4  10  20  34  59  85 105 136 190 248 288 323
#     4  11  21  35  52  79 121 151 191 223 269 355
#     4  12  19  36  55  82 117 150 181 235 283 331
#     4  10  20  35  58  87 107 134 189 242 294 326
#     4  11  19  33  55  81 114 148 190 233 276 330
#
# _framework density 18.226728000000001
#
# number of rings (size 3 to 8) (size 9 to 14) (size 15 to 20)
#    0.750    0.500    5.000    4.125    0.000    0.000 
#    2.250    0.000    0.000    3.000    0.000    4.375 
#    0.000    0.000    0.000    0.000    0.000    0.000 
#
# Total GULP energy -198235.562102 kJ/mol
# GULP energy per Si atom -12389.722631 kJ/mol
# Density = 1.818524 g / cm^3
# Si number density = 18.226728 Si / 1000 Ang^3
#
#
#
# Elastic Constant Matrix: (Units=GPa)
#
#
# Indices 1 2 3 4 5 6 
#
# 1 65.8421 31.4579 20.6166 -0.5701 -11.3748 -16.0420
# 2 31.4579 133.5705 51.8113 16.3979 -9.1383 -23.1097
# 3 20.6166 51.8113 114.4450 0.0158 2.8832 -14.3608
# 4 -0.5701 16.3979 0.0158 41.7364 -0.1174 -1.5694
# 5 -11.3748 -9.1383 2.8832 -0.1174 24.7445 6.1042
# 6 -16.0420 -23.1097 -14.3608 -1.5694 6.1042 23.6988
#
#
#
# Elastic Compliance Matrix: (Units=1/GPa)
#
#
# Indices 1 2 3 4 5 6 
#
# 1 0.020066 -0.002329 -0.001619 0.001538 0.006393 0.008786
# 2 -0.002329 0.011313 -0.003967 -0.004234 0.002007 0.006254
# 3 -0.001619 -0.003967 0.011324 0.001637 -0.004288 0.003110
# 4 0.001538 -0.004234 0.001637 0.025635 -0.000884 -0.000171
# 5 0.006393 0.002007 -0.004288 -0.000884 0.046658 -0.008391
# 6 0.008786 0.006254 0.003110 -0.000171 -0.008391 0.058277
#
#
# Mechanical properties :
#
#
# Convention : Reuss Voigt Hill
#
# Bulk Modulus (GPa) = 37.21400 57.95878 47.58639
# Shear Modulus (GPa) = 25.24469 32.03405 28.63937
#
# Velocity S-wave (km/s) = 3.72565 4.19684 3.96824
# Velocity P-wave (km/s) = 6.24250 7.43992 6.86736
#
# Compressibility (1/GPa) = 0.02687161
#
# Stress axis : x y z
#
# Youngs Moduli (GPa) = 49.83570 88.39123 88.31066
#
# Poissons Ratio (x) = 0.20588 0.14298
# Poissons Ratio (y) = 0.11608 0.35036
# Poissons Ratio (z) = 0.08069 0.35068
#
# Static dielectric constant tensor:
#      x y z
#    x 3.814720 -0.106960 -0.247530 
#    y -0.106960 3.471440 0.138920 
#    z -0.247530 0.138920 3.824150 
# 
# 
# High freq. dielectric constant tensor:
#      x y z
#    x 1.655420 0.000150 -0.004320 
#    y 0.000150 1.709670 0.014220 
#    z -0.004320 0.014220 1.725570 
# 
# From -- ./inp_files/227447.got.cif
#   From: 2010.06.25/outbox.cif.g09.slc.cpg/sg2_114_cif.got.tgz:227447.got - 2010.06.27 13:26:56.
