data_PCOD8001767
_publ_section_title
;
Structure prediction by ZEFSAII (Michael W. Deem and Ramdas Pophale) SiO2 
 PCOD8001767
Probable space group: P -1
;
_chemical_formula_sum "Si O2"
_cell_formula_units_Z 16
_cell_length_a 11.383500
_cell_length_b 14.076227
_cell_length_c 20.119224
_cell_angle_alpha 149.316466
_cell_angle_beta 34.939140
_cell_angle_gamma 150.678139
_cell_volume 773.437818
_symmetry_space_group_name_H-M "P -1"
_symmetry_group_IT_number 2
_symmetry_cell_setting 'triclinic'
loop_
_space_group_symop_operation_xyz
x,y,z
-x,-y,-z
loop_
_atom_site_type_symbol
_atom_site_label
_atom_site_fract_x
_atom_site_fract_y
_atom_site_fract_z
Si Si1 0.311578 0.207815 0.320072
Si Si2 0.171553 0.464303 0.170494
Si Si3 0.334842 0.932994 0.876483
Si Si4 0.253898 0.301616 0.626375
Si Si5 0.921526 0.173789 0.582325
Si Si6 0.666336 0.922021 0.901700
Si Si7 0.576342 0.438232 0.026905
Si Si8 0.790454 0.548168 0.128559
O O1 0.474672 0.135049 0.237008
O O2 0.486607 0.464681 0.367091
O O3 0.172657 0.055868 0.225302
O O4 0.124012 0.199523 0.453111
O O5 0.198774 0.699332 0.312721
O O6 0.329711 0.440141 0.138834
O O7 0.881864 0.251352 0.182996
O O8 0.268163 0.460229 0.050845
O O9 0.193850 0.933663 0.010013
O O10 0.494037 0.180459 0.918237
O O11 0.143773 0.271995 0.734917
O O12 0.047637 0.280113 0.659006
O O13 0.286937 0.096377 0.475501
O O14 0.483985 0.664222 0.853543
O O15 0.500000 0.000000 0.000000
O O16 0.755451 0.607253 0.105240
O O17 0.000000 0.500000 0.000000
#
# Coordination Sequence:
#
# PCOD8001767 Si02
#       8
#     2   2   2   2   2   2   2   2
#     4  10  20  34  55  89 115 144 180 236 286 335
#     4  11  23  40  56  82 116 156 189 228 276 347
#     4  10  20  35  61  84 115 145 185 237 286 327
#     4  10  22  35  52  86 116 145 184 234 280 330
#     4  11  23  34  56  82 117 153 187 224 282 340
#     4   8  18  31  50  87 115 133 178 230 281 337
#     4  10  24  39  59  84 113 146 195 235 281 335
#     4  10  20  34  59  83 108 143 184 241 287 320
#
# _framework density 20.686859999999999
#
# number of rings (size 3 to 8) (size 9 to 14) (size 15 to 20)
#    0.000    2.000    1.250    1.500   12.250    0.000 
#    0.000    0.625    0.000    6.750    0.000    0.000 
#    0.000    0.000    0.000    0.000    0.000    0.000 
#
# Total GULP energy -198255.332310 kJ/mol
# GULP energy per Si atom -12390.958269 kJ/mol
# Density = 2.063978 g / cm^3
# Si number density = 20.686860 Si / 1000 Ang^3
#
#
#
# Elastic Constant Matrix: (Units=GPa)
#
#
# Indices 1 2 3 4 5 6 
#
# 1 100.3069 8.5195 40.3748 -2.5266 3.2856 4.0863
# 2 8.5195 21.5526 8.7710 3.7811 -6.5863 -9.5408
# 3 40.3748 8.7710 85.9216 4.5578 -1.1245 3.9818
# 4 -2.5266 3.7811 4.5578 30.5217 -5.2242 3.4591
# 5 3.2856 -6.5863 -1.1245 -5.2242 32.2073 -1.8524
# 6 4.0863 -9.5408 3.9818 3.4591 -1.8524 22.9550
#
#
#
# Elastic Compliance Matrix: (Units=1/GPa)
#
#
# Indices 1 2 3 4 5 6 
#
# 1 0.013038 -0.006249 -0.005455 0.002741 -0.002618 -0.004596
# 2 -0.006249 0.073336 -0.005445 -0.010082 0.015841 0.035335
# 3 -0.005455 -0.005445 0.015011 -0.001690 -0.000519 -0.003683
# 4 0.002741 -0.010082 -0.001690 0.036075 0.002900 -0.009587
# 5 -0.002618 0.015841 -0.000519 0.002900 0.035558 0.009573
# 6 -0.004596 0.035335 -0.003683 -0.009587 0.009573 0.061924
#
#
# Mechanical properties :
#
#
# Convention : Reuss Voigt Hill
#
# Bulk Modulus (GPa) = 14.90622 35.90131 25.40377
# Shear Modulus (GPa) = 17.14653 27.14452 22.14552
#
# Velocity S-wave (km/s) = 2.88212 3.62631 3.27542
# Velocity P-wave (km/s) = 4.27747 5.90981 5.15861
#
# Compressibility (1/GPa) = 0.06708607
#
# Stress axis : x y z
#
# Youngs Moduli (GPa) = 76.69840 13.63584 66.61619
#
# Poissons Ratio (x) = 0.08522 0.36341
# Poissons Ratio (y) = 0.47932 0.36273
# Poissons Ratio (z) = 0.41842 0.07425
#
# Static dielectric constant tensor:
#      x y z
#    x 4.013810 -0.143590 0.423720 
#    y -0.143590 3.855810 0.203700 
#    z 0.423720 0.203700 3.906970 
# 
# 
# High freq. dielectric constant tensor:
#      x y z
#    x 1.788640 -0.014510 0.027770 
#    y -0.014510 1.819780 0.011910 
#    z 0.027770 0.011910 1.797520 
# 
# From -- ./inp_files/457413.got.cif
#   From: 2010.06.25/outbox.cif.g09.slc.cpg/sg2_229_cif.got.tgz:457413.got - 2010.06.27 13:26:56.
