data_PCOD8001008
_publ_section_title
;
Structure prediction by ZEFSAII (Michael W. Deem and Ramdas Pophale) SiO2 
 PCOD8001008
Probable space group: P -1
;
_chemical_formula_sum "Si O2"
_cell_formula_units_Z 16
_cell_length_a 13.246537
_cell_length_b 11.618085
_cell_length_c 13.375904
_cell_angle_alpha 147.918551
_cell_angle_beta 41.614234
_cell_angle_gamma 122.650540
_cell_volume 699.870799
_symmetry_space_group_name_H-M "P -1"
_symmetry_group_IT_number 2
_symmetry_cell_setting 'triclinic'
loop_
_space_group_symop_operation_xyz
x,y,z
-x,-y,-z
loop_
_atom_site_type_symbol
_atom_site_label
_atom_site_fract_x
_atom_site_fract_y
_atom_site_fract_z
Si Si1 0.281957 0.908194 0.541520
Si Si2 0.345906 0.767848 0.609866
Si Si3 0.416989 0.229397 0.908627
Si Si4 0.977745 0.942779 0.309767
Si Si5 0.420386 0.648424 0.940352
Si Si6 0.133063 0.592824 0.782961
Si Si7 0.205634 0.105949 0.396782
Si Si8 0.791426 0.600428 0.980887
O O1 0.267925 0.806406 0.585976
O O2 0.439914 0.763904 0.266595
O O3 0.128350 0.907369 0.588493
O O4 0.297747 0.162635 0.727245
O O5 0.494226 0.545657 0.342809
O O6 0.210935 0.745605 0.769430
O O7 0.407831 0.977788 0.752884
O O8 0.443351 0.343566 0.075970
O O9 0.258719 0.383139 0.087082
O O10 0.865189 0.878164 0.427777
O O11 0.080700 0.090477 0.392500
O O12 0.089716 0.714130 0.011450
O O13 0.265458 0.596563 0.066502
O O14 0.358291 0.893353 0.115525
O O15 0.250515 0.342157 0.523465
O O16 0.977330 0.557898 0.819424
#
# Coordination Sequence:
#
# PCOD8001008 Si02
#       8
#     2   2   2   2   2   2   2   2
#     4  10  19  40  69  98 128 161 215 268 324 384
#     4  11  25  43  63 101 136 168 205 263 336 395
#     4  11  21  39  67  98 128 167 216 266 321 383
#     4  10  22  42  70  94 127 167 219 274 318 367
#     4  12  23  39  70  94 127 172 222 266 311 373
#     4  11  26  43  65  95 138 171 208 265 330 383
#     4  11  24  42  65  97 124 173 230 264 300 379
#     4  10  20  38  66  96 126 163 214 270 318 378
#
# _framework density 22.861363000000001
#
# number of rings (size 3 to 8) (size 9 to 14) (size 15 to 20)
#    0.000    1.250    3.750    3.000    0.000    8.000 
#    0.000    2.500    0.000    0.000    0.000    0.000 
#    0.000    0.000    0.000    0.000    0.000    0.000 
#
# Total GULP energy -198435.398121 kJ/mol
# GULP energy per Si atom -12402.212383 kJ/mol
# Density = 2.280933 g / cm^3
# Si number density = 22.861363 Si / 1000 Ang^3
#
#
#
# Elastic Constant Matrix: (Units=GPa)
#
#
# Indices 1 2 3 4 5 6 
#
# 1 54.9875 17.3520 6.0106 -8.7149 8.3692 0.4413
# 2 17.3520 74.1970 34.0073 4.8157 3.8796 -1.1992
# 3 6.0106 34.0073 85.4087 18.8680 -9.1362 -2.9433
# 4 -8.7149 4.8157 18.8680 23.1837 -3.0851 -8.2941
# 5 8.3692 3.8796 -9.1362 -3.0851 21.1980 2.8335
# 6 0.4413 -1.1992 -2.9433 -8.2941 2.8335 20.7091
#
#
#
# Elastic Compliance Matrix: (Units=1/GPa)
#
#
# Indices 1 2 3 4 5 6 
#
# 1 0.023293 -0.004054 -0.003739 0.013361 -0.008829 0.005297
# 2 -0.004054 0.018133 -0.007558 0.000537 -0.005027 0.000965
# 3 -0.003739 -0.007558 0.019423 -0.016314 0.009584 -0.005443
# 4 0.013361 0.000537 -0.016314 0.069941 -0.005731 0.026224
# 5 -0.008829 -0.005027 0.009584 -0.005731 0.056040 -0.008704
# 6 0.005297 0.000965 -0.005443 0.026224 -0.008704 0.059151
#
#
# Mechanical properties :
#
#
# Convention : Reuss Voigt Hill
#
# Bulk Modulus (GPa) = 33.16969 36.59256 34.88112
# Shear Modulus (GPa) = 17.43798 23.49969 20.46884
#
# Velocity S-wave (km/s) = 2.76483 3.20960 2.99548
# Velocity P-wave (km/s) = 4.97322 5.45678 5.22060
#
# Compressibility (1/GPa) = 0.03014801
#
# Stress axis : x y z
#
# Youngs Moduli (GPa) = 42.93203 55.14720 51.48652
#
# Poissons Ratio (x) = 0.22355 0.19249
# Poissons Ratio (y) = 0.17403 0.38913
# Poissons Ratio (z) = 0.16051 0.41680
#
# Static dielectric constant tensor:
#      x y z
#    x 4.233650 -0.003750 0.039860 
#    y -0.003750 3.759670 0.320330 
#    z 0.039860 0.320330 4.210390 
# 
# 
# High freq. dielectric constant tensor:
#      x y z
#    x 1.903830 0.001350 0.002370 
#    y 0.001350 1.869090 0.030380 
#    z 0.002370 0.030380 1.911160 
# 
# From -- ./inp_files/532125.got.cif
#   From: 2010.06.25/outbox.cif.g09.slc.cpg/sg2_267_cif.got.tgz:532125.got - 2010.06.27 13:26:56.
