data_PCOD8001040
_publ_section_title
;
Structure prediction by ZEFSAII (Michael W. Deem and Ramdas Pophale) SiO2 
 PCOD8001040
Probable space group: P -1
;
_chemical_formula_sum "Si O2"
_cell_formula_units_Z 16
_cell_length_a 12.112933
_cell_length_b 9.206440
_cell_length_c 8.943313
_cell_angle_alpha 60.499456
_cell_angle_beta 102.239570
_cell_angle_gamma 122.154612
_cell_volume 733.186916
_symmetry_space_group_name_H-M "P -1"
_symmetry_group_IT_number 2
_symmetry_cell_setting 'triclinic'
loop_
_space_group_symop_operation_xyz
x,y,z
-x,-y,-z
loop_
_atom_site_type_symbol
_atom_site_label
_atom_site_fract_x
_atom_site_fract_y
_atom_site_fract_z
Si Si1 0.915621 0.800468 0.491796
Si Si2 0.904519 0.277193 0.968702
Si Si3 0.095997 0.666660 0.715748
Si Si4 0.781331 0.853748 0.140338
Si Si5 0.365540 0.491692 0.942065
Si Si6 0.279259 0.544099 0.211342
Si Si7 0.388137 0.861956 0.649833
Si Si8 0.540288 0.879370 0.178803
O O1 0.866292 0.820209 0.305676
O O2 0.789446 0.662409 0.624474
O O3 0.003140 0.697754 0.558520
O O4 0.000000 0.000000 0.500000
O O5 0.800045 0.342392 0.867661
O O6 0.042264 0.439135 0.853227
O O7 0.907012 0.246739 0.164750
O O8 0.866927 0.071606 0.988407
O O9 0.233642 0.764683 0.617237
O O10 0.743726 0.699251 0.076095
O O11 0.647881 0.833690 0.171639
O O12 0.412781 0.685982 0.764828
O O13 0.500000 0.500000 0.000000
O O14 0.301748 0.508586 0.066356
O O15 0.412495 0.672818 0.276162
O O16 0.500000 0.000000 0.500000
O O17 0.402077 0.993449 0.725237
O O18 0.500000 0.000000 0.000000
#
# Coordination Sequence:
#
# PCOD8001040 Si02
#       8
#     2   2   2   2   2   2   2   2
#     4  11  24  41  67  99 136 175 224 284 339 396
#     4  10  19  40  77  92 123 184 236 262 315 427
#     4  10  20  43  70  93 128 182 233 262 329 416
#     4  12  23  40  69 108 135 169 226 287 344 386
#     4  12  25  43  63 105 139 169 222 291 341 386
#     4  11  23  42  71  94 132 183 229 271 332 412
#     4  12  26  44  70  98 139 174 219 283 342 399
#     4  12  20  43  72  96 126 184 238 262 328 422
#
# _framework density 21.822538000000002
#
# number of rings (size 3 to 8) (size 9 to 14) (size 15 to 20)
#    0.000    0.750    7.500    0.000    1.750    2.500 
#    0.000    3.125    0.000    0.000    0.000    0.000 
#    0.000    0.000    0.000    0.000    0.000    0.000 
#
# Total GULP energy -198293.938877 kJ/mol
# GULP energy per Si atom -12393.371180 kJ/mol
# Density = 2.177287 g / cm^3
# Si number density = 21.822538 Si / 1000 Ang^3
#
#
#
# Elastic Constant Matrix: (Units=GPa)
#
#
# Indices 1 2 3 4 5 6 
#
# 1 111.3207 32.9994 46.4012 -15.5765 2.6983 22.1422
# 2 32.9994 161.3390 41.9467 -29.9039 -1.0601 15.9481
# 3 46.4012 41.9467 75.3260 -26.7503 4.8556 8.5531
# 4 -15.5765 -29.9039 -26.7503 37.3931 13.3204 -3.3937
# 5 2.6983 -1.0601 4.8556 13.3204 36.7548 -6.1120
# 6 22.1422 15.9481 8.5531 -3.3937 -6.1120 40.7990
#
#
#
# Elastic Compliance Matrix: (Units=1/GPa)
#
#
# Indices 1 2 3 4 5 6 
#
# 1 0.013270 -0.000269 -0.007378 -0.000164 -0.000895 -0.005698
# 2 -0.000269 0.007974 -0.002036 0.005222 -0.001769 -0.002375
# 3 -0.007378 -0.002036 0.025544 0.016748 -0.009047 -0.000517
# 4 -0.000164 0.005222 0.016748 0.049859 -0.020858 -0.004441
# 5 -0.000895 -0.001769 -0.009047 -0.020858 0.037124 0.006901
# 6 -0.005698 -0.002375 -0.000517 -0.004441 0.006901 0.029304
#
#
# Mechanical properties :
#
#
# Convention : Reuss Voigt Hill
#
# Bulk Modulus (GPa) = 36.46819 65.63114 51.04967
# Shear Modulus (GPa) = 26.09842 38.09861 32.09851
#
# Velocity S-wave (km/s) = 3.46199 4.18286 3.83938
# Velocity P-wave (km/s) = 5.72084 7.31222 6.56493
#
# Compressibility (1/GPa) = 0.02742116
#
# Stress axis : x y z
#
# Youngs Moduli (GPa) = 75.35598 125.41321 39.14799
#
# Poissons Ratio (x) = 0.03373 0.28884
# Poissons Ratio (y) = 0.02027 0.07972
# Poissons Ratio (z) = 0.55599 0.25538
#
# Static dielectric constant tensor:
#      x y z
#    x 3.911200 0.449850 0.119630 
#    y 0.449850 4.326090 -0.372920 
#    z 0.119630 -0.372920 4.057070 
# 
# 
# High freq. dielectric constant tensor:
#      x y z
#    x 1.866440 0.018760 0.013130 
#    y 0.018760 1.874660 -0.021960 
#    z 0.013130 -0.021960 1.838230 
# 
# From -- ./inp_files/242579.got.cif
#   From: 2010.06.25/outbox.cif.g09.slc.cpg/sg2_122_cif.got.tgz:242579.got - 2010.06.27 13:26:56.
