data_PCOD8001922
_publ_section_title
;
Structure prediction by ZEFSAII (Michael W. Deem and Ramdas Pophale) SiO2 
 PCOD8001922
Probable space group: P -1
;
_chemical_formula_sum "Si O2"
_cell_formula_units_Z 14
_cell_length_a 17.359853
_cell_length_b 11.916970
_cell_length_c 8.627748
_cell_angle_alpha 87.535033
_cell_angle_beta 108.903566
_cell_angle_gamma 31.678412
_cell_volume 680.266395
_symmetry_space_group_name_H-M "P -1"
_symmetry_group_IT_number 2
_symmetry_cell_setting 'triclinic'
loop_
_space_group_symop_operation_xyz
x,y,z
-x,-y,-z
loop_
_atom_site_type_symbol
_atom_site_label
_atom_site_fract_x
_atom_site_fract_y
_atom_site_fract_z
Si Si1 0.278440 0.135160 0.558065
Si Si2 0.435684 0.177541 0.748170
Si Si3 0.700763 0.115849 0.937513
Si Si4 0.553551 0.675341 0.996487
Si Si5 0.214134 0.740985 0.078353
Si Si6 0.485641 0.279763 0.520807
Si Si7 0.901122 0.641773 0.093852
O O1 0.329206 0.195003 0.648354
O O2 0.042178 0.417659 0.340430
O O3 0.350306 0.957215 0.746839
O O4 0.404750 0.952229 0.496855
O O5 0.361374 0.360631 0.558171
O O6 0.368811 0.310745 0.864783
O O7 0.681706 0.859250 0.933360
O O8 0.768342 0.157890 0.987407
O O9 0.639899 0.164778 0.718738
O O10 0.514075 0.333524 0.922506
O O11 0.879753 0.801764 0.109780
O O12 0.739819 0.400316 0.027106
O O13 0.361975 0.525253 0.327076
O O14 0.000000 0.000000 0.000000
O O15 0.000000 0.500000 0.000000
#
# Coordination Sequence:
#
# PCOD8001922 Si02
#       7
#     2   2   2   2   2   2   2
#     4  11  19  36  64  88 125 162 196 245 299 366
#     4  10  21  36  60  89 129 159 193 254 302 357
#     4  10  21  40  61  84 126 160 193 255 296 361
#     4   9  22  41  58  89 124 163 198 243 314 358
#     4  11  23  38  65  88 112 155 214 254 296 357
#     4   9  20  37  58  88 116 162 201 240 307 354
#     4  10  20  34  59  95 121 156 208 237 300 366
#
# _framework density 20.580172000000001
#
# number of rings (size 3 to 8) (size 9 to 14) (size 15 to 20)
#    0.000    2.286    2.857    1.714    2.000    3.429 
#    0.000    2.857   12.571    0.000    0.000    0.000 
#    0.000    0.000    0.000    0.000    0.000    0.000 
#
# Total GULP energy -173448.397595 kJ/mol
# GULP energy per Si atom -12389.171257 kJ/mol
# Density = 2.053333 g / cm^3
# Si number density = 20.580172 Si / 1000 Ang^3
#
#
#
# Elastic Constant Matrix: (Units=GPa)
#
#
# Indices 1 2 3 4 5 6 
#
# 1 66.2457 31.3070 18.1517 1.4658 7.0898 -0.7356
# 2 31.3070 139.3891 35.1202 13.3137 3.3986 -2.0338
# 3 18.1517 35.1202 77.5728 10.0687 -4.1291 0.2121
# 4 1.4658 13.3137 10.0687 34.2911 1.5066 -3.1014
# 5 7.0898 3.3986 -4.1291 1.5066 27.9220 2.0034
# 6 -0.7356 -2.0338 0.2121 -3.1014 2.0034 21.8867
#
#
#
# Elastic Compliance Matrix: (Units=1/GPa)
#
#
# Indices 1 2 3 4 5 6 
#
# 1 0.018011 -0.003268 -0.003221 0.001749 -0.004819 0.001022
# 2 -0.003268 0.008911 -0.002995 -0.002372 -0.000603 0.000466
# 3 -0.003221 -0.002995 0.015673 -0.003594 0.003794 -0.001395
# 4 0.001749 -0.002372 -0.003594 0.031599 -0.002722 0.004600
# 5 -0.004819 -0.000603 0.003794 -0.002722 0.038115 -0.004129
# 6 0.001022 0.000466 -0.001395 0.004600 -0.004129 0.046811
#
#
# Mechanical properties :
#
#
# Convention : Reuss Voigt Hill
#
# Bulk Modulus (GPa) = 42.32630 50.26283 46.29457
# Shear Modulus (GPa) = 26.88679 30.06187 28.47433
#
# Velocity S-wave (km/s) = 3.61839 3.82608 3.72369
# Velocity P-wave (km/s) = 6.16995 6.63284 6.40557
#
# Compressibility (1/GPa) = 0.02362597
#
# Stress axis : x y z
#
# Youngs Moduli (GPa) = 55.52177 112.22169 63.80348
#
# Poissons Ratio (x) = 0.36678 0.20552
# Poissons Ratio (y) = 0.18146 0.19110
# Poissons Ratio (z) = 0.17884 0.33611
#
# Static dielectric constant tensor:
#      x y z
#    x 2.934190 -0.541330 0.743080 
#    y -0.541330 3.207750 1.371120 
#    z 0.743080 1.371120 2.091520 
# 
# 
# High freq. dielectric constant tensor:
#      x y z
#    x 1.781100 0.004900 -0.022550 
#    y 0.004900 1.812800 0.020220 
#    z -0.022550 0.020220 1.806590 
# 
# From -- ./inp_files/332075.got.cif
#   From: 2010.06.25/outbox.cif.g09.slc.cpg/sg2_167_cif.got.tgz:332075.got - 2010.06.27 13:26:56.
