data_PCOD8001128
_publ_section_title
;
Structure prediction by ZEFSAII (Michael W. Deem and Ramdas Pophale) SiO2 
 PCOD8001128
Probable space group: P -1
;
_chemical_formula_sum "Si O2"
_cell_formula_units_Z 16
_cell_length_a 9.044528
_cell_length_b 12.026850
_cell_length_c 12.042212
_cell_angle_alpha 65.834410
_cell_angle_beta 120.127752
_cell_angle_gamma 71.133967
_cell_volume 767.207277
_symmetry_space_group_name_H-M "P -1"
_symmetry_group_IT_number 2
_symmetry_cell_setting 'triclinic'
loop_
_space_group_symop_operation_xyz
x,y,z
-x,-y,-z
loop_
_atom_site_type_symbol
_atom_site_label
_atom_site_fract_x
_atom_site_fract_y
_atom_site_fract_z
Si Si1 0.951968 0.392647 0.970843
Si Si2 0.582706 0.910367 0.825601
Si Si3 0.280625 0.520114 0.391615
Si Si4 0.389747 0.242113 0.692794
Si Si5 0.057538 0.110720 0.494518
Si Si6 0.579584 0.165665 0.019657
Si Si7 0.063327 0.208145 0.679750
Si Si8 0.733534 0.340958 0.098763
O O1 0.805623 0.463724 0.772478
O O2 0.794803 0.390039 0.994870
O O3 0.000000 0.500000 0.000000
O O4 0.202641 0.211141 0.125277
O O5 0.616569 0.801903 0.988158
O O6 0.579283 0.054536 0.797693
O O7 0.333763 0.997997 0.641679
O O8 0.500000 0.500000 0.500000
O O9 0.332324 0.363640 0.525369
O O10 0.089150 0.686113 0.317109
O O11 0.161010 0.283281 0.629185
O O12 0.481069 0.268245 0.826464
O O13 0.940562 0.199633 0.533149
O O14 0.942639 0.252075 0.300956
O O15 0.000000 0.000000 0.500000
O O16 0.710583 0.209801 0.114285
O O17 0.742852 0.975071 0.125871
O O18 0.500000 0.500000 0.000000
#
# Coordination Sequence:
#
# PCOD8001128 Si02
#       8
#     2   2   2   2   2   2   2   2
#     4  12  29  46  66  98 141 182 221 284 341 395
#     4  10  22  44  69  97 134 169 224 281 334 398
#     4  12  27  44  62 102 139 177 223 279 338 395
#     4  10  21  40  68  95 128 171 225 265 333 397
#     4  10  21  43  71 103 127 178 227 276 331 402
#     4  10  19  41  68  97 124 178 217 272 328 401
#     4  10  22  39  71  92 132 172 221 275 324 400
#     4  12  26  42  68  97 136 177 228 270 340 408
#
# _framework density 20.854859999999999
#
# number of rings (size 3 to 8) (size 9 to 14) (size 15 to 20)
#    0.000    1.500    2.500    4.875    7.000    1.500 
#    0.000    2.500    0.000    0.000    0.000    0.000 
#    0.000    0.000    0.000    0.000    0.000    0.000 
#
# Total GULP energy -198297.636566 kJ/mol
# GULP energy per Si atom -12393.602285 kJ/mol
# Density = 2.080739 g / cm^3
# Si number density = 20.854860 Si / 1000 Ang^3
#
#
#
# Elastic Constant Matrix: (Units=GPa)
#
#
# Indices 1 2 3 4 5 6 
#
# 1 117.9669 58.3479 47.6338 -8.1059 -6.5150 -14.1770
# 2 58.3479 115.4654 45.4370 12.9969 3.5506 -10.5544
# 3 47.6338 45.4370 142.4268 22.0267 -14.4049 -9.1111
# 4 -8.1059 12.9969 22.0267 36.0755 -2.2583 2.7427
# 5 -6.5150 3.5506 -14.4049 -2.2583 35.9559 0.4095
# 6 -14.1770 -10.5544 -9.1111 2.7427 0.4095 38.7604
#
#
#
# Elastic Compliance Matrix: (Units=1/GPa)
#
#
# Indices 1 2 3 4 5 6 
#
# 1 0.013907 -0.006418 -0.003412 0.007509 0.002236 0.001982
# 2 -0.006418 0.013364 -0.001503 -0.005660 -0.003456 0.001375
# 3 -0.003412 -0.001503 0.009989 -0.006212 0.003130 0.001097
# 4 0.007509 -0.005660 -0.006212 0.035557 0.001696 -0.002789
# 5 0.002236 -0.003456 0.003130 0.001696 0.029916 0.000176
# 6 0.001982 0.001375 0.001097 -0.002789 0.000176 0.027352
#
#
# Mechanical properties :
#
#
# Convention : Reuss Voigt Hill
#
# Bulk Modulus (GPa) = 68.52128 75.41071 71.96600
# Shear Modulus (GPa) = 31.72259 37.12106 34.42182
#
# Velocity S-wave (km/s) = 3.90438 4.22355 4.06709
# Velocity P-wave (km/s) = 7.29747 7.74744 7.52582
#
# Compressibility (1/GPa) = 0.01459401
#
# Stress axis : x y z
#
# Youngs Moduli (GPa) = 71.90864 74.82669 100.10711
#
# Poissons Ratio (x) = 0.48020 0.34157
# Poissons Ratio (y) = 0.46147 0.15050
# Poissons Ratio (z) = 0.24536 0.11250
#
# Static dielectric constant tensor:
#      x y z
#    x 3.900260 -0.146660 0.147380 
#    y -0.146660 4.119870 0.021290 
#    z 0.147380 0.021290 4.251770 
# 
# 
# High freq. dielectric constant tensor:
#      x y z
#    x 1.802450 0.008000 -0.003950 
#    y 0.008000 1.830950 0.010760 
#    z -0.003950 0.010760 1.827350 
# 
# From -- ./inp_files/389802.got.cif
#   From: 2010.06.25/outbox.cif.g09.slc.cpg/sg2_195_cif.got.tgz:389802.got - 2010.06.27 13:26:56.
