data_PCOD8001410
_publ_section_title
;
Structure prediction by ZEFSAII (Michael W. Deem and Ramdas Pophale) SiO2 
 PCOD8001410
Probable space group: P -1
;
_chemical_formula_sum "Si O2"
_cell_formula_units_Z 16
_cell_length_a 17.313962
_cell_length_b 11.350086
_cell_length_c 13.245375
_cell_angle_alpha 105.772255
_cell_angle_beta 132.694349
_cell_angle_gamma 35.782641
_cell_volume 852.423969
_symmetry_space_group_name_H-M "P -1"
_symmetry_group_IT_number 2
_symmetry_cell_setting 'triclinic'
loop_
_space_group_symop_operation_xyz
x,y,z
-x,-y,-z
loop_
_atom_site_type_symbol
_atom_site_label
_atom_site_fract_x
_atom_site_fract_y
_atom_site_fract_z
Si Si1 0.511932 0.614559 0.673018
Si Si2 0.261515 0.264684 0.046123
Si Si3 0.030525 0.303701 0.955743
Si Si4 0.330050 0.286133 0.438325
Si Si5 0.995989 0.146708 0.031660
Si Si6 0.035038 0.443390 0.682497
Si Si7 0.546721 0.304931 0.591004
Si Si8 0.260680 0.098991 0.616364
O O1 0.483002 0.498248 0.638106
O O2 0.555252 0.589984 0.586584
O O3 0.298650 0.913533 0.593013
O O4 0.729655 0.452430 0.885701
O O5 0.047735 0.558176 0.973098
O O6 0.507942 0.065382 0.239269
O O7 0.250974 0.141328 0.063488
O O8 0.208122 0.312791 0.890815
O O9 0.817163 0.539017 0.749900
O O10 0.081122 0.111517 0.988836
O O11 0.171873 0.420738 0.424277
O O12 0.457587 0.282384 0.572274
O O13 0.500000 0.000000 0.500000
O O14 0.178706 0.997256 0.243895
O O15 0.000000 0.000000 0.000000
O O16 0.932730 0.661852 0.578902
O O17 0.178046 0.206829 0.681620
#
# Coordination Sequence:
#
# PCOD8001410 Si02
#       8
#     2   2   2   2   2   2   2   2
#     4  10  20  36  53  79 107 146 177 224 268 326
#     4  10  20  34  54  76 111 139 169 226 273 318
#     4  10  20  32  52  87 108 132 181 218 278 325
#     4  11  21  35  56  83 113 139 172 231 281 319
#     4  10  20  33  51  82 111 136 175 220 266 329
#     4  10  24  35  52  83 104 144 186 222 268 331
#     4  10  21  33  55  81 110 138 179 221 281 317
#     4  11  21  38  54  73 112 146 186 220 267 327
#
# _framework density 18.770001000000001
#
# number of rings (size 3 to 8) (size 9 to 14) (size 15 to 20)
#    0.000    1.750    2.500    1.875    8.750    0.000 
#    0.000    0.625    0.000    0.000    0.000    3.500 
#    0.000    0.000    0.000    0.000    0.000    0.000 
#
# Total GULP energy -198232.956801 kJ/mol
# GULP energy per Si atom -12389.559800 kJ/mol
# Density = 1.872728 g / cm^3
# Si number density = 18.770001 Si / 1000 Ang^3
#
#
#
# Elastic Constant Matrix: (Units=GPa)
#
#
# Indices 1 2 3 4 5 6 
#
# 1 94.7680 40.4232 15.9277 -1.5358 0.8093 14.5346
# 2 40.4232 103.2319 23.7786 -2.1249 -2.6033 5.5774
# 3 15.9277 23.7786 49.1774 2.9715 -1.4455 6.1221
# 4 -1.5358 -2.1249 2.9715 21.7605 -1.2249 -4.3174
# 5 0.8093 -2.6033 -1.4455 -1.2249 32.0600 0.4487
# 6 14.5346 5.5774 6.1221 -4.3174 0.4487 30.7519
#
#
#
# Elastic Compliance Matrix: (Units=1/GPa)
#
#
# Indices 1 2 3 4 5 6 
#
# 1 0.013639 -0.004744 -0.001456 -0.000403 -0.000736 -0.005342
# 2 -0.004744 0.012652 -0.004807 0.001840 0.000985 0.001148
# 3 -0.001456 -0.004807 0.023903 -0.004566 0.000604 -0.003848
# 4 -0.000403 0.001840 -0.004566 0.048318 0.001694 0.007525
# 5 -0.000736 0.000985 0.000604 0.001694 0.031384 -0.000171
# 6 -0.005342 0.001148 -0.003848 0.007525 -0.000171 0.036660
#
#
# Mechanical properties :
#
#
# Convention : Reuss Voigt Hill
#
# Bulk Modulus (GPa) = 35.48367 45.27070 40.37719
# Shear Modulus (GPa) = 25.25721 28.05099 26.65410
#
# Velocity S-wave (km/s) = 3.67224 3.87002 3.77243
# Velocity P-wave (km/s) = 6.07668 6.64382 6.36657
#
# Compressibility (1/GPa) = 0.02818198
#
# Stress axis : x y z
#
# Youngs Moduli (GPa) = 73.31756 79.03734 41.83590
#
# Poissons Ratio (x) = 0.37493 0.06092
# Poissons Ratio (y) = 0.34779 0.20108
# Poissons Ratio (z) = 0.10676 0.37989
#
# Static dielectric constant tensor:
#      x y z
#    x 3.941750 0.208820 0.255580 
#    y 0.208820 3.542320 -0.832480 
#    z 0.255580 -0.832480 6.018150 
# 
# 
# High freq. dielectric constant tensor:
#      x y z
#    x 1.726920 0.027130 -0.001260 
#    y 0.027130 1.690390 -0.008510 
#    z -0.001260 -0.008510 1.748880 
# 
# From -- ./inp_files/464501.got.cif
#   From: 2010.06.25/outbox.cif.g09.slc.cpg/sg2_233_cif.got.tgz:464501.got - 2010.06.27 13:26:56.
