data_PCOD8001296
_publ_section_title
;
Structure prediction by ZEFSAII (Michael W. Deem and Ramdas Pophale) SiO2 
 PCOD8001296
Probable space group: P -1
;
_chemical_formula_sum "Si O2"
_cell_formula_units_Z 16
_cell_length_a 14.636088
_cell_length_b 8.872596
_cell_length_c 9.189324
_cell_angle_alpha 142.991989
_cell_angle_beta 102.860157
_cell_angle_gamma 82.660067
_cell_volume 697.733057
_symmetry_space_group_name_H-M "P -1"
_symmetry_group_IT_number 2
_symmetry_cell_setting 'triclinic'
loop_
_space_group_symop_operation_xyz
x,y,z
-x,-y,-z
loop_
_atom_site_type_symbol
_atom_site_label
_atom_site_fract_x
_atom_site_fract_y
_atom_site_fract_z
Si Si1 0.140451 0.701680 0.383830
Si Si2 0.005719 0.376553 0.250159
Si Si3 0.286527 0.402170 0.039264
Si Si4 0.586983 0.131990 0.547420
Si Si5 0.153272 0.026232 0.133733
Si Si6 0.730576 0.089907 0.173272
Si Si7 0.219735 0.113907 0.537359
Si Si8 0.546347 0.232115 0.290173
O O1 0.035971 0.571703 0.279970
O O2 0.174657 0.793058 0.626963
O O3 0.138309 0.930162 0.445669
O O4 0.214251 0.516896 0.210134
O O5 0.000000 0.500000 0.500000
O O6 0.088182 0.189926 0.140581
O O7 0.906109 0.239529 0.059656
O O8 0.236188 0.364593 0.833986
O O9 0.312025 0.145987 0.926510
O O10 0.385048 0.572169 0.181513
O O11 0.555916 0.104892 0.350633
O O12 0.500000 0.000000 0.500000
O O13 0.680965 0.003625 0.521211
O O14 0.184835 0.167570 0.403979
O O15 0.246243 0.981490 0.039298
O O16 0.650799 0.289794 0.301304
O O17 0.500000 0.500000 0.500000
O O18 0.500000 0.000000 0.000000
#
# Coordination Sequence:
#
# PCOD8001296 Si02
#       8
#     2   2   2   2   2   2   2   2
#     4  10  20  41  71  91 131 188 223 282 355 417
#     4  11  23  41  67 103 143 174 233 296 352 422
#     4  10  19  44  70  91 133 192 227 284 360 429
#     4  11  25  46  64  99 142 177 232 298 359 423
#     4  11  25  41  68 107 135 179 237 292 354 423
#     4  11  21  43  72  96 138 184 243 287 354 431
#     4  10  24  43  67  97 135 184 236 280 362 429
#     4  12  27  46  73 108 140 187 249 300 363 436
#
# _framework density 22.931404000000001
#
# number of rings (size 3 to 8) (size 9 to 14) (size 15 to 20)
#    0.000    1.250    6.250    0.750    1.750    3.000 
#    0.000    1.250    0.000    0.000    0.000    0.000 
#    0.000    0.000    0.000    0.000    0.000    0.000 
#
# Total GULP energy -198257.289998 kJ/mol
# GULP energy per Si atom -12391.080625 kJ/mol
# Density = 2.287921 g / cm^3
# Si number density = 22.931404 Si / 1000 Ang^3
#
#
#
# Elastic Constant Matrix: (Units=GPa)
#
#
# Indices 1 2 3 4 5 6 
#
# 1 94.4710 45.3678 29.6804 4.7357 -1.3998 31.0748
# 2 45.3678 69.2154 44.2789 -16.1133 9.8863 21.1521
# 3 29.6804 44.2789 144.1006 -10.2805 6.3974 17.1580
# 4 4.7357 -16.1133 -10.2805 42.4916 1.4925 1.8051
# 5 -1.3998 9.8863 6.3974 1.4925 36.6335 3.3859
# 6 31.0748 21.1521 17.1580 1.8051 3.3859 43.9341
#
#
#
# Elastic Compliance Matrix: (Units=1/GPa)
#
#
# Indices 1 2 3 4 5 6 
#
# 1 0.019844 -0.013047 0.000134 -0.006975 0.005273 -0.007926
# 2 -0.013047 0.031708 -0.005329 0.012643 -0.008285 -0.003837
# 3 0.000134 -0.005329 0.008665 0.000099 0.000011 -0.000918
# 4 -0.006975 0.012643 0.000099 0.029382 -0.004705 -0.002037
# 5 0.005273 -0.008285 0.000011 -0.004705 0.030098 -0.001871
# 6 -0.007926 -0.003837 -0.000918 -0.002037 -0.001871 0.030801
#
#
# Mechanical properties :
#
#
# Convention : Reuss Voigt Hill
#
# Bulk Modulus (GPa) = 42.13640 60.71567 51.42604
# Shear Modulus (GPa) = 25.65500 37.17584 31.41542
#
# Velocity S-wave (km/s) = 3.34843 4.03075 3.70533
# Velocity P-wave (km/s) = 5.77618 6.94242 6.38598
#
# Compressibility (1/GPa) = 0.02373245
#
# Stress axis : x y z
#
# Youngs Moduli (GPa) = 50.39356 31.53765 115.40057
#
# Poissons Ratio (x) = 0.41148 -0.01546
# Poissons Ratio (y) = 0.65750 0.61499
# Poissons Ratio (z) = -0.00675 0.16807
#
# Static dielectric constant tensor:
#      x y z
#    x 4.355060 -0.167850 0.260790 
#    y -0.167850 4.440750 -0.082200 
#    z 0.260790 -0.082200 4.898690 
# 
# 
# High freq. dielectric constant tensor:
#      x y z
#    x 1.899230 0.014370 -0.004170 
#    y 0.014370 1.886530 -0.000480 
#    z -0.004170 -0.000480 1.922150 
# 
# From -- ./inp_files/282970.got.cif
#   From: 2010.06.25/outbox.cif.g09.slc.cpg/sg2_142_cif.got.tgz:282970.got - 2010.06.27 13:26:56.
