data_PCOD8001349
_publ_section_title
;
Structure prediction by ZEFSAII (Michael W. Deem and Ramdas Pophale) SiO2 
 PCOD8001349
Probable space group: P -1
;
_chemical_formula_sum "Si O2"
_cell_formula_units_Z 14
_cell_length_a 5.242163
_cell_length_b 26.260433
_cell_length_c 10.250513
_cell_angle_alpha 142.780443
_cell_angle_beta 68.051332
_cell_angle_gamma 97.719473
_cell_volume 757.380483
_symmetry_space_group_name_H-M "P -1"
_symmetry_group_IT_number 2
_symmetry_cell_setting 'triclinic'
loop_
_space_group_symop_operation_xyz
x,y,z
-x,-y,-z
loop_
_atom_site_type_symbol
_atom_site_label
_atom_site_fract_x
_atom_site_fract_y
_atom_site_fract_z
Si Si1 0.433017 0.722039 0.325943
Si Si2 0.616557 0.517920 0.875411
Si Si3 0.477447 0.158990 0.680221
Si Si4 0.474106 0.233717 0.097189
Si Si5 0.248476 0.418132 0.606096
Si Si6 0.026903 0.909699 0.382030
Si Si7 0.206228 0.271756 0.486845
O O1 0.503494 0.771451 0.289108
O O2 0.563441 0.755868 0.497372
O O3 0.092048 0.743176 0.446316
O O4 0.580326 0.619527 0.065499
O O5 0.436144 0.483952 0.731449
O O6 0.953102 0.467620 0.691496
O O7 0.500000 0.500000 0.000000
O O8 0.795249 0.095299 0.526691
O O9 0.287390 0.098270 0.541475
O O10 0.329349 0.210442 0.945046
O O11 0.441660 0.338516 0.316452
O O12 0.321041 0.212246 0.214515
O O13 0.806029 0.173260 0.911040
O O14 0.168540 0.374771 0.667750
O O15 0.000000 0.000000 0.500000
#
# Coordination Sequence:
#
# PCOD8001349 Si02
#       7
#     2   2   2   2   2   2   2
#     4  12  22  35  56  87 118 156 185 244 283 318
#     4  12  18  32  50  81 114 154 204 225 262 326
#     4  10  23  38  60  87 120 138 190 235 296 334
#     4   8  22  36  61  83 112 146 196 229 281 342
#     4  10  20  31  53  80 107 149 199 239 250 319
#     4  10  21  40  69  86 105 146 193 231 276 364
#     4  10  20  34  58  80 112 156 193 229 280 325
#
# _framework density 18.484763999999998
#
# number of rings (size 3 to 8) (size 9 to 14) (size 15 to 20)
#    1.714    0.000    2.857    2.571    4.000    0.000 
#    0.000    1.429    0.000    5.143    0.000    0.000 
#    0.000    0.000    0.000    0.000    0.000    0.000 
#
# Total GULP energy -173460.933892 kJ/mol
# GULP energy per Si atom -12390.066707 kJ/mol
# Density = 1.844269 g / cm^3
# Si number density = 18.484764 Si / 1000 Ang^3
#
#
#
# Elastic Constant Matrix: (Units=GPa)
#
#
# Indices 1 2 3 4 5 6 
#
# 1 149.7187 49.6779 18.3300 -6.1978 1.0635 5.9104
# 2 49.6779 127.2560 13.7262 -3.0549 2.0632 0.1786
# 3 18.3300 13.7262 31.0763 -11.5400 -1.7508 0.3486
# 4 -6.1978 -3.0549 -11.5400 12.7018 -5.9518 0.0956
# 5 1.0635 2.0632 -1.7508 -5.9518 12.3880 1.2361
# 6 5.9104 0.1786 0.3486 0.0956 1.2361 23.2653
#
#
#
# Elastic Compliance Matrix: (Units=1/GPa)
#
#
# Indices 1 2 3 4 5 6 
#
# 1 0.008119 -0.002757 -0.003787 -0.000515 -0.000827 -0.001939
# 2 -0.002757 0.009419 -0.005097 -0.006100 -0.005083 0.001000
# 3 -0.003787 -0.005097 0.072489 0.088165 0.054109 -0.003322
# 4 -0.000515 -0.006100 0.088165 0.211507 0.115955 -0.008173
# 5 -0.000827 -0.005083 0.054109 0.115955 0.145876 -0.008788
# 6 -0.001939 0.001000 -0.003322 -0.008173 -0.008788 0.044018
#
#
# Mechanical properties :
#
#
# Convention : Reuss Voigt Hill
#
# Bulk Modulus (GPa) = 14.98244 52.39102 33.68673
# Shear Modulus (GPa) = 9.31173 24.75879 17.03526
#
# Velocity S-wave (km/s) = 2.24688 3.66377 3.03905
# Velocity P-wave (km/s) = 3.85411 6.80456 5.52974
#
# Compressibility (1/GPa) = 0.06674482
#
# Stress axis : x y z
#
# Youngs Moduli (GPa) = 123.17151 106.17058 13.79519
#
# Poissons Ratio (x) = 0.29273 0.05225
# Poissons Ratio (y) = 0.33960 0.07031
# Poissons Ratio (z) = 0.46647 0.54111
#
# Static dielectric constant tensor:
#      x y z
#    x 3.536300 -0.075940 0.000720 
#    y -0.075940 3.152420 0.054920 
#    z 0.000720 0.054920 3.122130 
# 
# 
# High freq. dielectric constant tensor:
#      x y z
#    x 1.731400 -0.005660 -0.000480 
#    y -0.005660 1.694140 0.004690 
#    z -0.000480 0.004690 1.688400 
# 
# From -- ./inp_files/142062.got.cif
#   From: 2010.06.25/outbox.cif.g09.slc.cpg/sg2_72_cif.got.tgz:142062.got - 2010.06.27 13:26:56.
