data_PCOD8001546
_publ_section_title
;
Structure prediction by ZEFSAII (Michael W. Deem and Ramdas Pophale) SiO2 
 PCOD8001546
Probable space group: P -1
;
_chemical_formula_sum "Si O2"
_cell_formula_units_Z 16
_cell_length_a 11.558105
_cell_length_b 9.208573
_cell_length_c 12.423909
_cell_angle_alpha 51.487014
_cell_angle_beta 61.834014
_cell_angle_gamma 93.049890
_cell_volume 788.237883
_symmetry_space_group_name_H-M "P -1"
_symmetry_group_IT_number 2
_symmetry_cell_setting 'triclinic'
loop_
_space_group_symop_operation_xyz
x,y,z
-x,-y,-z
loop_
_atom_site_type_symbol
_atom_site_label
_atom_site_fract_x
_atom_site_fract_y
_atom_site_fract_z
Si Si1 0.254831 0.596951 0.458837
Si Si2 0.452140 0.087825 0.382014
Si Si3 0.339321 0.620676 0.180169
Si Si4 0.604474 0.563320 0.140124
Si Si5 0.334345 0.341775 0.688941
Si Si6 0.413687 0.005503 0.830978
Si Si7 0.142618 0.848638 0.516123
Si Si8 0.180138 0.282813 0.220929
O O1 0.229248 0.531975 0.374102
O O2 0.224428 0.390544 0.640414
O O3 0.426971 0.791728 0.299628
O O4 0.140882 0.675618 0.513106
O O5 0.473580 0.315897 0.299387
O O6 0.500000 0.000000 0.500000
O O7 0.563297 0.118444 0.220474
O O8 0.277297 0.919998 0.509916
O O9 0.514351 0.691254 0.099755
O O10 0.277799 0.432466 0.206774
O O11 0.340943 0.833171 0.038454
O O12 0.679594 0.607782 0.204047
O O13 0.739608 0.622082 0.971009
O O14 0.500000 0.500000 0.500000
O O15 0.300449 0.096000 0.807884
O O16 0.984190 0.736861 0.701165
O O17 0.164982 0.051557 0.345357
#
# Coordination Sequence:
#
# PCOD8001546 Si02
#       8
#     2   2   2   2   2   2   2   2
#     4  10  21  37  60  87 117 162 199 249 300 356
#     4  11  21  36  63  90 118 160 203 253 298 362
#     4  12  21  35  61  91 120 150 209 256 292 354
#     4  12  20  36  62  92 122 151 207 256 299 352
#     4  10  20  36  56  91 123 151 196 254 308 345
#     4  10  20  33  54  92 120 146 195 258 302 341
#     4  10  23  42  59  87 128 158 206 237 319 362
#     4  11  24  39  59  92 125 164 191 257 305 367
#
# _framework density 20.298441
#
# number of rings (size 3 to 8) (size 9 to 14) (size 15 to 20)
#    0.000    1.250    5.000    4.500    1.750    0.500 
#    0.000    2.500    0.000    0.750    0.000    0.000 
#    0.000    0.000    0.000    0.000    0.000    0.000 
#
# Total GULP energy -198396.034842 kJ/mol
# GULP energy per Si atom -12399.752178 kJ/mol
# Density = 2.025224 g / cm^3
# Si number density = 20.298441 Si / 1000 Ang^3
#
#
#
# Elastic Constant Matrix: (Units=GPa)
#
#
# Indices 1 2 3 4 5 6 
#
# 1 85.2272 41.2923 60.9325 18.0250 16.2257 -16.8826
# 2 41.2923 82.9689 35.1227 13.3082 16.2062 -26.0055
# 3 60.9325 35.1227 98.1638 16.6000 20.3998 -11.4730
# 4 18.0250 13.3082 16.6000 37.9216 -4.7108 9.2423
# 5 16.2257 16.2062 20.3998 -4.7108 35.5067 -1.0281
# 6 -16.8826 -26.0055 -11.4730 9.2423 -1.0281 31.8892
#
#
#
# Elastic Compliance Matrix: (Units=1/GPa)
#
#
# Indices 1 2 3 4 5 6 
#
# 1 0.026236 -0.002207 -0.011432 -0.009972 -0.005427 0.010692
# 2 -0.002207 0.025127 0.000090 -0.014958 -0.011822 0.023309
# 3 -0.011432 0.000090 0.019665 -0.004571 -0.006658 0.002206
# 4 -0.009972 -0.014958 -0.004571 0.048736 0.019532 -0.032617
# 5 -0.005427 -0.011822 -0.006658 0.019532 0.041900 -0.019219
# 6 0.010692 0.023309 0.002206 -0.032617 -0.019219 0.065655
#
#
# Mechanical properties :
#
#
# Convention : Reuss Voigt Hill
#
# Bulk Modulus (GPa) = 22.76301 60.11721 41.44011
# Shear Modulus (GPa) = 18.58315 29.66432 24.12373
#
# Velocity S-wave (km/s) = 3.02900 3.82698 3.45113
# Velocity P-wave (km/s) = 4.84475 7.01489 6.02828
#
# Compressibility (1/GPa) = 0.04393092
#
# Stress axis : x y z
#
# Youngs Moduli (GPa) = 38.11571 39.79727 50.85092
#
# Poissons Ratio (x) = 0.08783 0.58131
# Poissons Ratio (y) = 0.08412 -0.00457
# Poissons Ratio (z) = 0.43573 -0.00358
#
# Static dielectric constant tensor:
#      x y z
#    x 3.851130 -0.427840 0.258920 
#    y -0.427840 4.020340 0.103070 
#    z 0.258920 0.103070 3.736540 
# 
# 
# High freq. dielectric constant tensor:
#      x y z
#    x 1.765590 -0.016880 0.029970 
#    y -0.016880 1.810270 0.006920 
#    z 0.029970 0.006920 1.777380 
# 
# From -- ./inp_files/187533.got.cif
#   From: 2010.06.25/outbox.cif.g09.slc.cpg/sg2_94_cif.got.tgz:187533.got - 2010.06.27 13:26:56.
