data_PCOD8001046
_publ_section_title
;
Structure prediction by ZEFSAII (Michael W. Deem and Ramdas Pophale) SiO2 
 PCOD8001046
Probable space group: P -1
;
_chemical_formula_sum "Si O2"
_cell_formula_units_Z 16
_cell_length_a 17.171060
_cell_length_b 11.635493
_cell_length_c 19.612533
_cell_angle_alpha 40.071139
_cell_angle_beta 158.818451
_cell_angle_gamma 127.049843
_cell_volume 800.871454
_symmetry_space_group_name_H-M "P -1"
_symmetry_group_IT_number 2
_symmetry_cell_setting 'triclinic'
loop_
_space_group_symop_operation_xyz
x,y,z
-x,-y,-z
loop_
_atom_site_type_symbol
_atom_site_label
_atom_site_fract_x
_atom_site_fract_y
_atom_site_fract_z
Si Si1 0.399312 0.440189 0.255317
Si Si2 0.185696 0.480141 0.424491
Si Si3 0.742411 0.488936 0.120233
Si Si4 0.568723 0.820967 0.484056
Si Si5 0.997036 0.134242 0.229872
Si Si6 0.697799 0.766257 0.846390
Si Si7 0.433199 0.883202 0.188646
Si Si8 0.598121 0.197526 0.194046
O O1 0.646493 0.444563 0.432449
O O2 0.409966 0.382096 0.370916
O O3 0.378572 0.261419 0.279209
O O4 0.173359 0.665567 0.955013
O O5 0.351442 0.306792 0.586014
O O6 0.036246 0.414688 0.386501
O O7 0.992299 0.666255 0.136097
O O8 0.604967 0.637459 0.876961
O O9 0.628630 0.619830 0.035570
O O10 0.698618 0.292904 0.174755
O O11 0.448494 0.851443 0.297261
O O12 0.835506 0.805425 0.707247
O O13 0.403967 0.006398 0.315039
O O14 0.832300 0.073345 0.074591
O O15 0.169488 0.944581 0.504302
O O16 0.478858 0.070642 0.120305
#
# Coordination Sequence:
#
# PCOD8001046 Si02
#       8
#     2   2   2   2   2   2   2   2
#     4  11  23  37  58  83 116 154 188 230 281 333
#     4   9  21  38  54  84 117 145 185 234 279 329
#     4   9  20  40  60  81 116 148 183 237 281 332
#     4  11  22  37  59  83 113 155 192 229 278 330
#     4  10  21  38  57  86 114 144 193 233 274 337
#     4  10  20  39  55  81 115 148 187 239 274 327
#     4  10  20  37  58  83 118 146 188 235 275 337
#     4  10  19  41  61  84 111 148 192 225 287 338
#
# _framework density 19.978238000000001
#
# number of rings (size 3 to 8) (size 9 to 14) (size 15 to 20)
#    0.750    1.250    2.500    2.250    0.000    6.000 
#    2.250    2.500    0.000    0.000    0.000    0.000 
#    0.000    0.000    0.000    0.000    0.000    0.000 
#
# Total GULP energy -198256.223013 kJ/mol
# GULP energy per Si atom -12391.013938 kJ/mol
# Density = 1.993277 g / cm^3
# Si number density = 19.978238 Si / 1000 Ang^3
#
#
#
# Elastic Constant Matrix: (Units=GPa)
#
#
# Indices 1 2 3 4 5 6 
#
# 1 42.0625 13.7078 26.5191 -2.8102 5.4418 6.1760
# 2 13.7078 72.3186 40.1704 9.3810 8.6980 -8.4696
# 3 26.5191 40.1704 58.4333 15.6696 10.8225 -4.8099
# 4 -2.8102 9.3810 15.6696 31.2513 4.2226 -0.3983
# 5 5.4418 8.6980 10.8225 4.2226 23.9846 -2.9075
# 6 6.1760 -8.4696 -4.8099 -0.3983 -2.9075 43.8169
#
#
#
# Elastic Compliance Matrix: (Units=1/GPa)
#
#
# Indices 1 2 3 4 5 6 
#
# 1 0.041361 0.003837 -0.025758 0.015772 -0.002895 -0.007964
# 2 0.003837 0.023097 -0.017903 0.002601 -0.001397 0.001889
# 3 -0.025758 -0.017903 0.047877 -0.020194 -0.005118 0.004903
# 4 0.015772 0.002601 -0.020194 0.043182 -0.003470 -0.003775
# 5 -0.002895 -0.001397 -0.005118 -0.003470 0.046093 0.002603
# 6 -0.007964 0.001889 0.004903 -0.003775 0.002603 0.024987
#
#
# Mechanical properties :
#
#
# Convention : Reuss Voigt Hill
#
# Bulk Modulus (GPa) = 30.59192 37.06767 33.82979
# Shear Modulus (GPa) = 15.76596 25.97170 20.86883
#
# Velocity S-wave (km/s) = 2.81224 3.60946 3.23550
# Velocity P-wave (km/s) = 5.08830 5.99710 5.56130
#
# Compressibility (1/GPa) = 0.03268837
#
# Stress axis : x y z
#
# Youngs Moduli (GPa) = 24.17745 43.29660 20.88668
#
# Poissons Ratio (x) = -0.16614 0.53800
# Poissons Ratio (y) = -0.09278 0.37393
# Poissons Ratio (z) = 0.62276 0.77512
#
# Static dielectric constant tensor:
#      x y z
#    x 3.461380 0.152730 0.128090 
#    y 0.152730 3.734320 0.005770 
#    z 0.128090 0.005770 3.632860 
# 
# 
# High freq. dielectric constant tensor:
#      x y z
#    x 1.762390 0.005370 0.015570 
#    y 0.005370 1.783060 -0.004760 
#    z 0.015570 -0.004760 1.778420 
# 
# From -- ./inp_files/599910.got.cif
#   From: 2010.06.25/outbox.cif.g09.slc.cpg/sg2_300_cif.got.tgz:599910.got - 2010.06.27 13:26:56.
