data_PCOD8001247
_publ_section_title
;
Structure prediction by ZEFSAII (Michael W. Deem and Ramdas Pophale) SiO2 
 PCOD8001247
Probable space group: P -1
;
_chemical_formula_sum "Si O2"
_cell_formula_units_Z 16
_cell_length_a 15.118603
_cell_length_b 9.298951
_cell_length_c 13.914536
_cell_angle_alpha 125.579886
_cell_angle_beta 45.015889
_cell_angle_gamma 88.925392
_cell_volume 747.370471
_symmetry_space_group_name_H-M "P -1"
_symmetry_group_IT_number 2
_symmetry_cell_setting 'triclinic'
loop_
_space_group_symop_operation_xyz
x,y,z
-x,-y,-z
loop_
_atom_site_type_symbol
_atom_site_label
_atom_site_fract_x
_atom_site_fract_y
_atom_site_fract_z
Si Si1 0.773718 0.958190 0.868726
Si Si2 0.678798 0.694565 0.910780
Si Si3 0.253906 0.229255 0.454486
Si Si4 0.271495 0.674243 0.817740
Si Si5 0.646674 0.580834 0.690332
Si Si6 0.991115 0.807023 0.457717
Si Si7 0.017925 0.638091 0.965042
Si Si8 0.687227 0.224100 0.381862
O O1 0.802168 0.735915 0.805139
O O2 0.934041 0.843220 0.626634
O O3 0.780212 0.087260 0.001357
O O4 0.575906 0.163279 0.046469
O O5 0.684838 0.547700 0.761327
O O6 0.793039 0.488994 0.832132
O O7 0.470138 0.960100 0.210970
O O8 0.248869 0.362263 0.417167
O O9 0.146550 0.158417 0.491720
O O10 0.159262 0.430697 0.692705
O O11 0.472560 0.389274 0.591303
O O12 0.257085 0.720030 0.732172
O O13 0.114710 0.695312 0.971686
O O14 0.709851 0.328699 0.497371
O O15 0.000000 0.000000 0.500000
O O16 0.000000 0.500000 0.000000
O O17 0.818367 0.914351 0.180449
#
# Coordination Sequence:
#
# PCOD8001247 Si02
#       8
#     2   2   2   2   2   2   2   2
#     4  10  21  41  66  99 127 158 219 265 314 381
#     4  11  23  42  71  93 126 170 209 272 321 364
#     4  11  24  45  64  96 130 163 219 265 313 383
#     4  10  23  42  67  97 127 165 220 271 321 368
#     4  10  19  42  72  96 124 160 219 272 315 365
#     4  12  27  40  61  98 132 172 208 255 322 389
#     4  12  28  43  64  95 134 178 214 255 324 396
#     4  10  23  42  69  97 125 168 217 276 316 371
#
# _framework density 21.408391000000002
#
# number of rings (size 3 to 8) (size 9 to 14) (size 15 to 20)
#    0.000    1.250    3.750    1.500    7.000    1.000 
#    4.500    0.000    0.000    0.000    0.000    0.000 
#    0.000    0.000    0.000    0.000    0.000    0.000 
#
# Total GULP energy -198394.794992 kJ/mol
# GULP energy per Si atom -12399.674687 kJ/mol
# Density = 2.135966 g / cm^3
# Si number density = 21.408391 Si / 1000 Ang^3
#
#
#
# Elastic Constant Matrix: (Units=GPa)
#
#
# Indices 1 2 3 4 5 6 
#
# 1 83.1668 37.6716 34.4464 8.1758 -8.0915 14.9170
# 2 37.6716 104.1973 39.3929 24.8586 -20.1762 6.4422
# 3 34.4464 39.3929 99.4033 23.6660 -2.3088 -9.8878
# 4 8.1758 24.8586 23.6660 23.7046 -0.9485 -6.6746
# 5 -8.0915 -20.1762 -2.3088 -0.9485 32.6826 1.1459
# 6 14.9170 6.4422 -9.8878 -6.6746 1.1459 20.5772
#
#
#
# Elastic Compliance Matrix: (Units=1/GPa)
#
#
# Indices 1 2 3 4 5 6 
#
# 1 0.019775 -0.001976 -0.007187 -0.002551 0.003733 -0.018205
# 2 -0.001976 0.019082 -0.003341 -0.019214 0.010953 -0.012990
# 3 -0.007187 -0.003341 0.016786 -0.007510 -0.003297 0.012070
# 4 -0.002551 -0.019214 -0.007510 0.078823 -0.011804 0.030480
# 5 0.003733 0.010953 -0.003297 -0.011804 0.038187 -0.013675
# 6 -0.018205 -0.012990 0.012070 0.030480 -0.013675 0.082310
#
#
# Mechanical properties :
#
#
# Convention : Reuss Voigt Hill
#
# Bulk Modulus (GPa) = 32.64001 56.64325 44.64163
# Shear Modulus (GPa) = 17.23058 27.07665 22.15361
#
# Velocity S-wave (km/s) = 2.84007 3.56022 3.22034
# Velocity P-wave (km/s) = 5.10236 6.58909 5.89280
#
# Compressibility (1/GPa) = 0.03063724
#
# Stress axis : x y z
#
# Youngs Moduli (GPa) = 50.56970 52.40460 59.57180
#
# Poissons Ratio (x) = 0.10353 0.42812
# Poissons Ratio (y) = 0.09990 0.19903
# Poissons Ratio (z) = 0.36343 0.17508
#
# Static dielectric constant tensor:
#      x y z
#    x 3.992430 0.106220 -0.081030 
#    y 0.106220 3.657400 0.101230 
#    z -0.081030 0.101230 4.109210 
# 
# 
# High freq. dielectric constant tensor:
#      x y z
#    x 1.849530 0.014910 -0.005650 
#    y 0.014910 1.811750 0.011410 
#    z -0.005650 0.011410 1.853230 
# 
# From -- ./inp_files/308901.got.cif
#   From: 2010.06.25/outbox.cif.g09.slc.cpg/sg2_155_cif.got.tgz:308901.got - 2010.06.27 13:26:56.
