data_PCOD8001811
_publ_section_title
;
Structure prediction by ZEFSAII (Michael W. Deem and Ramdas Pophale) SiO2 
 PCOD8001811
Probable space group: P -1
;
_chemical_formula_sum "Si O2"
_cell_formula_units_Z 16
_cell_length_a 13.046057
_cell_length_b 10.653830
_cell_length_c 12.170163
_cell_angle_alpha 77.596532
_cell_angle_beta 70.392733
_cell_angle_gamma 29.832459
_cell_volume 782.107933
_symmetry_space_group_name_H-M "P -1"
_symmetry_group_IT_number 2
_symmetry_cell_setting 'triclinic'
loop_
_space_group_symop_operation_xyz
x,y,z
-x,-y,-z
loop_
_atom_site_type_symbol
_atom_site_label
_atom_site_fract_x
_atom_site_fract_y
_atom_site_fract_z
Si Si1 0.325140 0.209940 0.436147
Si Si2 0.235122 0.915133 0.242362
Si Si3 0.069310 0.823834 0.118098
Si Si4 0.615317 0.367564 0.281130
Si Si5 0.062245 0.988346 0.597920
Si Si6 0.401425 0.368926 0.234708
Si Si7 0.779043 0.062623 0.000215
Si Si8 0.925498 0.764053 0.556524
O O1 0.405730 0.221402 0.308407
O O2 0.273732 0.126371 0.414270
O O3 0.137061 0.461063 0.532211
O O4 0.500000 0.000000 0.500000
O O5 0.481905 0.633014 0.246433
O O6 0.222479 0.994309 0.112254
O O7 0.109887 0.133963 0.331544
O O8 0.108612 0.906161 0.277723
O O9 0.165974 0.634394 0.214022
O O10 0.241284 0.760230 0.036957
O O11 0.835936 0.123082 0.179706
O O12 0.002858 0.807667 0.036069
O O13 0.692632 0.295784 0.395150
O O14 0.454388 0.411585 0.308705
O O15 0.045986 0.159243 0.565220
O O16 0.000000 0.000000 0.500000
O O17 0.576061 0.206331 0.106164
#
# Coordination Sequence:
#
# PCOD8001811 Si02
#       8
#     2   2   2   2   2   2   2   2
#     4  11  24  45  64  82 109 158 217 253 288 339
#     4  11  22  37  58  92 127 155 187 243 308 364
#     4  10  20  34  56  92 129 160 187 233 296 360
#     4  11  19  32  58  88 124 154 192 232 300 360
#     4  10  21  36  55  86 122 156 189 239 299 356
#     4  11  22  37  63  89 122 156 203 247 288 348
#     4  10  21  34  58  95 127 156 189 235 302 368
#     4  10  24  41  60  82 116 156 204 251 293 348
#
# _framework density 20.457533999999999
#
# number of rings (size 3 to 8) (size 9 to 14) (size 15 to 20)
#    0.000    1.500    2.500    2.625    3.500    7.000 
#    0.000    0.625    0.000    1.500    0.000    0.000 
#    0.000    0.000    0.000    0.000    0.000    0.000 
#
# Total GULP energy -198220.744907 kJ/mol
# GULP energy per Si atom -12388.796557 kJ/mol
# Density = 2.041097 g / cm^3
# Si number density = 20.457534 Si / 1000 Ang^3
#
#
#
# Elastic Constant Matrix: (Units=GPa)
#
#
# Indices 1 2 3 4 5 6 
#
# 1 109.9149 50.5431 58.1774 -16.4804 5.1291 -9.5883
# 2 50.5431 94.5615 42.2355 -21.1348 10.1583 -20.2315
# 3 58.1774 42.2355 116.5165 -16.9631 6.8175 -3.5779
# 4 -16.4804 -21.1348 -16.9631 35.7734 -7.0344 9.6070
# 5 5.1291 10.1583 6.8175 -7.0344 38.2345 -10.8439
# 6 -9.5883 -20.2315 -3.5779 9.6070 -10.8439 33.5012
#
#
#
# Elastic Compliance Matrix: (Units=1/GPa)
#
#
# Indices 1 2 3 4 5 6 
#
# 1 0.014358 -0.005091 -0.005179 0.001186 0.000670 0.000358
# 2 -0.005091 0.017104 -0.002763 0.004429 -0.000530 0.007135
# 3 -0.005179 -0.002763 0.012508 0.002461 -0.001171 -0.002900
# 4 0.001186 0.004429 0.002461 0.034375 0.002955 -0.005624
# 5 0.000670 -0.000530 -0.001171 0.002955 0.029339 0.008396
# 6 0.000358 0.007135 -0.002900 -0.005624 0.008396 0.038282
#
#
# Mechanical properties :
#
#
# Convention : Reuss Voigt Hill
#
# Bulk Modulus (GPa) = 55.85597 69.21165 62.53381
# Shear Modulus (GPa) = 28.08979 32.83762 30.46370
#
# Velocity S-wave (km/s) = 3.70953 4.01079 3.86310
# Velocity P-wave (km/s) = 6.76092 7.44002 7.10859
#
# Compressibility (1/GPa) = 0.01790319
#
# Stress axis : x y z
#
# Youngs Moduli (GPa) = 69.64588 58.46615 79.95075
#
# Poissons Ratio (x) = 0.29768 0.41407
# Poissons Ratio (y) = 0.35460 0.22089
# Poissons Ratio (z) = 0.36070 0.16153
#
# Static dielectric constant tensor:
#      x y z
#    x 3.735500 -0.482010 0.205320 
#    y -0.482010 3.673660 -0.260630 
#    z 0.205320 -0.260630 3.990490 
# 
# 
# High freq. dielectric constant tensor:
#      x y z
#    x 1.785840 -0.039980 0.009280 
#    y -0.039980 1.781830 -0.007540 
#    z 0.009280 -0.007540 1.811330 
# 
# From -- ./inp_files/531097.got.cif
#   From: 2010.06.25/outbox.cif.g09.slc.cpg/sg2_266_cif.got.tgz:531097.got - 2010.06.27 13:26:56.
