data_PCOD8001884
_publ_section_title
;
Structure prediction by ZEFSAII (Michael W. Deem and Ramdas Pophale) SiO2 
 PCOD8001884
Probable space group: P -1
;
_chemical_formula_sum "Si O2"
_cell_formula_units_Z 16
_cell_length_a 14.809465
_cell_length_b 12.069406
_cell_length_c 12.503082
_cell_angle_alpha 46.687765
_cell_angle_beta 122.641480
_cell_angle_gamma 148.797727
_cell_volume 835.749562
_symmetry_space_group_name_H-M "P -1"
_symmetry_group_IT_number 2
_symmetry_cell_setting 'triclinic'
loop_
_space_group_symop_operation_xyz
x,y,z
-x,-y,-z
loop_
_atom_site_type_symbol
_atom_site_label
_atom_site_fract_x
_atom_site_fract_y
_atom_site_fract_z
Si Si1 0.373873 0.933252 0.721275
Si Si2 0.144146 0.393820 0.884313
Si Si3 0.444389 0.108569 0.420512
Si Si4 0.153374 0.937217 0.936165
Si Si5 0.930834 0.289434 0.172600
Si Si6 0.882005 0.292012 0.649808
Si Si7 0.358547 0.410383 0.887320
Si Si8 0.241900 0.705821 0.226631
O O1 0.310368 0.694157 0.801686
O O2 0.228741 0.838892 0.769077
O O3 0.399364 0.069240 0.543740
O O4 0.560320 0.132801 0.769505
O O5 0.204888 0.301307 0.937365
O O6 0.990925 0.287854 0.782897
O O7 0.047949 0.260403 0.024332
O O8 0.587476 0.391349 0.288043
O O9 0.500000 0.000000 0.500000
O O10 0.276400 0.970276 0.336232
O O11 0.288278 0.207574 0.893576
O O12 0.139432 0.928014 0.803176
O O13 0.229181 0.858877 0.068168
O O14 0.099167 0.433886 0.258192
O O15 0.000000 0.500000 0.000000
O O16 0.806789 0.338852 0.649296
O O17 0.000000 0.500000 0.500000
O O18 0.500000 0.500000 0.000000
#
# Coordination Sequence:
#
# PCOD8001884 Si02
#       8
#     2   2   2   2   2   2   2   2
#     4  12  20  36  62  94 122 155 212 262 302 355
#     4  11  20  36  61  90 120 159 201 253 308 367
#     4  12  22  36  60  94 123 161 204 253 309 368
#     4  10  22  39  57  84 125 165 202 250 309 363
#     4  10  20  39  58  88 123 162 211 257 296 365
#     4  11  17  32  57  89 125 153 197 251 307 359
#     4  12  24  41  60  91 132 157 200 254 311 382
#     4  10  20  34  58  90 121 157 207 257 298 355
#
# _framework density 19.144492
#
# number of rings (size 3 to 8) (size 9 to 14) (size 15 to 20)
#    0.000    1.000    7.500    2.625    0.000    2.000 
#    2.250    0.625    0.000    0.750    0.000    0.000 
#    0.000    0.000    0.000    0.000    0.000    0.000 
#
# Total GULP energy -198311.810838 kJ/mol
# GULP energy per Si atom -12394.488177 kJ/mol
# Density = 1.910092 g / cm^3
# Si number density = 19.144492 Si / 1000 Ang^3
#
#
#
# Elastic Constant Matrix: (Units=GPa)
#
#
# Indices 1 2 3 4 5 6 
#
# 1 103.6439 65.6879 39.8498 11.3127 -16.8350 2.9319
# 2 65.6879 159.3140 29.8637 16.4691 -4.4407 -1.2946
# 3 39.8498 29.8637 72.7008 -3.4642 -19.2459 -4.0372
# 4 11.3127 16.4691 -3.4642 25.6990 -2.4009 0.3450
# 5 -16.8350 -4.4407 -19.2459 -2.4009 28.2672 -1.3645
# 6 2.9319 -1.2946 -4.0372 0.3450 -1.3645 41.4769
#
#
#
# Elastic Compliance Matrix: (Units=1/GPa)
#
#
# Indices 1 2 3 4 5 6 
#
# 1 0.016442 -0.005084 -0.006060 -0.004361 0.004414 -0.001729
# 2 -0.005084 0.009090 -0.001998 -0.004169 -0.003296 0.000375
# 3 -0.006060 -0.001998 0.021470 0.007879 0.011498 0.002769
# 4 -0.004361 -0.004169 0.007879 0.045114 0.005981 0.000767
# 5 0.004414 -0.003296 0.011498 0.005981 0.045929 0.002166
# 6 -0.001729 0.000375 0.002769 0.000767 0.002166 0.024578
#
#
# Mechanical properties :
#
#
# Convention : Reuss Voigt Hill
#
# Bulk Modulus (GPa) = 48.26215 67.38463 57.82339
# Shear Modulus (GPa) = 25.53476 32.43912 28.98694
#
# Velocity S-wave (km/s) = 3.65607 4.12082 3.89538
# Velocity P-wave (km/s) = 6.56404 7.61025 7.10642
#
# Compressibility (1/GPa) = 0.02072017
#
# Stress axis : x y z
#
# Youngs Moduli (GPa) = 60.81938 110.01519 46.57656
#
# Poissons Ratio (x) = 0.55928 0.28223
# Poissons Ratio (y) = 0.30919 0.09304
# Poissons Ratio (z) = 0.36854 0.21977
#
# Static dielectric constant tensor:
#      x y z
#    x 3.594650 -0.072010 -0.290150 
#    y -0.072010 3.960110 0.042410 
#    z -0.290150 0.042410 3.712110 
# 
# 
# High freq. dielectric constant tensor:
#      x y z
#    x 1.731670 0.012780 -0.028510 
#    y 0.012780 1.759730 0.010140 
#    z -0.028510 0.010140 1.723290 
# 
# From -- ./inp_files/451120.got.cif
#   From: 2010.06.25/outbox.cif.g09.slc.cpg/sg2_226_cif.got.tgz:451120.got - 2010.06.27 13:26:56.
