data_PCOD8001067
_publ_section_title
;
Structure prediction by ZEFSAII (Michael W. Deem and Ramdas Pophale) SiO2 
 PCOD8001067
Probable space group: P -1
;
_chemical_formula_sum "Si O2"
_cell_formula_units_Z 16
_cell_length_a 11.621404
_cell_length_b 16.767065
_cell_length_c 22.090946
_cell_angle_alpha 160.304699
_cell_angle_beta 147.453527
_cell_angle_gamma 43.166780
_cell_volume 729.774440
_symmetry_space_group_name_H-M "P -1"
_symmetry_group_IT_number 2
_symmetry_cell_setting 'triclinic'
loop_
_space_group_symop_operation_xyz
x,y,z
-x,-y,-z
loop_
_atom_site_type_symbol
_atom_site_label
_atom_site_fract_x
_atom_site_fract_y
_atom_site_fract_z
Si Si1 0.755033 0.344563 0.694406
Si Si2 0.566807 0.874885 0.498454
Si Si3 0.298707 0.242140 0.108701
Si Si4 0.233816 0.682173 0.667184
Si Si5 0.537885 0.126196 0.847392
Si Si6 0.100793 0.704336 0.969189
Si Si7 0.144171 0.291558 0.770742
Si Si8 0.275302 0.587706 0.754593
O O1 0.658209 0.232348 0.635855
O O2 0.733505 0.612809 0.862331
O O3 0.028130 0.393353 0.847614
O O4 0.616178 0.155496 0.442838
O O5 0.654377 0.646280 0.358468
O O6 0.500000 0.000000 0.500000
O O7 0.762645 0.094487 0.776284
O O8 0.573057 0.323289 0.299815
O O9 0.162332 0.303665 0.149538
O O10 0.193770 0.946215 0.836169
O O11 0.327643 0.639350 0.744111
O O12 0.993681 0.467272 0.391899
O O13 0.409492 0.326175 0.919152
O O14 0.785236 0.215490 0.988107
O O15 0.590146 0.158379 0.965542
O O16 0.111294 0.429856 0.793691
O O17 0.000000 0.000000 0.500000
#
# Coordination Sequence:
#
# PCOD8001067 Si02
#       8
#     2   2   2   2   2   2   2   2
#     4   9  20  39  62  87 125 158 201 248 299 362
#     4  11  21  37  60  92 120 159 199 247 297 370
#     4  10  19  41  64  85 114 162 201 255 305 345
#     4  10  22  40  66  84 119 160 206 260 302 345
#     4  10  21  37  60  88 123 162 197 246 296 370
#     4  10  20  37  61  85 120 158 204 240 299 362
#     4   9  18  35  57  86 121 162 193 238 305 354
#     4  11  22  40  60  91 118 161 208 246 307 353
#
# _framework density 21.924581
#
# number of rings (size 3 to 8) (size 9 to 14) (size 15 to 20)
#    0.000    2.000    2.500    1.125    0.000    2.000 
#    2.250   13.125    0.000    0.000    0.000    0.000 
#    0.000    0.000    0.000    0.000    0.000    0.000 
#
# Total GULP energy -198220.355837 kJ/mol
# GULP energy per Si atom -12388.772240 kJ/mol
# Density = 2.187468 g / cm^3
# Si number density = 21.924581 Si / 1000 Ang^3
#
#
#
# Elastic Constant Matrix: (Units=GPa)
#
#
# Indices 1 2 3 4 5 6 
#
# 1 89.2996 39.5675 23.5013 -16.0789 16.0291 -16.4477
# 2 39.5675 103.3754 18.8961 13.8993 -0.0674 -10.2993
# 3 23.5013 18.8961 46.9468 6.1352 -1.6138 4.1526
# 4 -16.0789 13.8993 6.1352 33.0983 3.2793 11.9341
# 5 16.0291 -0.0674 -1.6138 3.2793 35.8918 -10.8304
# 6 -16.4477 -10.2993 4.1526 11.9341 -10.8304 40.3689
#
#
#
# Elastic Compliance Matrix: (Units=1/GPa)
#
#
# Indices 1 2 3 4 5 6 
#
# 1 0.024428 -0.010091 -0.011142 0.019865 -0.013540 -0.000981
# 2 -0.010091 0.016147 0.000188 -0.014833 0.007856 0.006482
# 3 -0.011142 0.000188 0.028626 -0.010495 0.006435 -0.002607
# 4 0.019865 -0.014833 -0.010495 0.055846 -0.019400 -0.016325
# 5 -0.013540 0.007856 0.006435 -0.019400 0.039667 0.012203
# 6 -0.000981 0.006482 -0.002607 -0.016325 0.012203 0.034394
#
#
# Mechanical properties :
#
#
# Convention : Reuss Voigt Hill
#
# Bulk Modulus (GPa) = 36.88565 44.83906 40.86235
# Shear Modulus (GPa) = 19.98113 32.38226 26.18170
#
# Velocity S-wave (km/s) = 3.02214 3.84732 3.45943
# Velocity P-wave (km/s) = 5.38871 6.34285 5.88515
#
# Compressibility (1/GPa) = 0.02711082
#
# Stress axis : x y z
#
# Youngs Moduli (GPa) = 40.93607 61.93164 34.93318
#
# Poissons Ratio (x) = 0.62495 0.38922
# Poissons Ratio (y) = 0.41308 -0.00655
# Poissons Ratio (z) = 0.45610 -0.01162
#
# Static dielectric constant tensor:
#      x y z
#    x 4.074050 -0.551280 0.340040 
#    y -0.551280 4.267700 0.090660 
#    z 0.340040 0.090660 3.880010 
# 
# 
# High freq. dielectric constant tensor:
#      x y z
#    x 1.853140 -0.031240 0.032240 
#    y -0.031240 1.860330 0.015610 
#    z 0.032240 0.015610 1.848260 
# 
# From -- ./inp_files/217057.got.cif
#   From: 2010.06.25/outbox.cif.g09.slc.cpg/sg2_109_cif.got.tgz:217057.got - 2010.06.27 13:26:56.
