data_PCOD8001330
_publ_section_title
;
Structure prediction by ZEFSAII (Michael W. Deem and Ramdas Pophale) SiO2 
 PCOD8001330
Probable space group: P -1
;
_chemical_formula_sum "Si O2"
_cell_formula_units_Z 16
_cell_length_a 19.896199
_cell_length_b 12.222075
_cell_length_c 9.437400
_cell_angle_alpha 106.790127
_cell_angle_beta 64.117557
_cell_angle_gamma 49.582150
_cell_volume 865.160183
_symmetry_space_group_name_H-M "P -1"
_symmetry_group_IT_number 2
_symmetry_cell_setting 'triclinic'
loop_
_space_group_symop_operation_xyz
x,y,z
-x,-y,-z
loop_
_atom_site_type_symbol
_atom_site_label
_atom_site_fract_x
_atom_site_fract_y
_atom_site_fract_z
Si Si1 0.475351 0.721049 0.239566
Si Si2 0.530723 0.482879 0.628082
Si Si3 0.959630 0.385023 0.063301
Si Si4 0.739199 0.058261 0.748229
Si Si5 0.152757 0.842023 0.387737
Si Si6 0.653093 0.866337 0.362809
Si Si7 0.011557 0.534373 0.211744
Si Si8 0.886167 0.074322 0.224452
O O1 0.434422 0.680713 0.377955
O O2 0.393624 0.799461 0.195000
O O3 0.413787 0.925949 0.430388
O O4 0.676720 0.455990 0.929991
O O5 0.500000 0.500000 0.500000
O O6 0.695481 0.336625 0.436014
O O7 0.365351 0.777081 0.949895
O O8 0.758603 0.651705 0.306128
O O9 0.983718 0.435978 0.195574
O O10 0.060675 0.307705 0.810365
O O11 0.034889 0.160055 0.946319
O O12 0.835243 0.039700 0.603438
O O13 0.888899 0.758289 0.528514
O O14 0.114583 0.873267 0.598641
O O15 0.000000 0.000000 0.500000
O O16 0.500000 0.000000 0.500000
O O17 0.786294 0.712625 0.053414
O O18 0.000000 0.000000 0.000000
#
# Coordination Sequence:
#
# PCOD8001330 Si02
#       8
#     2   2   2   2   2   2   2   2
#     4  11  20  39  65  85 117 161 207 255 289 357
#     4  11  24  39  57  89 122 160 207 242 305 365
#     4   9  18  35  57  87 113 150 201 238 299 352
#     4  11  18  40  65  83 112 159 212 256 284 356
#     4  11  23  35  58  92 120 156 202 253 298 349
#     4  10  20  30  56  95 118 142 195 263 300 342
#     4   9  16  33  62  83 108 148 203 246 285 344
#     4  12  24  39  58  86 130 160 186 246 319 365
#
# _framework density 18.493686
#
# number of rings (size 3 to 8) (size 9 to 14) (size 15 to 20)
#    0.750    0.750    5.000    1.500    7.000    0.000 
#    0.000    0.000    0.000    7.500    0.000    0.000 
#    0.000    0.000    0.000    0.000    0.000    0.000 
#
# Total GULP energy -198329.458014 kJ/mol
# GULP energy per Si atom -12395.591126 kJ/mol
# Density = 1.845159 g / cm^3
# Si number density = 18.493686 Si / 1000 Ang^3
#
#
#
# Elastic Constant Matrix: (Units=GPa)
#
#
# Indices 1 2 3 4 5 6 
#
# 1 115.5068 29.5042 58.4656 1.6856 -11.1472 -21.1439
# 2 29.5042 38.3116 39.6762 -5.8044 1.7579 -4.8498
# 3 58.4656 39.6762 127.4539 1.1261 -0.2258 -9.8789
# 4 1.6856 -5.8044 1.1261 31.3158 -0.1902 1.8543
# 5 -11.1472 1.7579 -0.2258 -0.1902 40.0319 7.8874
# 6 -21.1439 -4.8498 -9.8789 1.8543 7.8874 35.4767
#
#
#
# Elastic Compliance Matrix: (Units=1/GPa)
#
#
# Indices 1 2 3 4 5 6 
#
# 1 0.013501 -0.006186 -0.003810 -0.002050 0.002896 0.005603
# 2 -0.006186 0.043521 -0.010827 0.008792 -0.003571 -0.000418
# 3 -0.003810 -0.010827 0.012992 -0.002278 -0.000544 0.000107
# 4 -0.002050 0.008792 -0.002278 0.033892 -0.000346 -0.002349
# 5 0.002896 -0.003571 -0.000544 -0.000346 0.026899 -0.004876
# 6 0.005603 -0.000418 0.000107 -0.002349 -0.004876 0.032707
#
#
# Mechanical properties :
#
#
# Convention : Reuss Voigt Hill
#
# Bulk Modulus (GPa) = 35.25069 59.61826 47.43448
# Shear Modulus (GPa) = 23.29777 31.60664 27.45220
#
# Velocity S-wave (km/s) = 3.55317 4.13855 3.85698
# Velocity P-wave (km/s) = 5.99464 7.42589 6.74832
#
# Compressibility (1/GPa) = 0.02836824
#
# Stress axis : x y z
#
# Youngs Moduli (GPa) = 74.06737 22.97740 76.97316
#
# Poissons Ratio (x) = 0.14214 0.29327
# Poissons Ratio (y) = 0.45817 0.83337
# Poissons Ratio (z) = 0.28220 0.24877
#
# Static dielectric constant tensor:
#      x y z
#    x 3.165210 -0.063560 -0.042840 
#    y -0.063560 3.027790 0.226180 
#    z -0.042840 0.226180 3.660740 
# 
# 
# High freq. dielectric constant tensor:
#      x y z
#    x 1.722550 -0.001190 0.003960 
#    y -0.001190 1.673550 0.026720 
#    z 0.003960 0.026720 1.733620 
# 
# From -- ./inp_files/333504.got.cif
#   From: 2010.06.25/outbox.cif.g09.slc.cpg/sg2_167_cif.got.tgz:333504.got - 2010.06.27 13:26:56.
