data_PCOD8001390
_publ_section_title
;
Structure prediction by ZEFSAII (Michael W. Deem and Ramdas Pophale) SiO2 
 PCOD8001390
Probable space group: P -1
;
_chemical_formula_sum "Si O2"
_cell_formula_units_Z 16
_cell_length_a 15.198948
_cell_length_b 5.119717
_cell_length_c 12.954497
_cell_angle_alpha 87.621486
_cell_angle_beta 50.995827
_cell_angle_gamma 84.561550
_cell_volume 779.611282
_symmetry_space_group_name_H-M "P -1"
_symmetry_group_IT_number 2
_symmetry_cell_setting 'triclinic'
loop_
_space_group_symop_operation_xyz
x,y,z
-x,-y,-z
loop_
_atom_site_type_symbol
_atom_site_label
_atom_site_fract_x
_atom_site_fract_y
_atom_site_fract_z
Si Si1 0.832489 0.960135 0.315901
Si Si2 0.140375 0.721026 0.351078
Si Si3 0.077914 0.083494 0.108769
Si Si4 0.878062 0.611440 0.114576
Si Si5 0.803389 0.454787 0.900476
Si Si6 0.391663 0.967274 0.648987
Si Si7 0.123637 0.207722 0.488328
Si Si8 0.337571 0.492326 0.807420
O O1 0.864432 0.680000 0.242896
O O2 0.817012 0.895515 0.448241
O O3 0.713248 0.072769 0.350684
O O4 0.938586 0.137834 0.213481
O O5 0.222896 0.619837 0.197389
O O6 0.156423 0.497315 0.430830
O O7 0.012393 0.772985 0.400971
O O8 0.171814 0.996448 0.370197
O O9 0.128995 0.283151 0.149672
O O10 0.112607 0.783291 0.114118
O O11 0.134375 0.128533 0.954558
O O12 0.786656 0.416426 0.150138
O O13 0.000000 0.500000 0.000000
O O14 0.683603 0.501744 0.052409
O O15 0.418792 0.708039 0.704582
O O16 0.500000 0.000000 0.500000
O O17 0.375293 0.207109 0.737619
#
# Coordination Sequence:
#
# PCOD8001390 Si02
#       8
#     2   2   2   2   2   2   2   2
#     4  11  21  35  53  79 109 152 185 218 267 326
#     4  10  21  36  49  76 113 148 183 222 254 311
#     4  11  21  31  51  81 113 148 179 208 264 326
#     4  10  20  32  50  81 116 143 174 216 257 333
#     4  11  20  35  56  81 113 148 179 220 262 323
#     4  11  24  41  58  81 111 141 183 235 275 322
#     4  10  22  33  51  74 110 154 186 212 260 319
#     4  10  21  37  57  82 106 144 183 217 277 332
#
# _framework density 20.523046999999998
#
# number of rings (size 3 to 8) (size 9 to 14) (size 15 to 20)
#    0.000    1.500    1.250    6.000    3.500    3.000 
#    0.000    0.000    0.000    0.000    0.000    5.250 
#    0.000    0.000    0.000    0.000    0.000    0.000 
#
# Total GULP energy -198219.302102 kJ/mol
# GULP energy per Si atom -12388.706381 kJ/mol
# Density = 2.047634 g / cm^3
# Si number density = 20.523047 Si / 1000 Ang^3
#
#
#
# Elastic Constant Matrix: (Units=GPa)
#
#
# Indices 1 2 3 4 5 6 
#
# 1 28.6757 6.6093 26.9431 -0.3423 5.2224 -0.0026
# 2 6.6093 82.7828 19.9696 1.4118 3.4674 6.2124
# 3 26.9431 19.9696 129.1877 8.3550 10.2636 9.8732
# 4 -0.3423 1.4118 8.3550 30.4955 9.5494 -0.2469
# 5 5.2224 3.4674 10.2636 9.5494 33.8710 2.0094
# 6 -0.0026 6.2124 9.8732 -0.2469 2.0094 12.3811
#
#
#
# Elastic Compliance Matrix: (Units=1/GPa)
#
#
# Indices 1 2 3 4 5 6 
#
# 1 0.045718 -0.001851 -0.009871 0.005241 -0.005932 0.009877
# 2 -0.001851 0.012937 -0.001151 -0.000259 -0.000289 -0.005532
# 3 -0.009871 -0.001151 0.010811 -0.002986 -0.000317 -0.008054
# 4 0.005241 -0.000259 -0.002986 0.037045 -0.010616 0.004973
# 5 -0.005932 -0.000289 -0.000317 -0.010616 0.033872 -0.005313
# 6 0.009877 -0.005532 -0.008054 0.004973 -0.005313 0.090930
#
#
# Mechanical properties :
#
#
# Convention : Reuss Voigt Hill
#
# Bulk Modulus (GPa) = 22.87336 38.63225 30.75281
# Shear Modulus (GPa) = 18.40718 27.82447 23.11583
#
# Velocity S-wave (km/s) = 2.99808 3.68607 3.35973
# Velocity P-wave (km/s) = 4.81187 6.08119 5.48338
#
# Compressibility (1/GPa) = 0.04371899
#
# Stress axis : x y z
#
# Youngs Moduli (GPa) = 21.87325 77.29795 92.49737
#
# Poissons Ratio (x) = 0.14308 0.91307
# Poissons Ratio (y) = 0.04049 0.10649
# Poissons Ratio (z) = 0.21592 0.08899
#
# Static dielectric constant tensor:
#      x y z
#    x 3.183030 0.215670 0.047520 
#    y 0.215670 3.417410 0.310900 
#    z 0.047520 0.310900 3.801540 
# 
# 
# High freq. dielectric constant tensor:
#      x y z
#    x 1.729590 0.007080 0.022360 
#    y 0.007080 1.821120 0.000920 
#    z 0.022360 0.000920 1.810460 
# 
# From -- ./inp_files/440511.got.cif
#   From: 2010.06.25/outbox.cif.g09.slc.cpg/sg2_221_cif.got.tgz:440511.got - 2010.06.27 13:26:56.
