data_PCOD8001696
_publ_section_title
;
Structure prediction by ZEFSAII (Michael W. Deem and Ramdas Pophale) SiO2 
 PCOD8001696
Probable space group: P -1
;
_chemical_formula_sum "Si O2"
_cell_formula_units_Z 14
_cell_length_a 21.435826
_cell_length_b 5.204539
_cell_length_c 11.950283
_cell_angle_alpha 112.880492
_cell_angle_beta 147.523748
_cell_angle_gamma 65.239604
_cell_volume 648.334902
_symmetry_space_group_name_H-M "P -1"
_symmetry_group_IT_number 2
_symmetry_cell_setting 'triclinic'
loop_
_space_group_symop_operation_xyz
x,y,z
-x,-y,-z
loop_
_atom_site_type_symbol
_atom_site_label
_atom_site_fract_x
_atom_site_fract_y
_atom_site_fract_z
Si Si1 0.732173 0.705527 0.869741
Si Si2 0.346361 0.261610 0.897864
Si Si3 0.080711 0.313975 0.496944
Si Si4 0.363770 0.502562 0.512273
Si Si5 0.015531 0.166213 0.666599
Si Si6 0.415114 0.093275 0.732115
Si Si7 0.615496 0.334965 0.800587
O O1 0.743820 0.563571 0.738851
O O2 0.693353 0.481260 0.857785
O O3 0.638865 0.997413 0.771191
O O4 0.853289 0.787279 0.107110
O O5 0.215896 0.204499 0.719135
O O6 0.370923 0.274381 0.805582
O O7 0.443667 0.022201 0.065810
O O8 0.356221 0.568773 0.014530
O O9 0.000000 0.500000 0.500000
O O10 0.071218 0.525168 0.411649
O O11 0.025860 0.034913 0.335047
O O12 0.344001 0.830774 0.575079
O O13 0.476045 0.441851 0.587093
O O14 0.384209 0.297186 0.614824
O O15 0.000000 0.000000 0.500000
#
# Coordination Sequence:
#
# PCOD8001696 Si02
#       7
#     2   2   2   2   2   2   2
#     4  12  22  37  59  86 127 158 192 250 305 360
#     4  10  22  40  63  90 123 154 200 256 297 350
#     4  10  20  34  56  86 116 145 187 245 306 346
#     4  11  23  39  57  86 122 162 204 238 293 370
#     4  10  20  34  53  83 113 148 190 234 297 353
#     4  10  24  40  62  88 119 165 204 238 293 359
#     4  11  21  34  59  90 118 156 196 249 312 353
#
# _framework density 21.593781
#
# number of rings (size 3 to 8) (size 9 to 14) (size 15 to 20)
#    0.000    1.429    0.000    7.714    0.000    9.714 
#    0.000    0.000    0.000    5.143    0.000    0.000 
#    0.000    0.000    0.000    0.000    0.000    0.000 
#
# Total GULP energy -173505.908901 kJ/mol
# GULP energy per Si atom -12393.279207 kJ/mol
# Density = 2.154463 g / cm^3
# Si number density = 21.593781 Si / 1000 Ang^3
#
#
#
# Elastic Constant Matrix: (Units=GPa)
#
#
# Indices 1 2 3 4 5 6 
#
# 1 77.6574 42.0916 45.3434 3.2918 -7.9772 11.2896
# 2 42.0916 114.9073 22.1215 10.0178 -13.2638 34.4218
# 3 45.3434 22.1215 116.3856 11.0815 -7.2950 6.0715
# 4 3.2918 10.0178 11.0815 23.3873 -4.4239 1.9391
# 5 -7.9772 -13.2638 -7.2950 -4.4239 33.4335 0.1609
# 6 11.2896 34.4218 6.0715 1.9391 0.1609 35.0168
#
#
#
# Elastic Compliance Matrix: (Units=1/GPa)
#
#
# Indices 1 2 3 4 5 6 
#
# 1 0.020341 -0.006529 -0.006978 0.003392 0.001185 0.000877
# 2 -0.006529 0.015811 0.000927 -0.004350 0.004406 -0.013378
# 3 -0.006978 0.000927 0.011651 -0.004784 0.000614 -0.000419
# 4 0.003392 -0.004350 -0.004784 0.047103 0.004265 0.001384
# 5 0.001185 0.004406 0.000614 0.004265 0.032664 -0.005206
# 6 0.000877 -0.013378 -0.000419 0.001384 -0.005206 0.041445
#
#
# Mechanical properties :
#
#
# Convention : Reuss Voigt Hill
#
# Bulk Modulus (GPa) = 44.16700 58.67369 51.42034
# Shear Modulus (GPa) = 24.78639 31.66045 28.22342
#
# Velocity S-wave (km/s) = 3.39167 3.83323 3.61919
# Velocity P-wave (km/s) = 5.98630 6.84267 6.42876
#
# Compressibility (1/GPa) = 0.02264134
#
# Stress axis : x y z
#
# Youngs Moduli (GPa) = 49.16184 63.24630 85.83319
#
# Poissons Ratio (x) = 0.41295 0.59896
# Poissons Ratio (y) = 0.32099 -0.07955
# Poissons Ratio (z) = 0.34306 -0.05861
#
# Static dielectric constant tensor:
#      x y z
#    x 2.731980 -1.352870 0.129570 
#    y -1.352870 1.593340 0.320280 
#    z 0.129570 0.320280 4.059360 
# 
# 
# High freq. dielectric constant tensor:
#      x y z
#    x 1.816230 0.025620 0.004690 
#    y 0.025620 1.856880 0.009990 
#    z 0.004690 0.009990 1.846980 
# 
# From -- ./inp_files/362703.got.cif
#   From: 2010.06.25/outbox.cif.g09.slc.cpg/sg2_182_cif.got.tgz:362703.got - 2010.06.27 13:26:56.
