data_PCOD8001779
_publ_section_title
;
Structure prediction by ZEFSAII (Michael W. Deem and Ramdas Pophale) SiO2 
 PCOD8001779
Probable space group: P -1
;
_chemical_formula_sum "Si O2"
_cell_formula_units_Z 16
_cell_length_a 13.189088
_cell_length_b 11.429718
_cell_length_c 8.987091
_cell_angle_alpha 137.553101
_cell_angle_beta 107.544095
_cell_angle_gamma 88.437153
_cell_volume 830.761185
_symmetry_space_group_name_H-M "P -1"
_symmetry_group_IT_number 2
_symmetry_cell_setting 'triclinic'
loop_
_space_group_symop_operation_xyz
x,y,z
-x,-y,-z
loop_
_atom_site_type_symbol
_atom_site_label
_atom_site_fract_x
_atom_site_fract_y
_atom_site_fract_z
Si Si1 0.229529 0.907203 0.218836
Si Si2 0.766659 0.708056 0.408264
Si Si3 0.315896 0.673250 0.619640
Si Si4 0.428013 0.012763 0.179069
Si Si5 0.339445 0.811569 0.444843
Si Si6 0.422268 0.406212 0.538574
Si Si7 0.596222 0.510217 0.937474
Si Si8 0.875852 0.442252 0.332926
O O1 0.345635 0.952859 0.225387
O O2 0.252111 0.884969 0.383240
O O3 0.178729 0.075992 0.342347
O O4 0.141105 0.731256 0.944614
O O5 0.668327 0.620875 0.397825
O O6 0.860011 0.607950 0.382596
O O7 0.709843 0.668620 0.181032
O O8 0.279999 0.701565 0.462177
O O9 0.386990 0.527375 0.510120
O O10 0.205363 0.602889 0.603379
O O11 0.395445 0.866126 0.895727
O O12 0.551140 0.025622 0.305519
O O13 0.427520 0.209956 0.299788
O O14 0.375498 0.679576 0.222007
O O15 0.544318 0.526308 0.767210
O O16 0.500000 0.500000 0.000000
O O17 0.000000 0.500000 0.500000
#
# Coordination Sequence:
#
# PCOD8001779 Si02
#       8
#     2   2   2   2   2   2   2   2
#     4  10  20  34  56  80 107 139 184 220 258 326
#     4   9  17  33  54  81 101 134 181 224 260 311
#     4  10  21  35  52  79 114 143 176 224 269 311
#     4   9  19  32  50  77 110 149 178 205 255 324
#     4  11  20  33  51  83 117 144 176 214 267 317
#     4   8  17  31  49  73 109 144 179 207 254 318
#     4   9  17  29  50  77 108 142 178 209 249 313
#     4  10  21  40  61  77 100 138 186 233 273 317
#
# _framework density 19.259444999999999
#
# number of rings (size 3 to 8) (size 9 to 14) (size 15 to 20)
#    0.000    2.500    1.250    1.500    3.500    2.500 
#    2.250    0.625    0.000    0.750    0.000    0.000 
#    0.000    0.000    0.000    0.000    0.000    0.000 
#
# Total GULP energy -198294.822900 kJ/mol
# GULP energy per Si atom -12393.426431 kJ/mol
# Density = 1.921561 g / cm^3
# Si number density = 19.259445 Si / 1000 Ang^3
#
#
#
# Elastic Constant Matrix: (Units=GPa)
#
#
# Indices 1 2 3 4 5 6 
#
# 1 38.9610 36.1254 48.2307 -0.3125 12.0871 -17.7242
# 2 36.1254 126.7839 71.3563 1.2984 4.4683 -14.2182
# 3 48.2307 71.3563 126.8062 7.4364 6.2391 -17.8995
# 4 -0.3125 1.2984 7.4364 24.7731 -4.5210 -5.9176
# 5 12.0871 4.4683 6.2391 -4.5210 28.3547 -4.8658
# 6 -17.7242 -14.2182 -17.8995 -5.9176 -4.8658 24.3241
#
#
#
# Elastic Compliance Matrix: (Units=1/GPa)
#
#
# Indices 1 2 3 4 5 6 
#
# 1 0.084644 -0.006137 -0.022816 0.014115 -0.020885 0.040556
# 2 -0.006137 0.012183 -0.004698 0.000985 0.001853 -0.000197
# 3 -0.022816 -0.004698 0.018455 -0.006348 0.004282 -0.006479
# 4 0.014115 0.000985 -0.006348 0.048094 0.006175 0.019126
# 5 -0.020885 0.001853 0.004282 0.006175 0.043797 -0.000720
# 6 0.040556 -0.000197 -0.006479 0.019126 -0.000720 0.070289
#
#
# Mechanical properties :
#
#
# Convention : Reuss Voigt Hill
#
# Bulk Modulus (GPa) = 20.84248 67.10842 43.97545
# Shear Modulus (GPa) = 13.85970 24.61295 19.23633
#
# Velocity S-wave (km/s) = 2.68550 3.57875 3.16381
# Velocity P-wave (km/s) = 4.52342 7.21087 6.01905
#
# Compressibility (1/GPa) = 0.04797893
#
# Stress axis : x y z
#
# Youngs Moduli (GPa) = 11.81414 82.08338 54.18601
#
# Poissons Ratio (x) = 0.50376 1.23633
# Poissons Ratio (y) = 0.07251 0.25457
# Poissons Ratio (z) = 0.26956 0.38563
#
# Static dielectric constant tensor:
#      x y z
#    x 3.142950 -0.157640 -0.210380 
#    y -0.157640 3.699170 0.009610 
#    z -0.210380 0.009610 3.702690 
# 
# 
# High freq. dielectric constant tensor:
#      x y z
#    x 1.703550 -0.009350 -0.022440 
#    y -0.009350 1.749390 0.001150 
#    z -0.022440 0.001150 1.753020 
# 
# From -- ./inp_files/227861.got.cif
#   From: 2010.06.25/outbox.cif.g09.slc.cpg/sg2_114_cif.got.tgz:227861.got - 2010.06.27 13:26:56.
