data_PCOD8001852
_publ_section_title
;
Structure prediction by ZEFSAII (Michael W. Deem and Ramdas Pophale) SiO2 
 PCOD8001852
Probable space group: P -1
;
_chemical_formula_sum "Si O2"
_cell_formula_units_Z 14
_cell_length_a 8.876290
_cell_length_b 27.245141
_cell_length_c 11.878862
_cell_angle_alpha 150.841048
_cell_angle_beta 37.967195
_cell_angle_gamma 150.655137
_cell_volume 681.494317
_symmetry_space_group_name_H-M "P -1"
_symmetry_group_IT_number 2
_symmetry_cell_setting 'triclinic'
loop_
_space_group_symop_operation_xyz
x,y,z
-x,-y,-z
loop_
_atom_site_type_symbol
_atom_site_label
_atom_site_fract_x
_atom_site_fract_y
_atom_site_fract_z
Si Si1 0.847565 0.861714 0.859000
Si Si2 0.691476 0.272811 0.928644
Si Si3 0.589905 0.320862 0.439967
Si Si4 0.779870 0.512318 0.303856
Si Si5 0.140488 0.395364 0.119136
Si Si6 0.817831 0.243740 0.564387
Si Si7 0.549216 0.305428 0.672987
O O1 0.664008 0.754450 0.656948
O O2 0.104637 0.845649 0.714612
O O3 0.629108 0.834966 0.038049
O O4 0.000000 0.000000 0.000000
O O5 0.740086 0.204925 0.663765
O O6 0.661428 0.369319 0.067925
O O7 0.967576 0.341877 0.994257
O O8 0.642471 0.452140 0.699332
O O9 0.448698 0.239015 0.475576
O O10 0.899661 0.341923 0.257665
O O11 0.500000 0.500000 0.500000
O O12 0.890094 0.603008 0.310074
O O13 0.085991 0.577505 0.332241
O O14 0.353257 0.351243 0.923530
O O15 0.531895 0.215532 0.600940
#
# Coordination Sequence:
#
# PCOD8001852 Si02
#       7
#     2   2   2   2   2   2   2
#     4  11  25  42  61  83 115 165 211 244 285 345
#     4  11  20  39  62  91 122 153 190 249 295 367
#     4  10  21  36  59  83 124 154 194 246 288 359
#     4  10  20  34  57  94 127 147 182 241 310 359
#     4  10  20  34  57  92 119 155 188 234 314 357
#     4  10  23  36  61  87 121 153 194 247 300 353
#     4  10  21  35  58  92 123 148 188 238 310 369
#
# _framework density 20.543091
#
# number of rings (size 3 to 8) (size 9 to 14) (size 15 to 20)
#    0.857    0.857    2.857    1.714    2.000    2.857 
#    0.000    0.714    0.000    4.286    0.000    0.000 
#    0.000    0.000    0.000    0.000    0.000    0.000 
#
# Total GULP energy -173439.279579 kJ/mol
# GULP energy per Si atom -12388.519970 kJ/mol
# Density = 2.049633 g / cm^3
# Si number density = 20.543091 Si / 1000 Ang^3
#
#
#
# Elastic Constant Matrix: (Units=GPa)
#
#
# Indices 1 2 3 4 5 6 
#
# 1 92.8051 36.8473 55.8360 -16.6870 -15.3984 -9.9950
# 2 36.8473 81.9693 46.1552 -14.0875 -13.6724 -19.5470
# 3 55.8360 46.1552 69.5987 -21.8364 -19.6904 -2.6894
# 4 -16.6870 -14.0875 -21.8364 34.7683 -4.6568 -5.4101
# 5 -15.3984 -13.6724 -19.6904 -4.6568 41.7359 -12.6794
# 6 -9.9950 -19.5470 -2.6894 -5.4101 -12.6794 29.2236
#
#
#
# Elastic Compliance Matrix: (Units=1/GPa)
#
#
# Indices 1 2 3 4 5 6 
#
# 1 0.022733 0.004369 -0.017738 0.004212 0.005657 0.012299
# 2 0.004369 0.029256 -0.014268 0.011254 0.014229 0.028007
# 3 -0.017738 -0.014268 0.045847 0.015382 0.010979 -0.003780
# 4 0.004212 0.011254 0.015382 0.053903 0.028448 0.032705
# 5 0.005657 0.014229 0.010979 0.028448 0.051197 0.039942
# 6 0.012299 0.028007 -0.003780 0.032705 0.039942 0.080195
#
#
# Mechanical properties :
#
#
# Convention : Reuss Voigt Hill
#
# Bulk Modulus (GPa) = 23.49543 58.00558 40.75050
# Shear Modulus (GPa) = 14.18067 28.18118 21.18093
#
# Velocity S-wave (km/s) = 2.63019 3.70781 3.21448
# Velocity P-wave (km/s) = 4.54817 6.82846 5.80145
#
# Compressibility (1/GPa) = 0.04256147
#
# Stress axis : x y z
#
# Youngs Moduli (GPa) = 43.98844 34.18129 21.81166
#
# Poissons Ratio (x) = -0.14935 0.38690
# Poissons Ratio (y) = -0.19220 0.31121
# Poissons Ratio (z) = 0.78028 0.48771
#
# Static dielectric constant tensor:
#      x y z
#    x 3.731140 -0.097800 -0.036930 
#    y -0.097800 3.570020 -0.398090 
#    z -0.036930 -0.398090 3.642890 
# 
# 
# High freq. dielectric constant tensor:
#      x y z
#    x 1.804360 -0.008890 -0.012560 
#    y -0.008890 1.774080 -0.042870 
#    z -0.012560 -0.042870 1.789480 
# 
# From -- ./inp_files/407348.got.cif
#   From: 2010.06.25/outbox.cif.g09.slc.cpg/sg2_204_cif.got.tgz:407348.got - 2010.06.27 13:26:56.
