data_PCOD8001531
_publ_section_title
;
Structure prediction by ZEFSAII (Michael W. Deem and Ramdas Pophale) SiO2 
 PCOD8001531
Probable space group: P -1
;
_chemical_formula_sum "Si O2"
_cell_formula_units_Z 14
_cell_length_a 14.283414
_cell_length_b 8.719121
_cell_length_c 9.361263
_cell_angle_alpha 82.168379
_cell_angle_beta 87.693156
_cell_angle_gamma 42.313314
_cell_volume 774.298305
_symmetry_space_group_name_H-M "P -1"
_symmetry_group_IT_number 2
_symmetry_cell_setting 'triclinic'
loop_
_space_group_symop_operation_xyz
x,y,z
-x,-y,-z
loop_
_atom_site_type_symbol
_atom_site_label
_atom_site_fract_x
_atom_site_fract_y
_atom_site_fract_z
Si Si1 0.276026 0.027202 0.499192
Si Si2 0.442471 0.700193 0.269643
Si Si3 0.740165 0.429181 0.273723
Si Si4 0.547283 0.664124 0.706089
Si Si5 0.947828 0.941444 0.397396
Si Si6 0.545827 0.768727 0.016341
Si Si7 0.217893 0.451553 0.459457
O O1 0.210673 0.277183 0.470440
O O2 0.149310 0.065841 0.521348
O O3 0.345188 0.911556 0.356838
O O4 0.387793 0.874018 0.639056
O O5 0.603466 0.509781 0.339380
O O6 0.394809 0.581088 0.278104
O O7 0.434233 0.795313 0.103184
O O8 0.697102 0.567141 0.111418
O O9 0.791485 0.490326 0.380077
O O10 0.856743 0.155413 0.263976
O O11 0.640089 0.663442 0.605080
O O12 0.557751 0.702619 0.862877
O O13 0.083365 0.689635 0.354309
O O14 0.000000 0.000000 0.500000
O O15 0.500000 0.000000 0.000000
#
# Coordination Sequence:
#
# PCOD8001531 Si02
#       7
#     2   2   2   2   2   2   2
#     4  12  20  35  58  84 113 139 183 234 271 315
#     4  10  20  33  54  80 111 139 182 222 272 314
#     4   9  19  37  53  78 114 142 180 221 272 318
#     4  12  20  34  58  85 109 147 181 225 274 326
#     4  10  21  37  55  78 112 149 182 221 271 331
#     4  10  20  34  53  84 114 139 178 231 277 318
#     4  11  22  34  56  86 110 146 182 224 275 321
#
# _framework density 18.080887000000001
#
# number of rings (size 3 to 8) (size 9 to 14) (size 15 to 20)
#    0.857    0.571    2.857    5.143    0.000    0.000 
#    0.000    0.714    0.000    3.429    0.000   14.000 
#    0.000    0.000    0.000    0.000    0.000    0.000 
#
# Total GULP energy -173521.899129 kJ/mol
# GULP energy per Si atom -12394.421366 kJ/mol
# Density = 1.803973 g / cm^3
# Si number density = 18.080887 Si / 1000 Ang^3
#
#
#
# Elastic Constant Matrix: (Units=GPa)
#
#
# Indices 1 2 3 4 5 6 
#
# 1 98.6447 48.3649 27.1651 -11.5552 -3.8222 9.1741
# 2 48.3649 125.5469 43.4137 -17.6759 11.0245 22.1403
# 3 27.1651 43.4137 88.7026 -5.0399 8.2403 13.7689
# 4 -11.5552 -17.6759 -5.0399 28.3264 9.7711 -2.7185
# 5 -3.8222 11.0245 8.2403 9.7711 20.1290 -2.0496
# 6 9.1741 22.1403 13.7689 -2.7185 -2.0496 35.8734
#
#
#
# Elastic Compliance Matrix: (Units=1/GPa)
#
#
# Indices 1 2 3 4 5 6 
#
# 1 0.013449 -0.005169 -0.002384 -0.000355 0.006636 0.001018
# 2 -0.005169 0.014838 -0.002719 0.010826 -0.013940 -0.006769
# 3 -0.002384 -0.002719 0.014541 0.001682 -0.006091 -0.003514
# 4 -0.000355 0.010826 0.001682 0.053100 -0.032980 -0.005097
# 5 0.006636 -0.013940 -0.006091 -0.032980 0.078219 0.011214
# 6 0.001018 -0.006769 -0.003514 -0.005097 0.011214 0.033396
#
#
# Mechanical properties :
#
#
# Convention : Reuss Voigt Hill
#
# Bulk Modulus (GPa) = 44.87099 61.19796 53.03447
# Shear Modulus (GPa) = 21.23004 29.79580 25.51292
#
# Velocity S-wave (km/s) = 3.43033 4.06386 3.76046
# Velocity P-wave (km/s) = 6.36869 7.47932 6.94624
#
# Compressibility (1/GPa) = 0.02228612
#
# Stress axis : x y z
#
# Youngs Moduli (GPa) = 74.35476 67.39239 68.77082
#
# Poissons Ratio (x) = 0.34835 0.16392
# Poissons Ratio (y) = 0.38434 0.18696
# Poissons Ratio (z) = 0.17723 0.18321
#
# Static dielectric constant tensor:
#      x y z
#    x 4.016130 0.662710 0.659200 
#    y 0.662710 4.268330 0.399650 
#    z 0.659200 0.399650 3.762210 
# 
# 
# High freq. dielectric constant tensor:
#      x y z
#    x 1.701260 0.015930 -0.001390 
#    y 0.015930 1.707890 -0.013710 
#    z -0.001390 -0.013710 1.676580 
# 
# From -- ./inp_files/414484.got.cif
#   From: 2010.06.25/outbox.cif.g09.slc.cpg/sg2_208_cif.got.tgz:414484.got - 2010.06.27 13:26:56.
