data_PCOD8001828
_publ_section_title
;
Structure prediction by ZEFSAII (Michael W. Deem and Ramdas Pophale) SiO2 
 PCOD8001828
Probable space group: P -1
;
_chemical_formula_sum "Si O2"
_cell_formula_units_Z 16
_cell_length_a 10.828239
_cell_length_b 20.513605
_cell_length_c 6.569289
_cell_angle_alpha 88.349598
_cell_angle_beta 90.544572
_cell_angle_gamma 148.217042
_cell_volume 767.941174
_symmetry_space_group_name_H-M "P -1"
_symmetry_group_IT_number 2
_symmetry_cell_setting 'triclinic'
loop_
_space_group_symop_operation_xyz
x,y,z
-x,-y,-z
loop_
_atom_site_type_symbol
_atom_site_label
_atom_site_fract_x
_atom_site_fract_y
_atom_site_fract_z
Si Si1 0.159694 0.308519 0.857311
Si Si2 0.450326 0.418503 0.220158
Si Si3 0.138645 0.589092 0.302879
Si Si4 0.195309 0.221647 0.545647
Si Si5 0.324118 0.015649 0.500095
Si Si6 0.468608 0.219891 0.427373
Si Si7 0.371413 0.920996 0.205842
Si Si8 0.705708 0.414696 0.074976
O O1 0.354730 0.440188 0.733249
O O2 0.165758 0.236826 0.773551
O O3 0.899215 0.220665 0.827222
O O4 0.225165 0.343012 0.095362
O O5 0.376235 0.352606 0.433752
O O6 0.553209 0.410715 0.067968
O O7 0.348725 0.722138 0.400618
O O8 0.000000 0.500000 0.500000
O O9 0.957199 0.548288 0.165941
O O10 0.255391 0.586922 0.158550
O O11 0.294319 0.192922 0.537175
O O12 0.948788 0.114122 0.430874
O O13 0.342570 0.095337 0.386583
O O14 0.490192 0.078438 0.693528
O O15 0.395981 0.994959 0.339220
O O16 0.584703 0.302442 0.217552
O O17 0.500000 0.000000 0.000000
#
# Coordination Sequence:
#
# PCOD8001828 Si02
#       8
#     2   2   2   2   2   2   2   2
#     4  10  21  36  58  84 110 149 193 231 285 340
#     4  10  20  35  57  86 110 147 189 234 286 338
#     4   9  18  34  52  77 116 152 182 227 279 332
#     4  10  20  38  59  80 119 146 184 242 284 333
#     4  10  22  38  59  85 111 150 197 229 282 346
#     4  10  20  34  57  86 110 149 186 234 287 339
#     4  10  22  41  58  80 116 152 189 241 282 331
#     4   9  19  34  53  80 120 147 186 233 282 337
#
# _framework density 20.83493
#
# number of rings (size 3 to 8) (size 9 to 14) (size 15 to 20)
#    0.000    2.250    0.000    2.250    1.750    1.000 
#    4.500    0.000    0.000    8.250    0.000    0.000 
#    0.000    0.000    0.000    0.000    0.000    0.000 
#
# Total GULP energy -198229.560385 kJ/mol
# GULP energy per Si atom -12389.347524 kJ/mol
# Density = 2.078751 g / cm^3
# Si number density = 20.834930 Si / 1000 Ang^3
#
#
#
# Elastic Constant Matrix: (Units=GPa)
#
#
# Indices 1 2 3 4 5 6 
#
# 1 71.5304 53.9699 20.4083 -6.6738 6.6627 0.6053
# 2 53.9699 96.9863 25.0352 9.8911 4.0938 7.3903
# 3 20.4083 25.0352 74.3568 -0.3963 -5.5156 6.0180
# 4 -6.6738 9.8911 -0.3963 23.1101 8.4059 6.4858
# 5 6.6627 4.0938 -5.5156 8.4059 25.0479 -1.0313
# 6 0.6053 7.3903 6.0180 6.4858 -1.0313 36.9359
#
#
#
# Elastic Compliance Matrix: (Units=1/GPa)
#
#
# Indices 1 2 3 4 5 6 
#
# 1 0.032771 -0.019034 -0.003461 0.022819 -0.014050 -0.000564
# 2 -0.019034 0.023000 -0.002059 -0.017641 0.006743 -0.000668
# 3 -0.003461 -0.002059 0.015597 -0.001193 0.005021 -0.001723
# 4 0.022819 -0.017641 -0.001193 0.070072 -0.027365 -0.009718
# 5 -0.014050 0.006743 0.005021 -0.027365 0.053027 0.004349
# 6 -0.000564 -0.000668 -0.001723 -0.009718 0.004349 0.029326
#
#
# Mechanical properties :
#
#
# Convention : Reuss Voigt Hill
#
# Bulk Modulus (GPa) = 44.92389 49.07780 47.00085
# Shear Modulus (GPa) = 17.83672 26.58279 22.20975
#
# Velocity S-wave (km/s) = 2.92909 3.57582 3.26849
# Velocity P-wave (km/s) = 5.74874 6.37615 6.07056
#
# Compressibility (1/GPa) = 0.02225987
#
# Stress axis : x y z
#
# Youngs Moduli (GPa) = 30.51465 43.47913 64.11308
#
# Poissons Ratio (x) = 0.82758 0.22188
# Poissons Ratio (y) = 0.58082 0.13203
# Poissons Ratio (z) = 0.10561 0.08954
#
# Static dielectric constant tensor:
#      x y z
#    x 3.833110 0.325170 0.047260 
#    y 0.325170 3.878030 0.212740 
#    z 0.047260 0.212740 3.665760 
# 
# 
# High freq. dielectric constant tensor:
#      x y z
#    x 1.813570 0.018460 -0.001330 
#    y 0.018460 1.814600 0.009550 
#    z -0.001330 0.009550 1.806220 
# 
# From -- ./inp_files/83242.got.cif
#   From: 2010.06.25/outbox.cif.g09.slc.cpg/sg2_42_cif.got.tgz:83242.got - 2010.06.27 13:26:56.
