data_PCOD8001721
_publ_section_title
;
Structure prediction by ZEFSAII (Michael W. Deem and Ramdas Pophale) SiO2 
 PCOD8001721
Probable space group: P -1
;
_chemical_formula_sum "Si O2"
_cell_formula_units_Z 16
_cell_length_a 12.018201
_cell_length_b 15.090718
_cell_length_c 15.174997
_cell_angle_alpha 161.121591
_cell_angle_beta 104.891671
_cell_angle_gamma 75.217037
_cell_volume 859.958384
_symmetry_space_group_name_H-M "P -1"
_symmetry_group_IT_number 2
_symmetry_cell_setting 'triclinic'
loop_
_space_group_symop_operation_xyz
x,y,z
-x,-y,-z
loop_
_atom_site_type_symbol
_atom_site_label
_atom_site_fract_x
_atom_site_fract_y
_atom_site_fract_z
Si Si1 0.704233 0.714947 0.419736
Si Si2 0.063879 0.039905 0.848139
Si Si3 0.192213 0.853795 0.044759
Si Si4 0.153359 0.204436 0.639587
Si Si5 0.918303 0.239614 0.239732
Si Si6 0.519639 0.279905 0.720767
Si Si7 0.776336 0.348868 0.794214
Si Si8 0.086371 0.606244 0.303864
O O1 0.765704 0.867035 0.494965
O O2 0.569671 0.679739 0.340547
O O3 0.721792 0.897219 0.683881
O O4 0.764139 0.415204 0.149334
O O5 0.928534 0.031917 0.832927
O O6 0.129690 0.858036 0.766985
O O7 0.097833 0.892138 0.625428
O O8 0.096137 0.356635 0.142070
O O9 0.185645 0.755866 0.848530
O O10 0.035686 0.372079 0.750231
O O11 0.137524 0.905942 0.399151
O O12 0.218359 0.392661 0.897949
O O13 0.000000 0.500000 0.500000
O O14 0.000000 0.000000 0.000000
O O15 0.644138 0.269394 0.691021
O O16 0.500000 0.000000 0.500000
O O17 0.500000 0.500000 0.000000
O O18 0.811729 0.436710 0.785867
#
# Coordination Sequence:
#
# PCOD8001721 Si02
#       8
#     2   2   2   2   2   2   2   2
#     4  12  21  34  58  79 105 149 181 222 275 314
#     4  11  20  35  54  81 112 144 170 216 278 330
#     4  11  20  35  54  83 112 137 179 220 268 335
#     4  12  21  37  55  76 112 145 185 219 272 320
#     4  10  20  34  54  82 115 145 170 215 277 338
#     4  12  23  38  56  75 105 145 190 232 274 306
#     4  12  24  39  52  77 108 150 189 229 262 314
#     4  12  23  34  55  80 110 146 185 217 265 332
#
# _framework density 18.605551999999999
#
# number of rings (size 3 to 8) (size 9 to 14) (size 15 to 20)
#    0.000    0.500    5.000    6.750    0.000    0.000 
#    0.000    0.000    0.000    0.000    0.000    5.250 
#    0.000    0.000    0.000    0.000    0.000    0.000 
#
# Total GULP energy -198317.206378 kJ/mol
# GULP energy per Si atom -12394.825399 kJ/mol
# Density = 1.856320 g / cm^3
# Si number density = 18.605552 Si / 1000 Ang^3
#
#
#
# Elastic Constant Matrix: (Units=GPa)
#
#
# Indices 1 2 3 4 5 6 
#
# 1 73.9658 34.6652 15.0103 -11.4788 0.3793 6.8355
# 2 34.6652 90.0114 32.9167 -4.2398 -0.9054 2.1586
# 3 15.0103 32.9167 120.0123 -3.5052 4.9400 -6.2277
# 4 -11.4788 -4.2398 -3.5052 37.1962 -1.6908 8.7224
# 5 0.3793 -0.9054 4.9400 -1.6908 12.7327 1.1337
# 6 6.8355 2.1586 -6.2277 8.7224 1.1337 18.6457
#
#
#
# Elastic Compliance Matrix: (Units=1/GPa)
#
#
# Indices 1 2 3 4 5 6 
#
# 1 0.018706 -0.006246 -0.000981 0.007366 0.001246 -0.009983
# 2 -0.006246 0.014791 -0.003421 -0.000312 0.002575 -0.000576
# 3 -0.000981 -0.003421 0.009800 -0.001110 -0.004594 0.004827
# 4 0.007366 -0.000312 -0.001110 0.033821 0.006394 -0.019245
# 5 0.001246 0.002575 -0.004594 0.006394 0.082230 -0.010280
# 6 -0.009983 -0.000576 0.004827 -0.019245 -0.010280 0.068598
#
#
# Mechanical properties :
#
#
# Convention : Reuss Voigt Hill
#
# Bulk Modulus (GPa) = 45.45007 49.90822 47.67914
# Shear Modulus (GPa) = 19.48745 27.14142 23.31443
#
# Velocity S-wave (km/s) = 3.23987 3.82354 3.54374
# Velocity P-wave (km/s) = 6.20298 6.80994 6.51353
#
# Compressibility (1/GPa) = 0.02200217
#
# Stress axis : x y z
#
# Youngs Moduli (GPa) = 53.46021 67.60769 102.03582
#
# Poissons Ratio (x) = 0.42230 0.10005
# Poissons Ratio (y) = 0.33393 0.34903
# Poissons Ratio (z) = 0.05242 0.23126
#
# Static dielectric constant tensor:
#      x y z
#    x 3.261300 0.519780 -0.070490 
#    y 0.519780 2.101210 0.367590 
#    z -0.070490 0.367590 3.400030 
# 
# 
# High freq. dielectric constant tensor:
#      x y z
#    x 1.672030 -0.002340 -0.000310 
#    y -0.002340 1.721040 0.004610 
#    z -0.000310 0.004610 1.748960 
# 
# From -- ./inp_files/79978.got.cif
#   From: 2010.06.25/outbox.cif.g09.slc.cpg/sg2_40_cif.got.tgz:79978.got - 2010.06.27 13:26:56.
