data_PCOD8001614
_publ_section_title
;
Structure prediction by ZEFSAII (Michael W. Deem and Ramdas Pophale) SiO2 
 PCOD8001614
Probable space group: P -1
;
_chemical_formula_sum "Si O2"
_cell_formula_units_Z 14
_cell_length_a 11.801052
_cell_length_b 11.532985
_cell_length_c 5.070032
_cell_angle_alpha 114.919066
_cell_angle_beta 78.552283
_cell_angle_gamma 81.094576
_cell_volume 590.870911
_symmetry_space_group_name_H-M "P -1"
_symmetry_group_IT_number 2
_symmetry_cell_setting 'triclinic'
loop_
_space_group_symop_operation_xyz
x,y,z
-x,-y,-z
loop_
_atom_site_type_symbol
_atom_site_label
_atom_site_fract_x
_atom_site_fract_y
_atom_site_fract_z
Si Si1 0.085000 0.954808 0.664962
Si Si2 0.237736 0.146085 0.703606
Si Si3 0.187353 0.495150 0.452629
Si Si4 0.026985 0.380255 0.069725
Si Si5 0.652014 0.763511 0.743422
Si Si6 0.565679 0.342762 0.316909
Si Si7 0.723286 0.310406 0.706757
O O1 0.147466 0.797714 0.479781
O O2 0.203409 0.011385 0.659441
O O3 0.000000 0.000000 0.500000
O O4 0.000000 0.000000 0.000000
O O5 0.106095 0.243428 0.782235
O O6 0.321749 0.138706 0.400564
O O7 0.310340 0.190046 0.948731
O O8 0.279578 0.391213 0.498024
O O9 0.254071 0.546562 0.232732
O O10 0.101522 0.407967 0.310532
O O11 0.106368 0.623428 0.774505
O O12 0.000000 0.500000 0.000000
O O13 0.514429 0.758429 0.807850
O O14 0.500000 0.500000 0.500000
O O15 0.625019 0.292610 0.522808
O O16 0.671719 0.316344 0.028952
#
# Coordination Sequence:
#
# PCOD8001614 Si02
#       7
#     2   2   2   2   2   2   2
#     4  12  27  49  74 102 143 189 235 284 340 425
#     4  11  24  42  67  96 139 180 231 279 351 403
#     4  10  22  35  59  96 133 169 218 280 349 413
#     4  10  20  33  58  92 130 166 219 272 349 407
#     4  11  23  42  67  98 133 180 221 295 343 410
#     4  12  26  45  71 105 142 180 236 293 357 411
#     4  12  27  44  71 102 140 183 239 282 356 411
#
# _framework density 23.693835
#
# number of rings (size 3 to 8) (size 9 to 14) (size 15 to 20)
#    0.000    0.857    2.857    3.857    8.000    0.000 
#    0.000    4.286    0.000    0.000    0.000    0.000 
#    0.000    0.000    0.000    0.000    0.000    0.000 
#
# Total GULP energy -173490.783102 kJ/mol
# GULP energy per Si atom -12392.198793 kJ/mol
# Density = 2.363991 g / cm^3
# Si number density = 23.693835 Si / 1000 Ang^3
#
#
#
# Elastic Constant Matrix: (Units=GPa)
#
#
# Indices 1 2 3 4 5 6 
#
# 1 98.1520 18.5707 7.0997 -6.0268 -0.9400 4.7391
# 2 18.5707 81.9942 18.7733 -16.3360 -2.3246 7.5963
# 3 7.0997 18.7733 86.6618 -18.1297 -13.7146 -3.5451
# 4 -6.0268 -16.3360 -18.1297 37.4165 3.4767 -8.0702
# 5 -0.9400 -2.3246 -13.7146 3.4767 33.0902 -10.8635
# 6 4.7391 7.5963 -3.5451 -8.0702 -10.8635 51.8930
#
#
#
# Elastic Compliance Matrix: (Units=1/GPa)
#
#
# Indices 1 2 3 4 5 6 
#
# 1 0.010688 -0.002188 -0.000374 0.000467 -0.000273 -0.000666
# 2 -0.002188 0.014208 -0.002152 0.004569 -0.000932 -0.001512
# 3 -0.000374 -0.002152 0.014497 0.006216 0.006390 0.003644
# 4 0.000467 0.004569 0.006216 0.032793 0.001123 0.005048
# 5 -0.000273 -0.000932 0.006390 0.001123 0.035361 0.008175
# 6 -0.000666 -0.001512 0.003644 0.005048 0.008175 0.022298
#
#
# Mechanical properties :
#
#
# Convention : Reuss Voigt Hill
#
# Bulk Modulus (GPa) = 33.37436 39.52170 36.44803
# Shear Modulus (GPa) = 33.49825 39.30422 36.40124
#
# Velocity S-wave (km/s) = 3.76413 4.07730 3.92384
# Velocity P-wave (km/s) = 5.74524 6.23556 5.99542
#
# Compressibility (1/GPa) = 0.02996312
#
# Stress axis : x y z
#
# Youngs Moduli (GPa) = 93.56707 70.38216 68.98081
#
# Poissons Ratio (x) = 0.15399 0.02583
# Poissons Ratio (y) = 0.20472 0.14847
# Poissons Ratio (z) = 0.03503 0.15148
#
# Static dielectric constant tensor:
#      x y z
#    x 3.539340 -0.410570 -0.431890 
#    y -0.410570 4.217090 -0.171130 
#    z -0.431890 -0.171130 4.620680 
# 
# 
# High freq. dielectric constant tensor:
#      x y z
#    x 1.953880 0.000140 -0.005670 
#    y 0.000140 1.933600 -0.016890 
#    z -0.005670 -0.016890 1.925580 
# 
# From -- ./inp_files/72145.got.cif
#   From: 2010.06.25/outbox.cif.g09.slc.cpg/sg2_37_cif.got.tgz:72145.got - 2010.06.27 13:26:56.
