data_PCOD8001826
_publ_section_title
;
Structure prediction by ZEFSAII (Michael W. Deem and Ramdas Pophale) SiO2 
 PCOD8001826
Probable space group: P -1
;
_chemical_formula_sum "Si O2"
_cell_formula_units_Z 14
_cell_length_a 12.742666
_cell_length_b 5.251157
_cell_length_c 17.743838
_cell_angle_alpha 84.736307
_cell_angle_beta 141.654693
_cell_angle_gamma 92.228348
_cell_volume 732.446517
_symmetry_space_group_name_H-M "P -1"
_symmetry_group_IT_number 2
_symmetry_cell_setting 'triclinic'
loop_
_space_group_symop_operation_xyz
x,y,z
-x,-y,-z
loop_
_atom_site_type_symbol
_atom_site_label
_atom_site_fract_x
_atom_site_fract_y
_atom_site_fract_z
Si Si1 0.868795 0.203903 0.173092
Si Si2 0.176328 0.902532 0.135049
Si Si3 0.282526 0.310724 0.863168
Si Si4 0.569767 0.457712 0.923775
Si Si5 0.528453 0.317232 0.450900
Si Si6 0.786136 0.001169 0.683617
Si Si7 0.625386 0.594616 0.787057
O O1 0.846191 0.435269 0.214612
O O2 0.827331 0.936543 0.195463
O O3 0.738213 0.263121 0.028174
O O4 0.062442 0.191096 0.254519
O O5 0.151290 0.845850 0.212032
O O6 0.230193 0.631745 0.134688
O O7 0.305827 0.122568 0.185065
O O8 0.000000 0.000000 0.000000
O O9 0.402833 0.312386 0.857719
O O10 0.402002 0.312914 0.005843
O O11 0.538410 0.567649 0.819978
O O12 0.500000 0.500000 0.500000
O O13 0.715970 0.180112 0.570312
O O14 0.515562 0.445922 0.357146
O O15 0.374312 0.134372 0.371148
#
# Coordination Sequence:
#
# PCOD8001826 Si02
#       7
#     2   2   2   2   2   2   2
#     4  10  20  34  57  85 107 147 179 222 283 326
#     4  11  23  35  51  86 116 142 174 232 276 334
#     4   9  21  34  56  83 114 142 177 228 278 342
#     4   9  21  35  57  82 115 141 184 221 287 326
#     4  10  21  40  55  77 111 153 194 227 264 321
#     4  10  22  36  58  79 114 149 191 225 272 331
#     4  11  23  35  57  79 110 150 185 219 277 334
#
# _framework density 19.114021999999999
#
# number of rings (size 3 to 8) (size 9 to 14) (size 15 to 20)
#    0.857    1.143    1.429    1.714    6.000    1.143 
#    0.000    0.000    0.000    1.714    0.000    0.000 
#    0.000    0.000    0.000    0.000    0.000    0.000 
#
# Total GULP energy -173451.536477 kJ/mol
# GULP energy per Si atom -12389.395463 kJ/mol
# Density = 1.907052 g / cm^3
# Si number density = 19.114022 Si / 1000 Ang^3
#
#
#
# Elastic Constant Matrix: (Units=GPa)
#
#
# Indices 1 2 3 4 5 6 
#
# 1 97.2555 14.6368 57.9875 -22.7600 -12.2963 -0.4383
# 2 14.6368 79.7030 11.6660 -10.4175 -0.3203 2.4355
# 3 57.9875 11.6660 91.9627 -19.4048 -11.0041 3.7874
# 4 -22.7600 -10.4175 -19.4048 25.0963 -2.7431 2.5183
# 5 -12.2963 -0.3203 -11.0041 -2.7431 29.9031 -6.1166
# 6 -0.4383 2.4355 3.7874 2.5183 -6.1166 21.5899
#
#
#
# Elastic Compliance Matrix: (Units=1/GPa)
#
#
# Indices 1 2 3 4 5 6 
#
# 1 0.018993 -0.000875 -0.009110 0.010206 0.005909 0.002566
# 2 -0.000875 0.013424 -0.000048 0.004935 -0.000223 -0.002163
# 3 -0.009110 -0.000048 0.018540 0.006720 0.003004 -0.003365
# 4 0.010206 0.004935 0.006720 0.058068 0.010988 -0.005189
# 5 0.005909 -0.000223 0.003004 0.010988 0.039958 0.009657
# 6 0.002566 -0.002163 -0.003365 -0.005189 0.009657 0.050545
#
#
# Mechanical properties :
#
#
# Convention : Reuss Voigt Hill
#
# Bulk Modulus (GPa) = 32.37075 48.61134 40.49104
# Shear Modulus (GPa) = 21.74939 27.62659 24.68799
#
# Velocity S-wave (km/s) = 3.37690 3.80591 3.59781
# Velocity P-wave (km/s) = 5.67248 6.69334 6.20394
#
# Compressibility (1/GPa) = 0.03089209
#
# Stress axis : x y z
#
# Youngs Moduli (GPa) = 52.65177 74.49115 53.93618
#
# Poissons Ratio (x) = 0.06519 0.49136
# Poissons Ratio (y) = 0.04608 0.00256
# Poissons Ratio (z) = 0.47966 0.00354
#
# Static dielectric constant tensor:
#      x y z
#    x 3.303710 0.028540 -0.092660 
#    y 0.028540 3.305060 -0.406330 
#    z -0.092660 -0.406330 3.423890 
# 
# 
# High freq. dielectric constant tensor:
#      x y z
#    x 1.723070 -0.004600 -0.001000 
#    y -0.004600 1.744380 -0.007550 
#    z -0.001000 -0.007550 1.722490 
# 
# From -- ./inp_files/108571.got.cif
#   From: 2010.06.25/outbox.cif.g09.slc.cpg/sg2_55_cif.got.tgz:108571.got - 2010.06.27 13:26:56.
