data_PCOD8001258
_publ_section_title
;
Structure prediction by ZEFSAII (Michael W. Deem and Ramdas Pophale) SiO2 
 PCOD8001258
Probable space group: P -1
;
_chemical_formula_sum "Si O2"
_cell_formula_units_Z 16
_cell_length_a 15.833212
_cell_length_b 9.015127
_cell_length_c 21.140616
_cell_angle_alpha 123.239280
_cell_angle_beta 19.804287
_cell_angle_gamma 123.764375
_cell_volume 846.519314
_symmetry_space_group_name_H-M "P -1"
_symmetry_group_IT_number 2
_symmetry_cell_setting 'triclinic'
loop_
_space_group_symop_operation_xyz
x,y,z
-x,-y,-z
loop_
_atom_site_type_symbol
_atom_site_label
_atom_site_fract_x
_atom_site_fract_y
_atom_site_fract_z
Si Si1 0.981945 0.212499 0.771439
Si Si2 0.376375 0.579766 0.353609
Si Si3 0.069187 0.192174 0.276019
Si Si4 0.865718 0.670241 0.870972
Si Si5 0.127727 0.494855 0.840327
Si Si6 0.511412 0.344755 0.088625
Si Si7 0.882981 0.797940 0.023008
Si Si8 0.309876 0.469413 0.510024
O O1 0.017003 0.319787 0.837901
O O2 0.159514 0.295967 0.608825
O O3 0.050418 0.014376 0.684907
O O4 0.688669 0.207691 0.959219
O O5 0.401852 0.455042 0.247058
O O6 0.622351 0.728943 0.227339
O O7 0.340981 0.444737 0.406920
O O8 0.138531 0.681311 0.533592
O O9 0.183352 0.224480 0.133087
O O10 0.287343 0.230622 0.182598
O O11 0.156026 0.637169 0.665193
O O12 0.678962 0.483507 0.956688
O O13 0.812917 0.787323 0.995860
O O14 0.422304 0.487692 0.635414
O O15 0.000000 0.500000 0.000000
O O16 0.084543 0.668929 0.870856
O O17 0.000000 0.000000 0.000000
#
# Coordination Sequence:
#
# PCOD8001258 Si02
#       8
#     2   2   2   2   2   2   2   2
#     4  11  23  38  59  89 118 145 199 241 278 346
#     4  10  21  41  57  86 117 152 192 234 287 348
#     4  11  23  35  63  88 113 150 197 245 283 331
#     4   9  21  39  58  84 116 150 190 237 284 345
#     4  12  22  39  61  82 116 163 184 228 301 343
#     4  10  19  43  60  81 116 157 191 237 294 336
#     4  11  23  38  58  86 119 149 193 238 280 347
#     4  10  20  38  60  80 114 155 184 228 292 347
#
# _framework density 18.900925999999998
#
# number of rings (size 3 to 8) (size 9 to 14) (size 15 to 20)
#    0.000    1.500    5.000    1.500    3.500    0.000 
#    0.000    3.125    0.000    0.000    0.000    0.000 
#    0.000    0.000    0.000    0.000    0.000    0.000 
#
# Total GULP energy -198382.131750 kJ/mol
# GULP energy per Si atom -12398.883234 kJ/mol
# Density = 1.885791 g / cm^3
# Si number density = 18.900926 Si / 1000 Ang^3
#
#
#
# Elastic Constant Matrix: (Units=GPa)
#
#
# Indices 1 2 3 4 5 6 
#
# 1 111.0578 44.0186 44.8906 -7.0600 4.2369 -4.4107
# 2 44.0186 88.6448 18.6890 -3.7895 6.2745 2.8032
# 3 44.8906 18.6890 88.9016 -5.1383 -4.0075 1.2017
# 4 -7.0600 -3.7895 -5.1383 19.3794 -4.8040 -2.7805
# 5 4.2369 6.2745 -4.0075 -4.8040 39.1545 -6.6336
# 6 -4.4107 2.8032 1.2017 -2.7805 -6.6336 24.6713
#
#
#
# Elastic Compliance Matrix: (Units=1/GPa)
#
#
# Indices 1 2 3 4 5 6 
#
# 1 0.013905 -0.005677 -0.005718 0.002919 -0.000198 0.003685
# 2 -0.005677 0.014405 -0.000243 -0.000366 -0.002324 -0.003306
# 3 -0.005718 -0.000243 0.014423 0.002129 0.002251 -0.000852
# 4 0.002919 -0.000366 0.002129 0.056556 0.008442 0.009104
# 5 -0.000198 -0.002324 0.002251 0.008442 0.028688 0.008784
# 6 0.003685 -0.003306 -0.000852 0.009104 0.008784 0.044997
#
#
# Mechanical properties :
#
#
# Convention : Reuss Voigt Hill
#
# Bulk Modulus (GPa) = 51.39563 55.97785 53.68674
# Shear Modulus (GPa) = 24.66272 28.70812 26.68542
#
# Velocity S-wave (km/s) = 3.61618 3.90150 3.76155
# Velocity P-wave (km/s) = 6.68482 7.06940 6.87980
#
# Compressibility (1/GPa) = 0.01945691
#
# Stress axis : x y z
#
# Youngs Moduli (GPa) = 71.91521 69.42186 69.33514
#
# Poissons Ratio (x) = 0.39412 0.39645
# Poissons Ratio (y) = 0.40828 0.01683
# Poissons Ratio (z) = 0.41121 0.01685
#
# Static dielectric constant tensor:
#      x y z
#    x 3.612120 -0.155950 0.055330 
#    y -0.155950 3.231180 -0.064300 
#    z 0.055330 -0.064300 3.674900 
# 
# 
# High freq. dielectric constant tensor:
#      x y z
#    x 1.746830 -0.009420 -0.000340 
#    y -0.009420 1.713030 -0.001780 
#    z -0.000340 -0.001780 1.745220 
# 
# From -- ./inp_files/176721.got.cif
#   From: 2010.06.25/outbox.cif.g09.slc.cpg/sg2_89_cif.got.tgz:176721.got - 2010.06.27 13:26:56.
