data_PCOD8001868
_publ_section_title
;
Structure prediction by ZEFSAII (Michael W. Deem and Ramdas Pophale) SiO2 
 PCOD8001868
Probable space group: P -1
;
_chemical_formula_sum "Si O2"
_cell_formula_units_Z 12
_cell_length_a 11.764710
_cell_length_b 9.521219
_cell_length_c 9.460331
_cell_angle_alpha 139.332764
_cell_angle_beta 113.707749
_cell_angle_gamma 89.453837
_cell_volume 549.334804
_symmetry_space_group_name_H-M "P -1"
_symmetry_group_IT_number 2
_symmetry_cell_setting 'triclinic'
loop_
_space_group_symop_operation_xyz
x,y,z
-x,-y,-z
loop_
_atom_site_type_symbol
_atom_site_label
_atom_site_fract_x
_atom_site_fract_y
_atom_site_fract_z
Si Si1 0.037085 0.121257 0.800425
Si Si2 0.203642 0.729575 0.686348
Si Si3 0.348445 0.264615 0.109733
Si Si4 0.972220 0.630521 0.274914
Si Si5 0.345793 0.408468 0.527979
Si Si6 0.138740 0.857580 0.040215
O O1 0.998257 0.300081 0.824108
O O2 0.000455 0.140173 0.960760
O O3 0.940015 0.835713 0.485087
O O4 0.202084 0.207929 0.916607
O O5 0.106986 0.631421 0.422412
O O6 0.255201 0.542699 0.626013
O O7 0.111983 0.774591 0.798813
O O8 0.340938 0.000581 0.933791
O O9 0.355165 0.413253 0.367384
O O10 0.489534 0.432506 0.213309
O O11 0.840651 0.350247 0.021019
O O12 0.275398 0.129202 0.339732
#
# Coordination Sequence:
#
# PCOD8001868 Si02
#       6
#     2   2   2   2   2   2
#     4  10  21  38  57  80 111 144 184 224 269 326
#     4  10  20  34  58  85 109 140 183 228 271 318
#     4   9  20  36  56  80 110 149 181 220 272 324
#     4  10  21  35  55  83 111 144 180 224 275 321
#     4  10  20  35  55  83 114 141 181 227 271 323
#     4  11  21  34  57  87 111 138 180 232 276 315
#
# _framework density 21.844601999999998
#
# number of rings (size 3 to 8) (size 9 to 14) (size 15 to 20)
#    0.000    2.000    0.000    3.500    0.000    9.333 
#    0.000    0.833    0.000   18.000    0.000    2.333 
#    0.000    0.000    0.000    0.000    0.000    0.000 
#
# Total GULP energy -148663.130621 kJ/mol
# GULP energy per Si atom -12388.594218 kJ/mol
# Density = 2.179488 g / cm^3
# Si number density = 21.844602 Si / 1000 Ang^3
#
#
#
# Elastic Constant Matrix: (Units=GPa)
#
#
# Indices 1 2 3 4 5 6 
#
# 1 101.3720 54.7979 47.5131 12.6821 11.6608 -2.0240
# 2 54.7979 112.4013 56.7602 42.4490 18.4851 -2.0934
# 3 47.5131 56.7602 80.0361 27.2258 11.2510 3.2395
# 4 12.6821 42.4490 27.2258 44.8988 -3.2721 -7.9803
# 5 11.6608 18.4851 11.2510 -3.2721 16.5119 8.5562
# 6 -2.0240 -2.0934 3.2395 -7.9803 8.5562 25.0400
#
#
#
# Elastic Compliance Matrix: (Units=1/GPa)
#
#
# Indices 1 2 3 4 5 6 
#
# 1 0.016148 -0.006953 -0.007391 0.007212 0.000951 0.003654
# 2 -0.006953 0.028859 -0.003641 -0.024484 -0.032723 0.005700
# 3 -0.007391 -0.003641 0.024181 -0.010526 -0.006611 -0.005126
# 4 0.007212 -0.024484 -0.010526 0.053225 0.038034 0.003864
# 5 0.000951 -0.032723 -0.006611 0.038034 0.125428 -0.032541
# 6 0.003654 0.005700 -0.005126 0.003864 -0.032541 0.053722
#
#
# Mechanical properties :
#
#
# Convention : Reuss Voigt Hill
#
# Bulk Modulus (GPa) = 30.10211 67.99466 49.04838
# Shear Modulus (GPa) = 14.34287 26.27269 20.30778
#
# Velocity S-wave (km/s) = 2.56517 3.47177 3.05232
# Velocity P-wave (km/s) = 4.75221 6.87496 5.90968
#
# Compressibility (1/GPa) = 0.03322026
#
# Stress axis : x y z
#
# Youngs Moduli (GPa) = 61.92624 34.65107 41.35412
#
# Poissons Ratio (x) = 0.24092 0.30564
# Poissons Ratio (y) = 0.43055 0.15056
# Poissons Ratio (z) = 0.45768 0.12616
#
# Static dielectric constant tensor:
#      x y z
#    x 3.802680 0.095110 -0.112440 
#    y 0.095110 4.044180 0.500590 
#    z -0.112440 0.500590 4.131070 
# 
# 
# High freq. dielectric constant tensor:
#      x y z
#    x 1.836620 0.000080 -0.027120 
#    y 0.000080 1.849470 0.042810 
#    z -0.027120 0.042810 1.856210 
# 
# From -- ./inp_files/241636.got.cif
#   From: 2010.06.25/outbox.cif.g09.slc.cpg/sg2_121_cif.got.tgz:241636.got - 2010.06.27 13:26:56.
