data_PCOD8001985
_publ_section_title
;
Structure prediction by ZEFSAII (Michael W. Deem and Ramdas Pophale) SiO2 
 PCOD8001985
Probable space group: P -1
;
_chemical_formula_sum "Si O2"
_cell_formula_units_Z 16
_cell_length_a 13.256281
_cell_length_b 17.612278
_cell_length_c 13.720696
_cell_angle_alpha 44.322892
_cell_angle_beta 124.499648
_cell_angle_gamma 157.103161
_cell_volume 818.706232
_symmetry_space_group_name_H-M "P -1"
_symmetry_group_IT_number 2
_symmetry_cell_setting 'triclinic'
loop_
_space_group_symop_operation_xyz
x,y,z
-x,-y,-z
loop_
_atom_site_type_symbol
_atom_site_label
_atom_site_fract_x
_atom_site_fract_y
_atom_site_fract_z
Si Si1 0.100249 0.315102 0.237161
Si Si2 0.304729 0.939172 0.058767
Si Si3 0.893928 0.340510 0.983433
Si Si4 0.710713 0.957377 0.516256
Si Si5 0.982734 0.385980 0.333473
Si Si6 0.002521 0.027069 0.361843
Si Si7 0.100053 0.514801 0.632205
Si Si8 0.514925 0.711717 0.258082
O O1 0.142713 0.259243 0.225324
O O2 0.332043 0.490846 0.287783
O O3 0.803850 0.055925 0.365119
O O4 0.095395 0.429608 0.079730
O O5 0.184541 0.782300 0.044546
O O6 0.105371 0.748841 0.214039
O O7 0.613237 0.146792 0.064607
O O8 0.299559 0.063135 0.916515
O O9 0.059630 0.582536 0.821623
O O10 0.828043 0.932876 0.636867
O O11 0.387491 0.689553 0.600235
O O12 0.818248 0.142136 0.472507
O O13 0.312820 0.622624 0.298861
O O14 0.878917 0.379371 0.368724
O O15 0.000000 0.000000 0.500000
O O16 0.706905 0.793910 0.359193
O O17 0.000000 0.500000 0.500000
#
# Coordination Sequence:
#
# PCOD8001985 Si02
#       8
#     2   2   2   2   2   2   2   2
#     4  10  20  34  62  88 114 146 187 239 287 335
#     4   9  18  32  56  82 116 149 186 234 286 337
#     4   9  16  32  57  87 111 142 186 239 291 331
#     4  10  22  37  51  83 115 151 187 221 284 341
#     4   9  21  35  59  84 113 147 185 239 286 338
#     4  10  22  37  59  83 117 151 188 238 283 335
#     4  11  22  34  55  84 116 154 183 228 284 345
#     4  10  20  37  60  90 111 144 194 241 285 329
#
# _framework density 19.543030000000002
#
# number of rings (size 3 to 8) (size 9 to 14) (size 15 to 20)
#    0.000    2.250    1.250    1.875    3.500   10.000 
#    0.000    0.625    0.000    0.750    0.000    0.000 
#    0.000    0.000    0.000    0.000    0.000    0.000 
#
# Total GULP energy -198209.248934 kJ/mol
# GULP energy per Si atom -12388.078058 kJ/mol
# Density = 1.949855 g / cm^3
# Si number density = 19.543030 Si / 1000 Ang^3
#
#
#
# Elastic Constant Matrix: (Units=GPa)
#
#
# Indices 1 2 3 4 5 6 
#
# 1 85.5500 42.6608 32.3032 -0.9312 12.8481 12.0116
# 2 42.6608 111.7495 51.3727 18.5433 5.7754 13.0363
# 3 32.3032 51.3727 103.1780 -3.1532 -2.6011 17.8819
# 4 -0.9312 18.5433 -3.1532 35.2245 6.5796 4.1198
# 5 12.8481 5.7754 -2.6011 6.5796 16.4269 1.1256
# 6 12.0116 13.0363 17.8819 4.1198 1.1256 32.3268
#
#
#
# Elastic Compliance Matrix: (Units=1/GPa)
#
#
# Indices 1 2 3 4 5 6 
#
# 1 0.018299 -0.005764 -0.002445 0.006511 -0.015045 -0.003428
# 2 -0.005764 0.015356 -0.006157 -0.009173 0.001778 0.000462
# 3 -0.002445 -0.006157 0.014727 0.004180 0.005109 -0.005466
# 4 0.006511 -0.009173 0.004180 0.037328 -0.015798 -0.005239
# 5 -0.015045 0.001778 0.005109 -0.015798 0.079065 0.001308
# 6 -0.003428 0.000462 -0.005466 -0.005239 0.001308 0.035667
#
#
# Mechanical properties :
#
#
# Convention : Reuss Voigt Hill
#
# Bulk Modulus (GPa) = 50.89349 61.46120 56.17734
# Shear Modulus (GPa) = 21.21128 28.40504 24.80816
#
# Velocity S-wave (km/s) = 3.29806 3.81656 3.56675
# Velocity P-wave (km/s) = 6.37191 7.13716 6.76536
#
# Compressibility (1/GPa) = 0.01964888
#
# Stress axis : x y z
#
# Youngs Moduli (GPa) = 54.64916 65.12153 67.90398
#
# Poissons Ratio (x) = 0.37539 0.16603
# Poissons Ratio (y) = 0.31502 0.41806
# Poissons Ratio (z) = 0.13362 0.40093
#
# Static dielectric constant tensor:
#      x y z
#    x 3.705690 -0.290700 0.525200 
#    y -0.290700 3.489300 -0.017880 
#    z 0.525200 -0.017880 3.814520 
# 
# 
# High freq. dielectric constant tensor:
#      x y z
#    x 1.747710 -0.011840 0.025480 
#    y -0.011840 1.750690 0.006930 
#    z 0.025480 0.006930 1.752530 
# 
# From -- ./inp_files/388448.got.cif
#   From: 2010.06.25/outbox.cif.g09.slc.cpg/sg2_195_cif.got.tgz:388448.got - 2010.06.27 13:26:56.
