data_PCOD8001512
_publ_section_title
;
Structure prediction by ZEFSAII (Michael W. Deem and Ramdas Pophale) SiO2 
 PCOD8001512
Probable space group: P -1
;
_chemical_formula_sum "Si O2"
_cell_formula_units_Z 16
_cell_length_a 6.312444
_cell_length_b 6.764738
_cell_length_c 23.975766
_cell_angle_alpha 106.562539
_cell_angle_beta 126.741552
_cell_angle_gamma 89.776767
_cell_volume 767.657288
_symmetry_space_group_name_H-M "P -1"
_symmetry_group_IT_number 2
_symmetry_cell_setting 'triclinic'
loop_
_space_group_symop_operation_xyz
x,y,z
-x,-y,-z
loop_
_atom_site_type_symbol
_atom_site_label
_atom_site_fract_x
_atom_site_fract_y
_atom_site_fract_z
Si Si1 0.559332 0.207853 0.640698
Si Si2 0.729514 0.776862 0.606611
Si Si3 0.482529 0.629780 0.238665
Si Si4 0.058651 0.597049 0.728336
Si Si5 0.757896 0.612048 0.482301
Si Si6 0.122356 0.616973 0.861927
Si Si7 0.926031 0.217488 0.018680
Si Si8 0.580174 0.392209 0.894757
O O1 0.466390 0.195238 0.690141
O O2 0.304785 0.248590 0.568335
O O3 0.823766 0.390404 0.686043
O O4 0.619446 0.985876 0.615020
O O5 0.836400 0.770666 0.559790
O O6 0.501095 0.569542 0.561825
O O7 0.967664 0.767391 0.687504
O O8 0.689933 0.475056 0.266985
O O9 0.512775 0.727573 0.188574
O O10 0.182641 0.500663 0.188317
O O11 0.155686 0.713889 0.812206
O O12 0.000000 0.500000 0.500000
O O13 0.184301 0.787893 0.935338
O O14 0.322497 0.456552 0.887910
O O15 0.187165 0.401894 0.064348
O O16 0.683187 0.236099 0.940363
O O17 0.000000 0.000000 0.000000
#
# Coordination Sequence:
#
# PCOD8001512 Si02
#       8
#     2   2   2   2   2   2   2   2
#     4  10  20  34  54  78 101 131 171 209 249 299
#     4  10  21  35  53  77 103 133 169 208 250 298
#     4   9  18  35  55  74 101 135 168 207 254 299
#     4   9  19  36  53  73 103 134 167 208 252 299
#     4  10  21  36  53  75 105 136 166 206 253 299
#     4   9  18  35  54  73 104 137 165 208 256 296
#     4  10  20  33  53  78 101 133 173 207 248 301
#     4   9  19  36  53  73 105 136 165 208 254 297
#
# _framework density 20.842632999999999
#
# number of rings (size 3 to 8) (size 9 to 14) (size 15 to 20)
#    0.000    2.500    0.000    1.500    0.000    3.000 
#    0.000   11.250    0.000    0.000    0.000    0.000 
#    0.000    0.000    0.000    0.000    0.000    0.000 
#
# Total GULP energy -198316.426156 kJ/mol
# GULP energy per Si atom -12394.776635 kJ/mol
# Density = 2.079519 g / cm^3
# Si number density = 20.842633 Si / 1000 Ang^3
#
#
#
# Elastic Constant Matrix: (Units=GPa)
#
#
# Indices 1 2 3 4 5 6 
#
# 1 118.5371 33.7979 66.5564 -11.6651 -20.6180 -46.3839
# 2 33.7979 93.5314 75.7026 -17.8380 -19.5373 -40.8570
# 3 66.5564 75.7026 158.2013 -36.6558 -38.7944 -36.8052
# 4 -11.6651 -17.8380 -36.6558 27.7766 -12.0775 8.0589
# 5 -20.6180 -19.5373 -38.7944 -12.0775 50.8941 7.0783
# 6 -46.3839 -40.8570 -36.8052 8.0589 7.0783 38.4432
#
#
#
# Elastic Compliance Matrix: (Units=1/GPa)
#
#
# Indices 1 2 3 4 5 6 
#
# 1 0.022441 0.013046 -0.005772 0.002857 0.005681 0.033771
# 2 0.013046 0.033470 -0.008477 0.007561 0.007881 0.040161
# 3 -0.005772 -0.008477 0.028274 0.041517 0.026149 -0.002422
# 4 0.002857 0.007561 0.041517 0.119533 0.062021 0.014754
# 5 0.005681 0.007881 0.026149 0.062021 0.057301 0.016713
# 6 0.033771 0.040161 -0.002422 0.014754 0.016713 0.100952
#
#
# Mechanical properties :
#
#
# Convention : Reuss Voigt Hill
#
# Bulk Modulus (GPa) = 12.22795 80.26485 46.24640
# Shear Modulus (GPa) = 12.76691 36.37031 24.56861
#
# Velocity S-wave (km/s) = 2.47764 4.18185 3.43704
# Velocity P-wave (km/s) = 3.75026 7.86833 6.16340
#
# Compressibility (1/GPa) = 0.08177986
#
# Stress axis : x y z
#
# Youngs Moduli (GPa) = 44.56060 29.87775 35.36765
#
# Poissons Ratio (x) = -0.38980 0.20416
# Poissons Ratio (y) = -0.58135 0.29980
# Poissons Ratio (z) = 0.25722 0.25327
#
# Static dielectric constant tensor:
#      x y z
#    x 4.044520 -0.165910 -0.315700 
#    y -0.165910 3.331000 -0.285720 
#    z -0.315700 -0.285720 4.562580 
# 
# 
# High freq. dielectric constant tensor:
#      x y z
#    x 1.827040 -0.021540 -0.008260 
#    y -0.021540 1.774730 -0.018600 
#    z -0.008260 -0.018600 1.840380 
# 
# From -- ./inp_files/10593.got.cif
#   From: 2010.06.25/outbox.cif.g09.slc.cpg/sg2_6_cif.got.tgz:10593.got - 2010.06.27 13:26:56.
