data_PCOD8001285
_publ_section_title
;
Structure prediction by ZEFSAII (Michael W. Deem and Ramdas Pophale) SiO2 
 PCOD8001285
Probable space group: P -1
;
_chemical_formula_sum "Si O2"
_cell_formula_units_Z 16
_cell_length_a 24.383520
_cell_length_b 8.864771
_cell_length_c 9.511849
_cell_angle_alpha 133.066007
_cell_angle_beta 133.403005
_cell_angle_gamma 29.745074
_cell_volume 719.600512
_symmetry_space_group_name_H-M "P -1"
_symmetry_group_IT_number 2
_symmetry_cell_setting 'triclinic'
loop_
_space_group_symop_operation_xyz
x,y,z
-x,-y,-z
loop_
_atom_site_type_symbol
_atom_site_label
_atom_site_fract_x
_atom_site_fract_y
_atom_site_fract_z
Si Si1 0.122476 0.691235 0.771231
Si Si2 0.875041 0.849367 0.022898
Si Si3 0.349606 0.087323 0.931450
Si Si4 0.074579 0.144172 0.380299
Si Si5 0.819904 0.807561 0.615573
Si Si6 0.533612 0.882793 0.326061
Si Si7 0.741212 0.148398 0.258600
Si Si8 0.578701 0.155043 0.377393
O O1 0.236290 0.445231 0.911424
O O2 0.109793 0.542615 0.530299
O O3 0.008299 0.886239 0.789275
O O4 0.120143 0.915201 0.835263
O O5 0.816344 0.919364 0.112012
O O6 0.802727 0.876989 0.795054
O O7 0.000000 0.500000 0.000000
O O8 0.311694 0.939244 0.815382
O O9 0.445376 0.891347 0.849089
O O10 0.414361 0.062178 0.158232
O O11 0.130936 0.075222 0.283406
O O12 0.000000 0.500000 0.500000
O O13 0.174086 0.907859 0.521212
O O14 0.698366 0.016753 0.467234
O O15 0.634555 0.508385 0.253479
O O16 0.500000 0.000000 0.500000
O O17 0.583168 0.981677 0.399383
O O18 0.500000 0.500000 0.500000
#
# Coordination Sequence:
#
# PCOD8001285 Si02
#       8
#     2   2   2   2   2   2   2   2
#     4  10  23  46  75  98 140 190 236 292 348 430
#     4  12  28  42  68 110 145 185 235 294 364 418
#     4  11  24  47  73  99 138 191 238 284 359 431
#     4  10  19  43  74  98 134 184 238 282 349 423
#     4  10  23  43  70 101 135 184 240 282 353 427
#     4  12  29  44  71 111 140 183 236 301 368 414
#     4  12  24  46  72 101 148 178 230 308 353 416
#     4  11  24  44  71  98 135 190 234 287 348 430
#
# _framework density 22.234559000000001
#
# number of rings (size 3 to 8) (size 9 to 14) (size 15 to 20)
#    0.000    1.000    3.750    4.500    5.250    3.500 
#    0.000    0.000    0.000    0.000    0.000    0.000 
#    0.000    0.000    0.000    0.000    0.000    0.000 
#
# Total GULP energy -198304.064804 kJ/mol
# GULP energy per Si atom -12394.004050 kJ/mol
# Density = 2.218395 g / cm^3
# Si number density = 22.234559 Si / 1000 Ang^3
#
#
#
# Elastic Constant Matrix: (Units=GPa)
#
#
# Indices 1 2 3 4 5 6 
#
# 1 136.9347 51.4407 37.6038 8.6967 -13.3207 3.0603
# 2 51.4407 100.2017 28.8478 2.5074 -2.1606 4.9210
# 3 37.6038 28.8478 102.9118 -8.8803 -22.3859 -4.3481
# 4 8.6967 2.5074 -8.8803 32.1765 -2.1196 2.4752
# 5 -13.3207 -2.1606 -22.3859 -2.1196 43.7811 1.2403
# 6 3.0603 4.9210 -4.3481 2.4752 1.2403 36.2379
#
#
#
# Elastic Compliance Matrix: (Units=1/GPa)
#
#
# Indices 1 2 3 4 5 6 
#
# 1 0.009890 -0.004275 -0.002361 -0.002865 0.001463 -0.000392
# 2 -0.004275 0.012982 -0.002628 -0.000589 -0.001987 -0.001609
# 3 -0.002361 -0.002628 0.013106 0.004735 0.006037 0.001599
# 4 -0.002865 -0.000589 0.004735 0.033532 0.003186 -0.001509
# 5 0.001463 -0.001987 0.006037 0.003186 0.026436 -0.000252
# 6 -0.000392 -0.001609 0.001599 -0.001509 -0.000252 0.028151
#
#
# Mechanical properties :
#
#
# Convention : Reuss Voigt Hill
#
# Bulk Modulus (GPa) = 57.30637 63.98141 60.64389
# Shear Modulus (GPa) = 33.68345 37.24950 35.46647
#
# Velocity S-wave (km/s) = 3.89641 4.09748 3.99821
# Velocity P-wave (km/s) = 6.78765 7.15709 6.97482
#
# Compressibility (1/GPa) = 0.01745007
#
# Stress axis : x y z
#
# Youngs Moduli (GPa) = 101.11079 77.02945 76.30273
#
# Poissons Ratio (x) = 0.32931 0.18015
# Poissons Ratio (y) = 0.43226 0.20051
# Poissons Ratio (z) = 0.23872 0.20242
#
# Static dielectric constant tensor:
#      x y z
#    x 4.676430 0.622560 -0.770460 
#    y 0.622560 4.194130 -1.764100 
#    z -0.770460 -1.764100 5.330890 
# 
# 
# High freq. dielectric constant tensor:
#      x y z
#    x 1.894490 -0.006250 -0.005860 
#    y -0.006250 1.874180 -0.006630 
#    z -0.005860 -0.006630 1.872580 
# 
# From -- ./inp_files/352443.got.cif
#   From: 2010.06.25/outbox.cif.g09.slc.cpg/sg2_177_cif.got.tgz:352443.got - 2010.06.27 13:26:56.
