data_PCOD8001375
_publ_section_title
;
Structure prediction by ZEFSAII (Michael W. Deem and Ramdas Pophale) SiO2 
 PCOD8001375
Probable space group: P -1
;
_chemical_formula_sum "Si O2"
_cell_formula_units_Z 16
_cell_length_a 15.496861
_cell_length_b 15.421759
_cell_length_c 16.337646
_cell_angle_alpha 43.232601
_cell_angle_beta 161.873340
_cell_angle_gamma 137.440692
_cell_volume 814.010687
_symmetry_space_group_name_H-M "P -1"
_symmetry_group_IT_number 2
_symmetry_cell_setting 'triclinic'
loop_
_space_group_symop_operation_xyz
x,y,z
-x,-y,-z
loop_
_atom_site_type_symbol
_atom_site_label
_atom_site_fract_x
_atom_site_fract_y
_atom_site_fract_z
Si Si1 0.813790 0.356659 0.431099
Si Si2 0.570301 0.920340 0.988833
Si Si3 0.724573 0.412828 0.773248
Si Si4 0.410563 0.549492 0.684846
Si Si5 0.997306 0.461873 0.826893
Si Si6 0.199190 0.732176 0.911166
Si Si7 0.904762 0.940676 0.541106
Si Si8 0.362071 0.295593 0.922440
O O1 0.644235 0.341711 0.374606
O O2 0.000000 0.500000 0.500000
O O3 0.039863 0.263286 0.690616
O O4 0.589889 0.338456 0.168994
O O5 0.417778 0.838761 0.984530
O O6 0.409160 0.035609 0.739679
O O7 0.889888 0.984022 0.255749
O O8 0.572511 0.831172 0.973290
O O9 0.500000 0.500000 0.500000
O O10 0.809163 0.369312 0.788900
O O11 0.626776 0.298572 0.829932
O O12 0.000000 0.500000 0.000000
O O13 0.175709 0.536016 0.412914
O O14 0.390616 0.409280 0.803603
O O15 0.723798 0.595680 0.898409
O O16 0.079887 0.609058 0.832319
O O17 0.932826 0.790363 0.665528
O O18 0.000000 0.000000 0.500000
#
# Coordination Sequence:
#
# PCOD8001375 Si02
#       8
#     2   2   2   2   2   2   2   2
#     4  10  20  32  48  72 101 133 166 200 253 308
#     4  11  22  33  52  75 100 136 181 202 247 306
#     4  10  22  35  49  74  99 133 178 215 245 298
#     4  11  20  32  50  72 102 132 169 202 248 305
#     4  11  21  32  52  74  99 136 177 201 244 307
#     4  10  21  36  52  68 107 140 169 211 259 276
#     4  10  22  34  49  73  99 133 180 217 242 294
#     4  11  20  32  50  71 104 134 167 203 250 305
#
# _framework density 19.655760000000001
#
# number of rings (size 3 to 8) (size 9 to 14) (size 15 to 20)
#    0.000    1.500    1.250    7.500    3.500    5.000 
#    0.000    0.000    0.000    0.000    0.000    0.000 
#    0.000   20.000    0.000    0.000    0.000    0.000 
#
# Total GULP energy -198310.086638 kJ/mol
# GULP energy per Si atom -12394.380415 kJ/mol
# Density = 1.961102 g / cm^3
# Si number density = 19.655760 Si / 1000 Ang^3
#
#
#
# Elastic Constant Matrix: (Units=GPa)
#
#
# Indices 1 2 3 4 5 6 
#
# 1 108.4914 28.8986 38.2671 -10.6827 8.5308 -23.0742
# 2 28.8986 34.1221 27.0900 -10.0089 -5.3624 -15.1567
# 3 38.2671 27.0900 128.5318 -7.3241 2.5329 -11.7771
# 4 -10.6827 -10.0089 -7.3241 32.0704 -12.3901 2.3401
# 5 8.5308 -5.3624 2.5329 -12.3901 42.1256 -1.0336
# 6 -23.0742 -15.1567 -11.7771 2.3401 -1.0336 23.7252
#
#
#
# Elastic Compliance Matrix: (Units=1/GPa)
#
#
# Indices 1 2 3 4 5 6 
#
# 1 0.013679 -0.007365 -0.001759 -0.000019 -0.003421 0.007578
# 2 -0.007365 0.062019 -0.007572 0.019439 0.016233 0.027488
# 3 -0.001759 -0.007572 0.009708 -0.001225 -0.001593 -0.001678
# 4 -0.000019 0.019439 -0.001225 0.042219 0.015173 0.008289
# 5 -0.003421 0.016233 -0.001593 0.015173 0.031206 0.006115
# 6 0.007578 0.027488 -0.001678 0.008289 0.006115 0.065696
#
#
# Mechanical properties :
#
#
# Convention : Reuss Voigt Hill
#
# Bulk Modulus (GPa) = 19.22640 51.07296 35.14968
# Shear Modulus (GPa) = 18.16486 31.37687 24.77087
#
# Velocity S-wave (km/s) = 3.04328 3.99973 3.55383
# Velocity P-wave (km/s) = 4.70654 6.88263 5.89585
#
# Compressibility (1/GPa) = 0.05201181
#
# Stress axis : x y z
#
# Youngs Moduli (GPa) = 73.10737 16.12414 103.01042
#
# Poissons Ratio (x) = 0.11875 0.18124
# Poissons Ratio (y) = 0.53844 0.78001
# Poissons Ratio (z) = 0.12863 0.12209
#
# Static dielectric constant tensor:
#      x y z
#    x 4.526700 -0.115860 0.143550 
#    y -0.115860 3.593720 -0.399870 
#    z 0.143550 -0.399870 4.224120 
# 
# 
# High freq. dielectric constant tensor:
#      x y z
#    x 1.760870 -0.030000 0.005550 
#    y -0.030000 1.715720 0.003630 
#    z 0.005550 0.003630 1.795380 
# 
# From -- ./inp_files/454763.got.cif
#   From: 2010.06.25/outbox.cif.g09.slc.cpg/sg2_228_cif.got.tgz:454763.got - 2010.06.27 13:26:56.
