data_PCOD8001860
_publ_section_title
;
Structure prediction by ZEFSAII (Michael W. Deem and Ramdas Pophale) SiO2 
 PCOD8001860
Probable space group: P -1
;
_chemical_formula_sum "Si O2"
_cell_formula_units_Z 10
_cell_length_a 8.718082
_cell_length_b 14.343874
_cell_length_c 9.866716
_cell_angle_alpha 107.032593
_cell_angle_beta 92.853207
_cell_angle_gamma 144.590584
_cell_volume 583.540474
_symmetry_space_group_name_H-M "P -1"
_symmetry_group_IT_number 2
_symmetry_cell_setting 'triclinic'
loop_
_space_group_symop_operation_xyz
x,y,z
-x,-y,-z
loop_
_atom_site_type_symbol
_atom_site_label
_atom_site_fract_x
_atom_site_fract_y
_atom_site_fract_z
Si Si1 0.105812 0.293361 0.768032
Si Si2 0.795491 0.987495 0.118635
Si Si3 0.236079 0.254415 0.020839
Si Si4 0.139051 0.983872 0.572933
Si Si5 0.749066 0.282753 0.855175
O O1 0.448389 0.515011 0.834819
O O2 0.945192 0.160932 0.572119
O O3 0.909501 0.274685 0.806538
O O4 0.114860 0.215402 0.850302
O O5 0.998549 0.097716 0.314288
O O6 0.983093 0.146490 0.077077
O O7 0.466883 0.860141 0.082762
O O8 0.709056 0.830238 0.002508
O O9 0.516823 0.199004 0.693643
O O10 0.000000 0.000000 0.500000
O O11 0.000000 0.500000 0.000000
#
# Coordination Sequence:
#
# PCOD8001860 Si02
#       5
#     2   2   2   2   2
#     4  11  19  34  60  82 108 142 190 214 276 320
#     4   9  20  37  54  79 113 145 179 223 274 314
#     4  10  20  34  58  83 106 150 180 222 264 339
#     4  10  20  36  57  82 107 147 179 229 265 324
#     4  10  20  36  57  82 107 147 179 229 265 324
#
# _framework density 17.136769999999999
#
# number of rings (size 3 to 8) (size 9 to 14) (size 15 to 20)
#    1.200    0.800    4.000    0.600    2.800    1.600 
#    0.000    0.000    0.000    2.400    0.000    0.000 
#    0.000    0.000    0.000    0.000    0.000    0.000 
#
# Total GULP energy -123904.622595 kJ/mol
# GULP energy per Si atom -12390.462259 kJ/mol
# Density = 1.709777 g / cm^3
# Si number density = 17.136770 Si / 1000 Ang^3
#
#
#
# Elastic Constant Matrix: (Units=GPa)
#
#
# Indices 1 2 3 4 5 6 
#
# 1 64.9934 35.7119 10.4223 14.6803 -8.7093 8.8107
# 2 35.7119 112.7648 49.1485 -3.6811 -8.2729 22.2800
# 3 10.4223 49.1485 100.2402 21.8928 -11.2315 7.2022
# 4 14.6803 -3.6811 21.8928 24.8432 2.0259 -4.8932
# 5 -8.7093 -8.2729 -11.2315 2.0259 34.5484 -0.7161
# 6 8.8107 22.2800 7.2022 -4.8932 -0.7161 28.2396
#
#
#
# Elastic Compliance Matrix: (Units=1/GPa)
#
#
# Indices 1 2 3 4 5 6 
#
# 1 0.031659 -0.014696 0.013270 -0.034916 0.010669 -0.007447
# 2 -0.014696 0.020997 -0.014196 0.023838 -0.004780 -0.004351
# 3 0.013270 -0.014196 0.024152 -0.032912 0.009633 -0.004558
# 4 -0.034916 0.023838 -0.032912 0.098342 -0.019207 0.017033
# 5 0.010669 -0.004780 0.009633 -0.019207 0.034655 -0.004464
# 6 -0.007447 -0.004351 -0.004558 0.017033 -0.004464 0.045168
#
#
# Mechanical properties :
#
#
# Convention : Reuss Voigt Hill
#
# Bulk Modulus (GPa) = 21.94726 52.06264 37.00495
# Shear Modulus (GPa) = 16.58905 29.70728 23.14816
#
# Velocity S-wave (km/s) = 3.11471 4.16810 3.67930
# Velocity P-wave (km/s) = 5.07643 7.32193 6.30003
#
# Compressibility (1/GPa) = 0.04556376
#
# Stress axis : x y z
#
# Youngs Moduli (GPa) = 31.58657 47.62694 41.40499
#
# Poissons Ratio (x) = 0.69991 -0.54945
# Poissons Ratio (y) = 0.46419 0.58779
# Poissons Ratio (z) = -0.41916 0.67612
#
# Static dielectric constant tensor:
#      x y z
#    x 3.230470 0.144790 -0.161200 
#    y 0.144790 3.127780 0.044760 
#    z -0.161200 0.044760 3.293210 
# 
# 
# High freq. dielectric constant tensor:
#      x y z
#    x 1.664830 0.007910 -0.013520 
#    y 0.007910 1.644500 0.008340 
#    z -0.013520 0.008340 1.660470 
# 
# From -- ./inp_files/144340.got.cif
#   From: 2010.06.25/outbox.cif.g09.slc.cpg/sg2_73_cif.got.tgz:144340.got - 2010.06.27 13:26:56.
