data_PCOD8001526
_publ_section_title
;
Structure prediction by ZEFSAII (Michael W. Deem and Ramdas Pophale) SiO2 
 PCOD8001526
Probable space group: P -1
;
_chemical_formula_sum "Si O2"
_cell_formula_units_Z 16
_cell_length_a 11.750282
_cell_length_b 14.851852
_cell_length_c 14.620825
_cell_angle_alpha 139.432006
_cell_angle_beta 151.088219
_cell_angle_gamma 50.201933
_cell_volume 799.737229
_symmetry_space_group_name_H-M "P -1"
_symmetry_group_IT_number 2
_symmetry_cell_setting 'triclinic'
loop_
_space_group_symop_operation_xyz
x,y,z
-x,-y,-z
loop_
_atom_site_type_symbol
_atom_site_label
_atom_site_fract_x
_atom_site_fract_y
_atom_site_fract_z
Si Si1 0.233208 0.930981 0.140871
Si Si2 0.848657 0.323232 0.813549
Si Si3 0.648673 0.353101 0.042704
Si Si4 0.759853 0.468221 0.687069
Si Si5 0.813150 0.745504 0.462447
Si Si6 0.597306 0.576549 0.331668
Si Si7 0.939267 0.467308 0.618119
Si Si8 0.733812 0.056712 0.621053
O O1 0.230192 0.874551 0.200002
O O2 0.461396 0.042198 0.384755
O O3 0.263883 0.800613 0.994432
O O4 0.000000 0.000000 0.000000
O O5 0.760188 0.340689 0.660575
O O6 0.667797 0.385745 0.806624
O O7 0.867499 0.159973 0.721882
O O8 0.110057 0.397192 0.067832
O O9 0.617078 0.437987 0.178503
O O10 0.827789 0.431950 0.158738
O O11 0.398365 0.335570 0.804410
O O12 0.500000 0.500000 0.500000
O O13 0.909928 0.430139 0.675056
O O14 0.753574 0.708203 0.497839
O O15 0.047268 0.676904 0.540245
O O16 0.844265 0.908493 0.589541
O O17 0.713368 0.544815 0.486049
#
# Coordination Sequence:
#
# PCOD8001526 Si02
#       8
#     2   2   2   2   2   2   2   2
#     4  10  21  32  55  82 124 161 184 223 281 361
#     4  11  23  40  63  85 116 151 191 253 281 341
#     4  10  20  33  53  89 116 152 189 226 295 340
#     4  11  23  42  62  87 108 148 205 243 294 330
#     4  10  20  36  56  85 123 152 184 229 288 361
#     4  11  20  33  59  88 118 148 190 237 289 341
#     4  11  21  34  59  85 115 152 196 243 279 337
#     4  10  22  38  53  85 121 153 191 227 292 344
#
# _framework density 20.006571000000001
#
# number of rings (size 3 to 8) (size 9 to 14) (size 15 to 20)
#    0.000    1.500    1.250    7.500    5.250    1.000 
#    0.000    0.625    0.000    0.750    0.000    0.000 
#    0.000    0.000    0.000    0.000    0.000    0.000 
#
# Total GULP energy -198340.161075 kJ/mol
# GULP energy per Si atom -12396.260067 kJ/mol
# Density = 1.996104 g / cm^3
# Si number density = 20.006571 Si / 1000 Ang^3
#
#
#
# Elastic Constant Matrix: (Units=GPa)
#
#
# Indices 1 2 3 4 5 6 
#
# 1 89.9755 28.8775 18.7324 6.2310 -4.1511 18.5722
# 2 28.8775 124.4827 48.0297 1.3553 2.0447 12.9774
# 3 18.7324 48.0297 54.9983 4.6668 0.4690 8.5059
# 4 6.2310 1.3553 4.6668 25.3191 -2.4958 3.4360
# 5 -4.1511 2.0447 0.4690 -2.4958 20.9378 -0.7850
# 6 18.5722 12.9774 8.5059 3.4360 -0.7850 38.2856
#
#
#
# Elastic Compliance Matrix: (Units=1/GPa)
#
#
# Indices 1 2 3 4 5 6 
#
# 1 0.013445 -0.001798 -0.002061 -0.001879 0.002467 -0.005235
# 2 -0.001798 0.012554 -0.010290 0.001723 -0.001194 -0.001276
# 3 -0.002061 -0.010290 0.028448 -0.004041 -0.000578 -0.001482
# 4 -0.001879 0.001723 -0.004041 0.041369 0.004391 -0.002397
# 5 0.002467 -0.001194 -0.000578 0.004391 0.048901 -0.000055
# 6 -0.005235 -0.001276 -0.001482 -0.002397 -0.000055 0.029635
#
#
# Mechanical properties :
#
#
# Convention : Reuss Voigt Hill
#
# Bulk Modulus (GPa) = 38.24247 51.19285 44.71766
# Shear Modulus (GPa) = 23.65564 28.49629 26.07596
#
# Velocity S-wave (km/s) = 3.44233 3.77815 3.61414
# Velocity P-wave (km/s) = 5.91235 6.68402 6.30999
#
# Compressibility (1/GPa) = 0.02614894
#
# Stress axis : x y z
#
# Youngs Moduli (GPa) = 74.37755 79.65284 35.15243
#
# Poissons Ratio (x) = 0.14322 0.07245
# Poissons Ratio (y) = 0.13373 0.36172
# Poissons Ratio (z) = 0.15330 0.81962
#
# Static dielectric constant tensor:
#      x y z
#    x 3.534140 0.008640 -0.069060 
#    y 0.008640 3.835890 -0.058230 
#    z -0.069060 -0.058230 3.604770 
# 
# 
# High freq. dielectric constant tensor:
#      x y z
#    x 1.752720 0.001180 -0.010440 
#    y 0.001180 1.790150 -0.012960 
#    z -0.010440 -0.012960 1.777470 
# 
# From -- ./inp_files/521759.got.cif
#   From: 2010.06.25/outbox.cif.g09.slc.cpg/sg2_261_cif.got.tgz:521759.got - 2010.06.27 13:26:56.
