data_PCOD8001181
_publ_section_title
;
Structure prediction by ZEFSAII (Michael W. Deem and Ramdas Pophale) SiO2 
 PCOD8001181
Probable space group: P -1
;
_chemical_formula_sum "Si O2"
_cell_formula_units_Z 14
_cell_length_a 13.927927
_cell_length_b 11.359841
_cell_length_c 8.192984
_cell_angle_alpha 105.365616
_cell_angle_beta 62.271018
_cell_angle_gamma 55.351626
_cell_volume 647.967347
_symmetry_space_group_name_H-M "P -1"
_symmetry_group_IT_number 2
_symmetry_cell_setting 'triclinic'
loop_
_space_group_symop_operation_xyz
x,y,z
-x,-y,-z
loop_
_atom_site_type_symbol
_atom_site_label
_atom_site_fract_x
_atom_site_fract_y
_atom_site_fract_z
Si Si1 0.715770 0.510798 0.030665
Si Si2 0.435018 0.903498 0.625908
Si Si3 0.990299 0.955183 0.311954
Si Si4 0.388354 0.783290 0.194519
Si Si5 0.199591 0.983788 0.098790
Si Si6 0.987639 0.619524 0.426129
Si Si7 0.334328 0.097011 0.450305
O O1 0.594616 0.678098 0.332448
O O2 0.582204 0.552519 0.027798
O O3 0.811291 0.532607 0.860618
O O4 0.872197 0.284334 0.905111
O O5 0.527759 0.913530 0.683751
O O6 0.312650 0.089949 0.659068
O O7 0.299077 0.938389 0.842339
O O8 0.779289 0.102420 0.507063
O O9 0.056690 0.006900 0.162765
O O10 0.000000 0.000000 0.500000
O O11 0.347544 0.789099 0.039579
O O12 0.421779 0.898840 0.222501
O O13 0.090987 0.188262 0.354428
O O14 0.860409 0.693182 0.402343
O O15 0.000000 0.500000 0.500000
#
# Coordination Sequence:
#
# PCOD8001181 Si02
#       7
#     2   2   2   2   2   2   2
#     4  11  22  41  62  94 122 167 206 249 320 367
#     4  10  23  38  62  93 123 168 203 249 324 367
#     4  10  19  42  63  88 127 160 209 259 303 362
#     4   9  20  38  67  89 121 166 207 256 304 360
#     4  10  22  41  62  91 126 161 209 261 300 364
#     4  11  24  39  63  94 124 163 213 254 302 377
#     4   9  20  42  58  85 135 163 192 255 321 361
#
# _framework density 21.606027000000001
#
# number of rings (size 3 to 8) (size 9 to 14) (size 15 to 20)
#    0.000    2.000    4.286    0.000    8.000    4.571 
#    0.000    2.857    0.000    0.000    0.000    0.000 
#    0.000    0.000    0.000    0.000    0.000    0.000 
#
# Total GULP energy -173519.972557 kJ/mol
# GULP energy per Si atom -12394.283754 kJ/mol
# Density = 2.155685 g / cm^3
# Si number density = 21.606027 Si / 1000 Ang^3
#
#
#
# Elastic Constant Matrix: (Units=GPa)
#
#
# Indices 1 2 3 4 5 6 
#
# 1 73.4441 41.7427 26.2169 -2.7082 -22.6978 4.5640
# 2 41.7427 97.8341 42.5054 -8.7886 -30.5671 4.3494
# 3 26.2169 42.5054 98.0924 -15.2909 -22.7261 3.6261
# 4 -2.7082 -8.7886 -15.2909 34.9251 2.5429 -12.9801
# 5 -22.6978 -30.5671 -22.7261 2.5429 38.4735 -0.4973
# 6 4.5640 4.3494 3.6261 -12.9801 -0.4973 37.3065
#
#
#
# Elastic Compliance Matrix: (Units=1/GPa)
#
#
# Indices 1 2 3 4 5 6 
#
# 1 0.019372 -0.005812 -0.001467 -0.001824 0.006038 -0.002104
# 2 -0.005812 0.016864 -0.003736 0.001500 0.007661 -0.000268
# 3 -0.001467 -0.003736 0.013907 0.005152 0.004055 0.001110
# 4 -0.001824 0.001500 0.005152 0.035478 0.000968 0.011904
# 5 0.006038 0.007661 0.004055 0.000968 0.037957 -0.001183
# 6 -0.002104 -0.000268 0.001110 0.011904 -0.001183 0.031112
#
#
# Mechanical properties :
#
#
# Convention : Reuss Voigt Hill
#
# Bulk Modulus (GPa) = 35.56898 54.47786 45.02342
# Shear Modulus (GPa) = 26.86859 32.73473 29.80166
#
# Velocity S-wave (km/s) = 3.53025 3.89662 3.71795
# Velocity P-wave (km/s) = 5.75458 6.74639 6.27013
#
# Compressibility (1/GPa) = 0.02811438
#
# Stress axis : x y z
#
# Youngs Moduli (GPa) = 51.62013 59.29657 71.90698
#
# Poissons Ratio (x) = 0.34464 0.10547
# Poissons Ratio (y) = 0.30002 0.26863
# Poissons Ratio (z) = 0.07571 0.22152
#
# Static dielectric constant tensor:
#      x y z
#    x 4.433520 0.158590 -0.522530 
#    y 0.158590 4.110770 -0.022700 
#    z -0.522530 -0.022700 3.856180 
# 
# 
# High freq. dielectric constant tensor:
#      x y z
#    x 1.859740 0.011610 -0.022690 
#    y 0.011610 1.832320 0.003400 
#    z -0.022690 0.003400 1.831080 
# 
# From -- ./inp_files/305337.got.cif
#   From: 2010.06.25/outbox.cif.g09.slc.cpg/sg2_153_cif.got.tgz:305337.got - 2010.06.27 13:26:56.
