data_PCOD8001668
_publ_section_title
;
Structure prediction by ZEFSAII (Michael W. Deem and Ramdas Pophale) SiO2 
 PCOD8001668
Probable space group: P -1
;
_chemical_formula_sum "Si O2"
_cell_formula_units_Z 16
_cell_length_a 7.844330
_cell_length_b 16.403614
_cell_length_c 7.179367
_cell_angle_alpha 72.374335
_cell_angle_beta 123.219502
_cell_angle_gamma 106.918201
_cell_volume 727.430409
_symmetry_space_group_name_H-M "P -1"
_symmetry_group_IT_number 2
_symmetry_cell_setting 'triclinic'
loop_
_space_group_symop_operation_xyz
x,y,z
-x,-y,-z
loop_
_atom_site_type_symbol
_atom_site_label
_atom_site_fract_x
_atom_site_fract_y
_atom_site_fract_z
Si Si1 0.940847 0.356449 0.051344
Si Si2 0.663435 0.896688 0.290158
Si Si3 0.739072 0.028863 0.917594
Si Si4 0.500987 0.705094 0.312494
Si Si5 0.665133 0.708354 0.792341
Si Si6 0.844879 0.489180 0.152352
Si Si7 0.403662 0.424623 0.817943
Si Si8 0.178230 0.101640 0.223904
O O1 0.917846 0.395932 0.221449
O O2 0.121995 0.299747 0.185207
O O3 0.726887 0.298800 0.905362
O O4 0.982827 0.437191 0.878658
O O5 0.630862 0.797558 0.270141
O O6 0.825706 0.909372 0.547702
O O7 0.445695 0.917583 0.217740
O O8 0.751625 0.959106 0.135370
O O9 0.718668 0.976240 0.748561
O O10 0.948025 0.097604 0.007743
O O11 0.488913 0.693514 0.537361
O O12 0.617112 0.629242 0.348309
O O13 0.608096 0.642738 0.970439
O O14 0.689115 0.805995 0.817470
O O15 0.624748 0.487049 0.911629
O O16 0.783880 0.516940 0.308766
#
# Coordination Sequence:
#
# PCOD8001668 Si02
#       8
#     2   2   2   2   2   2   2   2
#     4   9  17  34  53  73 102 132 166 209 249 294
#     4  10  20  34  52  76 103 131 168 207 245 297
#     4  10  20  34  54  76 100 136 166 202 254 292
#     4  10  20  34  53  75 101 134 167 204 251 297
#     4  10  20  34  53  75 101 134 167 204 251 297
#     4   8  16  32  52  72 102 132 162 212 250 284
#     4   9  17  34  53  73 102 132 166 209 249 294
#     4  10  20  34  52  76 103 131 168 207 245 297
#
# _framework density 21.995231
#
# number of rings (size 3 to 8) (size 9 to 14) (size 15 to 20)
#    0.000    2.500    0.000    2.250    0.000    0.000 
#    0.000   28.750    0.000   21.000    0.000    0.000 
#    0.000    0.000    0.000    0.000    0.000    0.000 
#
# Total GULP energy -198287.859443 kJ/mol
# GULP energy per Si atom -12392.991215 kJ/mol
# Density = 2.194517 g / cm^3
# Si number density = 21.995231 Si / 1000 Ang^3
#
#
#
# Elastic Constant Matrix: (Units=GPa)
#
#
# Indices 1 2 3 4 5 6 
#
# 1 63.1788 8.0419 -0.1827 17.6246 3.3088 -8.4708
# 2 8.0419 71.6036 32.2001 33.4644 -6.6821 -0.5754
# 3 -0.1827 32.2001 38.1328 13.8673 -5.4476 0.7210
# 4 17.6246 33.4644 13.8673 33.4032 -5.6441 -8.7538
# 5 3.3088 -6.6821 -5.4476 -5.6441 19.6521 -8.3878
# 6 -8.4708 -0.5754 0.7210 -8.7538 -8.3878 25.3841
#
#
#
# Elastic Compliance Matrix: (Units=1/GPa)
#
#
# Indices 1 2 3 4 5 6 
#
# 1 0.020312 0.004446 0.001718 -0.017495 -0.007121 -0.001556
# 2 0.004446 0.040058 -0.020721 -0.039205 -0.010047 -0.013859
# 3 0.001718 -0.020721 0.043331 0.003609 0.006710 0.002334
# 4 -0.017495 -0.039205 0.003609 0.091618 0.032014 0.035344
# 5 -0.007121 -0.010047 0.006710 0.032014 0.073625 0.032574
# 6 -0.001556 -0.013859 0.002334 0.035344 0.032574 0.061447
#
#
# Mechanical properties :
#
#
# Convention : Reuss Voigt Hill
#
# Bulk Modulus (GPa) = 13.40712 28.11485 20.76098
# Shear Modulus (GPa) = 13.00832 24.54495 18.77664
#
# Velocity S-wave (km/s) = 2.43454 3.34417 2.92493
# Velocity P-wave (km/s) = 3.74317 5.26510 4.56796
#
# Compressibility (1/GPa) = 0.07458726
#
# Stress axis : x y z
#
# Youngs Moduli (GPa) = 49.23180 24.96366 23.07797
#
# Poissons Ratio (x) = -0.11099 -0.03964
# Poissons Ratio (y) = -0.21888 0.47819
# Poissons Ratio (z) = -0.08456 0.51727
#
# Static dielectric constant tensor:
#      x y z
#    x 4.053400 -0.331710 -0.011410 
#    y -0.331710 4.039050 0.285470 
#    z -0.011410 0.285470 3.510310 
# 
# 
# High freq. dielectric constant tensor:
#      x y z
#    x 1.862390 -0.014610 0.002370 
#    y -0.014610 1.875470 0.026930 
#    z 0.002370 0.026930 1.835110 
# 
# From -- ./inp_files/207229.got.cif
#   From: 2010.06.25/outbox.cif.g09.slc.cpg/sg2_104_cif.got.tgz:207229.got - 2010.06.27 13:26:56.
