data_PCOD8001402
_publ_section_title
;
Structure prediction by ZEFSAII (Michael W. Deem and Ramdas Pophale) SiO2 
 PCOD8001402
Probable space group: P -1
;
_chemical_formula_sum "Si O2"
_cell_formula_units_Z 14
_cell_length_a 19.360877
_cell_length_b 16.465598
_cell_length_c 8.398253
_cell_angle_alpha 52.248530
_cell_angle_beta 117.451790
_cell_angle_gamma 159.128359
_cell_volume 693.091786
_symmetry_space_group_name_H-M "P -1"
_symmetry_group_IT_number 2
_symmetry_cell_setting 'triclinic'
loop_
_space_group_symop_operation_xyz
x,y,z
-x,-y,-z
loop_
_atom_site_type_symbol
_atom_site_label
_atom_site_fract_x
_atom_site_fract_y
_atom_site_fract_z
Si Si1 0.551215 0.139982 0.249208
Si Si2 0.174044 0.860908 0.824576
Si Si3 0.983756 0.255210 0.887161
Si Si4 0.745390 0.233105 0.136236
Si Si5 0.818768 0.858732 0.011354
Si Si6 0.623218 0.766383 0.671623
Si Si7 0.240880 0.883427 0.402900
O O1 0.554650 0.080085 0.156051
O O2 0.372010 0.006265 0.237996
O O3 0.782685 0.471609 0.124907
O O4 0.500000 0.000000 0.500000
O O5 0.322539 0.941990 0.846597
O O6 0.249783 0.049461 0.573780
O O7 0.176359 0.900476 0.960233
O O8 0.941821 0.538073 0.908408
O O9 0.970545 0.322220 0.646919
O O10 0.905702 0.048615 0.998741
O O11 0.816690 0.273821 0.338419
O O12 0.617239 0.556332 0.240343
O O13 0.744835 0.819240 0.814594
O O14 0.000000 0.000000 0.000000
O O15 0.615367 0.853379 0.678231
#
# Coordination Sequence:
#
# PCOD8001402 Si02
#       7
#     2   2   2   2   2   2   2
#     4   9  17  29  48  73 100 131 167 202 235 280
#     4   9  17  32  49  73 105 132 160 199 250 297
#     4  10  20  32  52  76 100 131 168 207 244 289
#     4   8  16  30  50  71 102 139 162 194 244 291
#     4  10  20  36  56  75  93 126 173 211 246 296
#     4   9  19  35  54  73 101 132 159 205 258 293
#     4   9  17  32  52  75 101 134 170 200 236 290
#
# _framework density 20.199344
#
# number of rings (size 3 to 8) (size 9 to 14) (size 15 to 20)
#    0.000    2.857    0.000    0.857    0.000    5.714 
#    0.000    4.286    0.000    6.857    0.000    0.000 
#    0.000    0.000    0.000    0.000    0.000    0.000 
#
# Total GULP energy -173438.561546 kJ/mol
# GULP energy per Si atom -12388.468682 kJ/mol
# Density = 2.015337 g / cm^3
# Si number density = 20.199344 Si / 1000 Ang^3
#
#
#
# Elastic Constant Matrix: (Units=GPa)
#
#
# Indices 1 2 3 4 5 6 
#
# 1 120.4089 30.8840 24.8522 -2.3434 -15.5129 -0.6308
# 2 30.8840 43.0677 16.7244 -13.3459 3.4295 3.5573
# 3 24.8522 16.7244 104.8879 -18.8492 0.8413 5.0680
# 4 -2.3434 -13.3459 -18.8492 19.2269 -0.5703 -0.2915
# 5 -15.5129 3.4295 0.8413 -0.5703 25.5931 2.1512
# 6 -0.6308 3.5573 5.0680 -0.2915 2.1512 27.0048
#
#
#
# Elastic Compliance Matrix: (Units=1/GPa)
#
#
# Indices 1 2 3 4 5 6 
#
# 1 0.012998 -0.011913 -0.003010 -0.009337 0.009231 0.001602
# 2 -0.011913 0.041243 0.001675 0.028397 -0.011768 -0.004782
# 3 -0.003010 0.001675 0.012423 0.012881 -0.001974 -0.002326
# 4 -0.009337 0.028397 0.012881 0.082911 -0.007631 -0.004873
# 5 0.009231 -0.011768 -0.001974 -0.007631 0.046277 -0.001633
# 6 0.001602 -0.004782 -0.002326 -0.004873 -0.001633 0.038212
#
#
# Mechanical properties :
#
#
# Convention : Reuss Voigt Hill
#
# Bulk Modulus (GPa) = 24.89483 45.92064 35.40773
# Shear Modulus (GPa) = 18.25161 27.42521 22.83841
#
# Velocity S-wave (km/s) = 3.00921 3.68873 3.36616
# Velocity P-wave (km/s) = 4.94218 6.39730 5.71623
#
# Compressibility (1/GPa) = 0.04016898
#
# Stress axis : x y z
#
# Youngs Moduli (GPa) = 76.93667 24.24644 80.49542
#
# Poissons Ratio (x) = 0.28884 0.24226
# Poissons Ratio (y) = 0.91653 -0.13482
# Poissons Ratio (z) = 0.23155 -0.04061
#
# Static dielectric constant tensor:
#      x y z
#    x 4.540170 0.093260 -0.132770 
#    y 0.093260 3.418230 -0.171720 
#    z -0.132770 -0.171720 3.639610 
# 
# 
# High freq. dielectric constant tensor:
#      x y z
#    x 1.806720 -0.004370 -0.002400 
#    y -0.004370 1.753460 -0.011860 
#    z -0.002400 -0.011860 1.777600 
# 
# From -- ./inp_files/44711.got.cif
#   From: 2010.06.25/outbox.cif.g09.slc.cpg/sg2_23_cif.got.tgz:44711.got - 2010.06.27 13:26:56.
