data_PCOD8001830
_publ_section_title
;
Structure prediction by ZEFSAII (Michael W. Deem and Ramdas Pophale) SiO2 
 PCOD8001830
Probable space group: P -1
;
_chemical_formula_sum "Si O2"
_cell_formula_units_Z 16
_cell_length_a 5.202533
_cell_length_b 24.807239
_cell_length_c 9.434704
_cell_angle_alpha 43.515081
_cell_angle_beta 107.117552
_cell_angle_gamma 114.593189
_cell_volume 762.295854
_symmetry_space_group_name_H-M "P -1"
_symmetry_group_IT_number 2
_symmetry_cell_setting 'triclinic'
loop_
_space_group_symop_operation_xyz
x,y,z
-x,-y,-z
loop_
_atom_site_type_symbol
_atom_site_label
_atom_site_fract_x
_atom_site_fract_y
_atom_site_fract_z
Si Si1 0.100428 0.135172 0.989126
Si Si2 0.643977 0.230380 0.028485
Si Si3 0.714647 0.862180 0.281546
Si Si4 0.055950 0.427849 0.497135
Si Si5 0.144100 0.885048 0.533115
Si Si6 0.627310 0.402289 0.726218
Si Si7 0.188716 0.736428 0.332267
Si Si8 0.709220 0.969988 0.321350
O O1 0.333722 0.163505 0.095812
O O2 0.822678 0.068776 0.134610
O O3 0.032276 0.214694 0.761866
O O4 0.211828 0.097549 0.940364
O O5 0.846057 0.190915 0.223796
O O6 0.631525 0.312802 0.951443
O O7 0.760040 0.253348 0.847106
O O8 0.471527 0.774048 0.397823
O O9 0.606128 0.926281 0.235318
O O10 0.985202 0.847530 0.432026
O O11 0.302817 0.401358 0.669064
O O12 0.195640 0.522342 0.285385
O O13 0.785386 0.422814 0.560964
O O14 0.946221 0.362045 0.475337
O O15 0.454353 0.947423 0.433522
O O16 0.966829 0.937949 0.482015
#
# Coordination Sequence:
#
# PCOD8001830 Si02
#       8
#     2   2   2   2   2   2   2   2
#     4  11  21  35  59  81 107 141 188 236 274 310
#     4  10  22  36  55  84 113 143 182 222 276 326
#     4   9  22  38  55  79 106 151 182 231 268 322
#     4   9  17  31  52  83 111 135 172 217 276 314
#     4  10  24  40  54  77 110 154 182 222 270 329
#     4   9  17  32  53  79 112 140 168 218 270 328
#     4  10  20  34  57  86 113 137 182 229 274 319
#     4  10  24  39  56  77 108 147 192 225 271 317
#
# _framework density 20.989225999999999
#
# number of rings (size 3 to 8) (size 9 to 14) (size 15 to 20)
#    0.750    1.500    1.250    1.125    5.250    2.000 
#    0.000    0.000    0.000    0.750    0.000    1.750 
#    0.000    0.000    0.000    0.000    0.000    0.000 
#
# Total GULP energy -198242.771549 kJ/mol
# GULP energy per Si atom -12390.173222 kJ/mol
# Density = 2.094145 g / cm^3
# Si number density = 20.989226 Si / 1000 Ang^3
#
#
#
# Elastic Constant Matrix: (Units=GPa)
#
#
# Indices 1 2 3 4 5 6 
#
# 1 78.9893 14.5618 3.4196 0.1425 9.6250 14.4903
# 2 14.5618 99.7519 43.4878 -30.8183 3.5814 19.8549
# 3 3.4196 43.4878 52.9905 -8.0851 11.4662 1.2198
# 4 0.1425 -30.8183 -8.0851 28.9916 2.5342 4.6603
# 5 9.6250 3.5814 11.4662 2.5342 22.2123 -4.3586
# 6 14.4903 19.8549 1.2198 4.6603 -4.3586 28.0398
#
#
#
# Elastic Compliance Matrix: (Units=1/GPa)
#
#
# Indices 1 2 3 4 5 6 
#
# 1 0.015708 0.000953 0.001286 0.003976 -0.010256 -0.011103
# 2 0.000953 0.043434 -0.026441 0.045585 -0.006561 -0.038694
# 3 0.001286 -0.026441 0.039582 -0.018962 -0.011077 0.017766
# 4 0.003976 0.045585 -0.018962 0.087536 -0.019290 -0.051056
# 5 -0.010256 -0.006561 -0.011077 -0.019290 0.063039 0.023433
# 6 -0.011103 -0.038694 0.017766 -0.051056 0.023433 0.080156
#
#
# Mechanical properties :
#
#
# Convention : Reuss Voigt Hill
#
# Bulk Modulus (GPa) = 19.87289 39.40778 29.64033
# Shear Modulus (GPa) = 12.67003 27.19958 19.93481
#
# Velocity S-wave (km/s) = 2.45958 3.60374 3.08517
# Velocity P-wave (km/s) = 4.18984 6.01099 5.18106
#
# Compressibility (1/GPa) = 0.05031981
#
# Stress axis : x y z
#
# Youngs Moduli (GPa) = 63.66169 23.02362 25.26379
#
# Poissons Ratio (x) = -0.02194 -0.03248
# Poissons Ratio (y) = -0.06067 0.66799
# Poissons Ratio (z) = -0.08185 0.60876
#
# Static dielectric constant tensor:
#      x y z
#    x 3.788550 0.058750 0.191080 
#    y 0.058750 4.139980 -0.495870 
#    z 0.191080 -0.495870 3.435110 
# 
# 
# High freq. dielectric constant tensor:
#      x y z
#    x 1.833240 0.012580 0.015830 
#    y 0.012580 1.822770 -0.035510 
#    z 0.015830 -0.035510 1.766810 
# 
# From -- ./inp_files/42229.got.cif
#   From: 2010.06.25/outbox.cif.g09.slc.cpg/sg2_22_cif.got.tgz:42229.got - 2010.06.27 13:26:56.
