data_PCOD8001812
_publ_section_title
;
Structure prediction by ZEFSAII (Michael W. Deem and Ramdas Pophale) SiO2 
 PCOD8001812
Probable space group: P -1
;
_chemical_formula_sum "Si O2"
_cell_formula_units_Z 16
_cell_length_a 5.157498
_cell_length_b 27.340828
_cell_length_c 8.780826
_cell_angle_alpha 133.313664
_cell_angle_beta 57.192771
_cell_angle_gamma 102.289863
_cell_volume 731.236942
_symmetry_space_group_name_H-M "P -1"
_symmetry_group_IT_number 2
_symmetry_cell_setting 'triclinic'
loop_
_space_group_symop_operation_xyz
x,y,z
-x,-y,-z
loop_
_atom_site_type_symbol
_atom_site_label
_atom_site_fract_x
_atom_site_fract_y
_atom_site_fract_z
Si Si1 0.304945 0.770454 0.472318
Si Si2 0.776629 0.251527 0.218100
Si Si3 0.460831 0.632203 0.948558
Si Si4 0.378510 0.912728 0.747688
Si Si5 0.810628 0.387661 0.331116
Si Si6 0.329813 0.176594 0.060667
Si Si7 0.651635 0.489053 0.093265
Si Si8 0.625080 0.950732 0.067246
O O1 0.417297 0.741218 0.544296
O O2 0.479338 0.830796 0.496520
O O3 0.919340 0.801117 0.669784
O O4 0.402164 0.711380 0.189454
O O5 0.781395 0.327966 0.329391
O O6 0.610573 0.215044 0.065447
O O7 0.138121 0.202071 0.019672
O O8 0.263863 0.632270 0.857488
O O9 0.325342 0.589138 0.026463
O O10 0.839046 0.599810 0.738424
O O11 0.488222 0.920163 0.899606
O O12 0.000679 0.937354 0.912704
O O13 0.517757 0.964296 0.702015
O O14 0.558518 0.458829 0.606903
O O15 0.466185 0.091874 0.849144
O O16 0.500000 0.500000 0.000000
O O17 0.000000 0.500000 0.000000
#
# Coordination Sequence:
#
# PCOD8001812 Si02
#       8
#     2   2   2   2   2   2   2   2
#     4   9  21  33  58  84 118 150 204 238 298 344
#     4  10  20  34  57  79 115 152 199 243 284 345
#     4  12  26  41  64  91 127 159 189 245 302 355
#     4   9  16  25  46  77 118 145 186 247 305 340
#     4  12  26  43  61  91 127 156 197 241 299 359
#     4   9  17  30  54  81 113 146 201 249 288 340
#     4  12  26  46  73  93 117 157 201 244 293 353
#     4   9  14  26  43  78 116 144 184 251 312 319
#
# _framework density 21.880734
#
# number of rings (size 3 to 8) (size 9 to 14) (size 15 to 20)
#    0.750    1.000    1.250    3.750    3.500    0.000 
#    0.000    0.000    0.000    0.000    0.000    5.250 
#    0.000    0.000    0.000    0.000    0.000    0.000 
#
# Total GULP energy -198246.194521 kJ/mol
# GULP energy per Si atom -12390.387158 kJ/mol
# Density = 2.183093 g / cm^3
# Si number density = 21.880734 Si / 1000 Ang^3
#
#
#
# Elastic Constant Matrix: (Units=GPa)
#
#
# Indices 1 2 3 4 5 6 
#
# 1 137.3467 21.2002 9.7108 4.1033 6.1651 0.0610
# 2 21.2002 98.3579 43.2553 34.9252 9.2298 3.1477
# 3 9.7108 43.2553 49.6251 12.3905 10.8739 4.7364
# 4 4.1033 34.9252 12.3905 28.5616 6.3810 5.2718
# 5 6.1651 9.2298 10.8739 6.3810 25.9963 -1.8322
# 6 0.0610 3.1477 4.7364 5.2718 -1.8322 40.9350
#
#
#
# Elastic Compliance Matrix: (Units=1/GPa)
#
#
# Indices 1 2 3 4 5 6 
#
# 1 0.007636 -0.002446 0.000506 0.002093 -0.001684 -0.000227
# 2 -0.002446 0.028213 -0.018706 -0.027978 0.005526 0.003849
# 3 0.000506 -0.018706 0.036797 0.010322 -0.011733 -0.004674
# 4 0.002093 -0.027978 0.010322 0.068767 -0.012356 -0.008455
# 5 -0.001684 0.005526 -0.011733 -0.012356 0.045165 0.004548
# 6 -0.000227 0.003849 -0.004674 -0.008455 0.004548 0.025967
#
#
# Mechanical properties :
#
#
# Convention : Reuss Voigt Hill
#
# Bulk Modulus (GPa) = 31.89394 48.18471 40.03932
# Shear Modulus (GPa) = 18.91874 33.17613 26.04744
#
# Velocity S-wave (km/s) = 2.94365 3.89810 3.45400
# Velocity P-wave (km/s) = 5.11482 6.50612 5.85196
#
# Compressibility (1/GPa) = 0.03135392
#
# Stress axis : x y z
#
# Youngs Moduli (GPa) = 130.96195 35.44407 27.17622
#
# Poissons Ratio (x) = 0.08670 -0.01375
# Poissons Ratio (y) = 0.32036 0.50836
# Poissons Ratio (z) = -0.06628 0.66302
#
# Static dielectric constant tensor:
#      x y z
#    x 4.002360 0.026910 0.053650 
#    y 0.026910 4.397090 0.443430 
#    z 0.053650 0.443430 3.436840 
# 
# 
# High freq. dielectric constant tensor:
#      x y z
#    x 1.877380 -0.000720 0.009500 
#    y -0.000720 1.883770 0.029880 
#    z 0.009500 0.029880 1.802060 
# 
# From -- ./inp_files/141483.got.cif
#   From: 2010.06.25/outbox.cif.g09.slc.cpg/sg2_71_cif.got.tgz:141483.got - 2010.06.27 13:26:56.
