data_PCOD8001461
_publ_section_title
;
Structure prediction by ZEFSAII (Michael W. Deem and Ramdas Pophale) SiO2 
 PCOD8001461
Probable space group: P -1
;
_chemical_formula_sum "Si O2"
_cell_formula_units_Z 16
_cell_length_a 11.945408
_cell_length_b 21.571685
_cell_length_c 7.912460
_cell_angle_alpha 46.670470
_cell_angle_beta 123.328596
_cell_angle_gamma 147.463258
_cell_volume 795.488542
_symmetry_space_group_name_H-M "P -1"
_symmetry_group_IT_number 2
_symmetry_cell_setting 'triclinic'
loop_
_space_group_symop_operation_xyz
x,y,z
-x,-y,-z
loop_
_atom_site_type_symbol
_atom_site_label
_atom_site_fract_x
_atom_site_fract_y
_atom_site_fract_z
Si Si1 0.019200 0.487276 0.782597
Si Si2 0.466943 0.079267 0.271922
Si Si3 0.989264 0.899006 0.867112
Si Si4 0.790174 0.815303 0.509748
Si Si5 0.100199 0.679162 0.702692
Si Si6 0.642501 0.321565 0.546148
Si Si7 0.428761 0.055435 0.897203
Si Si8 0.993939 0.166800 0.641646
O O1 0.034963 0.595845 0.637526
O O2 0.219870 0.561398 0.696171
O O3 0.798191 0.366471 0.736874
O O4 0.034309 0.429006 0.057426
O O5 0.651764 0.220413 0.254771
O O6 0.500000 0.000000 0.500000
O O7 0.499669 0.107569 0.048363
O O8 0.228918 0.988851 0.291463
O O9 0.820402 0.806019 0.750693
O O10 0.905479 0.824883 0.119027
O O11 0.069430 0.034578 0.700638
O O12 0.180393 0.933219 0.902094
O O13 0.543057 0.709625 0.476359
O O14 0.857925 0.775253 0.506635
O O15 0.043221 0.750903 0.509464
O O16 0.532881 0.182637 0.636893
O O17 0.500000 0.000000 0.000000
#
# Coordination Sequence:
#
# PCOD8001461 Si02
#       8
#     2   2   2   2   2   2   2   2
#     4  10  22  41  61  81 119 154 211 247 289 353
#     4   9  19  32  53  90 116 140 185 235 315 347
#     4   9  21  36  56  93 122 159 190 231 316 369
#     4  10  21  40  59  87 126 158 196 239 302 373
#     4  10  21  39  60  90 114 158 199 251 299 348
#     4  10  22  40  60  85 114 163 196 248 301 347
#     4  10  20  32  58  90 119 144 188 251 303 356
#     4  10  21  38  62  91 124 152 193 250 306 363
#
# _framework density 20.113423999999998
#
# number of rings (size 3 to 8) (size 9 to 14) (size 15 to 20)
#    0.000    2.250    1.250    0.375    8.750    2.000 
#    6.750    1.250    0.000    0.000    0.000    0.000 
#    0.000    0.000    0.000    0.000    0.000    0.000 
#
# Total GULP energy -198264.940311 kJ/mol
# GULP energy per Si atom -12391.558769 kJ/mol
# Density = 2.006765 g / cm^3
# Si number density = 20.113424 Si / 1000 Ang^3
#
#
#
# Elastic Constant Matrix: (Units=GPa)
#
#
# Indices 1 2 3 4 5 6 
#
# 1 92.1910 31.0238 18.6568 -4.0678 -0.8848 12.4774
# 2 31.0238 61.5941 21.4644 -7.6267 -10.6208 12.2212
# 3 18.6568 21.4644 80.0913 7.0671 -7.4107 2.7545
# 4 -4.0678 -7.6267 7.0671 23.6626 -3.2454 0.6837
# 5 -0.8848 -10.6208 -7.4107 -3.2454 27.3390 -2.4453
# 6 12.4774 12.2212 2.7545 0.6837 -2.4453 21.5345
#
#
#
# Elastic Compliance Matrix: (Units=1/GPa)
#
#
# Indices 1 2 3 4 5 6 
#
# 1 0.013804 -0.005686 -0.001842 0.000876 -0.002592 -0.004858
# 2 -0.005686 0.025724 -0.005338 0.010390 0.008704 -0.009963
# 3 -0.001842 -0.005338 0.014950 -0.006385 0.001389 0.002545
# 4 0.000876 0.010390 -0.006385 0.048887 0.007576 -0.006279
# 5 -0.002592 0.008704 0.001389 0.007576 0.041225 0.000825
# 6 -0.004858 -0.009963 0.002545 -0.006279 0.000825 0.054874
#
#
# Mechanical properties :
#
#
# Convention : Reuss Voigt Hill
#
# Bulk Modulus (GPa) = 34.78714 41.79627 38.29170
# Shear Modulus (GPa) = 21.29677 25.35598 23.32637
#
# Velocity S-wave (km/s) = 3.25750 3.55441 3.40919
# Velocity P-wave (km/s) = 5.61083 6.13763 5.88014
#
# Compressibility (1/GPa) = 0.02874626
#
# Stress axis : x y z
#
# Youngs Moduli (GPa) = 72.44054 38.87491 66.89062
#
# Poissons Ratio (x) = 0.22103 0.12320
# Poissons Ratio (y) = 0.41188 0.35707
# Poissons Ratio (z) = 0.13343 0.20752
#
# Static dielectric constant tensor:
#      x y z
#    x 3.452060 0.113240 -0.116740 
#    y 0.113240 3.890470 0.079480 
#    z -0.116740 0.079480 3.743220 
# 
# 
# High freq. dielectric constant tensor:
#      x y z
#    x 1.767470 0.005480 -0.010450 
#    y 0.005480 1.774100 0.005700 
#    z -0.010450 0.005700 1.787160 
# 
# From -- ./inp_files/284668.got.cif
#   From: 2010.06.25/outbox.cif.g09.slc.cpg/sg2_143_cif.got.tgz:284668.got - 2010.06.27 13:26:56.
