data_PCOD8001307
_publ_section_title
;
Structure prediction by ZEFSAII (Michael W. Deem and Ramdas Pophale) SiO2 
 PCOD8001307
Probable space group: P -1
;
_chemical_formula_sum "Si O2"
_cell_formula_units_Z 16
_cell_length_a 10.319805
_cell_length_b 9.194833
_cell_length_c 11.529724
_cell_angle_alpha 131.496610
_cell_angle_beta 97.749699
_cell_angle_gamma 56.044041
_cell_volume 629.083685
_symmetry_space_group_name_H-M "P -1"
_symmetry_group_IT_number 2
_symmetry_cell_setting 'triclinic'
loop_
_space_group_symop_operation_xyz
x,y,z
-x,-y,-z
loop_
_atom_site_type_symbol
_atom_site_label
_atom_site_fract_x
_atom_site_fract_y
_atom_site_fract_z
Si Si1 0.363976 0.255766 0.845241
Si Si2 0.027841 0.096618 0.717389
Si Si3 0.548822 0.409544 0.270157
Si Si4 0.783910 0.852636 0.033026
Si Si5 0.272431 0.536767 0.481960
Si Si6 0.718592 0.850307 0.616141
Si Si7 0.911435 0.627676 0.287200
Si Si8 0.660915 0.329483 0.836601
O O1 0.335400 0.186208 0.931651
O O2 0.196676 0.405844 0.829055
O O3 0.515264 0.003865 0.662174
O O4 0.421141 0.432639 0.958688
O O5 0.095341 0.152305 0.864301
O O6 0.093527 0.143531 0.634108
O O7 0.826548 0.290657 0.793632
O O8 0.101498 0.810333 0.574167
O O9 0.409210 0.443791 0.352051
O O10 0.654435 0.470004 0.386584
O O11 0.463150 0.593735 0.246830
O O12 0.670735 0.117740 0.091779
O O13 0.897454 0.634175 0.835947
O O14 0.220294 0.357744 0.386785
O O15 0.829814 0.690599 0.435444
O O16 0.733969 0.063374 0.763176
#
# Coordination Sequence:
#
# PCOD8001307 Si02
#       8
#     2   2   2   2   2   2   2   2
#     4  11  22  45  69 100 137 178 225 282 334 404
#     4  10  21  44  71  98 136 180 231 276 331 403
#     4  10  23  41  73 100 130 181 232 277 327 408
#     4  10  19  45  75  95 127 184 236 271 319 411
#     4  10  23  45  66  98 139 182 228 273 332 408
#     4  12  27  41  67 106 140 178 219 286 343 397
#     4  11  22  42  77 100 128 184 235 273 325 409
#     4  12  25  43  70 104 138 177 223 284 344 395
#
# _framework density 25.433817999999999
#
# number of rings (size 3 to 8) (size 9 to 14) (size 15 to 20)
#    0.000    1.250    3.750    2.250    5.250    3.000 
#    0.000    5.000    0.000    0.000    0.000    0.000 
#    0.000    0.000    0.000    0.000    0.000    0.000 
#
# Total GULP energy -198378.418068 kJ/mol
# GULP energy per Si atom -12398.651129 kJ/mol
# Density = 2.537593 g / cm^3
# Si number density = 25.433818 Si / 1000 Ang^3
#
#
#
# Elastic Constant Matrix: (Units=GPa)
#
#
# Indices 1 2 3 4 5 6 
#
# 1 62.5275 28.0467 34.2226 7.1962 -6.0652 13.1817
# 2 28.0467 84.3642 48.3377 25.1475 5.7788 10.4303
# 3 34.2226 48.3377 134.3815 29.9335 -30.3656 14.2589
# 4 7.1962 25.1475 29.9335 38.9952 2.4509 4.5277
# 5 -6.0652 5.7788 -30.3656 2.4509 46.6410 5.1697
# 6 13.1817 10.4303 14.2589 4.5277 5.1697 39.6639
#
#
#
# Elastic Compliance Matrix: (Units=1/GPa)
#
#
# Indices 1 2 3 4 5 6 
#
# 1 0.021055 -0.005552 -0.002928 0.002402 0.001949 -0.005013
# 2 -0.005552 0.019259 -0.005458 -0.006847 -0.006341 0.000351
# 3 -0.002928 -0.005458 0.014517 -0.007355 0.010503 -0.003340
# 4 0.002402 -0.006847 -0.007355 0.035575 -0.005531 0.000307
# 5 0.001949 -0.006341 0.010503 -0.005531 0.030281 -0.006072
# 6 -0.005013 0.000351 -0.003340 0.000307 -0.006072 0.028743
#
#
# Mechanical properties :
#
#
# Convention : Reuss Voigt Hill
#
# Bulk Modulus (GPa) = 37.09935 55.83190 46.46563
# Shear Modulus (GPa) = 26.83994 36.43777 31.63886
#
# Velocity S-wave (km/s) = 3.25204 3.78914 3.53082
# Velocity P-wave (km/s) = 5.35904 6.41428 5.91026
#
# Compressibility (1/GPa) = 0.02695465
#
# Stress axis : x y z
#
# Youngs Moduli (GPa) = 47.49432 51.92498 68.88680
#
# Poissons Ratio (x) = 0.28829 0.20167
# Poissons Ratio (y) = 0.26369 0.37600
# Poissons Ratio (z) = 0.13904 0.28342
#
# Static dielectric constant tensor:
#      x y z
#    x 4.773190 0.078440 -0.175840 
#    y 0.078440 4.380770 0.375340 
#    z -0.175840 0.375340 4.664760 
# 
# 
# High freq. dielectric constant tensor:
#      x y z
#    x 2.031200 0.010210 -0.014130 
#    y 0.010210 1.999650 0.025230 
#    z -0.014130 0.025230 2.021090 
# 
# From -- ./inp_files/420023.got.cif
#   From: 2010.06.25/outbox.cif.g09.slc.cpg/sg2_211_cif.got.tgz:420023.got - 2010.06.27 13:26:56.
