data_PCOD8001119
_publ_section_title
;
Structure prediction by ZEFSAII (Michael W. Deem and Ramdas Pophale) SiO2 
 PCOD8001119
Probable space group: P -1
;
_chemical_formula_sum "Si O2"
_cell_formula_units_Z 16
_cell_length_a 18.974699
_cell_length_b 8.474231
_cell_length_c 19.723023
_cell_angle_alpha 43.445446
_cell_angle_beta 21.892239
_cell_angle_gamma 44.529959
_cell_volume 803.589698
_symmetry_space_group_name_H-M "P -1"
_symmetry_group_IT_number 2
_symmetry_cell_setting 'triclinic'
loop_
_space_group_symop_operation_xyz
x,y,z
-x,-y,-z
loop_
_atom_site_type_symbol
_atom_site_label
_atom_site_fract_x
_atom_site_fract_y
_atom_site_fract_z
Si Si1 0.367882 0.281849 0.251537
Si Si2 0.502739 0.711291 0.720827
Si Si3 0.911305 0.265938 0.158360
Si Si4 0.894087 0.091482 0.377648
Si Si5 0.220445 0.716452 0.165763
Si Si6 0.235310 0.455241 0.579635
Si Si7 0.478338 0.839027 0.505162
Si Si8 0.095222 0.781517 0.109870
O O1 0.398979 0.379507 0.268250
O O2 0.228744 0.479751 0.274162
O O3 0.275938 0.050648 0.409996
O O4 0.569702 0.216581 0.053406
O O5 0.602295 0.550722 0.621694
O O6 0.519069 0.987063 0.614876
O O7 0.278476 0.688050 0.929604
O O8 0.865473 0.215590 0.292335
O O9 0.713663 0.279121 0.288374
O O10 0.067415 0.060878 0.052643
O O11 0.000000 0.500000 0.000000
O O12 0.881387 0.288791 0.385429
O O13 0.098054 0.925774 0.251577
O O14 0.117405 0.676938 0.198748
O O15 0.340225 0.366736 0.584859
O O16 0.091897 0.284450 0.737355
O O17 0.500000 0.000000 0.500000
#
# Coordination Sequence:
#
# PCOD8001119 Si02
#       8
#     2   2   2   2   2   2   2   2
#     4  10  19  41  68  88 117 157 206 260 311 369
#     4  10  20  38  64  82 118 165 206 247 306 372
#     4  11  23  40  61  92 123 162 217 260 301 360
#     4  11  23  38  60  90 125 157 202 260 303 368
#     4   9  21  39  67  93 114 155 207 260 315 363
#     4  11  24  38  57  88 130 164 206 247 311 371
#     4  10  20  39  59  83 122 167 204 244 301 366
#     4  10  21  40  61  86 124 161 206 258 306 370
#
# _framework density 19.910658999999999
#
# number of rings (size 3 to 8) (size 9 to 14) (size 15 to 20)
#    0.000    1.750    3.750    1.125    1.750    7.000 
#    0.000    2.500    0.000    4.500    0.000    0.000 
#    0.000    0.000    0.000    0.000    0.000    0.000 
#
# Total GULP energy -198363.236375 kJ/mol
# GULP energy per Si atom -12397.702273 kJ/mol
# Density = 1.986534 g / cm^3
# Si number density = 19.910659 Si / 1000 Ang^3
#
#
#
# Elastic Constant Matrix: (Units=GPa)
#
#
# Indices 1 2 3 4 5 6 
#
# 1 83.1803 52.8216 48.3544 -4.8474 -13.6726 -10.7807
# 2 52.8216 115.6364 57.2084 5.3755 -1.4575 6.6058
# 3 48.3544 57.2084 113.0407 0.7427 -3.2501 0.7383
# 4 -4.8474 5.3755 0.7427 38.5576 -0.6809 7.8841
# 5 -13.6726 -1.4575 -3.2501 -0.6809 28.5628 5.2945
# 6 -10.7807 6.6058 0.7383 7.8841 5.2945 30.7456
#
#
#
# Elastic Compliance Matrix: (Units=1/GPa)
#
#
# Indices 1 2 3 4 5 6 
#
# 1 0.023061 -0.008279 -0.005496 0.002712 0.008606 0.007819
# 2 -0.008279 0.014725 -0.003945 -0.002052 -0.002789 -0.004966
# 3 -0.005496 -0.003945 0.013170 -0.000178 -0.001123 -0.001157
# 4 0.002712 -0.002052 -0.000178 0.027902 0.003002 -0.006276
# 5 0.008606 -0.002789 -0.001123 0.003002 0.039665 -0.003956
# 6 0.007819 -0.004966 -0.001157 -0.006276 -0.003956 0.038652
#
#
# Mechanical properties :
#
#
# Convention : Reuss Voigt Hill
#
# Bulk Modulus (GPa) = 64.45003 69.84734 67.14869
# Shear Modulus (GPa) = 25.27971 29.80474 27.54222
#
# Velocity S-wave (km/s) = 3.56709 3.87321 3.72330
# Velocity P-wave (km/s) = 7.02890 7.42690 7.23064
#
# Compressibility (1/GPa) = 0.01551590
#
# Stress axis : x y z
#
# Youngs Moduli (GPa) = 43.36409 67.91068 75.92880
#
# Poissons Ratio (x) = 0.56224 0.41730
# Poissons Ratio (y) = 0.35902 0.29954
# Poissons Ratio (z) = 0.23832 0.26791
#
# Static dielectric constant tensor:
#      x y z
#    x 3.670620 -0.344710 0.070780 
#    y -0.344710 3.766780 0.104590 
#    z 0.070780 0.104590 3.696400 
# 
# 
# High freq. dielectric constant tensor:
#      x y z
#    x 1.768470 -0.015380 -0.001870 
#    y -0.015380 1.764770 0.012040 
#    z -0.001870 0.012040 1.784990 
# 
# From -- ./inp_files/443897.got.cif
#   From: 2010.06.25/outbox.cif.g09.slc.cpg/sg2_222_cif.got.tgz:443897.got - 2010.06.27 13:26:56.
