data_PCOD8001792
_publ_section_title
;
Structure prediction by ZEFSAII (Michael W. Deem and Ramdas Pophale) SiO2 
 PCOD8001792
Probable space group: P -1
;
_chemical_formula_sum "Si O2"
_cell_formula_units_Z 16
_cell_length_a 16.933054
_cell_length_b 11.137988
_cell_length_c 12.212072
_cell_angle_alpha 109.526465
_cell_angle_beta 158.640355
_cell_angle_gamma 71.223268
_cell_volume 790.250367
_symmetry_space_group_name_H-M "P -1"
_symmetry_group_IT_number 2
_symmetry_cell_setting 'triclinic'
loop_
_space_group_symop_operation_xyz
x,y,z
-x,-y,-z
loop_
_atom_site_type_symbol
_atom_site_label
_atom_site_fract_x
_atom_site_fract_y
_atom_site_fract_z
Si Si1 0.724102 0.745161 0.387977
Si Si2 0.862146 0.564942 0.678317
Si Si3 0.061976 0.793753 0.298917
Si Si4 0.042266 0.352413 0.536933
Si Si5 0.388792 0.980112 0.735063
Si Si6 0.658123 0.747382 0.914705
Si Si7 0.703949 0.346779 0.263479
Si Si8 0.749494 0.405394 0.675629
O O1 0.798498 0.706886 0.595827
O O2 0.920252 0.730369 0.549897
O O3 0.623172 0.887435 0.306347
O O4 0.550133 0.643467 0.087491
O O5 0.813045 0.476541 0.483566
O O6 0.720417 0.522979 0.587728
O O7 0.120703 0.551375 0.035191
O O8 0.258503 0.756092 0.623954
O O9 0.081090 0.698631 0.191692
O O10 0.829038 0.782726 0.051720
O O11 0.137107 0.934926 0.405491
O O12 0.000000 0.500000 0.500000
O O13 0.824244 0.300714 0.293814
O O14 0.237163 0.323580 0.866644
O O15 0.536286 0.879312 0.827608
O O16 0.500000 0.000000 0.000000
O O17 0.481651 0.650690 0.608375
#
# Coordination Sequence:
#
# PCOD8001792 Si02
#       8
#     2   2   2   2   2   2   2   2
#     4  12  22  36  56  85 122 148 178 236 284 335
#     4  10  20  36  59  81 115 149 192 230 278 341
#     4   9  19  37  59  82 110 145 193 232 272 330
#     4  11  21  32  53  85 116 144 179 226 287 341
#     4  11  20  36  58  86 114 152 186 223 283 341
#     4  10  21  38  60  81 116 151 187 233 279 334
#     4  10  20  34  56  83 114 150 179 225 293 333
#     4   9  20  40  58  81 109 153 194 231 280 329
#
# _framework density 20.246746999999999
#
# number of rings (size 3 to 8) (size 9 to 14) (size 15 to 20)
#    0.000    1.750    3.750    1.875    1.750    1.500 
#    0.000   15.000    0.000    1.500    0.000    0.000 
#    0.000    0.000    0.000    0.000    0.000    0.000 
#
# Total GULP energy -198274.450821 kJ/mol
# GULP energy per Si atom -12392.153176 kJ/mol
# Density = 2.020066 g / cm^3
# Si number density = 20.246747 Si / 1000 Ang^3
#
#
#
# Elastic Constant Matrix: (Units=GPa)
#
#
# Indices 1 2 3 4 5 6 
#
# 1 64.3783 22.3379 45.3178 -2.5450 12.8186 8.1109
# 2 22.3379 96.1128 35.3084 -15.0127 -3.9722 18.7650
# 3 45.3178 35.3084 92.4339 -0.2936 8.2336 18.3795
# 4 -2.5450 -15.0127 -0.2936 29.4393 6.7152 2.4732
# 5 12.8186 -3.9722 8.2336 6.7152 27.2188 -5.8825
# 6 8.1109 18.7650 18.3795 2.4732 -5.8825 21.0297
#
#
#
# Elastic Compliance Matrix: (Units=1/GPa)
#
#
# Indices 1 2 3 4 5 6 
#
# 1 0.026365 -0.001339 -0.010787 0.004282 -0.011086 -0.003151
# 2 -0.001339 0.015474 -0.002656 0.009067 -0.001220 -0.012377
# 3 -0.010787 -0.002656 0.019809 -0.000230 -0.003797 -0.011817
# 4 0.004282 0.009067 -0.000230 0.044133 -0.015641 -0.019106
# 5 -0.011086 -0.001220 -0.003797 -0.015641 0.052220 0.025129
# 6 -0.003151 -0.012377 -0.011817 -0.019106 0.025129 0.079416
#
#
# Mechanical properties :
#
#
# Convention : Reuss Voigt Hill
#
# Bulk Modulus (GPa) = 31.16808 50.98370 41.07589
# Shear Modulus (GPa) = 18.00681 25.53496 21.77088
#
# Velocity S-wave (km/s) = 2.98546 3.55517 3.28270
# Velocity P-wave (km/s) = 5.22604 6.48754 5.89066
#
# Compressibility (1/GPa) = 0.03208411
#
# Stress axis : x y z
#
# Youngs Moduli (GPa) = 37.92976 64.62649 50.48314
#
# Poissons Ratio (x) = 0.08652 0.54455
# Poissons Ratio (y) = 0.05078 0.13407
# Poissons Ratio (z) = 0.40914 0.17163
#
# Static dielectric constant tensor:
#      x y z
#    x 3.669990 0.118120 0.053020 
#    y 0.118120 3.830960 -0.002740 
#    z 0.053020 -0.002740 3.621930 
# 
# 
# High freq. dielectric constant tensor:
#      x y z
#    x 1.783190 0.014620 0.010080 
#    y 0.014620 1.780540 0.002080 
#    z 0.010080 0.002080 1.776780 
# 
# From -- ./inp_files/464716.got.cif
#   From: 2010.06.25/outbox.cif.g09.slc.cpg/sg2_233_cif.got.tgz:464716.got - 2010.06.27 13:26:56.
