data_PCOD8001627
_publ_section_title
;
Structure prediction by ZEFSAII (Michael W. Deem and Ramdas Pophale) SiO2 
 PCOD8001627
Probable space group: P -1
;
_chemical_formula_sum "Si O2"
_cell_formula_units_Z 16
_cell_length_a 9.410327
_cell_length_b 9.689212
_cell_length_c 15.856072
_cell_angle_alpha 91.220334
_cell_angle_beta 38.704527
_cell_angle_gamma 103.244442
_cell_volume 850.011007
_symmetry_space_group_name_H-M "P -1"
_symmetry_group_IT_number 2
_symmetry_cell_setting 'triclinic'
loop_
_space_group_symop_operation_xyz
x,y,z
-x,-y,-z
loop_
_atom_site_type_symbol
_atom_site_label
_atom_site_fract_x
_atom_site_fract_y
_atom_site_fract_z
Si Si1 0.667243 0.870141 0.272663
Si Si2 0.975491 0.574989 0.427111
Si Si3 0.726677 0.791990 0.591608
Si Si4 0.596588 0.377899 0.492623
Si Si5 0.453320 0.838953 0.187054
Si Si6 0.334444 0.833077 0.680811
Si Si7 0.106845 0.097516 0.130708
Si Si8 0.865800 0.966021 0.687411
O O1 0.570898 0.706887 0.353402
O O2 0.603674 0.857748 0.203412
O O3 0.555743 0.986569 0.370438
O O4 0.958879 0.939035 0.153717
O O5 0.769205 0.645997 0.540274
O O6 0.870206 0.457042 0.399989
O O7 0.000000 0.500000 0.500000
O O8 0.232752 0.686902 0.282091
O O9 0.445561 0.777998 0.710601
O O10 0.878487 0.920456 0.458939
O O11 0.807696 0.824298 0.651567
O O12 0.500000 0.500000 0.500000
O O13 0.588347 0.246164 0.433300
O O14 0.350483 0.970493 0.224861
O O15 0.626327 0.837745 0.029051
O O16 0.042234 0.791033 0.819517
O O17 0.120719 0.081409 0.224222
#
# Coordination Sequence:
#
# PCOD8001627 Si02
#       8
#     2   2   2   2   2   2   2   2
#     4  10  22  37  64  87 119 157 200 251 295 355
#     4  11  24  37  62  86 124 160 196 246 306 367
#     4  10  20  35  58  90 120 152 194 255 304 345
#     4  12  23  39  61  92 124 153 200 251 304 355
#     4  11  21  41  57  89 121 161 199 240 305 362
#     4  10  22  37  60  90 117 153 202 247 302 344
#     4  10  23  35  62  88 120 158 201 251 290 355
#     4  10  20  33  59  88 121 149 194 254 301 344
#
# _framework density 18.823286
#
# number of rings (size 3 to 8) (size 9 to 14) (size 15 to 20)
#    0.750    0.750    3.750    1.875    5.250    0.000 
#    0.000    0.625    0.000    1.500    0.000    0.000 
#    0.000    0.000    0.000    0.000    0.000    0.000 
#
# Total GULP energy -198246.006274 kJ/mol
# GULP energy per Si atom -12390.375392 kJ/mol
# Density = 1.878044 g / cm^3
# Si number density = 18.823286 Si / 1000 Ang^3
#
#
#
# Elastic Constant Matrix: (Units=GPa)
#
#
# Indices 1 2 3 4 5 6 
#
# 1 117.1828 32.0252 42.1475 -7.0278 7.4417 10.6607
# 2 32.0252 65.7682 22.8377 -8.6003 9.1677 6.1610
# 3 42.1475 22.8377 89.3006 -4.9192 -0.7059 -2.2472
# 4 -7.0278 -8.6003 -4.9192 18.1293 4.2805 -0.9262
# 5 7.4417 9.1677 -0.7059 4.2805 25.0440 7.3079
# 6 10.6607 6.1610 -2.2472 -0.9262 7.3079 31.3027
#
#
#
# Elastic Compliance Matrix: (Units=1/GPa)
#
#
# Indices 1 2 3 4 5 6 
#
# 1 0.011607 -0.003235 -0.004636 0.001971 -0.001808 -0.003169
# 2 -0.003235 0.020315 -0.003243 0.009307 -0.007860 -0.001019
# 3 -0.004636 -0.003243 0.014312 0.000184 0.002134 0.002752
# 4 0.001971 0.009307 0.000184 0.064300 -0.015889 0.003122
# 5 -0.001808 -0.007860 0.002134 -0.015889 0.048914 -0.009574
# 6 -0.003169 -0.001019 0.002752 0.003122 -0.009574 0.035751
#
#
# Mechanical properties :
#
#
# Convention : Reuss Voigt Hill
#
# Bulk Modulus (GPa) = 41.66014 51.80804 46.73409
# Shear Modulus (GPa) = 22.18004 26.57794 24.37899
#
# Velocity S-wave (km/s) = 3.43640 3.76170 3.60272
# Velocity P-wave (km/s) = 6.15836 6.81544 6.49522
#
# Compressibility (1/GPa) = 0.02400376
#
# Stress axis : x y z
#
# Youngs Moduli (GPa) = 86.15785 49.22553 69.87164
#
# Poissons Ratio (x) = 0.15926 0.32393
# Poissons Ratio (y) = 0.27875 0.22662
# Poissons Ratio (z) = 0.39943 0.15966
#
# Static dielectric constant tensor:
#      x y z
#    x 4.542830 0.708810 -0.604280 
#    y 0.708810 3.743290 -0.257680 
#    z -0.604280 -0.257680 3.395880 
# 
# 
# High freq. dielectric constant tensor:
#      x y z
#    x 1.757570 0.010840 -0.006150 
#    y 0.010840 1.719110 0.010240 
#    z -0.006150 0.010240 1.694260 
# 
# From -- ./inp_files/498024.got.cif
#   From: 2010.06.25/outbox.cif.g09.slc.cpg/sg2_250_cif.got.tgz:498024.got - 2010.06.27 13:26:56.
