data_PCOD8001033
_publ_section_title
;
Structure prediction by ZEFSAII (Michael W. Deem and Ramdas Pophale) SiO2 
 PCOD8001033
Probable space group: P -1
;
_chemical_formula_sum "Si O2"
_cell_formula_units_Z 12
_cell_length_a 8.211208
_cell_length_b 9.153014
_cell_length_c 11.586923
_cell_angle_alpha 110.092585
_cell_angle_beta 144.550491
_cell_angle_gamma 75.828896
_cell_volume 473.353595
_symmetry_space_group_name_H-M "P -1"
_symmetry_group_IT_number 2
_symmetry_cell_setting 'triclinic'
loop_
_space_group_symop_operation_xyz
x,y,z
-x,-y,-z
loop_
_atom_site_type_symbol
_atom_site_label
_atom_site_fract_x
_atom_site_fract_y
_atom_site_fract_z
Si Si1 0.734591 0.126856 0.129028
Si Si2 0.869268 0.054230 0.559004
Si Si3 0.720594 0.088558 0.853884
Si Si4 0.940666 0.408790 0.755061
Si Si5 0.376469 0.593487 0.217071
Si Si6 0.735779 0.468059 0.221030
O O1 0.716455 0.296587 0.221117
O O2 0.681300 0.164954 0.975907
O O3 0.033482 0.058011 0.312270
O O4 0.500000 0.000000 0.000000
O O5 0.974596 0.229427 0.695336
O O6 0.532126 0.037673 0.356237
O O7 0.000000 0.000000 0.500000
O O8 0.734018 0.232717 0.812347
O O9 0.000000 0.000000 0.000000
O O10 0.651764 0.438077 0.668675
O O11 0.969961 0.498026 0.671868
O O12 0.187868 0.463044 0.002124
O O13 0.691112 0.580745 0.338771
O O14 0.500000 0.500000 0.000000
#
# Coordination Sequence:
#
# PCOD8001033 Si02
#       6
#     2   2   2   2   2   2
#     4  12  23  44  77 106 148 200 243 304 380 438
#     4  12  26  47  76 114 148 193 259 309 366 458
#     4  12  26  46  74 108 150 194 250 310 380 439
#     4  10  21  42  72 102 147 190 243 309 365 434
#     4  10  21  42  74 102 146 199 240 303 375 441
#     4  10  19  40  73 103 142 193 244 299 369 442
#
# _framework density 25.351026000000001
#
# number of rings (size 3 to 8) (size 9 to 14) (size 15 to 20)
#    0.000    1.000    5.000    4.000    0.000    4.000 
#    0.000    4.167    0.000    0.000    0.000    0.000 
#    0.000    0.000    0.000    0.000    0.000    0.000 
#
# Total GULP energy -148687.258042 kJ/mol
# GULP energy per Si atom -12390.604837 kJ/mol
# Density = 2.529333 g / cm^3
# Si number density = 25.351026 Si / 1000 Ang^3
#
#
#
# Elastic Constant Matrix: (Units=GPa)
#
#
# Indices 1 2 3 4 5 6 
#
# 1 219.3642 55.3596 15.3439 8.9660 -3.1723 7.2230
# 2 55.3596 170.6183 31.3512 27.1154 10.0227 2.6390
# 3 15.3439 31.3512 71.3832 7.8662 7.3102 6.8127
# 4 8.9660 27.1154 7.8662 30.7341 -2.1305 -9.5015
# 5 -3.1723 10.0227 7.3102 -2.1305 36.9042 -1.8089
# 6 7.2230 2.6390 6.8127 -9.5015 -1.8089 34.2736
#
#
#
# Elastic Compliance Matrix: (Units=1/GPa)
#
#
# Indices 1 2 3 4 5 6 
#
# 1 0.005031 -0.001570 -0.000377 -0.000194 0.000880 -0.000872
# 2 -0.001570 0.007995 -0.001991 -0.006843 -0.002401 -0.001913
# 3 -0.000377 -0.001991 0.016094 -0.003757 -0.003101 -0.004172
# 4 -0.000194 -0.006843 -0.003757 0.044294 0.005825 0.013901
# 5 0.000880 -0.002401 -0.003101 0.005825 0.028960 0.003759
# 6 -0.000872 -0.001913 -0.004172 0.013901 0.003759 0.034389
#
#
# Mechanical properties :
#
#
# Convention : Reuss Voigt Hill
#
# Bulk Modulus (GPa) = 47.07623 73.94170 60.50897
# Shear Modulus (GPa) = 32.95531 44.33645 38.64588
#
# Velocity S-wave (km/s) = 3.60941 4.18652 3.90863
# Velocity P-wave (km/s) = 5.99837 7.25257 6.65508
#
# Compressibility (1/GPa) = 0.02124214
#
# Stress axis : x y z
#
# Youngs Moduli (GPa) = 198.78113 125.08472 62.13425
#
# Poissons Ratio (x) = 0.19642 0.02344
# Poissons Ratio (y) = 0.31215 0.12372
# Poissons Ratio (z) = 0.07498 0.24906
#
# Static dielectric constant tensor:
#      x y z
#    x 5.695660 0.048180 0.055460 
#    y 0.048180 4.283190 0.148090 
#    z 0.055460 0.148090 4.459800 
# 
# 
# High freq. dielectric constant tensor:
#      x y z
#    x 2.030940 0.003800 -0.008370 
#    y 0.003800 2.010110 0.011760 
#    z -0.008370 0.011760 1.994800 
# 
# From -- ./inp_files/380191.got.cif
#   From: 2010.06.25/outbox.cif.g09.slc.cpg/sg2_191_cif.got.tgz:380191.got - 2010.06.27 13:26:56.
