data_PCOD8001075
_publ_section_title
;
Structure prediction by ZEFSAII (Michael W. Deem and Ramdas Pophale) SiO2 
 PCOD8001075
Probable space group: P -1
;
_chemical_formula_sum "Si O2"
_cell_formula_units_Z 16
_cell_length_a 16.493352
_cell_length_b 9.745352
_cell_length_c 9.349695
_cell_angle_alpha 64.261480
_cell_angle_beta 68.839599
_cell_angle_gamma 35.029822
_cell_volume 776.990321
_symmetry_space_group_name_H-M "P -1"
_symmetry_group_IT_number 2
_symmetry_cell_setting 'triclinic'
loop_
_space_group_symop_operation_xyz
x,y,z
-x,-y,-z
loop_
_atom_site_type_symbol
_atom_site_label
_atom_site_fract_x
_atom_site_fract_y
_atom_site_fract_z
Si Si1 0.391941 0.563484 0.231098
Si Si2 0.084855 0.697157 0.455533
Si Si3 0.965619 0.883145 0.138874
Si Si4 0.070696 0.560168 0.970126
Si Si5 0.372088 0.253370 0.883846
Si Si6 0.389474 0.257423 0.534866
Si Si7 0.658917 0.395632 0.083100
Si Si8 0.892454 0.984390 0.683575
O O1 0.416046 0.390463 0.400162
O O2 0.527964 0.480332 0.183792
O O3 0.264389 0.848409 0.241985
O O4 0.354891 0.550880 0.101829
O O5 0.232538 0.408636 0.528079
O O6 0.046427 0.743650 0.296111
O O7 0.951402 0.818028 0.578575
O O8 0.116067 0.825408 0.427362
O O9 0.796812 0.103074 0.159151
O O10 0.029783 0.652970 0.116069
O O11 0.000000 0.000000 0.000000
O O12 0.238731 0.322763 0.945563
O O13 0.006252 0.791344 0.820095
O O14 0.000000 0.500000 0.000000
O O15 0.413618 0.224128 0.705625
O O16 0.329189 0.466906 0.895897
O O17 0.500000 0.000000 0.000000
O O18 0.500000 0.000000 0.500000
#
# Coordination Sequence:
#
# PCOD8001075 Si02
#       8
#     2   2   2   2   2   2   2   2
#     4  10  23  40  68  97 136 175 216 280 337 393
#     4  10  21  38  70  92 126 172 225 268 324 397
#     4  12  21  40  69  98 125 169 231 268 317 403
#     4  12  26  43  68  99 138 175 221 283 341 392
#     4  12  27  43  68  98 133 178 228 278 339 412
#     4  11  24  43  64  93 138 177 216 270 349 404
#     4  11  23  42  68 101 133 170 229 277 332 400
#     4  10  19  41  64  97 125 172 217 267 330 390
#
# _framework density 20.592276999999999
#
# number of rings (size 3 to 8) (size 9 to 14) (size 15 to 20)
#    0.000    1.000    5.000    1.500    7.000    1.500 
#    0.000    0.625    0.000    0.000    0.000    0.000 
#    0.000    0.000    0.000    0.000    0.000    0.000 
#
# Total GULP energy -198349.101268 kJ/mol
# GULP energy per Si atom -12396.818829 kJ/mol
# Density = 2.054541 g / cm^3
# Si number density = 20.592277 Si / 1000 Ang^3
#
#
#
# Elastic Constant Matrix: (Units=GPa)
#
#
# Indices 1 2 3 4 5 6 
#
# 1 105.0115 51.2394 50.8965 15.9313 2.6842 -15.0987
# 2 51.2394 143.9021 65.9894 18.6959 2.0614 -27.3570
# 3 50.8965 65.9894 143.5239 15.4014 23.0982 -12.6394
# 4 15.9313 18.6959 15.4014 40.2582 -4.7334 5.0756
# 5 2.6842 2.0614 23.0982 -4.7334 30.9893 5.1795
# 6 -15.0987 -27.3570 -12.6394 5.0756 5.1795 39.8739
#
#
#
# Elastic Compliance Matrix: (Units=1/GPa)
#
#
# Indices 1 2 3 4 5 6 
#
# 1 0.012982 -0.002307 -0.003006 -0.003225 0.000317 0.002750
# 2 -0.002307 0.010894 -0.003358 -0.003557 0.000443 0.005931
# 3 -0.003006 -0.003358 0.011446 -0.002874 -0.008769 0.001691
# 4 -0.003225 -0.003557 -0.002874 0.031155 0.009040 -0.009713
# 5 0.000317 0.000443 -0.008769 0.009040 0.041619 -0.008912
# 6 0.002750 0.005931 0.001691 -0.009713 -0.008912 0.033120
#
#
# Mechanical properties :
#
#
# Convention : Reuss Voigt Hill
#
# Bulk Modulus (GPa) = 55.61608 80.96533 68.29070
# Shear Modulus (GPa) = 30.38586 37.17845 33.78215
#
# Velocity S-wave (km/s) = 3.84551 4.25368 4.05473
# Velocity P-wave (km/s) = 6.83990 7.97049 7.42674
#
# Compressibility (1/GPa) = 0.01798041
#
# Stress axis : x y z
#
# Youngs Moduli (GPa) = 77.03131 91.79456 87.36691
#
# Poissons Ratio (x) = 0.21176 0.26260
# Poissons Ratio (y) = 0.17770 0.29338
# Poissons Ratio (z) = 0.23154 0.30825
#
# Static dielectric constant tensor:
#      x y z
#    x 3.195880 -0.368430 0.367360 
#    y -0.368430 4.330540 0.504840 
#    z 0.367360 0.504840 3.817750 
# 
# 
# High freq. dielectric constant tensor:
#      x y z
#    x 1.781640 -0.020820 0.010790 
#    y -0.020820 1.822160 0.016600 
#    z 0.010790 0.016600 1.815790 
# 
# From -- ./inp_files/297823.got.cif
#   From: 2010.06.25/outbox.cif.g09.slc.cpg/sg2_149_cif.got.tgz:297823.got - 2010.06.27 13:26:56.
