data_PCOD8001145
_publ_section_title
;
Structure prediction by ZEFSAII (Michael W. Deem and Ramdas Pophale) SiO2 
 PCOD8001145
Probable space group: P -1
;
_chemical_formula_sum "Si O2"
_cell_formula_units_Z 16
_cell_length_a 11.532259
_cell_length_b 8.314871
_cell_length_c 14.226371
_cell_angle_alpha 77.539040
_cell_angle_beta 120.381709
_cell_angle_gamma 138.351355
_cell_volume 750.139289
_symmetry_space_group_name_H-M "P -1"
_symmetry_group_IT_number 2
_symmetry_cell_setting 'triclinic'
loop_
_space_group_symop_operation_xyz
x,y,z
-x,-y,-z
loop_
_atom_site_type_symbol
_atom_site_label
_atom_site_fract_x
_atom_site_fract_y
_atom_site_fract_z
Si Si1 0.078574 0.610795 0.622641
Si Si2 0.830523 0.986745 0.290326
Si Si3 0.448828 0.554741 0.678512
Si Si4 0.754499 0.602246 0.695721
Si Si5 0.210415 0.611475 0.099841
Si Si6 0.476851 0.801283 0.823564
Si Si7 0.347144 0.710384 0.462103
Si Si8 0.505188 0.198481 0.961936
O O1 0.242853 0.630213 0.722247
O O2 0.000000 0.500000 0.500000
O O3 0.877478 0.417180 0.631504
O O4 0.171450 0.880352 0.643202
O O5 0.732184 0.734702 0.327652
O O6 0.700908 0.928948 0.155210
O O7 0.058229 0.157249 0.322547
O O8 0.630692 0.638734 0.683858
O O9 0.554056 0.735360 0.790239
O O10 0.342391 0.597708 0.568468
O O11 0.838825 0.559396 0.815558
O O12 0.597814 0.352537 0.596789
O O13 0.299643 0.584485 0.053206
O O14 0.377328 0.903866 0.160883
O O15 0.000000 0.500000 0.000000
O O16 0.475081 0.709598 0.936506
O O17 0.500000 0.000000 0.500000
O O18 0.500000 0.000000 0.000000
#
# Coordination Sequence:
#
# PCOD8001145 Si02
#       8
#     2   2   2   2   2   2   2   2
#     4  11  22  42  70 101 130 185 238 286 337 409
#     4  11  24  44  70 100 138 183 234 281 357 408
#     4  12  25  46  64 101 149 184 217 299 348 415
#     4  11  24  43  67  99 139 181 232 281 353 414
#     4  11  22  42  72 102 135 179 237 295 340 404
#     4  11  23  42  69 102 137 181 239 277 353 416
#     4  11  26  43  70  97 134 183 241 285 338 413
#     4  10  19  41  70  95 132 174 230 287 332 407
#
# _framework density 21.329373
#
# number of rings (size 3 to 8) (size 9 to 14) (size 15 to 20)
#    0.000    1.000    5.000    2.625    3.500    3.500 
#    2.250    1.250    0.000    0.000    0.000    0.000 
#    0.000    0.000    0.000    0.000    0.000    0.000 
#
# Total GULP energy -198366.938969 kJ/mol
# GULP energy per Si atom -12397.933686 kJ/mol
# Density = 2.128083 g / cm^3
# Si number density = 21.329373 Si / 1000 Ang^3
#
#
#
# Elastic Constant Matrix: (Units=GPa)
#
#
# Indices 1 2 3 4 5 6 
#
# 1 139.3838 38.9612 50.7273 15.1902 -20.3894 6.7994
# 2 38.9612 104.9480 39.9046 -9.0702 8.4208 2.3536
# 3 50.7273 39.9046 133.9024 4.7933 -10.7713 -3.5174
# 4 15.1902 -9.0702 4.7933 30.6392 7.7060 1.2831
# 5 -20.3894 8.4208 -10.7713 7.7060 39.6352 0.3021
# 6 6.7994 2.3536 -3.5174 1.2831 0.3021 26.3786
#
#
#
# Elastic Compliance Matrix: (Units=1/GPa)
#
#
# Indices 1 2 3 4 5 6 
#
# 1 0.011545 -0.004880 -0.002013 -0.008802 0.008159 -0.002474
# 2 -0.004880 0.014091 -0.003361 0.009213 -0.008203 -0.000802
# 3 -0.002013 -0.003361 0.009589 -0.002270 0.002709 0.002177
# 4 -0.008802 0.009213 -0.002270 0.044058 -0.015662 -0.000820
# 5 0.008159 -0.008203 0.002709 -0.015662 0.034956 -0.000648
# 6 -0.002474 -0.000802 0.002177 -0.000820 -0.000648 0.038956
#
#
# Mechanical properties :
#
#
# Convention : Reuss Voigt Hill
#
# Bulk Modulus (GPa) = 67.95511 70.82449 69.38980
# Shear Modulus (GPa) = 27.99431 35.90665 31.95048
#
# Velocity S-wave (km/s) = 3.62674 4.10742 3.87454
# Velocity P-wave (km/s) = 7.03326 7.46805 7.25391
#
# Compressibility (1/GPa) = 0.01471560
#
# Stress axis : x y z
#
# Youngs Moduli (GPa) = 86.62097 70.96834 104.29038
#
# Poissons Ratio (x) = 0.34636 0.20990
# Poissons Ratio (y) = 0.42275 0.35053
# Poissons Ratio (z) = 0.17434 0.23853
#
# Static dielectric constant tensor:
#      x y z
#    x 4.375190 0.335100 -0.452760 
#    y 0.335100 3.895540 -0.083350 
#    z -0.452760 -0.083350 4.268150 
# 
# 
# High freq. dielectric constant tensor:
#      x y z
#    x 1.847210 0.009820 -0.009230 
#    y 0.009820 1.819290 -0.001500 
#    z -0.009230 -0.001500 1.847900 
# 
# From -- ./inp_files/283076.got.cif
#   From: 2010.06.25/outbox.cif.g09.slc.cpg/sg2_142_cif.got.tgz:283076.got - 2010.06.27 13:26:56.
