data_PCOD8001477
_publ_section_title
;
Structure prediction by ZEFSAII (Michael W. Deem and Ramdas Pophale) SiO2 
 PCOD8001477
Probable space group: P -1
;
_chemical_formula_sum "Si O2"
_cell_formula_units_Z 16
_cell_length_a 20.400217
_cell_length_b 11.362968
_cell_length_c 16.403489
_cell_angle_alpha 117.915467
_cell_angle_beta 161.423620
_cell_angle_gamma 53.431927
_cell_volume 900.929368
_symmetry_space_group_name_H-M "P -1"
_symmetry_group_IT_number 2
_symmetry_cell_setting 'triclinic'
loop_
_space_group_symop_operation_xyz
x,y,z
-x,-y,-z
loop_
_atom_site_type_symbol
_atom_site_label
_atom_site_fract_x
_atom_site_fract_y
_atom_site_fract_z
Si Si1 0.387552 0.254076 0.536716
Si Si2 0.482120 0.642563 0.123548
Si Si3 0.125820 0.998864 0.767249
Si Si4 0.971885 0.819395 0.970886
Si Si5 0.253450 0.104915 0.104288
Si Si6 0.365683 0.922714 0.856124
Si Si7 0.279331 0.432273 0.788891
Si Si8 0.388334 0.820393 0.389331
O O1 0.373371 0.371041 0.627699
O O2 0.120115 0.284628 0.214272
O O3 0.490094 0.281044 0.582362
O O4 0.565105 0.076477 0.718062
O O5 0.681257 0.571398 0.263092
O O6 0.265914 0.820560 0.907034
O O7 0.358820 0.542733 0.959556
O O8 0.242224 0.010437 0.824063
O O9 0.843554 0.057999 0.444287
O O10 0.138865 0.116715 0.884538
O O11 0.959923 0.811219 0.052187
O O12 0.799367 0.998977 0.797320
O O13 0.250868 0.749134 0.250868
O O14 0.404785 0.190468 0.310630
O O15 0.561406 0.739352 0.040109
O O16 0.500000 0.000000 0.000000
O O17 0.000000 0.500000 0.500000
#
# Coordination Sequence:
#
# PCOD8001477 Si02
#       8
#     2   2   2   2   2   2   2   2
#     4   8  14  24  38  60  89 118 148 181 221 270
#     4   9  18  32  49  69  94 124 157 192 231 276
#     4   9  18  32  49  69  94 124 157 192 231 276
#     4   8  13  21  35  58  89 119 144 177 222 268
#     4   8  14  24  38  60  89 118 148 181 221 270
#     4  10  20  33  49  69  94 123 156 194 234 276
#     4  10  20  33  49  69  94 123 156 194 234 276
#     4   8  13  21  35  58  89 119 144 177 222 268
#
# _framework density 17.759437999999999
#
# number of rings (size 3 to 8) (size 9 to 14) (size 15 to 20)
#    0.000    3.250    0.000    2.250    0.000    3.000 
#    0.000    7.500    0.000    0.000    0.000    3.500 
#    0.000   10.000    0.000    0.000    0.000    0.000 
#
# Total GULP energy -198326.237737 kJ/mol
# GULP energy per Si atom -12395.389859 kJ/mol
# Density = 1.771902 g / cm^3
# Si number density = 17.759438 Si / 1000 Ang^3
#
#
#
# Elastic Constant Matrix: (Units=GPa)
#
#
# Indices 1 2 3 4 5 6 
#
# 1 114.7587 53.2201 85.8719 40.7278 7.1272 -14.2338
# 2 53.2201 65.8718 47.0823 30.8547 3.5389 -9.6362
# 3 85.8719 47.0823 128.6964 38.0489 15.2774 -9.6319
# 4 40.7278 30.8547 38.0489 33.0377 1.1403 -6.4698
# 5 7.1272 3.5389 15.2774 1.1403 34.8195 13.2350
# 6 -14.2338 -9.6362 -9.6319 -6.4698 13.2350 26.9843
#
#
#
# Elastic Compliance Matrix: (Units=1/GPa)
#
#
# Indices 1 2 3 4 5 6 
#
# 1 0.023216 -0.006001 -0.009486 -0.011111 -0.001422 0.004750
# 2 -0.006001 0.030253 -0.000878 -0.018999 -0.002325 0.003910
# 3 -0.009486 -0.000878 0.017340 -0.006791 -0.006229 0.002299
# 4 -0.011111 -0.018999 -0.006791 0.069128 0.005346 -0.001118
# 5 -0.001422 -0.002325 -0.006229 0.005346 0.040271 -0.022273
# 6 0.004750 0.003910 0.002299 -0.001118 -0.022273 0.052438
#
#
# Mechanical properties :
#
#
# Convention : Reuss Voigt Hill
#
# Bulk Modulus (GPa) = 26.26076 75.74173 51.00125
# Shear Modulus (GPa) = 17.98115 27.17847 22.57981
#
# Velocity S-wave (km/s) = 3.18541 3.91624 3.56957
# Velocity P-wave (km/s) = 5.32430 7.94925 6.76530
#
# Compressibility (1/GPa) = 0.03807963
#
# Stress axis : x y z
#
# Youngs Moduli (GPa) = 43.07360 33.05439 57.66960
#
# Poissons Ratio (x) = 0.19836 0.54705
# Poissons Ratio (y) = 0.25848 0.05063
# Poissons Ratio (z) = 0.40860 0.02902
#
# Static dielectric constant tensor:
#      x y z
#    x 3.474050 -0.176730 0.035590 
#    y -0.176730 3.094270 0.363550 
#    z 0.035590 0.363550 3.368610 
# 
# 
# High freq. dielectric constant tensor:
#      x y z
#    x 1.686380 -0.010830 0.006710 
#    y -0.010830 1.656310 0.027160 
#    z 0.006710 0.027160 1.679330 
# 
# From -- ./inp_files/304398.got.cif
#   From: 2010.06.25/outbox.cif.g09.slc.cpg/sg2_153_cif.got.tgz:304398.got - 2010.06.27 13:26:56.
