data_PCOD8001808
_publ_section_title
;
Structure prediction by ZEFSAII (Michael W. Deem and Ramdas Pophale) SiO2 
 PCOD8001808
Probable space group: P -1
;
_chemical_formula_sum "Si O2"
_cell_formula_units_Z 14
_cell_length_a 13.049475
_cell_length_b 6.456435
_cell_length_c 8.112250
_cell_angle_alpha 102.936109
_cell_angle_beta 82.495819
_cell_angle_gamma 131.224697
_cell_volume 500.887472
_symmetry_space_group_name_H-M "P -1"
_symmetry_group_IT_number 2
_symmetry_cell_setting 'triclinic'
loop_
_space_group_symop_operation_xyz
x,y,z
-x,-y,-z
loop_
_atom_site_type_symbol
_atom_site_label
_atom_site_fract_x
_atom_site_fract_y
_atom_site_fract_z
Si Si1 0.611702 0.917935 0.810016
Si Si2 0.825130 0.796901 0.927803
Si Si3 0.900290 0.545723 0.438904
Si Si4 0.467783 0.695485 0.127187
Si Si5 0.937602 0.939465 0.267249
Si Si6 0.608435 0.959440 0.462900
Si Si7 0.088834 0.579944 0.152409
O O1 0.566544 0.103342 0.846702
O O2 0.588139 0.793671 0.606589
O O3 0.770818 0.101724 0.853094
O O4 0.525195 0.689783 0.935827
O O5 0.672354 0.619794 0.860509
O O6 0.870381 0.611047 0.877821
O O7 0.939040 0.050606 0.826869
O O8 0.843426 0.904815 0.131695
O O9 0.764719 0.252763 0.487074
O O10 0.997042 0.782703 0.596090
O O11 0.005108 0.523342 0.326561
O O12 0.846229 0.658164 0.346584
O O13 0.574868 0.788765 0.269854
O O14 0.500000 0.000000 0.500000
O O15 0.000000 0.500000 0.000000
#
# Coordination Sequence:
#
# PCOD8001808 Si02
#       7
#     2   2   2   2   2   2   2
#     4   9  19  31  53  87 115 146 187 252 297 332
#     4  10  21  39  60  90 115 160 198 241 296 356
#     4  11  22  37  58  91 119 155 190 249 302 347
#     4   9  18  34  58  86 113 150 202 253 283 336
#     4  10  22  37  56  86 124 157 193 232 301 372
#     4  10  20  34  56  89 116 146 201 253 287 339
#     4  11  20  35  60  89 121 151 201 250 297 340
#
# _framework density 27.950389999999999
#
# number of rings (size 3 to 8) (size 9 to 14) (size 15 to 20)
#    0.000    2.000    1.429    3.429    6.000    2.286 
#    0.000    0.000    0.000    1.714   14.857    0.000 
#    0.000    0.000    0.000    0.000    0.000    0.000 
#
# Total GULP energy -173499.434082 kJ/mol
# GULP energy per Si atom -12392.816720 kJ/mol
# Density = 2.788677 g / cm^3
# Si number density = 27.950390 Si / 1000 Ang^3
#
#
#
# Elastic Constant Matrix: (Units=GPa)
#
#
# Indices 1 2 3 4 5 6 
#
# 1 73.8220 17.0269 28.4858 4.3910 -5.0514 28.5859
# 2 17.0269 128.4030 60.5573 -19.2689 5.7416 20.3537
# 3 28.4858 60.5573 202.5587 -1.1770 16.2443 10.2300
# 4 4.3910 -19.2689 -1.1770 57.9162 -2.8088 7.5702
# 5 -5.0514 5.7416 16.2443 -2.8088 40.0086 -1.6760
# 6 28.5859 20.3537 10.2300 7.5702 -1.6760 36.9562
#
#
#
# Elastic Compliance Matrix: (Units=1/GPa)
#
#
# Indices 1 2 3 4 5 6 
#
# 1 0.020600 0.001031 -0.002635 0.000939 0.002925 -0.015832
# 2 0.001031 0.010801 -0.002989 0.004336 -0.000187 -0.006815
# 3 -0.002635 -0.002989 0.006288 -0.001053 -0.002445 0.002049
# 4 0.000939 0.004336 -0.001053 0.019552 0.001013 -0.006782
# 5 0.002925 -0.000187 -0.002445 0.001013 0.026434 -0.000492
# 6 -0.015832 -0.006815 0.002049 -0.006782 -0.000492 0.043858
#
#
# Mechanical properties :
#
#
# Convention : Reuss Voigt Hill
#
# Bulk Modulus (GPa) = 35.08656 68.54708 51.81682
# Shear Modulus (GPa) = 34.19512 46.89047 40.54280
#
# Velocity S-wave (km/s) = 3.50154 4.10033 3.81271
# Velocity P-wave (km/s) = 5.37849 6.85527 6.16129
#
# Compressibility (1/GPa) = 0.02850094
#
# Stress axis : x y z
#
# Youngs Moduli (GPa) = 48.54366 92.58810 159.04457
#
# Poissons Ratio (x) = -0.09542 0.41902
# Poissons Ratio (y) = -0.05003 0.47546
# Poissons Ratio (z) = 0.12789 0.27679
#
# Static dielectric constant tensor:
#      x y z
#    x 5.761750 -0.804020 1.419910 
#    y -0.804020 6.539570 -2.142120 
#    z 1.419910 -2.142120 10.121870 
# 
# 
# High freq. dielectric constant tensor:
#      x y z
#    x 2.156880 -0.016750 0.006770 
#    y -0.016750 2.133700 -0.007250 
#    z 0.006770 -0.007250 2.149940 
# 
# From -- ./inp_files/299136.got.cif
#   From: 2010.06.25/outbox.cif.g09.slc.cpg/sg2_150_cif.got.tgz:299136.got - 2010.06.27 13:26:56.
