data_PCOD8001284
_publ_section_title
;
Structure prediction by ZEFSAII (Michael W. Deem and Ramdas Pophale) SiO2 
 PCOD8001284
Probable space group: P -1
;
_chemical_formula_sum "Si O2"
_cell_formula_units_Z 16
_cell_length_a 11.257579
_cell_length_b 11.444411
_cell_length_c 12.221589
_cell_angle_alpha 141.669405
_cell_angle_beta 99.129851
_cell_angle_gamma 109.219737
_cell_volume 647.597372
_symmetry_space_group_name_H-M "P -1"
_symmetry_group_IT_number 2
_symmetry_cell_setting 'triclinic'
loop_
_space_group_symop_operation_xyz
x,y,z
-x,-y,-z
loop_
_atom_site_type_symbol
_atom_site_label
_atom_site_fract_x
_atom_site_fract_y
_atom_site_fract_z
Si Si1 0.763957 0.162341 0.127127
Si Si2 0.417919 0.526986 0.602364
Si Si3 0.765305 0.326708 0.642919
Si Si4 0.128779 0.421047 0.378860
Si Si5 0.672400 0.825127 0.263634
Si Si6 0.763888 0.940109 0.608733
Si Si7 0.845889 0.391558 0.073868
Si Si8 0.157277 0.325692 0.906721
O O1 0.815203 0.323008 0.364310
O O2 0.911410 0.161982 0.139999
O O3 0.780015 0.319240 0.138136
O O4 0.559224 0.857565 0.887312
O O5 0.500000 0.500000 0.500000
O O6 0.216882 0.354451 0.410782
O O7 0.385197 0.374234 0.596309
O O8 0.779018 0.477820 0.651952
O O9 0.710822 0.396736 0.790090
O O10 0.632379 0.996456 0.348671
O O11 0.947300 0.423939 0.765792
O O12 0.748400 0.936358 0.476236
O O13 0.500000 0.500000 0.000000
O O14 0.804364 0.854530 0.226965
O O15 0.727887 0.099387 0.778004
O O16 0.968537 0.115966 0.788038
O O17 0.829468 0.572245 0.140085
#
# Coordination Sequence:
#
# PCOD8001284 Si02
#       8
#     2   2   2   2   2   2   2   2
#     4  10  23  45  69 103 133 191 238 287 357 419
#     4  12  26  44  68 104 143 184 237 291 352 426
#     4  10  22  45  67 101 141 173 236 286 349 421
#     4  10  25  45  71  99 139 191 232 295 353 421
#     4  12  27  41  65 109 140 180 230 290 356 420
#     4  11  23  45  67 102 138 176 237 287 348 419
#     4  10  19  43  74  95 133 182 234 287 345 418
#     4  11  23  44  75  98 133 191 229 291 351 414
#
# _framework density 24.706710000000001
#
# number of rings (size 3 to 8) (size 9 to 14) (size 15 to 20)
#    0.000    1.250    3.750    1.500    3.500    5.000 
#    0.000    0.000    0.000    0.000    0.000    0.000 
#    0.000    0.000    0.000    0.000    0.000    0.000 
#
# Total GULP energy -198253.842387 kJ/mol
# GULP energy per Si atom -12390.865149 kJ/mol
# Density = 2.465048 g / cm^3
# Si number density = 24.706710 Si / 1000 Ang^3
#
#
#
# Elastic Constant Matrix: (Units=GPa)
#
#
# Indices 1 2 3 4 5 6 
#
# 1 47.7076 4.3691 -7.0405 -3.7746 -1.3439 -1.1773
# 2 4.3691 99.1871 19.4357 9.6030 -0.8045 14.4901
# 3 -7.0405 19.4357 79.3238 1.5860 -7.8592 1.5273
# 4 -3.7746 9.6030 1.5860 38.5774 7.5273 -3.1848
# 5 -1.3439 -0.8045 -7.8592 7.5273 20.3293 1.1780
# 6 -1.1773 14.4901 1.5273 -3.1848 1.1780 21.1513
#
#
#
# Elastic Compliance Matrix: (Units=1/GPa)
#
#
# Indices 1 2 3 4 5 6 
#
# 1 0.021820 -0.002087 0.002463 0.002547 0.001208 0.002783
# 2 -0.002087 0.012493 -0.002852 -0.004217 0.001347 -0.009179
# 3 0.002463 -0.002852 0.014091 -0.000690 0.005715 0.000651
# 4 0.002547 -0.004217 -0.000690 0.030267 -0.011953 0.008304
# 5 0.001208 0.001347 0.005715 -0.011953 0.056318 -0.006205
# 6 0.002783 -0.009179 0.000651 0.008304 -0.006205 0.055270
#
#
# Mechanical properties :
#
#
# Convention : Reuss Voigt Hill
#
# Bulk Modulus (GPa) = 23.01343 28.86079 25.93711
# Shear Modulus (GPa) = 23.84408 29.97521 26.90964
#
# Velocity S-wave (km/s) = 3.10995 3.48694 3.30383
# Velocity P-wave (km/s) = 4.71493 5.28379 5.00744
#
# Compressibility (1/GPa) = 0.04345290
#
# Stress axis : x y z
#
# Youngs Moduli (GPa) = 45.82968 80.04586 70.96523
#
# Poissons Ratio (x) = 0.16707 -0.17480
# Poissons Ratio (y) = 0.09565 0.20237
# Poissons Ratio (z) = -0.11289 0.22826
#
# Static dielectric constant tensor:
#      x y z
#    x 4.801250 0.296580 0.305610 
#    y 0.296580 4.339050 0.058010 
#    z 0.305610 0.058010 5.061610 
# 
# 
# High freq. dielectric constant tensor:
#      x y z
#    x 1.966250 0.009930 -0.007940 
#    y 0.009930 1.977990 -0.004230 
#    z -0.007940 -0.004230 1.988530 
# 
# From -- ./inp_files/429089.got.cif
#   From: 2010.06.25/outbox.cif.g09.slc.cpg/sg2_215_cif.got.tgz:429089.got - 2010.06.27 13:26:56.
