data_PCOD8001084
_publ_section_title
;
Structure prediction by ZEFSAII (Michael W. Deem and Ramdas Pophale) SiO2 
 PCOD8001084
Probable space group: P -1
;
_chemical_formula_sum "Si O2"
_cell_formula_units_Z 14
_cell_length_a 8.778772
_cell_length_b 20.129357
_cell_length_c 11.664848
_cell_angle_alpha 137.045613
_cell_angle_beta 138.825340
_cell_angle_gamma 33.191733
_cell_volume 712.548468
_symmetry_space_group_name_H-M "P -1"
_symmetry_group_IT_number 2
_symmetry_cell_setting 'triclinic'
loop_
_space_group_symop_operation_xyz
x,y,z
-x,-y,-z
loop_
_atom_site_type_symbol
_atom_site_label
_atom_site_fract_x
_atom_site_fract_y
_atom_site_fract_z
Si Si1 0.397000 0.610913 0.165773
Si Si2 0.269659 0.169434 0.883877
Si Si3 0.758224 0.855692 0.432757
Si Si4 0.613572 0.216126 0.286241
Si Si5 0.675017 0.063358 0.344830
Si Si6 0.248954 0.476318 0.528317
Si Si7 0.266252 0.281257 0.558864
O O1 0.483514 0.560213 0.282467
O O2 0.545476 0.670522 0.281641
O O3 0.042152 0.715661 0.090633
O O4 0.500000 0.500000 0.000000
O O5 0.242987 0.168534 0.731784
O O6 0.361391 0.041595 0.829430
O O7 0.511695 0.186754 0.076747
O O8 0.714403 0.766016 0.361713
O O9 0.068621 0.820297 0.604021
O O10 0.500000 0.000000 0.500000
O O11 0.637288 0.130952 0.292009
O O12 0.369580 0.363641 0.365889
O O13 0.408284 0.164598 0.406579
O O14 0.000000 0.000000 0.500000
O O15 0.000000 0.500000 0.500000
O O16 0.086850 0.606452 0.530144
#
# Coordination Sequence:
#
# PCOD8001084 Si02
#       7
#     2   2   2   2   2   2   2
#     4  11  22  42  69 100 129 168 227 283 321 386
#     4  12  24  42  69  98 131 173 225 271 329 389
#     4  12  25  46  65  92 146 179 210 269 330 399
#     4  12  24  43  68  98 131 172 223 276 327 390
#     4  12  19  42  68  95 129 172 221 279 323 376
#     4  10  19  41  65  91 130 164 218 276 324 373
#     4  11  22  40  68  94 131 180 216 266 339 386
#
# _framework density 19.647787000000001
#
# number of rings (size 3 to 8) (size 9 to 14) (size 15 to 20)
#    0.000    0.571    8.571    2.143    0.000    1.143 
#    2.571    1.429    0.000    0.000    0.000    0.000 
#    0.000    0.000    0.000    0.000    0.000    0.000 
#
# Total GULP energy -173622.346093 kJ/mol
# GULP energy per Si atom -12401.596150 kJ/mol
# Density = 1.960307 g / cm^3
# Si number density = 19.647787 Si / 1000 Ang^3
#
#
#
# Elastic Constant Matrix: (Units=GPa)
#
#
# Indices 1 2 3 4 5 6 
#
# 1 84.3480 41.8912 25.9102 0.5431 -1.5617 3.6591
# 2 41.8912 149.7244 50.8449 14.3863 -2.2257 -4.7448
# 3 25.9102 50.8449 130.7220 4.4656 -2.0197 -14.5748
# 4 0.5431 14.3863 4.4656 33.0513 -10.2823 -6.4029
# 5 -1.5617 -2.2257 -2.0197 -10.2823 11.5071 -7.2377
# 6 3.6591 -4.7448 -14.5748 -6.4029 -7.2377 36.1513
#
#
#
# Elastic Compliance Matrix: (Units=1/GPa)
#
#
# Indices 1 2 3 4 5 6 
#
# 1 0.014271 -0.003604 -0.001707 0.001385 0.000793 -0.002202
# 2 -0.003604 0.009054 -0.002875 -0.005351 -0.005002 -0.001555
# 3 -0.001707 -0.002875 0.009767 0.003539 0.007815 0.005925
# 4 0.001385 -0.005351 0.003539 0.057248 0.065984 0.023934
# 5 0.000793 -0.005002 0.007815 0.065984 0.177610 0.049659
# 6 -0.002202 -0.001555 0.005925 0.023934 0.049659 0.044250
#
#
# Mechanical properties :
#
#
# Convention : Reuss Voigt Hill
#
# Bulk Modulus (GPa) = 59.81213 66.89855 63.35534
# Shear Modulus (GPa) = 14.96342 32.55182 23.75762
#
# Velocity S-wave (km/s) = 2.76267 4.07476 3.48109
# Velocity P-wave (km/s) = 6.37846 7.50073 6.96225
#
# Compressibility (1/GPa) = 0.01671902
#
# Stress axis : x y z
#
# Youngs Moduli (GPa) = 70.06995 110.44552 102.38603
#
# Poissons Ratio (x) = 0.39808 0.17481
# Poissons Ratio (y) = 0.25255 0.29438
# Poissons Ratio (z) = 0.11964 0.31755
#
# Static dielectric constant tensor:
#      x y z
#    x 3.670710 0.297980 -0.082150 
#    y 0.297980 4.766660 -0.131130 
#    z -0.082150 -0.131130 3.685600 
# 
# 
# High freq. dielectric constant tensor:
#      x y z
#    x 1.752300 -0.003060 -0.006960 
#    y -0.003060 1.793650 0.003120 
#    z -0.006960 0.003120 1.758350 
# 
# From -- ./inp_files/252939.got.cif
#   From: 2010.06.25/outbox.cif.g09.slc.cpg/sg2_127_cif.got.tgz:252939.got - 2010.06.27 13:26:56.
