data_PCOD8001480
_publ_section_title
;
Structure prediction by ZEFSAII (Michael W. Deem and Ramdas Pophale) SiO2 
 PCOD8001480
Probable space group: P -1
;
_chemical_formula_sum "Si O2"
_cell_formula_units_Z 16
_cell_length_a 12.796112
_cell_length_b 15.438058
_cell_length_c 14.631421
_cell_angle_alpha 161.203993
_cell_angle_beta 116.474121
_cell_angle_gamma 64.408739
_cell_volume 833.132041
_symmetry_space_group_name_H-M "P -1"
_symmetry_group_IT_number 2
_symmetry_cell_setting 'triclinic'
loop_
_space_group_symop_operation_xyz
x,y,z
-x,-y,-z
loop_
_atom_site_type_symbol
_atom_site_label
_atom_site_fract_x
_atom_site_fract_y
_atom_site_fract_z
Si Si1 0.029930 0.749305 0.379308
Si Si2 0.628967 0.814736 0.222350
Si Si3 0.993008 0.630847 0.451613
Si Si4 0.633902 0.233477 0.961063
Si Si5 0.855837 0.767638 0.166729
Si Si6 0.238706 0.278766 0.437281
Si Si7 0.379059 0.651812 0.128837
Si Si8 0.080623 0.095657 0.045496
O O1 0.982934 0.648031 0.356211
O O2 0.919139 0.794449 0.315582
O O3 0.093962 0.032507 0.690566
O O4 0.125946 0.534115 0.163464
O O5 0.719562 0.854020 0.214483
O O6 0.604613 0.078776 0.537556
O O7 0.505796 0.721101 0.040134
O O8 0.689140 0.568774 0.059816
O O9 0.019876 0.330327 0.196058
O O10 0.870023 0.729789 0.544885
O O11 0.095633 0.831732 0.723623
O O12 0.701722 0.432909 0.253524
O O13 0.682735 0.276366 0.919664
O O14 0.662423 0.930640 0.699212
O O15 0.199662 0.203069 0.243115
O O16 0.500000 0.500000 0.000000
O O17 0.000000 0.000000 0.000000
#
# Coordination Sequence:
#
# PCOD8001480 Si02
#       8
#     2   2   2   2   2   2   2   2
#     4  10  22  38  57  82 107 139 197 231 272 321
#     4  11  21  37  54  74 112 154 181 224 278 310
#     4  11  21  36  59  80 111 149 179 221 284 336
#     4  11  21  32  51  81 109 145 184 213 261 342
#     4  10  22  39  55  80 112 143 185 245 266 305
#     4  11  21  34  53  84 114 140 176 225 267 334
#     4  10  20  33  49  74 111 146 186 220 250 323
#     4  10  20  37  54  81 114 144 176 224 279 337
#
# _framework density 19.204639
#
# number of rings (size 3 to 8) (size 9 to 14) (size 15 to 20)
#    0.000    1.500    0.000    9.000    3.500    0.000 
#    0.000    0.000    0.000    0.000    0.000   17.500 
#    0.000    0.000    0.000    0.000    0.000    0.000 
#
# Total GULP energy -198344.749260 kJ/mol
# GULP energy per Si atom -12396.546829 kJ/mol
# Density = 1.916093 g / cm^3
# Si number density = 19.204639 Si / 1000 Ang^3
#
#
#
# Elastic Constant Matrix: (Units=GPa)
#
#
# Indices 1 2 3 4 5 6 
#
# 1 76.2143 17.4435 16.0572 -0.7673 2.8581 -2.6458
# 2 17.4435 73.3332 15.1463 16.8826 4.9339 7.3190
# 3 16.0572 15.1463 102.0946 2.6160 11.5195 -2.6174
# 4 -0.7673 16.8826 2.6160 35.1570 0.1267 5.1196
# 5 2.8581 4.9339 11.5195 0.1267 19.7927 2.6578
# 6 -2.6458 7.3190 -2.6174 5.1196 2.6578 21.4749
#
#
#
# Elastic Compliance Matrix: (Units=1/GPa)
#
#
# Indices 1 2 3 4 5 6 
#
# 1 0.014448 -0.003740 -0.001641 0.001875 -0.000543 0.002475
# 2 -0.003740 0.017194 -0.001641 -0.007560 -0.002145 -0.004453
# 3 -0.001641 -0.001641 0.011065 -0.000423 -0.006136 0.002566
# 4 0.001875 -0.007560 -0.000423 0.032922 0.002372 -0.005386
# 5 -0.000543 -0.002145 -0.006136 0.002372 0.055706 -0.007544
# 6 0.002475 -0.004453 0.002566 -0.005386 -0.007544 0.050919
#
#
# Mechanical properties :
#
#
# Convention : Reuss Voigt Hill
#
# Bulk Modulus (GPa) = 34.88731 38.77067 36.82899
# Shear Modulus (GPa) = 24.28930 28.81794 26.55362
#
# Velocity S-wave (km/s) = 3.56021 3.87792 3.72246
# Velocity P-wave (km/s) = 5.92500 6.34689 6.13957
#
# Compressibility (1/GPa) = 0.02866372
#
# Stress axis : x y z
#
# Youngs Moduli (GPa) = 69.21515 58.15953 90.37262
#
# Poissons Ratio (x) = 0.21751 0.14828
# Poissons Ratio (y) = 0.25885 0.14831
# Poissons Ratio (z) = 0.11357 0.09545
#
# Static dielectric constant tensor:
#      x y z
#    x 3.216470 0.032710 0.172890 
#    y 0.032710 3.731450 0.018320 
#    z 0.172890 0.018320 4.028970 
# 
# 
# High freq. dielectric constant tensor:
#      x y z
#    x 1.710010 -0.005840 0.007990 
#    y -0.005840 1.734710 0.013650 
#    z 0.007990 0.013650 1.771240 
# 
# From -- ./inp_files/522053.got.cif
#   From: 2010.06.25/outbox.cif.g09.slc.cpg/sg2_262_cif.got.tgz:522053.got - 2010.06.27 13:26:56.
