data_PCOD8001504
_publ_section_title
;
Structure prediction by ZEFSAII (Michael W. Deem and Ramdas Pophale) SiO2 
 PCOD8001504
Probable space group: P -1
;
_chemical_formula_sum "Si O2"
_cell_formula_units_Z 10
_cell_length_a 5.346304
_cell_length_b 21.634350
_cell_length_c 9.023292
_cell_angle_alpha 154.757172
_cell_angle_beta 100.764926
_cell_angle_gamma 91.440242
_cell_volume 387.499363
_symmetry_space_group_name_H-M "P -1"
_symmetry_group_IT_number 2
_symmetry_cell_setting 'triclinic'
loop_
_space_group_symop_operation_xyz
x,y,z
-x,-y,-z
loop_
_atom_site_type_symbol
_atom_site_label
_atom_site_fract_x
_atom_site_fract_y
_atom_site_fract_z
Si Si1 0.910713 0.158381 0.481165
Si Si2 0.101491 0.186360 0.887837
Si Si3 0.440494 0.569890 0.357762
Si Si4 0.596480 0.785709 0.558322
Si Si5 0.952650 0.537521 0.409978
O O1 0.066291 0.223007 0.794307
O O2 0.666325 0.218068 0.574661
O O3 0.158496 0.238736 0.557794
O O4 0.761060 0.962210 0.037780
O O5 0.944671 0.264606 0.148472
O O6 0.000000 0.000000 0.500000
O O7 0.435599 0.287757 0.192428
O O8 0.472992 0.643298 0.357875
O O9 0.107522 0.475959 0.170896
O O10 0.610948 0.458515 0.149304
O O11 0.000000 0.500000 0.500000
#
# Coordination Sequence:
#
# PCOD8001504 Si02
#       5
#     2   2   2   2   2
#     4  10  20  33  52  81 121 147 181 225 289 336
#     4  10  22  36  60  91 115 144 191 243 279 333
#     4  10  21  37  61  82 113 152 193 232 281 337
#     4  10  20  34  52  81 117 154 177 226 286 345
#     4  10  22  38  61  85 112 151 194 237 282 334
#
# _framework density 25.806494000000001
#
# number of rings (size 3 to 8) (size 9 to 14) (size 15 to 20)
#    1.200    0.800    2.000    1.800    2.800    2.400 
#    0.000    0.000    0.000    7.200    0.000    0.000 
#    0.000    0.000    0.000    0.000    0.000    0.000 
#
# Total GULP energy -123920.109209 kJ/mol
# GULP energy per Si atom -12392.010921 kJ/mol
# Density = 2.574776 g / cm^3
# Si number density = 25.806494 Si / 1000 Ang^3
#
#
#
# Elastic Constant Matrix: (Units=GPa)
#
#
# Indices 1 2 3 4 5 6 
#
# 1 175.5780 45.2422 42.2375 23.1793 -35.8100 1.2015
# 2 45.2422 121.1871 6.5588 -12.0167 -10.4733 -1.0874
# 3 42.2375 6.5588 67.7730 4.4887 -17.2037 -10.4618
# 4 23.1793 -12.0167 4.4887 32.7930 -16.2793 2.0567
# 5 -35.8100 -10.4733 -17.2037 -16.2793 54.8555 4.2136
# 6 1.2015 -1.0874 -10.4618 2.0567 4.2136 43.3526
#
#
#
# Elastic Compliance Matrix: (Units=1/GPa)
#
#
# Indices 1 2 3 4 5 6 
#
# 1 0.008874 -0.003476 -0.004483 -0.005804 0.002104 -0.001344
# 2 -0.003476 0.010389 0.001269 0.007195 0.002240 0.000104
# 3 -0.004483 0.001269 0.018838 0.002615 0.003675 0.004221
# 4 -0.005804 0.007195 0.002615 0.042571 0.011203 -0.002136
# 5 0.002104 0.002240 0.003675 0.011203 0.024665 -0.002044
# 6 -0.001344 0.000104 0.004221 -0.002136 -0.002044 0.024425
#
#
# Mechanical properties :
#
#
# Convention : Reuss Voigt Hill
#
# Bulk Modulus (GPa) = 40.45281 61.40168 50.92725
# Shear Modulus (GPa) = 33.02903 44.23353 38.63128
#
# Velocity S-wave (km/s) = 3.58141 4.14460 3.87325
# Velocity P-wave (km/s) = 5.72813 6.83728 6.30713
#
# Compressibility (1/GPa) = 0.02472016
#
# Stress axis : x y z
#
# Youngs Moduli (GPa) = 112.68582 96.25857 53.08539
#
# Poissons Ratio (x) = 0.33460 0.23799
# Poissons Ratio (y) = 0.39170 -0.06736
# Poissons Ratio (z) = 0.50518 -0.12215
#
# Static dielectric constant tensor:
#      x y z
#    x 5.072650 -0.412200 -0.005140 
#    y -0.412200 4.432460 -0.116250 
#    z -0.005140 -0.116250 5.466440 
# 
# 
# High freq. dielectric constant tensor:
#      x y z
#    x 2.033450 -0.024010 -0.008690 
#    y -0.024010 2.021560 -0.000750 
#    z -0.008690 -0.000750 2.092120 
# 
# From -- ./inp_files/15744.got.cif
#   From: 2010.06.25/outbox.cif.g09.slc.cpg/sg2_8_cif.got.tgz:15744.got - 2010.06.27 13:26:56.
