data_PCOD8001192
_publ_section_title
;
Structure prediction by ZEFSAII (Michael W. Deem and Ramdas Pophale) SiO2 
 PCOD8001192
Probable space group: P -1
;
_chemical_formula_sum "Si O2"
_cell_formula_units_Z 16
_cell_length_a 12.307681
_cell_length_b 11.879924
_cell_length_c 15.155079
_cell_angle_alpha 60.631929
_cell_angle_beta 148.206937
_cell_angle_gamma 95.133331
_cell_volume 713.398822
_symmetry_space_group_name_H-M "P -1"
_symmetry_group_IT_number 2
_symmetry_cell_setting 'triclinic'
loop_
_space_group_symop_operation_xyz
x,y,z
-x,-y,-z
loop_
_atom_site_type_symbol
_atom_site_label
_atom_site_fract_x
_atom_site_fract_y
_atom_site_fract_z
Si Si1 0.422080 0.319965 0.788312
Si Si2 0.257297 0.017617 0.986235
Si Si3 0.129878 0.987752 0.185267
Si Si4 0.655519 0.725799 0.870163
Si Si5 0.801596 0.392617 0.798867
Si Si6 0.226218 0.327761 0.829839
Si Si7 0.721584 0.457244 0.910863
Si Si8 0.619241 0.886816 0.465585
O O1 0.444840 0.286740 0.922120
O O2 0.084721 0.461597 0.471167
O O3 0.594381 0.128283 0.933333
O O4 0.543802 0.404997 0.815080
O O5 0.467197 0.924152 0.252830
O O6 0.187192 0.192311 0.838551
O O7 0.940194 0.093428 0.761271
O O8 0.474329 0.865227 0.452988
O O9 0.000000 0.000000 0.000000
O O10 0.957142 0.193161 0.016614
O O11 0.427499 0.941962 0.606170
O O12 0.632672 0.704582 0.965900
O O13 0.559132 0.642887 0.781420
O O14 0.989405 0.619919 0.117346
O O15 0.500000 0.500000 0.500000
O O16 0.735631 0.498710 0.802967
O O17 0.041228 0.296593 0.236615
#
# Coordination Sequence:
#
# PCOD8001192 Si02
#       8
#     2   2   2   2   2   2   2   2
#     4  11  23  40  64  96 119 163 216 262 311 364
#     4  10  19  42  65  90 122 167 211 259 308 362
#     4   9  19  36  60  90 120 163 200 248 304 366
#     4  10  23  42  59  91 128 168 201 251 316 369
#     4  11  23  40  60  91 124 162 208 249 305 377
#     4  10  23  43  66  88 123 162 218 265 302 365
#     4  12  24  40  62  94 129 165 199 258 317 375
#     4   9  22  40  60  92 130 164 202 253 310 377
#
# _framework density 22.427848000000001
#
# number of rings (size 3 to 8) (size 9 to 14) (size 15 to 20)
#    0.000    1.750    1.250    3.000    3.500    3.500 
#    4.500    2.500    0.000    0.000    0.000    0.000 
#    0.000    0.000    0.000    0.000    0.000    0.000 
#
# Total GULP energy -198422.863128 kJ/mol
# GULP energy per Si atom -12401.428946 kJ/mol
# Density = 2.237680 g / cm^3
# Si number density = 22.427848 Si / 1000 Ang^3
#
#
#
# Elastic Constant Matrix: (Units=GPa)
#
#
# Indices 1 2 3 4 5 6 
#
# 1 105.5557 24.3754 12.2550 -9.1976 -2.8865 -17.1728
# 2 24.3754 116.4268 -3.7171 -4.5928 -5.2276 -26.5897
# 3 12.2550 -3.7171 44.9347 0.3540 -3.6000 -5.0533
# 4 -9.1976 -4.5928 0.3540 15.3795 -0.6638 -1.6393
# 5 -2.8865 -5.2276 -3.6000 -0.6638 24.4450 -0.8699
# 6 -17.1728 -26.5897 -5.0533 -1.6393 -0.8699 30.6136
#
#
#
# Elastic Compliance Matrix: (Units=1/GPa)
#
#
# Indices 1 2 3 4 5 6 
#
# 1 0.011581 -0.000839 -0.002538 0.007402 0.001221 0.005780
# 2 -0.000839 0.011492 0.002556 0.004102 0.003211 0.010244
# 3 -0.002538 0.002556 0.024023 -0.000622 0.003940 0.004840
# 4 0.007402 0.004102 -0.000622 0.072097 0.004030 0.011588
# 5 0.001221 0.003211 0.003940 0.004030 0.042626 0.005551
# 6 0.005780 0.010244 0.004840 0.011588 0.005551 0.046382
#
#
# Mechanical properties :
#
#
# Convention : Reuss Voigt Hill
#
# Bulk Modulus (GPa) = 22.00024 36.97155 29.48590
# Shear Modulus (GPa) = 22.22287 29.68789 25.95538
#
# Velocity S-wave (km/s) = 3.15121 3.64222 3.40558
# Velocity P-wave (km/s) = 4.80321 5.84878 5.35159
#
# Compressibility (1/GPa) = 0.04545404
#
# Stress axis : x y z
#
# Youngs Moduli (GPa) = 86.34991 87.01911 41.62650
#
# Poissons Ratio (x) = 0.07299 0.10566
# Poissons Ratio (y) = 0.07243 -0.10641
# Poissons Ratio (z) = 0.21918 -0.22245
#
# Static dielectric constant tensor:
#      x y z
#    x 4.244210 -0.005530 0.119520 
#    y -0.005530 4.291320 -0.066000 
#    z 0.119520 -0.066000 3.743450 
# 
# 
# High freq. dielectric constant tensor:
#      x y z
#    x 1.881510 -0.008880 -0.000630 
#    y -0.008880 1.897970 -0.006970 
#    z -0.000630 -0.006970 1.869270 
# 
# From -- ./inp_files/519641.got.cif
#   From: 2010.06.25/outbox.cif.g09.slc.cpg/sg2_260_cif.got.tgz:519641.got - 2010.06.27 13:26:56.
