data_PCOD8001005
_publ_section_title
;
Structure prediction by ZEFSAII (Michael W. Deem and Ramdas Pophale) SiO2 
 PCOD8001005
Probable space group: P -1
;
_chemical_formula_sum "Si O2"
_cell_formula_units_Z 16
_cell_length_a 9.372842
_cell_length_b 10.766965
_cell_length_c 11.545400
_cell_angle_alpha 54.375710
_cell_angle_beta 49.498186
_cell_angle_gamma 70.677027
_cell_volume 718.023728
_symmetry_space_group_name_H-M "P -1"
_symmetry_group_IT_number 2
_symmetry_cell_setting 'triclinic'
loop_
_space_group_symop_operation_xyz
x,y,z
-x,-y,-z
loop_
_atom_site_type_symbol
_atom_site_label
_atom_site_fract_x
_atom_site_fract_y
_atom_site_fract_z
Si Si1 0.727323 0.702147 0.126371
Si Si2 0.407631 0.179395 0.634091
Si Si3 0.282935 0.040843 0.383960
Si Si4 0.383402 0.483076 0.378951
Si Si5 0.322410 0.398781 0.198029
Si Si6 0.103352 0.030080 0.248855
Si Si7 0.007414 0.127905 0.828293
Si Si8 0.960617 0.550625 0.262506
O O1 0.664741 0.816546 0.197588
O O2 0.539342 0.623817 0.209393
O O3 0.864686 0.581007 0.172763
O O4 0.843360 0.796702 0.914912
O O5 0.490933 0.348971 0.459931
O O6 0.226476 0.145881 0.664166
O O7 0.545986 0.049058 0.610892
O O8 0.343286 0.220455 0.261632
O O9 0.243891 0.989484 0.299247
O O10 0.107644 0.984365 0.585387
O O11 0.304536 0.431236 0.324770
O O12 0.202149 0.525992 0.525651
O O13 0.127469 0.439455 0.217775
O O14 0.500000 0.500000 0.000000
O O15 0.120296 0.915948 0.192799
O O16 0.945249 0.288590 0.822825
O O17 0.000000 0.000000 0.000000
#
# Coordination Sequence:
#
# PCOD8001005 Si02
#       8
#     2   2   2   2   2   2   2   2
#     4  10  21  41  69  96 120 162 221 270 313 373
#     4  10  22  41  66  95 124 166 213 267 318 374
#     4  11  27  42  59  93 138 172 206 254 325 385
#     4  10  22  43  67  94 124 166 218 269 317 367
#     4  12  27  43  61  93 132 173 212 255 319 390
#     4  11  23  42  63  94 132 170 208 260 319 381
#     4  10  19  40  69  95 117 156 220 265 310 363
#     4  10  22  41  69  93 126 163 212 271 318 368
#
# _framework density 22.283387000000001
#
# number of rings (size 3 to 8) (size 9 to 14) (size 15 to 20)
#    0.000    1.750    2.500    4.125    1.750    8.500 
#    0.000    1.875    0.000    0.000    0.000    0.000 
#    0.000    0.000    0.000    0.000    0.000    0.000 
#
# Total GULP energy -198370.949774 kJ/mol
# GULP energy per Si atom -12398.184361 kJ/mol
# Density = 2.223267 g / cm^3
# Si number density = 22.283387 Si / 1000 Ang^3
#
#
#
# Elastic Constant Matrix: (Units=GPa)
#
#
# Indices 1 2 3 4 5 6 
#
# 1 67.3167 19.3622 12.5651 0.1579 -12.8376 4.0464
# 2 19.3622 63.4456 17.2330 -13.2644 -20.6921 -19.6262
# 3 12.5651 17.2330 130.2781 -17.6997 -12.1041 -1.6010
# 4 0.1579 -13.2644 -17.6997 22.0278 10.3368 -4.8330
# 5 -12.8376 -20.6921 -12.1041 10.3368 32.4309 3.9666
# 6 4.0464 -19.6262 -1.6010 -4.8330 3.9666 48.4493
#
#
#
# Elastic Compliance Matrix: (Units=1/GPa)
#
#
# Indices 1 2 3 4 5 6 
#
# 1 0.018832 -0.007275 -0.001734 -0.010125 0.006138 -0.006090
# 2 -0.007275 0.027977 0.000092 0.015857 0.008380 0.012839
# 3 -0.001734 0.000092 0.008864 0.007364 0.000187 0.001194
# 4 -0.010125 0.015857 0.007364 0.071974 -0.016041 0.016005
# 5 0.006138 0.008380 0.000187 -0.016041 0.044077 -0.002321
# 6 -0.006090 0.012839 0.001194 0.016005 -0.002321 0.028176
#
#
# Mechanical properties :
#
#
# Convention : Reuss Voigt Hill
#
# Bulk Modulus (GPa) = 26.42911 39.92902 33.17907
# Shear Modulus (GPa) = 21.70641 34.70694 28.20668
#
# Velocity S-wave (km/s) = 3.12446 3.95083 3.56169
# Velocity P-wave (km/s) = 4.99024 6.22653 5.64235
#
# Compressibility (1/GPa) = 0.03783707
#
# Stress axis : x y z
#
# Youngs Moduli (GPa) = 53.10231 35.74392 112.82178
#
# Poissons Ratio (x) = 0.26003 0.19566
# Poissons Ratio (y) = 0.38631 -0.01034
# Poissons Ratio (z) = 0.09209 -0.00328
#
# Static dielectric constant tensor:
#      x y z
#    x 4.190040 0.271740 -0.066800 
#    y 0.271740 3.752900 -0.231880 
#    z -0.066800 -0.231880 4.236600 
# 
# 
# High freq. dielectric constant tensor:
#      x y z
#    x 1.882630 0.013090 -0.000160 
#    y 0.013090 1.851190 -0.013660 
#    z -0.000160 -0.013660 1.889710 
# 
# From -- ./inp_files/305839.got.cif
#   From: 2010.06.25/outbox.cif.g09.slc.cpg/sg2_153_cif.got.tgz:305839.got - 2010.06.27 13:26:56.
