data_PCOD8001317
_publ_section_title
;
Structure prediction by ZEFSAII (Michael W. Deem and Ramdas Pophale) SiO2 
 PCOD8001317
Probable space group: P -1
;
_chemical_formula_sum "Si O2"
_cell_formula_units_Z 16
_cell_length_a 22.894206
_cell_length_b 14.611890
_cell_length_c 14.662813
_cell_angle_alpha 19.629733
_cell_angle_beta 145.201379
_cell_angle_gamma 149.713344
_cell_volume 830.153665
_symmetry_space_group_name_H-M "P -1"
_symmetry_group_IT_number 2
_symmetry_cell_setting 'triclinic'
loop_
_space_group_symop_operation_xyz
x,y,z
-x,-y,-z
loop_
_atom_site_type_symbol
_atom_site_label
_atom_site_fract_x
_atom_site_fract_y
_atom_site_fract_z
Si Si1 0.142600 0.820293 0.470065
Si Si2 0.880608 0.305315 0.643841
Si Si3 0.209714 0.474576 0.015142
Si Si4 0.756507 0.598448 0.584708
Si Si5 0.417789 0.649825 0.243428
Si Si6 0.856648 0.817729 0.214856
Si Si7 0.043164 0.238750 0.177811
Si Si8 0.199521 0.902184 0.965963
O O1 0.179980 0.818944 0.414488
O O2 0.011396 0.566434 0.554875
O O3 0.152018 0.150267 0.193467
O O4 0.227108 0.745477 0.712843
O O5 0.811710 0.461649 0.462738
O O6 0.881061 0.022995 0.963059
O O7 0.331033 0.520288 0.168269
O O8 0.128902 0.491396 0.977751
O O9 0.651691 0.412508 0.692922
O O10 0.879620 0.778745 0.624873
O O11 0.745051 0.869346 0.263355
O O12 0.754425 0.348746 0.742746
O O13 0.500000 0.500000 0.500000
O O14 0.500000 0.000000 0.000000
O O15 0.766578 0.884451 0.099000
O O16 0.973908 0.917750 0.332646
O O17 0.941600 0.305552 0.025002
#
# Coordination Sequence:
#
# PCOD8001317 Si02
#       8
#     2   2   2   2   2   2   2   2
#     4  11  19  31  50  75 105 143 188 211 243 316
#     4  11  19  31  46  73 113 149 176 210 249 295
#     4  11  21  35  54  77 104 147 183 208 268 315
#     4  11  21  34  52  76  98 141 175 216 255 314
#     4  11  24  42  58  77 106 136 176 235 271 301
#     4  10  20  30  46  69 112 148 172 202 250 295
#     4   9  20  30  49  71 113 139 176 203 251 307
#     4  10  20  31  50  74 108 135 182 200 249 311
#
# _framework density 19.273539
#
# number of rings (size 3 to 8) (size 9 to 14) (size 15 to 20)
#    0.750    0.750    2.500    3.750    0.000    7.000 
#    0.000    0.000    0.000    0.000    0.000    0.000 
#    0.000   70.000    0.000    0.000    0.000    0.000 
#
# Total GULP energy -198236.331557 kJ/mol
# GULP energy per Si atom -12389.770722 kJ/mol
# Density = 1.922967 g / cm^3
# Si number density = 19.273539 Si / 1000 Ang^3
#
#
#
# Elastic Constant Matrix: (Units=GPa)
#
#
# Indices 1 2 3 4 5 6 
#
# 1 82.3075 29.8500 20.6463 0.0827 3.4689 -6.1451
# 2 29.8500 39.7454 15.8088 -1.2997 -1.9486 2.2124
# 3 20.6463 15.8088 90.0869 -6.2816 3.6734 -1.9711
# 4 0.0827 -1.2997 -6.2816 20.9051 -2.3431 0.6387
# 5 3.4689 -1.9486 3.6734 -2.3431 29.6528 0.4786
# 6 -6.1451 2.2124 -1.9711 0.6387 0.4786 27.5842
#
#
#
# Elastic Compliance Matrix: (Units=1/GPa)
#
#
# Indices 1 2 3 4 5 6 
#
# 1 0.017876 -0.013248 -0.001672 -0.001885 -0.002985 0.005021
# 2 -0.013248 0.037225 -0.003689 0.001980 0.004711 -0.006328
# 3 -0.001672 -0.003689 0.012435 0.003341 -0.001335 0.000758
# 4 -0.001885 0.001980 0.003341 0.049451 0.003869 -0.001552
# 5 -0.002985 0.004711 -0.001335 0.003869 0.034883 -0.001833
# 6 0.005021 -0.006328 0.000758 -0.001552 -0.001833 0.038001
#
#
# Mechanical properties :
#
#
# Convention : Reuss Voigt Hill
#
# Bulk Modulus (GPa) = 32.98292 38.30556 35.64424
# Shear Modulus (GPa) = 21.07984 25.35072 23.21528
#
# Velocity S-wave (km/s) = 3.31073 3.63066 3.47438
# Velocity P-wave (km/s) = 5.63603 6.12319 5.88465
#
# Compressibility (1/GPa) = 0.03031872
#
# Stress axis : x y z
#
# Youngs Moduli (GPa) = 55.94093 26.86383 80.41903
#
# Poissons Ratio (x) = 0.35589 0.13446
# Poissons Ratio (y) = 0.74109 0.29664
# Poissons Ratio (z) = 0.09353 0.09909
#
# Static dielectric constant tensor:
#      x y z
#    x 3.826360 -0.122020 -0.007030 
#    y -0.122020 3.442730 0.036750 
#    z -0.007030 0.036750 3.471450 
# 
# 
# High freq. dielectric constant tensor:
#      x y z
#    x 1.753340 -0.029770 -0.006730 
#    y -0.029770 1.695930 -0.010920 
#    z -0.006730 -0.010920 1.753180 
# 
# From -- ./inp_files/542987.got.cif
#   From: 2010.06.25/outbox.cif.g09.slc.cpg/sg2_272_cif.got.tgz:542987.got - 2010.06.27 13:26:56.
