data_PCOD8001616
_publ_section_title
;
Structure prediction by ZEFSAII (Michael W. Deem and Ramdas Pophale) SiO2 
 PCOD8001616
Probable space group: P -1
;
_chemical_formula_sum "Si O2"
_cell_formula_units_Z 14
_cell_length_a 6.611256
_cell_length_b 11.224461
_cell_length_c 12.926283
_cell_angle_alpha 115.832740
_cell_angle_beta 113.859810
_cell_angle_gamma 58.979228
_cell_volume 719.481281
_symmetry_space_group_name_H-M "P -1"
_symmetry_group_IT_number 2
_symmetry_cell_setting 'triclinic'
loop_
_space_group_symop_operation_xyz
x,y,z
-x,-y,-z
loop_
_atom_site_type_symbol
_atom_site_label
_atom_site_fract_x
_atom_site_fract_y
_atom_site_fract_z
Si Si1 0.441903 0.453887 0.214661
Si Si2 0.297129 0.237498 0.218698
Si Si3 0.311213 0.063026 0.813066
Si Si4 0.071927 0.335720 0.752562
Si Si5 0.076609 0.516014 0.636268
Si Si6 0.019235 0.116471 0.969091
Si Si7 0.492688 0.292731 0.955763
O O1 0.438604 0.331589 0.245510
O O2 0.183150 0.590019 0.213628
O O3 0.647293 0.503277 0.314681
O O4 0.496769 0.394756 0.087960
O O5 0.099091 0.324866 0.297033
O O6 0.499928 0.089282 0.252037
O O7 0.166022 0.201308 0.081236
O O8 0.142048 0.039515 0.857750
O O9 0.454189 0.149566 0.931537
O O10 0.159245 0.161434 0.721216
O O11 0.051442 0.386847 0.649101
O O12 0.272684 0.383746 0.866149
O O13 0.000000 0.500000 0.500000
O O14 0.751633 0.236486 0.930667
O O15 0.000000 0.000000 0.000000
#
# Coordination Sequence:
#
# PCOD8001616 Si02
#       7
#     2   2   2   2   2   2   2
#     4  11  21  39  63  85 127 160 195 249 302 361
#     4  11  21  38  59  92 120 162 202 238 302 357
#     4  10  22  36  57  94 132 151 193 240 305 371
#     4   9  23  39  59  90 127 156 194 244 312 357
#     4  11  26  44  64  84 112 162 219 255 291 348
#     4  12  19  31  58  95 134 162 185 233 301 373
#     4  10  20  33  58  95 126 156 188 237 302 369
#
# _framework density 19.458462000000001
#
# number of rings (size 3 to 8) (size 9 to 14) (size 15 to 20)
#    0.857    0.571    4.286    1.714    2.000    2.857 
#    0.000    0.714    0.000    1.714    0.000    0.000 
#    0.000    0.000    0.000    0.000    0.000    0.000 
#
# Total GULP energy -173531.822741 kJ/mol
# GULP energy per Si atom -12395.130196 kJ/mol
# Density = 1.941417 g / cm^3
# Si number density = 19.458462 Si / 1000 Ang^3
#
#
#
# Elastic Constant Matrix: (Units=GPa)
#
#
# Indices 1 2 3 4 5 6 
#
# 1 107.8486 49.4311 25.5392 -8.7855 0.3486 -20.2978
# 2 49.4311 128.2665 25.3012 -13.3793 -7.1490 -21.6670
# 3 25.5392 25.3012 69.3635 -15.8661 -6.2757 -9.7099
# 4 -8.7855 -13.3793 -15.8661 17.8683 1.2700 -0.2977
# 5 0.3486 -7.1490 -6.2757 1.2700 18.6592 -3.0655
# 6 -20.2978 -21.6670 -9.7099 -0.2977 -3.0655 42.7948
#
#
#
# Elastic Compliance Matrix: (Units=1/GPa)
#
#
# Indices 1 2 3 4 5 6 
#
# 1 0.012289 -0.003662 -0.002665 0.001135 -0.002076 0.003229
# 2 -0.003662 0.010790 -0.000315 0.005756 0.004363 0.004007
# 3 -0.002665 -0.000315 0.020282 0.016079 0.006270 0.003739
# 4 0.001135 0.005756 0.016079 0.074973 0.003786 0.007893
# 5 -0.002076 0.004363 0.006270 0.003786 0.058280 0.006848
# 6 0.003229 0.004007 0.003739 0.007893 0.006848 0.028322
#
#
# Mechanical properties :
#
#
# Convention : Reuss Voigt Hill
#
# Bulk Modulus (GPa) = 33.24902 56.22462 44.73682
# Shear Modulus (GPa) = 21.90634 29.54494 25.72564
#
# Velocity S-wave (km/s) = 3.35893 3.90084 3.63999
# Velocity P-wave (km/s) = 5.67164 7.01756 6.38019
#
# Compressibility (1/GPa) = 0.03007607
#
# Stress axis : x y z
#
# Youngs Moduli (GPa) = 81.37581 92.67737 49.30527
#
# Poissons Ratio (x) = 0.33938 0.13140
# Poissons Ratio (y) = 0.29799 0.01555
# Poissons Ratio (z) = 0.21687 0.02922
#
# Static dielectric constant tensor:
#      x y z
#    x 3.716430 -0.184010 0.089290 
#    y -0.184010 3.630120 -0.033120 
#    z 0.089290 -0.033120 3.014030 
# 
# 
# High freq. dielectric constant tensor:
#      x y z
#    x 1.778350 -0.009630 0.005920 
#    y -0.009630 1.764660 -0.007220 
#    z 0.005920 -0.007220 1.697250 
# 
# From -- ./inp_files/365326.got.cif
#   From: 2010.06.25/outbox.cif.g09.slc.cpg/sg2_183_cif.got.tgz:365326.got - 2010.06.27 13:26:56.
