data_PCOD8001819
_publ_section_title
;
Structure prediction by ZEFSAII (Michael W. Deem and Ramdas Pophale) SiO2 
 PCOD8001819
Probable space group: P -1
;
_chemical_formula_sum "Si O2"
_cell_formula_units_Z 12
_cell_length_a 9.162246
_cell_length_b 11.897731
_cell_length_c 21.745908
_cell_angle_alpha 28.952211
_cell_angle_beta 32.803335
_cell_angle_gamma 40.007936
_cell_volume 617.468324
_symmetry_space_group_name_H-M "P -1"
_symmetry_group_IT_number 2
_symmetry_cell_setting 'triclinic'
loop_
_space_group_symop_operation_xyz
x,y,z
-x,-y,-z
loop_
_atom_site_type_symbol
_atom_site_label
_atom_site_fract_x
_atom_site_fract_y
_atom_site_fract_z
Si Si1 0.453870 0.812560 0.156681
Si Si2 0.947703 0.846773 0.808106
Si Si3 0.218833 0.023080 0.324425
Si Si4 0.568284 0.485532 0.168314
Si Si5 0.078827 0.359910 0.321676
Si Si6 0.229747 0.169065 0.841682
O O1 0.469764 0.566254 0.233415
O O2 0.684888 0.803816 0.130853
O O3 0.157659 0.893364 0.252921
O O4 0.500000 0.000000 0.000000
O O5 0.240872 0.759677 0.774168
O O6 0.964439 0.860542 0.722018
O O7 0.730389 0.671669 0.987148
O O8 0.523736 0.944919 0.232573
O O9 0.090618 0.799002 0.501027
O O10 0.223890 0.217859 0.281679
O O11 0.310101 0.453348 0.235267
O O12 0.872553 0.575479 0.268986
O O13 0.000000 0.000000 0.000000
#
# Coordination Sequence:
#
# PCOD8001819 Si02
#       6
#     2   2   2   2   2   2
#     4   9  18  34  54  81 110 137 179 233 279 324
#     4   9  19  36  55  80 110 145 187 233 274 326
#     4  10  23  40  56  81 119 153 189 230 278 341
#     4  10  20  34  57  82 110 145 187 233 278 328
#     4  11  23  38  57  84 117 154 187 228 285 340
#     4  11  22  38  63  86 111 148 191 238 282 330
#
# _framework density 19.434196
#
# number of rings (size 3 to 8) (size 9 to 14) (size 15 to 20)
#    0.000    2.000    0.000    4.500    0.000    8.667 
#    0.000    3.333    0.000    0.000    0.000    0.000 
#    0.000    0.000    0.000    0.000    0.000    0.000 
#
# Total GULP energy -148788.565966 kJ/mol
# GULP energy per Si atom -12399.047164 kJ/mol
# Density = 1.938996 g / cm^3
# Si number density = 19.434196 Si / 1000 Ang^3
#
#
#
# Elastic Constant Matrix: (Units=GPa)
#
#
# Indices 1 2 3 4 5 6 
#
# 1 133.0682 50.6607 24.6921 4.8719 24.0765 -7.5138
# 2 50.6607 95.6401 26.4437 3.4017 13.8945 -10.6037
# 3 24.6921 26.4437 53.4516 5.7385 20.3443 -1.4240
# 4 4.8719 3.4017 5.7385 25.8819 -2.0242 5.1996
# 5 24.0765 13.8945 20.3443 -2.0242 20.1884 1.9346
# 6 -7.5138 -10.6037 -1.4240 5.1996 1.9346 38.2947
#
#
#
# Elastic Compliance Matrix: (Units=1/GPa)
#
#
# Indices 1 2 3 4 5 6 
#
# 1 0.011489 -0.004398 0.002631 -0.003728 -0.013925 0.002344
# 2 -0.004398 0.014537 -0.004976 -0.000603 -0.000100 0.003064
# 3 0.002631 -0.004976 0.035255 -0.011303 -0.036741 0.003840
# 4 -0.003728 -0.000603 -0.011303 0.045336 0.021618 -0.008566
# 5 -0.013925 -0.000100 -0.036741 0.021618 0.106595 -0.012446
# 6 0.002344 0.003064 0.003840 -0.008566 -0.012446 0.029356
#
#
# Mechanical properties :
#
#
# Convention : Reuss Voigt Hill
#
# Bulk Modulus (GPa) = 20.92242 53.97255 37.44748
# Shear Modulus (GPa) = 18.38337 28.89722 23.64029
#
# Velocity S-wave (km/s) = 3.07893 3.86025 3.49152
# Velocity P-wave (km/s) = 4.84034 6.90659 5.96363
#
# Compressibility (1/GPa) = 0.04779561
#
# Stress axis : x y z
#
# Youngs Moduli (GPa) = 87.03633 68.79061 28.36499
#
# Poissons Ratio (x) = 0.30253 -0.07462
# Poissons Ratio (y) = 0.38278 0.14114
# Poissons Ratio (z) = -0.22898 0.34228
#
# Static dielectric constant tensor:
#      x y z
#    x 3.689630 0.132510 0.254040 
#    y 0.132510 4.196830 0.041700 
#    z 0.254040 0.041700 3.437590 
# 
# 
# High freq. dielectric constant tensor:
#      x y z
#    x 1.767930 -0.003400 0.019250 
#    y -0.003400 1.777860 0.003080 
#    z 0.019250 0.003080 1.734020 
# 
# From -- ./inp_files/154785.got.cif
#   From: 2010.06.25/outbox.cif.g09.slc.cpg/sg2_78_cif.got.tgz:154785.got - 2010.06.27 13:26:56.
