data_PCOD8001463
_publ_section_title
;
Structure prediction by ZEFSAII (Michael W. Deem and Ramdas Pophale) SiO2 
 PCOD8001463
Probable space group: P -1
;
_chemical_formula_sum "Si O2"
_cell_formula_units_Z 14
_cell_length_a 9.758970
_cell_length_b 9.584478
_cell_length_c 17.804580
_cell_angle_alpha 55.454967
_cell_angle_beta 56.150805
_cell_angle_gamma 30.058920
_cell_volume 678.170218
_symmetry_space_group_name_H-M "P -1"
_symmetry_group_IT_number 2
_symmetry_cell_setting 'triclinic'
loop_
_space_group_symop_operation_xyz
x,y,z
-x,-y,-z
loop_
_atom_site_type_symbol
_atom_site_label
_atom_site_fract_x
_atom_site_fract_y
_atom_site_fract_z
Si Si1 0.492755 0.559092 0.211772
Si Si2 0.343809 0.027128 0.474138
Si Si3 0.917739 0.939800 0.329428
Si Si4 0.206786 0.143556 0.838366
Si Si5 0.127477 0.379060 0.642244
Si Si6 0.270710 0.272635 0.935944
Si Si7 0.387631 0.491491 0.106360
O O1 0.686766 0.258429 0.277899
O O2 0.638021 0.619972 0.154363
O O3 0.436924 0.565535 0.140762
O O4 0.213808 0.785651 0.277612
O O5 0.154657 0.296067 0.394826
O O6 0.500000 0.000000 0.500000
O O7 0.145910 0.051081 0.566193
O O8 0.600538 0.743776 0.433264
O O9 0.896805 0.790684 0.330305
O O10 0.166572 0.332042 0.734348
O O11 0.225858 0.196143 0.900219
O O12 0.939778 0.246093 0.883706
O O13 0.474892 0.808428 0.838108
O O14 0.000000 0.500000 0.000000
O O15 0.500000 0.000000 0.000000
O O16 0.500000 0.500000 0.000000
#
# Coordination Sequence:
#
# PCOD8001463 Si02
#       7
#     2   2   2   2   2   2   2
#     4  12  22  39  63  89 125 158 206 258 300 367
#     4  10  20  32  58  91 131 159 191 250 308 370
#     4  11  20  36  59  94 125 157 203 248 311 356
#     4  12  24  41  64  89 125 160 207 255 304 372
#     4  11  19  36  58  92 127 158 201 247 309 362
#     4  12  27  47  63  88 123 170 211 247 311 379
#     4  12  23  39  62  92 119 156 203 267 313 350
#
# _framework density 20.643785999999999
#
# number of rings (size 3 to 8) (size 9 to 14) (size 15 to 20)
#    0.000    0.571    2.857    9.000    0.000    0.000 
#    0.000    0.000    0.000    5.143    0.000    0.000 
#    0.000    0.000    0.000    0.000    0.000    0.000 
#
# Total GULP energy -173587.810501 kJ/mol
# GULP energy per Si atom -12399.129322 kJ/mol
# Density = 2.059680 g / cm^3
# Si number density = 20.643786 Si / 1000 Ang^3
#
#
#
# Elastic Constant Matrix: (Units=GPa)
#
#
# Indices 1 2 3 4 5 6 
#
# 1 21.1802 28.5351 8.2264 -8.3988 -9.8037 -2.7214
# 2 28.5351 51.4300 -4.6787 9.6049 7.7708 -43.5173
# 3 8.2264 -4.6787 114.8708 12.3765 8.1856 -25.1880
# 4 -8.3988 9.6049 12.3765 48.0339 -13.7439 0.7074
# 5 -9.8037 7.7708 8.1856 -13.7439 42.2971 6.1943
# 6 -2.7214 -43.5173 -25.1880 0.7074 6.1943 24.6547
#
#
#
# Elastic Compliance Matrix: (Units=1/GPa)
#
#
# Indices 1 2 3 4 5 6 
#
# 1 0.029487 0.013852 0.006221 -0.000323 -0.002085 0.034593
# 2 0.013852 -0.004272 -0.005963 0.007855 0.009870 -0.014808
# 3 0.006221 -0.005963 0.007073 0.001069 0.001976 -0.003139
# 4 -0.000323 0.007855 0.001069 0.019455 0.002589 0.013712
# 5 -0.002085 0.009870 0.001976 0.002589 0.019728 0.014179
# 6 0.034593 -0.014808 -0.003139 0.013712 0.014179 0.011079
#
#
# Mechanical properties :
#
#
# Convention : Reuss Voigt Hill
#
# Bulk Modulus (GPa) = 16.52649 27.96076 22.24362
# Shear Modulus (GPa) = 67.11541 33.35701 50.23621
#
# Velocity S-wave (km/s) = 5.70804 4.02411 4.93838
# Velocity P-wave (km/s) = 7.17393 5.93001 6.58143
#
# Compressibility (1/GPa) = 0.06050893
#
# Stress axis : x y z
#
# Youngs Moduli (GPa) = 33.91311 -234.09316 141.38753
#
# Poissons Ratio (x) = 3.24261 -0.87960
# Poissons Ratio (y) = -0.46976 0.84303
# Poissons Ratio (z) = -0.21098 -1.39580
#
# Static dielectric constant tensor:
#      x y z
#    x 3.354310 -0.262840 0.031470 
#    y -0.262840 4.035310 0.224150 
#    z 0.031470 0.224150 4.294700 
# 
# 
# High freq. dielectric constant tensor:
#      x y z
#    x 1.766930 -0.026930 0.003000 
#    y -0.026930 1.824390 0.005310 
#    z 0.003000 0.005310 1.836060 
# 
# From -- ./inp_files/84939.got.cif
#   From: 2010.06.25/outbox.cif.g09.slc.cpg/sg2_43_cif.got.tgz:84939.got - 2010.06.27 13:26:56.
