data_PCOD8001797
_publ_section_title
;
Structure prediction by ZEFSAII (Michael W. Deem and Ramdas Pophale) SiO2 
 PCOD8001797
Probable space group: P -1
;
_chemical_formula_sum "Si O2"
_cell_formula_units_Z 14
_cell_length_a 11.540408
_cell_length_b 12.233892
_cell_length_c 6.159770
_cell_angle_alpha 103.806417
_cell_angle_beta 128.203555
_cell_angle_gamma 85.588197
_cell_volume 660.799673
_symmetry_space_group_name_H-M "P -1"
_symmetry_group_IT_number 2
_symmetry_cell_setting 'triclinic'
loop_
_space_group_symop_operation_xyz
x,y,z
-x,-y,-z
loop_
_atom_site_type_symbol
_atom_site_label
_atom_site_fract_x
_atom_site_fract_y
_atom_site_fract_z
Si Si1 0.521793 0.646643 0.367422
Si Si2 0.816713 0.087867 0.460877
Si Si3 0.113496 0.145778 0.589380
Si Si4 0.715753 0.277137 0.161122
Si Si5 0.933570 0.221507 0.036968
Si Si6 0.325295 0.555114 0.460313
Si Si7 0.182689 0.327336 0.083418
O O1 0.407562 0.646457 0.436664
O O2 0.553808 0.514772 0.304925
O O3 0.679465 0.716933 0.639594
O O4 0.449076 0.704867 0.106138
O O5 0.712559 0.153426 0.210568
O O6 0.987392 0.108675 0.599445
O O7 0.771937 0.952247 0.334165
O O8 0.816616 0.134347 0.730083
O O9 0.047867 0.155587 0.277845
O O10 0.186852 0.266053 0.823611
O O11 0.764148 0.374032 0.439705
O O12 0.837844 0.293228 0.120664
O O13 0.027393 0.304281 0.018651
O O14 0.212927 0.463766 0.155929
#
# Coordination Sequence:
#
# PCOD8001797 Si02
#       7
#     2   2   2   2   2   2   2
#     4   9  20  38  58  79 108 148 187 220 265 327
#     4   9  19  35  54  81 111 144 185 220 266 331
#     4   9  18  35  57  78 110 148 179 223 274 317
#     4  11  20  34  58  83 110 147 179 222 277 320
#     4  10  20  34  56  85 112 140 180 228 274 321
#     4   9  20  37  58  79 110 145 189 218 263 333
#     4   9  20  36  56  85 109 140 186 227 265 327
#
# _framework density 21.186451000000002
#
# number of rings (size 3 to 8) (size 9 to 14) (size 15 to 20)
#    0.857    1.714    0.000    1.714    0.000    4.000 
#    0.000   10.714    0.000    4.286    0.000    0.000 
#    0.000    0.000    0.000    0.000    0.000    0.000 
#
# Total GULP energy -173437.412222 kJ/mol
# GULP energy per Si atom -12388.386587 kJ/mol
# Density = 2.113823 g / cm^3
# Si number density = 21.186451 Si / 1000 Ang^3
#
#
#
# Elastic Constant Matrix: (Units=GPa)
#
#
# Indices 1 2 3 4 5 6 
#
# 1 55.7940 16.3379 6.0411 15.8544 -17.8621 -11.1576
# 2 16.3379 70.9815 33.9749 -6.3254 -8.5679 -28.9875
# 3 6.0411 33.9749 84.6356 -4.2320 -6.5172 -13.1198
# 4 15.8544 -6.3254 -4.2320 40.7363 -8.5497 0.9357
# 5 -17.8621 -8.5679 -6.5172 -8.5497 24.0200 3.7116
# 6 -11.1576 -28.9875 -13.1198 0.9357 3.7116 19.8561
#
#
#
# Elastic Compliance Matrix: (Units=1/GPa)
#
#
# Indices 1 2 3 4 5 6 
#
# 1 0.027913 -0.000128 0.001013 -0.007697 0.016159 0.013509
# 2 -0.000128 0.040303 -0.007265 0.005648 0.006201 0.052540
# 3 0.001013 -0.007265 0.014758 0.000550 0.002481 -0.000776
# 4 -0.007697 0.005648 0.000550 0.029874 0.006826 0.001599
# 5 0.016159 0.006201 0.002481 0.006826 0.057622 0.008680
# 6 0.013509 0.052540 -0.000776 0.001599 0.008680 0.132445
#
#
# Mechanical properties :
#
#
# Convention : Reuss Voigt Hill
#
# Bulk Modulus (GPa) = 14.24240 36.01321 25.12781
# Shear Modulus (GPa) = 14.74579 27.25964 21.00272
#
# Velocity S-wave (km/s) = 2.64105 3.59089 3.15195
# Velocity P-wave (km/s) = 4.00464 5.85045 5.01323
#
# Compressibility (1/GPa) = 0.07021287
#
# Stress axis : x y z
#
# Youngs Moduli (GPa) = 35.82585 24.81189 67.76091
#
# Poissons Ratio (x) = 0.00317 -0.06861
# Poissons Ratio (y) = 0.00458 0.49230
# Poissons Ratio (z) = -0.03627 0.18026
#
# Static dielectric constant tensor:
#      x y z
#    x 3.503250 -0.270120 -0.127190 
#    y -0.270120 3.783930 0.054700 
#    z -0.127190 0.054700 3.805660 
# 
# 
# High freq. dielectric constant tensor:
#      x y z
#    x 1.801250 -0.025300 -0.016070 
#    y -0.025300 1.814890 -0.004660 
#    z -0.016070 -0.004660 1.823750 
# 
# From -- ./inp_files/71475.got.cif
#   From: 2010.06.25/outbox.cif.g09.slc.cpg/sg2_36_cif.got.tgz:71475.got - 2010.06.27 13:26:56.
