data_PCOD8001775
_publ_section_title
;
Structure prediction by ZEFSAII (Michael W. Deem and Ramdas Pophale) SiO2 
 PCOD8001775
Probable space group: P -1
;
_chemical_formula_sum "Si O2"
_cell_formula_units_Z 14
_cell_length_a 4.992278
_cell_length_b 25.635658
_cell_length_c 14.429578
_cell_angle_alpha 157.161350
_cell_angle_beta 78.338834
_cell_angle_gamma 104.874289
_cell_volume 689.828469
_symmetry_space_group_name_H-M "P -1"
_symmetry_group_IT_number 2
_symmetry_cell_setting 'triclinic'
loop_
_space_group_symop_operation_xyz
x,y,z
-x,-y,-z
loop_
_atom_site_type_symbol
_atom_site_label
_atom_site_fract_x
_atom_site_fract_y
_atom_site_fract_z
Si Si1 0.338608 0.423142 0.273075
Si Si2 0.001482 0.872829 0.656896
Si Si3 0.964127 0.379581 0.878900
Si Si4 0.422706 0.424958 0.073111
Si Si5 0.553557 0.034318 0.947197
Si Si6 0.700042 0.724012 0.610261
Si Si7 0.904952 0.605076 0.573541
O O1 0.326327 0.346662 0.048885
O O2 0.660818 0.471770 0.357591
O O3 0.171065 0.331619 0.217459
O O4 0.200609 0.558080 0.484800
O O5 0.950284 0.753374 0.389245
O O6 0.848041 0.995648 0.834869
O O7 0.891995 0.816108 0.672459
O O8 0.325036 0.935367 0.740277
O O9 0.158376 0.426942 0.030554
O O10 0.000000 0.500000 0.000000
O O11 0.644196 0.348177 0.882537
O O12 0.560368 0.582086 0.341615
O O13 0.500000 0.000000 0.000000
O O14 0.533147 0.194086 0.197853
O O15 0.904928 0.706096 0.652199
#
# Coordination Sequence:
#
# PCOD8001775 Si02
#       7
#     2   2   2   2   2   2   2
#     4   9  18  32  49  75 109 131 167 207 267 314
#     4  11  23  36  50  73 109 141 177 210 247 305
#     4  12  24  35  52  76 105 144 181 207 250 308
#     4  11  22  34  54  79 106 140 170 215 260 310
#     4  10  22  35  52  73 103 142 174 214 254 304
#     4  10  20  34  56  78 107 135 173 211 269 308
#     4   9  18  31  50  77 104 136 162 211 263 323
#
# _framework density 20.294899000000001
#
# number of rings (size 3 to 8) (size 9 to 14) (size 15 to 20)
#    0.000    1.714    1.429    4.714    4.000    5.714 
#    0.000    0.000    0.000    0.000    0.000    6.000 
#    0.000    0.000    0.000    0.000    0.000    0.000 
#
# Total GULP energy -173509.766416 kJ/mol
# GULP energy per Si atom -12393.554744 kJ/mol
# Density = 2.024871 g / cm^3
# Si number density = 20.294899 Si / 1000 Ang^3
#
#
#
# Elastic Constant Matrix: (Units=GPa)
#
#
# Indices 1 2 3 4 5 6 
#
# 1 83.1588 11.8037 9.3659 -6.2205 -6.3574 -16.2137
# 2 11.8037 80.5509 16.7273 -23.5571 -5.2828 -12.5106
# 3 9.3659 16.7273 82.1857 -5.9414 -13.9782 -7.3641
# 4 -6.2205 -23.5571 -5.9414 25.9429 0.2281 -2.6159
# 5 -6.3574 -5.2828 -13.9782 0.2281 30.9925 -9.0340
# 6 -16.2137 -12.5106 -7.3641 -2.6159 -9.0340 29.6491
#
#
#
# Elastic Compliance Matrix: (Units=1/GPa)
#
#
# Indices 1 2 3 4 5 6 
#
# 1 0.015059 0.001937 0.000664 0.006668 0.007165 0.011989
# 2 0.001937 0.020960 -0.000426 0.020740 0.007698 0.013973
# 3 0.000664 -0.000426 0.014498 0.003694 0.008531 0.006710
# 4 0.006668 0.020740 0.003694 0.061997 0.012718 0.022661
# 5 0.007165 0.007698 0.008531 0.012718 0.045913 0.024397
# 6 0.011989 0.013973 0.006710 0.022661 0.024397 0.057280
#
#
# Mechanical properties :
#
#
# Convention : Reuss Voigt Hill
#
# Bulk Modulus (GPa) = 18.22542 35.74326 26.98434
# Shear Modulus (GPa) = 21.77271 31.18347 26.47809
#
# Velocity S-wave (km/s) = 3.27894 3.92410 3.61594
# Velocity P-wave (km/s) = 4.83064 6.17912 5.54602
#
# Compressibility (1/GPa) = 0.05486843
#
# Stress axis : x y z
#
# Youngs Moduli (GPa) = 66.40358 47.71056 68.97584
#
# Poissons Ratio (x) = -0.09243 -0.04583
# Poissons Ratio (y) = -0.12864 0.02938
# Poissons Ratio (z) = -0.04412 0.02032
#
# Static dielectric constant tensor:
#      x y z
#    x 3.974530 -0.159310 -0.317520 
#    y -0.159310 4.041670 -0.356870 
#    z -0.317520 -0.356870 4.068170 
# 
# 
# High freq. dielectric constant tensor:
#      x y z
#    x 1.815940 -0.011690 -0.012920 
#    y -0.011690 1.778760 -0.024080 
#    z -0.012920 -0.024080 1.753690 
# 
# From -- ./inp_files/486103.got.cif
#   From: 2010.06.25/outbox.cif.g09.slc.cpg/sg2_244_cif.got.tgz:486103.got - 2010.06.27 13:26:56.
