data_PCOD8001915
_publ_section_title
;
Structure prediction by ZEFSAII (Michael W. Deem and Ramdas Pophale) SiO2 
 PCOD8001915
Probable space group: P -1
;
_chemical_formula_sum "Si O2"
_cell_formula_units_Z 14
_cell_length_a 14.877458
_cell_length_b 9.672876
_cell_length_c 11.558150
_cell_angle_alpha 66.018415
_cell_angle_beta 124.240321
_cell_angle_gamma 66.608099
_cell_volume 703.717277
_symmetry_space_group_name_H-M "P -1"
_symmetry_group_IT_number 2
_symmetry_cell_setting 'triclinic'
loop_
_space_group_symop_operation_xyz
x,y,z
-x,-y,-z
loop_
_atom_site_type_symbol
_atom_site_label
_atom_site_fract_x
_atom_site_fract_y
_atom_site_fract_z
Si Si1 0.580269 0.906084 0.461275
Si Si2 0.117908 0.834320 0.304664
Si Si3 0.048525 0.706008 0.096897
Si Si4 0.357478 0.891054 0.255100
Si Si5 0.463535 0.519153 0.304002
Si Si6 0.812163 0.217438 0.369541
Si Si7 0.481765 0.694236 0.815618
O O1 0.800242 0.593721 0.731913
O O2 0.440290 0.961917 0.260493
O O3 0.500000 0.000000 0.500000
O O4 0.584123 0.066360 0.354074
O O5 0.092333 0.709455 0.258109
O O6 0.318749 0.673463 0.467390
O O7 0.113799 0.801811 0.448456
O O8 0.952299 0.149109 0.041887
O O9 0.838635 0.866358 0.895269
O O10 0.325364 0.817873 0.144338
O O11 0.535770 0.617955 0.555595
O O12 0.411392 0.522614 0.136792
O O13 0.714666 0.163677 0.332731
O O14 0.642724 0.520584 0.092114
O O15 0.000000 0.000000 0.500000
#
# Coordination Sequence:
#
# PCOD8001915 Si02
#       7
#     2   2   2   2   2   2   2
#     4  12  24  38  60  94 133 159 189 258 326 360
#     4   9  19  38  62  91 118 154 212 256 288 362
#     4  10  22  36  60  94 124 154 201 255 307 362
#     4  10  20  34  59  90 120 160 193 246 313 362
#     4   9  17  36  60  86 121 156 204 245 298 364
#     4  10  23  40  65  89 117 167 212 249 293 362
#     4  10  23  41  60  91 123 159 207 253 301 364
#
# _framework density 19.894352000000001
#
# number of rings (size 3 to 8) (size 9 to 14) (size 15 to 20)
#    0.000    2.000    2.857    0.000    6.000    1.714 
#    0.000    0.714    0.000    1.714    0.000    0.000 
#    0.000    0.000    0.000    0.000    0.000    0.000 
#
# Total GULP energy -173551.722729 kJ/mol
# GULP energy per Si atom -12396.551624 kJ/mol
# Density = 1.984907 g / cm^3
# Si number density = 19.894352 Si / 1000 Ang^3
#
#
#
# Elastic Constant Matrix: (Units=GPa)
#
#
# Indices 1 2 3 4 5 6 
#
# 1 90.3618 51.8910 32.5317 -11.4253 -13.4378 -3.2951
# 2 51.8910 109.6065 54.6939 -14.3021 -5.2477 -9.0103
# 3 32.5317 54.6939 88.5441 -7.8800 -12.2105 -10.2212
# 4 -11.4253 -14.3021 -7.8800 38.1306 -5.9277 -3.8011
# 5 -13.4378 -5.2477 -12.2105 -5.9277 23.8801 1.5278
# 6 -3.2951 -9.0103 -10.2212 -3.8011 1.5278 33.0402
#
#
#
# Elastic Compliance Matrix: (Units=1/GPa)
#
#
# Indices 1 2 3 4 5 6 
#
# 1 0.016967 -0.006928 -0.000455 0.003718 0.008735 -0.000314
# 2 -0.006928 0.016536 -0.007803 0.002097 -0.003851 0.001824
# 3 -0.000455 -0.007803 0.017878 0.002120 0.007489 0.003255
# 4 0.003718 0.002097 0.002120 0.030731 0.010969 0.004627
# 5 0.008735 -0.003851 0.007489 0.010969 0.052435 0.000975
# 6 -0.000314 0.001824 0.003255 0.004627 0.000975 0.032226
#
#
# Mechanical properties :
#
#
# Convention : Reuss Voigt Hill
#
# Bulk Modulus (GPa) = 47.59816 62.97171 55.28494
# Shear Modulus (GPa) = 24.49201 28.96991 26.73096
#
# Velocity S-wave (km/s) = 3.51252 3.82014 3.66955
# Velocity P-wave (km/s) = 6.35828 7.15400 6.76785
#
# Compressibility (1/GPa) = 0.02100921
#
# Stress axis : x y z
#
# Youngs Moduli (GPa) = 58.93965 60.47269 55.93449
#
# Poissons Ratio (x) = 0.41895 0.02545
# Poissons Ratio (y) = 0.40833 0.43646
# Poissons Ratio (z) = 0.02682 0.47187
#
# Static dielectric constant tensor:
#      x y z
#    x 3.629210 -0.072600 0.085730 
#    y -0.072600 3.674410 0.140810 
#    z 0.085730 0.140810 3.639320 
# 
# 
# High freq. dielectric constant tensor:
#      x y z
#    x 1.766510 -0.009590 0.025100 
#    y -0.009590 1.766590 0.005420 
#    z 0.025100 0.005420 1.769670 
# 
# From -- ./inp_files/261108.got.cif
#   From: 2010.06.25/outbox.cif.g09.slc.cpg/sg2_131_cif.got.tgz:261108.got - 2010.06.27 13:26:56.
