data_PCOD8001607
_publ_section_title
;
Structure prediction by ZEFSAII (Michael W. Deem and Ramdas Pophale) SiO2 
 PCOD8001607
Probable space group: P -1
;
_chemical_formula_sum "Si O2"
_cell_formula_units_Z 14
_cell_length_a 12.790511
_cell_length_b 8.837850
_cell_length_c 18.410418
_cell_angle_alpha 112.295883
_cell_angle_beta 37.428896
_cell_angle_gamma 138.470448
_cell_volume 709.148928
_symmetry_space_group_name_H-M "P -1"
_symmetry_group_IT_number 2
_symmetry_cell_setting 'triclinic'
loop_
_space_group_symop_operation_xyz
x,y,z
-x,-y,-z
loop_
_atom_site_type_symbol
_atom_site_label
_atom_site_fract_x
_atom_site_fract_y
_atom_site_fract_z
Si Si1 0.578728 0.759817 0.580926
Si Si2 0.605652 0.029402 0.819463
Si Si3 0.649399 0.477187 0.185061
Si Si4 0.328704 0.229204 0.876421
Si Si5 0.051172 0.190207 0.701004
Si Si6 0.214370 0.019738 0.044342
Si Si7 0.291566 0.789193 0.361171
O O1 0.552622 0.665780 0.658984
O O2 0.307088 0.505752 0.636717
O O3 0.856802 0.890448 0.415140
O O4 0.608843 0.978744 0.604580
O O5 0.556349 0.940559 0.050187
O O6 0.764681 0.202244 0.689343
O O7 0.830357 0.137087 0.772632
O O8 0.368161 0.713628 0.876027
O O9 0.523310 0.510484 0.201366
O O10 0.974523 0.752435 0.077947
O O11 0.459044 0.157476 0.762009
O O12 0.362528 0.264975 0.952950
O O13 0.000000 0.000000 0.000000
O O14 0.918825 0.007236 0.813689
O O15 0.000000 0.500000 0.500000
#
# Coordination Sequence:
#
# PCOD8001607 Si02
#       7
#     2   2   2   2   2   2   2
#     4   9  21  38  57  81 110 150 183 228 278 327
#     4  10  20  33  58  84 107 145 191 231 271 326
#     4   9  18  33  61  81 106 143 192 232 270 321
#     4   9  19  35  58  83 112 143 186 232 277 324
#     4  10  20  35  58  79 116 147 186 217 277 347
#     4   9  18  36  53  81 117 145 178 231 278 329
#     4  10  22  37  60  84 113 140 191 242 274 319
#
# _framework density 19.741973999999999
#
# number of rings (size 3 to 8) (size 9 to 14) (size 15 to 20)
#    0.000    2.571    0.000    0.857    4.000    4.571 
#    0.000    1.429    3.143    0.000    0.000    0.000 
#    0.000    0.000    0.000    0.000    0.000    0.000 
#
# Total GULP energy -173524.253565 kJ/mol
# GULP energy per Si atom -12394.589540 kJ/mol
# Density = 1.969704 g / cm^3
# Si number density = 19.741974 Si / 1000 Ang^3
#
#
#
# Elastic Constant Matrix: (Units=GPa)
#
#
# Indices 1 2 3 4 5 6 
#
# 1 122.2785 18.0819 52.9191 -5.2465 0.2436 -11.5188
# 2 18.0819 42.0356 29.3759 -7.6962 7.1964 -11.9688
# 3 52.9191 29.3759 122.8920 1.9997 -2.0062 -12.9026
# 4 -5.2465 -7.6962 1.9997 18.8457 -4.7178 1.5464
# 5 0.2436 7.1964 -2.0062 -4.7178 29.0184 -3.3189
# 6 -11.5188 -11.9688 -12.9026 1.5464 -3.3189 27.7909
#
#
#
# Elastic Compliance Matrix: (Units=1/GPa)
#
#
# Indices 1 2 3 4 5 6 
#
# 1 0.010384 -0.000476 -0.004186 0.003093 0.000478 0.002040
# 2 -0.000476 0.035543 -0.007531 0.012824 -0.006083 0.010174
# 3 -0.004186 -0.007531 0.011972 -0.005094 0.002029 0.001106
# 4 0.003093 0.012824 -0.005094 0.061204 0.006601 0.001822
# 5 0.000478 -0.006083 0.002029 0.006601 0.037479 0.002629
# 6 0.002040 0.010174 0.001106 0.001822 0.002629 0.041936
#
#
# Mechanical properties :
#
#
# Convention : Reuss Voigt Hill
#
# Bulk Modulus (GPa) = 29.83899 54.21776 42.02837
# Shear Modulus (GPa) = 21.36060 27.58629 24.47344
#
# Velocity S-wave (km/s) = 3.29293 3.74216 3.52471
# Velocity P-wave (km/s) = 5.44106 6.79665 6.15628
#
# Compressibility (1/GPa) = 0.03351320
#
# Stress axis : x y z
#
# Youngs Moduli (GPa) = 96.30195 28.13484 83.52757
#
# Poissons Ratio (x) = 0.01339 0.34965
# Poissons Ratio (y) = 0.04583 0.62905
# Poissons Ratio (z) = 0.40312 0.21188
#
# Static dielectric constant tensor:
#      x y z
#    x 3.846240 -0.282380 0.301310 
#    y -0.282380 3.493810 -0.121710 
#    z 0.301310 -0.121710 3.864120 
# 
# 
# High freq. dielectric constant tensor:
#      x y z
#    x 1.773460 -0.006560 0.007220 
#    y -0.006560 1.742060 -0.004660 
#    z 0.007220 -0.004660 1.783610 
# 
# From -- ./inp_files/515875.got.cif
#   From: 2010.06.25/outbox.cif.g09.slc.cpg/sg2_258_cif.got.tgz:515875.got - 2010.06.27 13:26:56.
