data_PCOD8001608
_publ_section_title
;
Structure prediction by ZEFSAII (Michael W. Deem and Ramdas Pophale) SiO2 
 PCOD8001608
Probable space group: P -1
;
_chemical_formula_sum "Si O2"
_cell_formula_units_Z 16
_cell_length_a 14.159458
_cell_length_b 8.934840
_cell_length_c 12.214817
_cell_angle_alpha 64.362766
_cell_angle_beta 85.800304
_cell_angle_gamma 131.857161
_cell_volume 874.016890
_symmetry_space_group_name_H-M "P -1"
_symmetry_group_IT_number 2
_symmetry_cell_setting 'triclinic'
loop_
_space_group_symop_operation_xyz
x,y,z
-x,-y,-z
loop_
_atom_site_type_symbol
_atom_site_label
_atom_site_fract_x
_atom_site_fract_y
_atom_site_fract_z
Si Si1 0.865352 0.482044 0.468695
Si Si2 0.127169 0.052941 0.361471
Si Si3 0.157603 0.466621 0.184074
Si Si4 0.669678 0.220153 0.374751
Si Si5 0.680588 0.403332 0.083176
Si Si6 0.674496 0.745302 0.915838
Si Si7 0.661275 0.091611 0.808314
Si Si8 0.880619 0.227237 0.388325
O O1 0.772574 0.444260 0.389009
O O2 0.746440 0.264380 0.638047
O O3 0.943080 0.420775 0.427808
O O4 0.977315 0.774017 0.408379
O O5 0.111371 0.228902 0.319733
O O6 0.269608 0.207522 0.226405
O O7 0.159985 0.011980 0.488775
O O8 0.303295 0.734119 0.151548
O O9 0.014616 0.394930 0.234806
O O10 0.197986 0.509375 0.039047
O O11 0.694579 0.341697 0.219155
O O12 0.730690 0.111975 0.389363
O O13 0.500000 0.000000 0.500000
O O14 0.515783 0.153333 0.124723
O O15 0.725275 0.659291 0.014550
O O16 0.722079 0.992820 0.874567
O O17 0.500000 0.500000 0.000000
#
# Coordination Sequence:
#
# PCOD8001608 Si02
#       8
#     2   2   2   2   2   2   2   2
#     4  10  20  33  65  83 108 143 197 241 272 321
#     4  11  19  36  55  93 115 138 192 239 284 324
#     4  11  23  33  58  86 121 148 176 234 294 342
#     4  10  21  38  61  83 106 152 197 231 278 333
#     4  10  21  38  55  83 119 149 184 232 282 345
#     4   9  19  32  57  82 111 145 186 238 275 322
#     4  11  18  36  60  87 112 144 192 235 289 321
#     4  10  20  33  58  85 111 146 185 233 279 330
#
# _framework density 18.306283000000001
#
# number of rings (size 3 to 8) (size 9 to 14) (size 15 to 20)
#    0.750    1.000    3.750    1.875    1.750    0.500 
#    0.000    2.500    2.750    1.500    0.000    0.000 
#    0.000    0.000    0.000    0.000    0.000    0.000 
#
# Total GULP energy -198231.345426 kJ/mol
# GULP energy per Si atom -12389.459089 kJ/mol
# Density = 1.826462 g / cm^3
# Si number density = 18.306283 Si / 1000 Ang^3
#
#
#
# Elastic Constant Matrix: (Units=GPa)
#
#
# Indices 1 2 3 4 5 6 
#
# 1 103.9176 37.6652 61.9323 2.1521 -5.6577 -2.1167
# 2 37.6652 66.8886 36.5101 -7.8262 15.0825 -12.0332
# 3 61.9323 36.5101 136.8531 8.9731 6.7446 -0.1170
# 4 2.1521 -7.8262 8.9731 23.0402 5.4012 0.3423
# 5 -5.6577 15.0825 6.7446 5.4012 33.7516 -1.3477
# 6 -2.1167 -12.0332 -0.1170 0.3423 -1.3477 23.7630
#
#
#
# Elastic Compliance Matrix: (Units=1/GPa)
#
#
# Indices 1 2 3 4 5 6 
#
# 1 0.016692 -0.009708 -0.005080 -0.004904 0.008821 -0.002883
# 2 -0.009708 0.030792 -0.004080 0.016669 -0.016700 0.013520
# 3 -0.005080 -0.004080 0.011050 -0.005056 -0.000524 -0.002421
# 4 -0.004904 0.016669 -0.005056 0.055109 -0.015828 0.006288
# 5 0.008821 -0.016700 -0.000524 -0.015828 0.041003 -0.005120
# 6 -0.002883 0.013520 -0.002421 0.006288 -0.005120 0.048279
#
#
# Mechanical properties :
#
#
# Convention : Reuss Voigt Hill
#
# Bulk Modulus (GPa) = 48.08038 64.43051 56.25545
# Shear Modulus (GPa) = 20.19447 27.54774 23.87111
#
# Velocity S-wave (km/s) = 3.32496 3.88342 3.61499
# Velocity P-wave (km/s) = 6.40796 7.44178 6.94414
#
# Compressibility (1/GPa) = 0.02079850
#
# Stress axis : x y z
#
# Youngs Moduli (GPa) = 59.90804 32.47590 90.50141
#
# Poissons Ratio (x) = 0.31528 0.45972
# Poissons Ratio (y) = 0.58160 0.36922
# Poissons Ratio (z) = 0.30431 0.13249
#
# Static dielectric constant tensor:
#      x y z
#    x 3.603490 -0.235300 0.025300 
#    y -0.235300 3.107500 0.153640 
#    z 0.025300 0.153640 2.666850 
# 
# 
# High freq. dielectric constant tensor:
#      x y z
#    x 1.712750 -0.012620 -0.015510 
#    y -0.012620 1.677260 -0.011880 
#    z -0.015510 -0.011880 1.722980 
# 
# From -- ./inp_files/344512.got.cif
#   From: 2010.06.25/outbox.cif.g09.slc.cpg/sg2_173_cif.got.tgz:344512.got - 2010.06.27 13:26:56.
