data_PCOD8001930
_publ_section_title
;
Structure prediction by ZEFSAII (Michael W. Deem and Ramdas Pophale) SiO2 
 PCOD8001930
Probable space group: P -1
;
_chemical_formula_sum "Si O2"
_cell_formula_units_Z 14
_cell_length_a 10.650676
_cell_length_b 20.098316
_cell_length_c 9.257105
_cell_angle_alpha 126.950794
_cell_angle_beta 140.098056
_cell_angle_gamma 35.565683
_cell_volume 737.944320
_symmetry_space_group_name_H-M "P -1"
_symmetry_group_IT_number 2
_symmetry_cell_setting 'triclinic'
loop_
_space_group_symop_operation_xyz
x,y,z
-x,-y,-z
loop_
_atom_site_type_symbol
_atom_site_label
_atom_site_fract_x
_atom_site_fract_y
_atom_site_fract_z
Si Si1 0.745254 0.979525 0.745809
Si Si2 0.280612 0.334054 0.142841
Si Si3 0.295535 0.833466 0.929123
Si Si4 0.918231 0.398833 0.404686
Si Si5 0.812980 0.245834 0.023313
Si Si6 0.796124 0.451064 0.683275
Si Si7 0.629690 0.654224 0.442170
O O1 0.891752 0.883448 0.877595
O O2 0.500000 0.000000 0.500000
O O3 0.619034 0.102129 0.849402
O O4 0.966884 0.930675 0.749570
O O5 0.243041 0.440018 0.209020
O O6 0.327344 0.309257 0.322236
O O7 0.551660 0.223010 0.159999
O O8 0.008091 0.365696 0.888192
O O9 0.368911 0.737789 0.982493
O O10 0.822782 0.342698 0.169036
O O11 0.935674 0.377627 0.563974
O O12 0.711787 0.533559 0.365191
O O13 0.208277 0.342033 0.530144
O O14 0.679645 0.257939 0.769021
O O15 0.500000 0.500000 0.500000
#
# Coordination Sequence:
#
# PCOD8001930 Si02
#       7
#     2   2   2   2   2   2   2
#     4   9  21  36  60  89 104 136 197 244 282 327
#     4  10  21  36  54  81 115 149 181 233 282 326
#     4   9  20  37  61  83 106 140 192 241 280 324
#     4  10  21  35  56  80 116 155 187 224 268 338
#     4  10  20  34  60  82 107 148 186 232 281 326
#     4  10  21  34  55  83 112 147 194 228 271 329
#     4  10  22  36  52  83 121 152 186 219 276 349
#
# _framework density 18.971620000000001
#
# number of rings (size 3 to 8) (size 9 to 14) (size 15 to 20)
#    0.857    1.429    0.000    2.143    4.000    6.857 
#    0.000    0.714    0.000    1.714    0.000    0.000 
#    0.000    0.000    0.000    0.000    0.000    0.000 
#
# Total GULP energy -173454.230465 kJ/mol
# GULP energy per Si atom -12389.587890 kJ/mol
# Density = 1.892844 g / cm^3
# Si number density = 18.971620 Si / 1000 Ang^3
#
#
#
# Elastic Constant Matrix: (Units=GPa)
#
#
# Indices 1 2 3 4 5 6 
#
# 1 69.8210 20.9495 51.1305 0.7195 -0.3345 -1.7828
# 2 20.9495 40.3721 35.4448 -3.7284 -4.5867 -8.7057
# 3 51.1305 35.4448 156.1667 -20.4839 5.8983 -3.3905
# 4 0.7195 -3.7284 -20.4839 26.0636 -0.3435 1.4275
# 5 -0.3345 -4.5867 5.8983 -0.3435 24.4173 4.1076
# 6 -1.7828 -8.7057 -3.3905 1.4275 4.1076 25.5538
#
#
#
# Elastic Compliance Matrix: (Units=1/GPa)
#
#
# Indices 1 2 3 4 5 6 
#
# 1 0.020797 -0.005979 -0.006340 -0.006335 0.000806 -0.001203
# 2 -0.005979 0.036342 -0.006331 -0.000077 0.006579 0.010071
# 3 -0.006340 -0.006331 0.011081 0.007983 -0.003675 -0.000984
# 4 -0.006335 -0.000077 0.007983 0.044887 -0.001106 -0.001739
# 5 0.000806 0.006579 -0.003675 -0.001106 0.043947 -0.005192
# 6 -0.001203 0.010071 -0.000984 -0.001739 -0.005192 0.043281
#
#
# Mechanical properties :
#
#
# Convention : Reuss Voigt Hill
#
# Bulk Modulus (GPa) = 32.34018 53.48993 42.91506
# Shear Modulus (GPa) = 20.16608 25.79595 22.98101
#
# Velocity S-wave (km/s) = 3.26384 3.69143 3.48420
# Velocity P-wave (km/s) = 5.59350 6.81357 6.23346
#
# Compressibility (1/GPa) = 0.03092128
#
# Stress axis : x y z
#
# Youngs Moduli (GPa) = 48.08292 27.51624 90.24746
#
# Poissons Ratio (x) = 0.16451 0.57216
# Poissons Ratio (y) = 0.28747 0.57135
# Poissons Ratio (z) = 0.30484 0.17420
#
# Static dielectric constant tensor:
#      x y z
#    x 3.362140 0.032980 0.107780 
#    y 0.032980 3.540070 -0.009130 
#    z 0.107780 -0.009130 3.668540 
# 
# 
# High freq. dielectric constant tensor:
#      x y z
#    x 1.716430 0.000450 0.017520 
#    y 0.000450 1.722470 0.001050 
#    z 0.017520 0.001050 1.742340 
# 
# From -- ./inp_files/284978.got.cif
#   From: 2010.06.25/outbox.cif.g09.slc.cpg/sg2_143_cif.got.tgz:284978.got - 2010.06.27 13:26:56.
