data_PCOD8001441
_publ_section_title
;
Structure prediction by ZEFSAII (Michael W. Deem and Ramdas Pophale) SiO2 
 PCOD8001441
Probable space group: P -1
;
_chemical_formula_sum "Si O2"
_cell_formula_units_Z 16
_cell_length_a 11.755679
_cell_length_b 12.244370
_cell_length_c 23.654580
_cell_angle_alpha 28.937508
_cell_angle_beta 150.021245
_cell_angle_gamma 141.212421
_cell_volume 819.966680
_symmetry_space_group_name_H-M "P -1"
_symmetry_group_IT_number 2
_symmetry_cell_setting 'triclinic'
loop_
_space_group_symop_operation_xyz
x,y,z
-x,-y,-z
loop_
_atom_site_type_symbol
_atom_site_label
_atom_site_fract_x
_atom_site_fract_y
_atom_site_fract_z
Si Si1 0.381507 0.439324 0.599052
Si Si2 0.498883 0.850395 0.622743
Si Si3 0.149381 0.309842 0.445783
Si Si4 0.791450 0.908188 0.887209
Si Si5 0.827007 0.305671 0.799916
Si Si6 0.885367 0.121002 0.718147
Si Si7 0.774899 0.595370 0.335767
Si Si8 0.674159 0.065625 0.373278
O O1 0.230735 0.302792 0.548472
O O2 0.647169 0.424701 0.706932
O O3 0.305194 0.695245 0.453086
O O4 0.344912 0.313326 0.701218
O O5 0.405679 0.589783 0.688223
O O6 0.329750 0.935811 0.559614
O O7 0.500000 0.000000 0.500000
O O8 0.762979 0.891122 0.740141
O O9 0.140403 0.561638 0.305117
O O10 0.894360 0.199656 0.381276
O O11 0.326000 0.189150 0.536058
O O12 0.545508 0.816590 0.797850
O O13 0.751999 0.048809 0.864155
O O14 0.929295 0.064711 0.827927
O O15 0.938303 0.698120 0.061275
O O16 0.131448 0.206714 0.757468
O O17 0.000000 0.500000 0.500000
#
# Coordination Sequence:
#
# PCOD8001441 Si02
#       8
#     2   2   2   2   2   2   2   2
#     4  11  19  34  58  86 109 139 186 232 280 328
#     4  11  19  31  52  83 112 140 178 229 275 337
#     4  11  21  34  58  84 114 139 180 241 280 325
#     4  10  21  37  54  78 111 150 190 216 280 336
#     4  11  21  34  57  79 109 154 181 227 273 338
#     4  10  20  36  57  81 112 147 183 237 277 329
#     4  10  20  32  55  86 109 144 181 228 290 328
#     4  10  22  36  54  85 113 142 182 233 284 327
#
# _framework density 19.512988
#
# number of rings (size 3 to 8) (size 9 to 14) (size 15 to 20)
#    0.000    1.500    5.000    3.375    0.000    0.500 
#    0.000    0.625    0.000    3.000    0.000    0.000 
#    0.000    0.000    0.000    0.000    0.000    0.000 
#
# Total GULP energy -198224.575416 kJ/mol
# GULP energy per Si atom -12389.035964 kJ/mol
# Density = 1.946858 g / cm^3
# Si number density = 19.512988 Si / 1000 Ang^3
#
#
#
# Elastic Constant Matrix: (Units=GPa)
#
#
# Indices 1 2 3 4 5 6 
#
# 1 133.5844 44.4666 33.2957 4.8155 -1.1442 -8.6974
# 2 44.4666 102.5374 26.7549 9.6715 3.0047 -0.1315
# 3 33.2957 26.7549 76.8307 15.0596 11.0754 -1.5036
# 4 4.8155 9.6715 15.0596 18.4914 -0.2863 -1.8183
# 5 -1.1442 3.0047 11.0754 -0.2863 11.2530 3.8920
# 6 -8.6974 -0.1315 -1.5036 -1.8183 3.8920 33.2712
#
#
#
# Elastic Compliance Matrix: (Units=1/GPa)
#
#
# Indices 1 2 3 4 5 6 
#
# 1 0.009838 -0.003576 -0.004439 0.003195 0.005763 0.001857
# 2 -0.003576 0.012177 -0.001621 -0.004242 -0.001788 -0.000983
# 3 -0.004439 -0.001621 0.021934 -0.016053 -0.022563 0.001587
# 4 0.003195 -0.004242 -0.016053 0.068993 0.018421 0.001709
# 5 0.005763 -0.001788 -0.022563 0.018421 0.116817 -0.012179
# 6 0.001857 -0.000983 0.001587 0.001709 -0.012179 0.032127
#
#
# Mechanical properties :
#
#
# Convention : Reuss Voigt Hill
#
# Bulk Modulus (GPa) = 40.52202 57.99856 49.26029
# Shear Modulus (GPa) = 17.27815 26.49880 21.88848
#
# Velocity S-wave (km/s) = 2.97891 3.68911 3.35287
# Velocity P-wave (km/s) = 5.71346 6.92341 6.34734
#
# Compressibility (1/GPa) = 0.02467794
#
# Stress axis : x y z
#
# Youngs Moduli (GPa) = 101.64994 82.11884 45.59172
#
# Poissons Ratio (x) = 0.29365 0.20237
# Poissons Ratio (y) = 0.36349 0.07390
# Poissons Ratio (z) = 0.45119 0.13311
#
# Static dielectric constant tensor:
#      x y z
#    x 4.085370 -0.007540 -0.084570 
#    y -0.007540 3.644790 0.103040 
#    z -0.084570 0.103040 3.271360 
# 
# 
# High freq. dielectric constant tensor:
#      x y z
#    x 1.779880 -0.003110 -0.008550 
#    y -0.003110 1.754840 0.017410 
#    z -0.008550 0.017410 1.708720 
# 
# From -- ./inp_files/351723.got.cif
#   From: 2010.06.25/outbox.cif.g09.slc.cpg/sg2_176_cif.got.tgz:351723.got - 2010.06.27 13:26:56.
