data_PCOD8001715
_publ_section_title
;
Structure prediction by ZEFSAII (Michael W. Deem and Ramdas Pophale) SiO2 
 PCOD8001715
Probable space group: P -1
;
_chemical_formula_sum "Si O2"
_cell_formula_units_Z 16
_cell_length_a 6.787152
_cell_length_b 9.129368
_cell_length_c 23.203222
_cell_angle_alpha 47.061291
_cell_angle_beta 72.572176
_cell_angle_gamma 51.823096
_cell_volume 808.739275
_symmetry_space_group_name_H-M "P -1"
_symmetry_group_IT_number 2
_symmetry_cell_setting 'triclinic'
loop_
_space_group_symop_operation_xyz
x,y,z
-x,-y,-z
loop_
_atom_site_type_symbol
_atom_site_label
_atom_site_fract_x
_atom_site_fract_y
_atom_site_fract_z
Si Si1 0.412050 0.468308 0.106198
Si Si2 0.299557 0.177189 0.532307
Si Si3 0.892054 0.350508 0.030886
Si Si4 0.839900 0.212630 0.841890
Si Si5 0.586645 0.342333 0.712139
Si Si6 0.283063 0.828254 0.545861
Si Si7 0.957982 0.687276 0.368801
Si Si8 0.336073 0.090575 0.776140
O O1 0.660744 0.447019 0.069819
O O2 0.289363 0.640618 0.127139
O O3 0.499147 0.191817 0.184895
O O4 0.199739 0.590740 0.042529
O O5 0.524403 0.216377 0.510686
O O6 0.225530 0.132313 0.612825
O O7 0.069215 0.411622 0.454044
O O8 0.372858 0.936950 0.556278
O O9 0.111261 0.054218 0.093444
O O10 0.000000 0.500000 0.000000
O O11 0.644193 0.381100 0.762059
O O12 0.119385 0.156299 0.824627
O O13 0.340149 0.586450 0.637618
O O14 0.534216 0.135592 0.773621
O O15 0.834920 0.256511 0.675333
O O16 0.000000 0.000000 0.500000
O O17 0.797687 0.731054 0.314497
#
# Coordination Sequence:
#
# PCOD8001715 Si02
#       8
#     2   2   2   2   2   2   2   2
#     4  10  22  38  60  87 116 154 186 226 287 336
#     4   9  19  35  54  77 107 146 189 238 295 336
#     4  10  21  39  63  88 117 146 188 234 275 336
#     4  10  22  39  58  85 120 151 188 232 283 338
#     4  10  21  37  56  81 114 149 193 238 283 341
#     4  10  20  34  54  80 111 144 193 240 285 340
#     4   9  19  36  56  75 109 150 187 240 291 336
#     4  10  21  38  55  82 120 150 189 236 282 336
#
# _framework density 19.783878000000001
#
# number of rings (size 3 to 8) (size 9 to 14) (size 15 to 20)
#    0.000    2.250    0.000    1.875    1.750    3.500 
#    2.250    3.750    0.000    0.000    0.000    0.000 
#    0.000    0.000    0.000    0.000    0.000    0.000 
#
# Total GULP energy -198304.354007 kJ/mol
# GULP energy per Si atom -12394.022125 kJ/mol
# Density = 1.973885 g / cm^3
# Si number density = 19.783878 Si / 1000 Ang^3
#
#
#
# Elastic Constant Matrix: (Units=GPa)
#
#
# Indices 1 2 3 4 5 6 
#
# 1 103.6178 48.6595 50.5857 1.8946 -8.9949 7.7337
# 2 48.6595 127.5849 55.9643 16.3977 -7.3651 -0.5229
# 3 50.5857 55.9643 98.3316 10.6826 0.8442 -3.4150
# 4 1.8946 16.3977 10.6826 30.6969 -1.6474 -1.3037
# 5 -8.9949 -7.3651 0.8442 -1.6474 31.6821 -11.4688
# 6 7.7337 -0.5229 -3.4150 -1.3037 -11.4688 22.5071
#
#
#
# Elastic Compliance Matrix: (Units=1/GPa)
#
#
# Indices 1 2 3 4 5 6 
#
# 1 0.014654 -0.003112 -0.006262 0.002836 0.001984 -0.004883
# 2 -0.003112 0.011720 -0.004568 -0.004288 0.002311 0.001578
# 3 -0.006262 -0.004568 0.016435 -0.002877 -0.002262 0.003220
# 4 0.002836 -0.004288 -0.002877 0.035898 0.002400 0.001792
# 5 0.001984 0.002311 -0.002262 0.002400 0.039910 0.019504
# 6 -0.004883 0.001578 0.003220 0.001792 0.019504 0.056676
#
#
# Mechanical properties :
#
#
# Convention : Reuss Voigt Hill
#
# Bulk Modulus (GPa) = 67.00824 71.10592 69.05708
# Shear Modulus (GPa) = 24.02085 28.59888 26.30986
#
# Velocity S-wave (km/s) = 3.48826 3.80618 3.65069
# Velocity P-wave (km/s) = 7.08291 7.43878 7.26302
#
# Compressibility (1/GPa) = 0.01492354
#
# Stress axis : x y z
#
# Youngs Moduli (GPa) = 68.23928 85.32687 60.84546
#
# Poissons Ratio (x) = 0.26555 0.38103
# Poissons Ratio (y) = 0.21237 0.27796
# Poissons Ratio (z) = 0.42733 0.38980
#
# Static dielectric constant tensor:
#      x y z
#    x 3.491230 -0.164220 -0.064640 
#    y -0.164220 3.524260 0.028270 
#    z -0.064640 0.028270 3.798880 
# 
# 
# High freq. dielectric constant tensor:
#      x y z
#    x 1.769060 -0.005200 -0.002140 
#    y -0.005200 1.759490 -0.002220 
#    z -0.002140 -0.002220 1.784480 
# 
# From -- ./inp_files/137796.got.cif
#   From: 2010.06.25/outbox.cif.g09.slc.cpg/sg2_69_cif.got.tgz:137796.got - 2010.06.27 13:26:56.
