data_PCOD8001747
_publ_section_title
;
Structure prediction by ZEFSAII (Michael W. Deem and Ramdas Pophale) SiO2 
 PCOD8001747
Probable space group: P -1
;
_chemical_formula_sum "Si O2"
_cell_formula_units_Z 16
_cell_length_a 20.238003
_cell_length_b 5.065237
_cell_length_c 11.478202
_cell_angle_alpha 87.525184
_cell_angle_beta 139.836239
_cell_angle_gamma 90.915730
_cell_volume 757.926454
_symmetry_space_group_name_H-M "P -1"
_symmetry_group_IT_number 2
_symmetry_cell_setting 'triclinic'
loop_
_space_group_symop_operation_xyz
x,y,z
-x,-y,-z
loop_
_atom_site_type_symbol
_atom_site_label
_atom_site_fract_x
_atom_site_fract_y
_atom_site_fract_z
Si Si1 0.529150 0.374212 0.418443
Si Si2 0.660512 0.837516 0.587327
Si Si3 0.960222 0.285485 0.034791
Si Si4 0.838712 0.061601 0.696210
Si Si5 0.136488 0.805165 0.521368
Si Si6 0.001107 0.319496 0.340691
Si Si7 0.307662 0.238807 0.101998
Si Si8 0.211936 0.749559 0.858843
O O1 0.500000 0.500000 0.500000
O O2 0.597227 0.107522 0.522011
O O3 0.423390 0.299603 0.214708
O O4 0.592114 0.609725 0.439501
O O5 0.747397 0.864855 0.604480
O O6 0.705381 0.748466 0.775560
O O7 0.942574 0.388250 0.138910
O O8 0.849697 0.216303 0.831471
O O9 0.046653 0.054686 0.165462
O O10 0.000000 0.500000 0.000000
O O11 0.816452 0.236650 0.545922
O O12 0.050543 0.592449 0.441828
O O13 0.229383 0.778840 0.741823
O O14 0.092094 0.103303 0.459747
O O15 0.911624 0.206124 0.302545
O O16 0.234513 0.455347 0.939413
O O17 0.276567 0.954118 0.016709
#
# Coordination Sequence:
#
# PCOD8001747 Si02
#       8
#     2   2   2   2   2   2   2   2
#     4  10  21  39  61  88 120 143 178 242 306 346
#     4  11  22  37  64  89 116 147 188 232 295 363
#     4  10  20  34  55  80 121 150 184 241 283 320
#     4  10  23  36  56  86 117 156 192 229 287 344
#     4  11  23  40  54  81 119 160 192 235 273 330
#     4  11  22  37  57  81 117 153 200 234 281 329
#     4  11  22  38  59  88 113 141 187 244 295 337
#     4  12  23  36  61  82 114 155 199 234 275 341
#
# _framework density 21.110230000000001
#
# number of rings (size 3 to 8) (size 9 to 14) (size 15 to 20)
#    0.000    1.250    1.250    6.750    3.500    0.000 
#    0.000    0.000    0.000    4.500    0.000    0.000 
#    0.000    0.000    0.000    0.000    0.000    0.000 
#
# Total GULP energy -198248.532807 kJ/mol
# GULP energy per Si atom -12390.533300 kJ/mol
# Density = 2.106218 g / cm^3
# Si number density = 21.110230 Si / 1000 Ang^3
#
#
#
# Elastic Constant Matrix: (Units=GPa)
#
#
# Indices 1 2 3 4 5 6 
#
# 1 55.0272 12.5023 41.3585 6.2567 -0.4434 18.7924
# 2 12.5023 102.1402 28.6686 6.9204 -2.6061 15.3513
# 3 41.3585 28.6686 87.0336 10.9466 -9.5852 9.1703
# 4 6.2567 6.9204 10.9466 42.2286 3.4641 12.5635
# 5 -0.4434 -2.6061 -9.5852 3.4641 27.9174 8.2326
# 6 18.7924 15.3513 9.1703 12.5635 8.2326 32.3187
#
#
#
# Elastic Compliance Matrix: (Units=1/GPa)
#
#
# Indices 1 2 3 4 5 6 
#
# 1 0.036104 0.002862 -0.016548 0.004209 0.000353 -0.019384
# 2 0.002862 0.011665 -0.004429 0.000648 0.001472 -0.006576
# 3 -0.016548 -0.004429 0.021350 -0.004610 0.005435 0.006075
# 4 0.004209 0.000648 -0.004610 0.027800 -0.001396 -0.011898
# 5 0.000353 0.001472 0.005435 -0.001396 0.041696 -0.012525
# 6 -0.019384 -0.006576 0.006075 -0.011898 -0.012525 0.051428
#
#
# Mechanical properties :
#
#
# Convention : Reuss Voigt Hill
#
# Bulk Modulus (GPa) = 30.40374 45.47331 37.93852
# Shear Modulus (GPa) = 21.07607 31.27103 26.17355
#
# Velocity S-wave (km/s) = 3.16315 3.85297 3.52497
# Velocity P-wave (km/s) = 5.27013 6.43284 5.88030
#
# Compressibility (1/GPa) = 0.03289069
#
# Stress axis : x y z
#
# Youngs Moduli (GPa) = 27.69803 85.72486 46.83744
#
# Poissons Ratio (x) = -0.24538 0.77504
# Poissons Ratio (y) = -0.07928 0.20745
# Poissons Ratio (z) = 0.45833 0.37969
#
# Static dielectric constant tensor:
#      x y z
#    x 3.847050 0.242790 -0.174620 
#    y 0.242790 3.823790 0.010810 
#    z -0.174620 0.010810 3.329430 
# 
# 
# High freq. dielectric constant tensor:
#      x y z
#    x 1.801470 0.011900 -0.008740 
#    y 0.011900 1.840490 0.008310 
#    z -0.008740 0.008310 1.821050 
# 
# From -- ./inp_files/118184.got.cif
#   From: 2010.06.25/outbox.cif.g09.slc.cpg/sg2_60_cif.got.tgz:118184.got - 2010.06.27 13:26:56.
