data_PCOD8001928
_publ_section_title
;
Structure prediction by ZEFSAII (Michael W. Deem and Ramdas Pophale) SiO2 
 PCOD8001928
Probable space group: P -1
;
_chemical_formula_sum "Si O2"
_cell_formula_units_Z 14
_cell_length_a 19.352732
_cell_length_b 7.925408
_cell_length_c 5.036559
_cell_angle_alpha 84.807770
_cell_angle_beta 62.870391
_cell_angle_gamma 110.044791
_cell_volume 617.080986
_symmetry_space_group_name_H-M "P -1"
_symmetry_group_IT_number 2
_symmetry_cell_setting 'triclinic'
loop_
_space_group_symop_operation_xyz
x,y,z
-x,-y,-z
loop_
_atom_site_type_symbol
_atom_site_label
_atom_site_fract_x
_atom_site_fract_y
_atom_site_fract_z
Si Si1 0.184259 0.353518 0.869864
Si Si2 0.940795 0.469733 0.858583
Si Si3 0.657383 0.903700 0.559187
Si Si4 0.697901 0.291492 0.711493
Si Si5 0.203006 0.854830 0.097471
Si Si6 0.515363 0.130345 0.203754
Si Si7 0.788776 0.833914 0.635576
O O1 0.261911 0.536991 0.585926
O O2 0.160745 0.189866 0.709608
O O3 0.098849 0.380375 0.074241
O O4 0.216597 0.308514 0.099581
O O5 0.864793 0.256813 0.999109
O O6 0.000000 0.500000 0.500000
O O7 0.000000 0.500000 0.000000
O O8 0.668097 0.098576 0.636367
O O9 0.555885 0.783988 0.684104
O O10 0.691525 0.789969 0.713311
O O11 0.716080 0.961956 0.183430
O O12 0.769231 0.299612 0.801563
O O13 0.613608 0.294339 0.001793
O O14 0.164027 0.948629 0.373205
O O15 0.500000 0.000000 0.500000
O O16 0.500000 0.000000 0.000000
#
# Coordination Sequence:
#
# PCOD8001928 Si02
#       7
#     2   2   2   2   2   2   2
#     4  12  24  44  66  99 133 174 217 273 335 393
#     4  12  27  46  72 101 127 161 221 283 329 392
#     4  10  20  40  67  95 132 178 226 266 320 387
#     4  10  21  37  69  98 130 177 230 273 318 378
#     4  11  21  44  71  95 129 180 221 265 334 397
#     4  10  20  34  60 102 131 166 229 284 306 361
#     4  11  25  40  68  96 136 182 217 257 333 412
#
# _framework density 22.687460999999999
#
# number of rings (size 3 to 8) (size 9 to 14) (size 15 to 20)
#    0.000    1.143    4.286    2.571    2.000    0.000 
#    0.000    5.714    0.000    0.000    0.000    0.000 
#    0.000    0.000    0.000    0.000    0.000    0.000 
#
# Total GULP energy -173497.058685 kJ/mol
# GULP energy per Si atom -12392.647049 kJ/mol
# Density = 2.263582 g / cm^3
# Si number density = 22.687461 Si / 1000 Ang^3
#
#
#
# Elastic Constant Matrix: (Units=GPa)
#
#
# Indices 1 2 3 4 5 6 
#
# 1 178.9919 56.4801 69.2277 11.8232 8.1783 -21.8507
# 2 56.4801 71.9444 26.2767 22.7525 -10.4746 -12.8413
# 3 69.2277 26.2767 121.9596 21.4409 6.5868 -5.5116
# 4 11.8232 22.7525 21.4409 33.8496 -6.7067 2.0435
# 5 8.1783 -10.4746 6.5868 -6.7067 48.5211 -3.1664
# 6 -21.8507 -12.8413 -5.5116 2.0435 -3.1664 28.2954
#
#
#
# Elastic Compliance Matrix: (Units=1/GPa)
#
#
# Indices 1 2 3 4 5 6 
#
# 1 0.009652 -0.006771 -0.004382 0.003408 -0.001822 0.003077
# 2 -0.006771 0.025863 0.001049 -0.015193 0.005029 0.008373
# 3 -0.004382 0.001049 0.011750 -0.006917 -0.001606 -0.000299
# 4 0.003408 -0.015193 -0.006917 0.043975 0.002609 -0.008494
# 5 -0.001822 0.005029 -0.001606 0.002609 0.022771 0.002922
# 6 0.003077 0.008373 -0.000299 -0.008494 0.002922 0.042400
#
#
# Mechanical properties :
#
#
# Convention : Reuss Voigt Hill
#
# Bulk Modulus (GPa) = 36.95800 75.20722 56.08261
# Shear Modulus (GPa) = 26.93416 36.86066 31.89741
#
# Velocity S-wave (km/s) = 3.44929 4.03515 3.75367
# Velocity P-wave (km/s) = 5.67352 7.41155 6.60000
#
# Compressibility (1/GPa) = 0.02705774
#
# Stress axis : x y z
#
# Youngs Moduli (GPa) = 103.60905 38.66470 85.10741
#
# Poissons Ratio (x) = 0.26179 0.37290
# Poissons Ratio (y) = 0.70150 -0.08925
# Poissons Ratio (z) = 0.45397 -0.04055
#
# Static dielectric constant tensor:
#      x y z
#    x 4.807210 -0.078820 -0.369880 
#    y -0.078820 4.023380 0.323080 
#    z -0.369880 0.323080 4.497180 
# 
# 
# High freq. dielectric constant tensor:
#      x y z
#    x 1.905930 -0.010520 0.012300 
#    y -0.010520 1.865350 0.028140 
#    z 0.012300 0.028140 1.901450 
# 
# From -- ./inp_files/103810.got.cif
#   From: 2010.06.25/outbox.cif.g09.slc.cpg/sg2_52_cif.got.tgz:103810.got - 2010.06.27 13:26:56.
