data_PCOD8001998
_publ_section_title
;
Structure prediction by ZEFSAII (Michael W. Deem and Ramdas Pophale) SiO2 
 PCOD8001998
Probable space group: P -1
;
_chemical_formula_sum "Si O2"
_cell_formula_units_Z 16
_cell_length_a 8.330903
_cell_length_b 8.435835
_cell_length_c 13.844293
_cell_angle_alpha 107.938198
_cell_angle_beta 127.657939
_cell_angle_gamma 74.083819
_cell_volume 728.015512
_symmetry_space_group_name_H-M "P -1"
_symmetry_group_IT_number 2
_symmetry_cell_setting 'triclinic'
loop_
_space_group_symop_operation_xyz
x,y,z
-x,-y,-z
loop_
_atom_site_type_symbol
_atom_site_label
_atom_site_fract_x
_atom_site_fract_y
_atom_site_fract_z
Si Si1 0.397610 0.591847 0.781996
Si Si2 0.845441 0.514049 0.854514
Si Si3 0.704527 0.986850 0.950251
Si Si4 0.903939 0.644954 0.422455
Si Si5 0.012794 0.862427 0.660088
Si Si6 0.997082 0.259477 0.723528
Si Si7 0.915777 0.824897 0.825635
Si Si8 0.388223 0.247422 0.961367
O O1 0.610685 0.580374 0.801067
O O2 0.308785 0.413452 0.704656
O O3 0.236699 0.751342 0.719392
O O4 0.454605 0.623422 0.921497
O O5 0.939751 0.636143 0.836871
O O6 0.834727 0.338157 0.758645
O O7 0.000000 0.500000 0.000000
O O8 0.735275 0.933232 0.839462
O O9 0.708207 0.824484 0.989489
O O10 0.489862 0.098196 0.903217
O O11 0.876267 0.096334 0.068615
O O12 0.049577 0.674837 0.390247
O O13 0.000000 0.500000 0.500000
O O14 0.880633 0.814910 0.509580
O O15 0.878679 0.822096 0.696585
O O16 0.032756 0.058771 0.702044
O O17 0.204437 0.335499 0.847210
#
# Coordination Sequence:
#
# PCOD8001998 Si02
#       8
#     2   2   2   2   2   2   2   2
#     4  11  22  44  67  96 137 176 216 268 332 400
#     4  12  25  39  61 105 144 169 209 273 345 396
#     4  10  20  34  63 100 131 171 208 269 327 402
#     4  10  25  47  69  93 127 183 230 270 328 394
#     4  11  23  47  71  92 130 180 234 270 319 396
#     4  12  24  42  69 100 132 171 220 285 330 394
#     4  11  21  37  64  93 135 176 213 262 337 384
#     4  11  19  38  64 101 133 163 217 265 336 392
#
# _framework density 21.977553
#
# number of rings (size 3 to 8) (size 9 to 14) (size 15 to 20)
#    0.000    1.000    5.000    2.625    1.750    1.500 
#    0.000    6.250    0.000    0.000    0.000    0.000 
#    0.000    0.000    0.000    0.000    0.000    0.000 
#
# Total GULP energy -198228.373054 kJ/mol
# GULP energy per Si atom -12389.273316 kJ/mol
# Density = 2.192753 g / cm^3
# Si number density = 21.977553 Si / 1000 Ang^3
#
#
#
# Elastic Constant Matrix: (Units=GPa)
#
#
# Indices 1 2 3 4 5 6 
#
# 1 126.5372 46.7246 45.0165 2.0691 -26.6518 -11.1921
# 2 46.7246 89.9484 56.6101 19.5543 -9.9371 -14.7252
# 3 45.0165 56.6101 100.4606 24.7801 -23.1174 2.7035
# 4 2.0691 19.5543 24.7801 38.5614 2.9838 -6.3237
# 5 -26.6518 -9.9371 -23.1174 2.9838 42.5512 3.0480
# 6 -11.1921 -14.7252 2.7035 -6.3237 3.0480 25.4021
#
#
#
# Elastic Compliance Matrix: (Units=1/GPa)
#
#
# Indices 1 2 3 4 5 6 
#
# 1 0.011520 -0.003802 -0.003018 0.003510 0.004187 0.003565
# 2 -0.003802 0.022616 -0.012232 -0.000904 -0.004618 0.013066
# 3 -0.003018 -0.012232 0.024027 -0.012378 0.010270 -0.015291
# 4 0.003510 -0.000904 -0.012378 0.036842 -0.008216 0.012497
# 5 0.004187 -0.004618 0.010270 -0.008216 0.031758 -0.007781
# 6 0.003565 0.013066 -0.015291 0.012497 -0.007781 0.054184
#
#
# Mechanical properties :
#
#
# Convention : Reuss Voigt Hill
#
# Bulk Modulus (GPa) = 49.85055 68.18317 59.01686
# Shear Modulus (GPa) = 22.14967 32.54261 27.34614
#
# Velocity S-wave (km/s) = 3.17808 3.85219 3.53126
# Velocity P-wave (km/s) = 6.01653 7.13282 6.59833
#
# Compressibility (1/GPa) = 0.02005996
#
# Stress axis : x y z
#
# Youngs Moduli (GPa) = 86.80558 44.21660 41.61939
#
# Poissons Ratio (x) = 0.16809 0.12561
# Poissons Ratio (y) = 0.33000 0.50908
# Poissons Ratio (z) = 0.26199 0.54085
#
# Static dielectric constant tensor:
#      x y z
#    x 4.051510 -0.094270 -0.242700 
#    y -0.094270 4.133250 0.547450 
#    z -0.242700 0.547450 4.419950 
# 
# 
# High freq. dielectric constant tensor:
#      x y z
#    x 1.861830 -0.002050 -0.020470 
#    y -0.002050 1.866930 0.028540 
#    z -0.020470 0.028540 1.850560 
# 
# From -- ./inp_files/495493.got.cif
#   From: 2010.06.25/outbox.cif.g09.slc.cpg/sg2_248_cif.got.tgz:495493.got - 2010.06.27 13:26:56.
