data_PCOD8001138
_publ_section_title
;
Structure prediction by ZEFSAII (Michael W. Deem and Ramdas Pophale) SiO2 
 PCOD8001138
Probable space group: P -1
;
_chemical_formula_sum "Si O2"
_cell_formula_units_Z 16
_cell_length_a 14.011240
_cell_length_b 19.981217
_cell_length_c 11.172021
_cell_angle_alpha 149.042615
_cell_angle_beta 31.561589
_cell_angle_gamma 148.901105
_cell_volume 744.920760
_symmetry_space_group_name_H-M "P -1"
_symmetry_group_IT_number 2
_symmetry_cell_setting 'triclinic'
loop_
_space_group_symop_operation_xyz
x,y,z
-x,-y,-z
loop_
_atom_site_type_symbol
_atom_site_label
_atom_site_fract_x
_atom_site_fract_y
_atom_site_fract_z
Si Si1 0.122141 0.157906 0.054533
Si Si2 0.592971 0.352012 0.914666
Si Si3 0.924574 0.187832 0.703401
Si Si4 0.917448 0.311506 0.648182
Si Si5 0.760444 0.382865 0.280455
Si Si6 0.380967 0.598723 0.293350
Si Si7 0.777113 0.853945 0.331263
Si Si8 0.323833 0.331121 0.622615
O O1 0.022755 0.258151 0.354645
O O2 0.359565 0.230235 0.953313
O O3 0.091231 0.141752 0.919432
O O4 0.000000 0.000000 0.000000
O O5 0.699603 0.287912 0.792845
O O6 0.717801 0.399187 0.726357
O O7 0.599135 0.496283 0.186386
O O8 0.868489 0.215493 0.672783
O O9 0.174228 0.264173 0.565803
O O10 0.828076 0.015572 0.568462
O O11 0.830155 0.255741 0.006409
O O12 0.072995 0.482873 0.771147
O O13 0.776273 0.449891 0.501244
O O14 0.532113 0.315622 0.363748
O O15 0.537866 0.766775 0.417406
O O16 0.500000 0.500000 0.000000
O O17 0.811697 0.762419 0.261698
#
# Coordination Sequence:
#
# PCOD8001138 Si02
#       8
#     2   2   2   2   2   2   2   2
#     4  11  23  46  70  95 132 171 210 270 333 376
#     4  11  23  41  71  99 127 164 221 273 318 381
#     4  12  26  43  60  96 138 172 218 264 316 393
#     4  12  25  42  65  98 132 169 219 266 316 393
#     4  11  23  40  68  95 128 173 215 265 329 378
#     4  10  19  41  69  95 126 165 217 274 319 375
#     4  10  22  43  67  95 133 165 218 275 318 382
#     4  11  23  42  69  93 128 175 216 268 323 379
#
# _framework density 21.478795000000002
#
# number of rings (size 3 to 8) (size 9 to 14) (size 15 to 20)
#    0.000    1.000    6.250    1.500    0.000    5.500 
#    0.000    0.000    0.000    0.000    0.000    0.000 
#    0.000    0.000    0.000    0.000    0.000    0.000 
#
# Total GULP energy -198340.814498 kJ/mol
# GULP energy per Si atom -12396.300906 kJ/mol
# Density = 2.142991 g / cm^3
# Si number density = 21.478795 Si / 1000 Ang^3
#
#
#
# Elastic Constant Matrix: (Units=GPa)
#
#
# Indices 1 2 3 4 5 6 
#
# 1 95.1928 31.6496 20.0051 5.0328 -17.9926 -0.3345
# 2 31.6496 103.1334 27.8991 11.4940 -7.6602 8.9191
# 3 20.0051 27.8991 101.2355 4.1702 -2.3642 9.1341
# 4 5.0328 11.4940 4.1702 26.9876 2.5008 8.5283
# 5 -17.9926 -7.6602 -2.3642 2.5008 29.6099 -6.7095
# 6 -0.3345 8.9191 9.1341 8.5283 -6.7095 35.6407
#
#
#
# Elastic Compliance Matrix: (Units=1/GPa)
#
#
# Indices 1 2 3 4 5 6 
#
# 1 0.013677 -0.003056 -0.001874 -0.002897 0.008444 0.003656
# 2 -0.003056 0.011892 -0.002376 -0.003821 0.001062 -0.001282
# 3 -0.001874 -0.002376 0.011085 0.000646 -0.001536 -0.002708
# 4 -0.002897 -0.003821 0.000646 0.043533 -0.008943 -0.011337
# 5 0.008444 0.001062 -0.001536 -0.008943 0.042140 0.010280
# 6 0.003656 -0.001282 -0.002708 -0.011337 0.010280 0.033755
#
#
# Mechanical properties :
#
#
# Convention : Reuss Voigt Hill
#
# Bulk Modulus (GPa) = 45.36687 50.96327 48.16507
# Shear Modulus (GPa) = 28.08336 33.11484 30.59910
#
# Velocity S-wave (km/s) = 3.61985 3.93077 3.77851
# Velocity P-wave (km/s) = 6.21600 6.66183 6.44277
#
# Compressibility (1/GPa) = 0.02204252
#
# Stress axis : x y z
#
# Youngs Moduli (GPa) = 73.11562 84.08759 90.21447
#
# Poissons Ratio (x) = 0.25701 0.16904
# Poissons Ratio (y) = 0.22348 0.21431
# Poissons Ratio (z) = 0.13700 0.19975
#
# Static dielectric constant tensor:
#      x y z
#    x 4.021730 -0.047760 0.177940 
#    y -0.047760 4.051280 0.118830 
#    z 0.177940 0.118830 3.988450 
# 
# 
# High freq. dielectric constant tensor:
#      x y z
#    x 1.840560 -0.005070 0.009300 
#    y -0.005070 1.845850 0.009660 
#    z 0.009300 0.009660 1.833580 
# 
# From -- ./inp_files/457714.got.cif
#   From: 2010.06.25/outbox.cif.g09.slc.cpg/sg2_229_cif.got.tgz:457714.got - 2010.06.27 13:26:56.
