data_PCOD8001534
_publ_section_title
;
Structure prediction by ZEFSAII (Michael W. Deem and Ramdas Pophale) SiO2 
 PCOD8001534
Probable space group: P -1
;
_chemical_formula_sum "Si O2"
_cell_formula_units_Z 16
_cell_length_a 23.394490
_cell_length_b 21.664194
_cell_length_c 9.222311
_cell_angle_alpha 39.861856
_cell_angle_beta 133.111881
_cell_angle_gamma 162.885383
_cell_volume 849.848681
_symmetry_space_group_name_H-M "P -1"
_symmetry_group_IT_number 2
_symmetry_cell_setting 'triclinic'
loop_
_space_group_symop_operation_xyz
x,y,z
-x,-y,-z
loop_
_atom_site_type_symbol
_atom_site_label
_atom_site_fract_x
_atom_site_fract_y
_atom_site_fract_z
Si Si1 0.855630 0.255310 0.749403
Si Si2 0.902384 0.233913 0.353073
Si Si3 0.143670 0.911237 0.761137
Si Si4 0.133495 0.897423 0.166283
Si Si5 0.814341 0.604053 0.921537
Si Si6 0.447354 0.869959 0.771079
Si Si7 0.297402 0.789370 0.942874
Si Si8 0.536240 0.651010 0.256047
O O1 0.800278 0.129518 0.739921
O O2 0.000000 0.500000 0.500000
O O3 0.665541 0.081275 0.822942
O O4 0.958416 0.301573 0.962037
O O5 0.835022 0.083129 0.381962
O O6 0.897666 0.157424 0.619961
O O7 0.748131 0.148197 0.249146
O O8 0.124371 0.529334 0.186494
O O9 0.978118 0.804241 0.712954
O O10 0.357799 0.177271 0.729858
O O11 0.930938 0.714504 0.075923
O O12 0.320957 0.180445 0.943169
O O13 0.680535 0.548398 0.796882
O O14 0.669084 0.351306 0.095870
O O15 0.323284 0.784434 0.832408
O O16 0.500000 0.000000 0.500000
O O17 0.500000 0.000000 0.000000
O O18 0.500000 0.500000 0.500000
#
# Coordination Sequence:
#
# PCOD8001534 Si02
#       8
#     2   2   2   2   2   2   2   2
#     4  10  20  33  54  80 121 157 204 247 283 333
#     4  11  24  40  52  85 136 163 202 241 296 358
#     4  10  21  38  60  84 119 159 192 249 302 349
#     4  10  23  36  59  88 118 159 192 252 302 356
#     4  10  20  39  60  87 115 149 204 246 301 351
#     4  12  20  33  56  84 116 159 207 239 279 344
#     4  11  26  35  54  84 126 177 207 233 283 352
#     4  10  22  43  69  91 110 144 203 264 311 356
#
# _framework density 18.826882000000001
#
# number of rings (size 3 to 8) (size 9 to 14) (size 15 to 20)
#    0.000    1.750    3.750    3.000    7.000    2.000 
#    0.000    0.625    0.000    1.500    0.000    0.000 
#    0.000    0.000    0.000    0.000    0.000    0.000 
#
# Total GULP energy -198276.881415 kJ/mol
# GULP energy per Si atom -12392.305088 kJ/mol
# Density = 1.878403 g / cm^3
# Si number density = 18.826882 Si / 1000 Ang^3
#
#
#
# Elastic Constant Matrix: (Units=GPa)
#
#
# Indices 1 2 3 4 5 6 
#
# 1 81.5830 47.1987 64.0453 14.3249 -13.7572 5.3739
# 2 47.1987 121.6238 45.5070 10.4706 -1.8943 22.1358
# 3 64.0453 45.5070 129.5218 5.1482 -7.7866 0.3503
# 4 14.3249 10.4706 5.1482 25.2671 -2.7631 -2.8446
# 5 -13.7572 -1.8943 -7.7866 -2.7631 33.0397 3.6978
# 6 5.3739 22.1358 0.3503 -2.8446 3.6978 29.8769
#
#
#
# Elastic Compliance Matrix: (Units=1/GPa)
#
#
# Indices 1 2 3 4 5 6 
#
# 1 0.026772 -0.004816 -0.010650 -0.010505 0.007829 -0.003092
# 2 -0.004816 0.012672 -0.001983 -0.003208 -0.001043 -0.008675
# 3 -0.010650 -0.001983 0.013411 0.004399 -0.001448 0.003825
# 4 -0.010505 -0.003208 0.004399 0.046887 -0.000579 0.008750
# 5 0.007829 -0.001043 -0.001448 -0.000579 0.033618 -0.004834
# 6 -0.003092 -0.008675 0.003825 0.008750 -0.004834 0.041841
#
#
# Mechanical properties :
#
#
# Convention : Reuss Voigt Hill
#
# Bulk Modulus (GPa) = 55.68305 71.80338 63.74322
# Shear Modulus (GPa) = 23.13919 29.36855 26.25387
#
# Velocity S-wave (km/s) = 3.50959 3.95387 3.73834
# Velocity P-wave (km/s) = 6.78701 7.68542 7.25014
#
# Compressibility (1/GPa) = 0.01795878
#
# Stress axis : x y z
#
# Youngs Moduli (GPa) = 37.35211 78.91687 74.56564
#
# Poissons Ratio (x) = 0.38005 0.79409
# Poissons Ratio (y) = 0.17988 0.14783
# Poissons Ratio (z) = 0.39779 0.15646
#
# Static dielectric constant tensor:
#      x y z
#    x 3.453990 0.186970 -0.075870 
#    y 0.186970 3.569620 -0.019390 
#    z -0.075870 -0.019390 3.378430 
# 
# 
# High freq. dielectric constant tensor:
#      x y z
#    x 1.712700 0.015870 -0.007430 
#    y 0.015870 1.745040 -0.001390 
#    z -0.007430 -0.001390 1.715280 
# 
# From -- ./inp_files/349437.got.cif
#   From: 2010.06.25/outbox.cif.g09.slc.cpg/sg2_175_cif.got.tgz:349437.got - 2010.06.27 13:26:56.
