data_PCOD8001106
_publ_section_title
;
Structure prediction by ZEFSAII (Michael W. Deem and Ramdas Pophale) SiO2 
 PCOD8001106
Probable space group: P -1
;
_chemical_formula_sum "Si O2"
_cell_formula_units_Z 16
_cell_length_a 11.713541
_cell_length_b 18.847963
_cell_length_c 9.088456
_cell_angle_alpha 140.054895
_cell_angle_beta 100.081021
_cell_angle_gamma 49.912418
_cell_volume 750.087169
_symmetry_space_group_name_H-M "P -1"
_symmetry_group_IT_number 2
_symmetry_cell_setting 'triclinic'
loop_
_space_group_symop_operation_xyz
x,y,z
-x,-y,-z
loop_
_atom_site_type_symbol
_atom_site_label
_atom_site_fract_x
_atom_site_fract_y
_atom_site_fract_z
Si Si1 0.096984 0.075708 0.333218
Si Si2 0.067347 0.235509 0.291527
Si Si3 0.687801 0.619987 0.691347
Si Si4 0.672340 0.779502 0.673146
Si Si5 0.615100 0.320807 0.333552
Si Si6 0.571767 0.069804 0.644306
Si Si7 0.375503 0.891563 0.607658
Si Si8 0.311176 0.693085 0.344897
O O1 0.056439 0.151467 0.280231
O O2 0.891359 0.215510 0.596490
O O3 0.229952 0.065122 0.429370
O O4 0.200252 0.875170 0.023738
O O5 0.138477 0.300350 0.475861
O O6 0.861994 0.404642 0.431905
O O7 0.221067 0.088798 0.965775
O O8 0.741483 0.677259 0.683382
O O9 0.526328 0.673147 0.652205
O O10 0.605564 0.730068 0.000463
O O11 0.594622 0.743238 0.488341
O O12 0.500000 0.000000 0.000000
O O13 0.500000 0.500000 0.500000
O O14 0.675743 0.330500 0.514342
O O15 0.616425 0.089851 0.531748
O O16 0.500000 0.000000 0.500000
O O17 0.295623 0.830625 0.512136
O O18 0.500000 0.500000 0.000000
#
# Coordination Sequence:
#
# PCOD8001106 Si02
#       8
#     2   2   2   2   2   2   2   2
#     4  11  25  46  68  96 132 181 224 265 336 399
#     4  11  22  41  70  97 127 172 227 273 323 403
#     4  11  23  40  67 103 127 171 229 262 330 405
#     4  10  19  41  66  94 128 172 218 271 323 392
#     4  11  23  43  70  95 129 179 226 269 323 400
#     4  11  24  45  66  98 138 173 213 275 337 391
#     4  11  23  42  66  92 136 176 214 276 337 381
#     4  12  27  44  65  98 136 173 224 277 334 390
#
# _framework density 21.330855
#
# number of rings (size 3 to 8) (size 9 to 14) (size 15 to 20)
#    0.000    1.000    2.500    6.000    7.000    1.500 
#    2.250    1.250    0.000    0.000    0.000    0.000 
#    0.000    0.000    0.000    0.000    0.000    0.000 
#
# Total GULP energy -198356.603878 kJ/mol
# GULP energy per Si atom -12397.287742 kJ/mol
# Density = 2.128230 g / cm^3
# Si number density = 21.330855 Si / 1000 Ang^3
#
#
#
# Elastic Constant Matrix: (Units=GPa)
#
#
# Indices 1 2 3 4 5 6 
#
# 1 107.0612 26.9777 40.0371 2.7246 -2.2372 -6.8025
# 2 26.9777 117.4515 39.4366 5.8157 0.3354 13.8746
# 3 40.0371 39.4366 91.7955 7.7684 -10.1140 -8.3300
# 4 2.7246 5.8157 7.7684 33.9644 -0.1902 3.4931
# 5 -2.2372 0.3354 -10.1140 -0.1902 30.5772 4.0989
# 6 -6.8025 13.8746 -8.3300 3.4931 4.0989 46.4706
#
#
#
# Elastic Compliance Matrix: (Units=1/GPa)
#
#
# Indices 1 2 3 4 5 6 
#
# 1 0.011370 -0.001304 -0.004379 0.000172 -0.000779 0.001325
# 2 -0.001304 0.010855 -0.004574 -0.000290 -0.001176 -0.004126
# 3 -0.004379 -0.004574 0.015807 -0.002803 0.004489 0.003373
# 4 0.000172 -0.000290 -0.002803 0.030389 -0.000368 -0.002642
# 5 -0.000779 -0.001176 0.004489 -0.000368 0.034406 -0.001965
# 6 0.001325 -0.004126 0.003373 -0.002642 -0.001965 0.023921
#
#
# Mechanical properties :
#
#
# Convention : Reuss Voigt Hill
#
# Bulk Modulus (GPa) = 57.08704 58.80122 57.94413
# Shear Modulus (GPa) = 32.65816 36.19289 34.42553
#
# Velocity S-wave (km/s) = 3.91708 4.12362 4.02168
# Velocity P-wave (km/s) = 6.87596 7.09214 6.98488
#
# Compressibility (1/GPa) = 0.01751711
#
# Stress axis : x y z
#
# Youngs Moduli (GPa) = 87.94930 92.12665 63.26478
#
# Poissons Ratio (x) = 0.12014 0.27704
# Poissons Ratio (y) = 0.11469 0.28937
# Poissons Ratio (z) = 0.38514 0.42139
#
# Static dielectric constant tensor:
#      x y z
#    x 4.377970 -0.057660 -0.075240 
#    y -0.057660 3.693470 0.175840 
#    z -0.075240 0.175840 3.615390 
# 
# 
# High freq. dielectric constant tensor:
#      x y z
#    x 1.861550 -0.002630 0.003470 
#    y -0.002630 1.838900 0.007530 
#    z 0.003470 0.007530 1.813120 
# 
# From -- ./inp_files/242001.got.cif
#   From: 2010.06.25/outbox.cif.g09.slc.cpg/sg2_122_cif.got.tgz:242001.got - 2010.06.27 13:26:56.
