data_PCOD8001613
_publ_section_title
;
Structure prediction by ZEFSAII (Michael W. Deem and Ramdas Pophale) SiO2 
 PCOD8001613
Probable space group: P -1
;
_chemical_formula_sum "Si O2"
_cell_formula_units_Z 16
_cell_length_a 9.309985
_cell_length_b 16.651671
_cell_length_c 11.457618
_cell_angle_alpha 46.904222
_cell_angle_beta 58.591662
_cell_angle_gamma 93.787048
_cell_volume 814.429241
_symmetry_space_group_name_H-M "P -1"
_symmetry_group_IT_number 2
_symmetry_cell_setting 'triclinic'
loop_
_space_group_symop_operation_xyz
x,y,z
-x,-y,-z
loop_
_atom_site_type_symbol
_atom_site_label
_atom_site_fract_x
_atom_site_fract_y
_atom_site_fract_z
Si Si1 0.097428 0.796597 0.942497
Si Si2 0.253071 0.034730 0.249095
Si Si3 0.689094 0.477940 0.169228
Si Si4 0.810032 0.762797 0.280958
Si Si5 0.817890 0.001098 0.951139
Si Si6 0.167292 0.650324 0.897068
Si Si7 0.495224 0.048114 0.675760
Si Si8 0.137826 0.214120 0.177152
O O1 0.182136 0.709260 0.962500
O O2 0.014023 0.814220 0.839773
O O3 0.309928 0.962114 0.735611
O O4 0.895534 0.701668 0.220142
O O5 0.243006 0.995179 0.158019
O O6 0.302564 0.187169 0.092166
O O7 0.450925 0.053080 0.209717
O O8 0.009867 0.896889 0.543855
O O9 0.455457 0.359640 0.456037
O O10 0.700029 0.408811 0.113396
O O11 0.715585 0.619864 0.996814
O O12 0.896842 0.518933 0.115871
O O13 0.873648 0.897125 0.042780
O O14 0.959428 0.830344 0.269440
O O15 0.601041 0.930388 0.193834
O O16 0.279714 0.787267 0.622981
#
# Coordination Sequence:
#
# PCOD8001613 Si02
#       8
#     2   2   2   2   2   2   2   2
#     4  10  20  37  60  91 110 150 199 237 284 326
#     4  11  21  38  56  86 122 147 191 238 290 349
#     4  10  20  38  57  84 120 151 194 236 288 340
#     4  10  20  37  62  84 116 147 200 243 275 343
#     4  10  21  36  59  88 110 155 193 238 290 332
#     4  10  20  33  58  89 117 146 191 242 285 340
#     4  11  20  36  62  87 117 148 192 246 286 337
#     4  10  22  36  59  85 117 154 189 237 288 348
#
# _framework density 19.645661
#
# number of rings (size 3 to 8) (size 9 to 14) (size 15 to 20)
#    0.000    1.750    5.000    0.750    0.000    2.000 
#    2.250    0.625    0.000    1.500    0.000    0.000 
#    0.000    0.000    0.000    0.000    0.000    0.000 
#
# Total GULP energy -198294.877447 kJ/mol
# GULP energy per Si atom -12393.429840 kJ/mol
# Density = 1.960095 g / cm^3
# Si number density = 19.645661 Si / 1000 Ang^3
#
#
#
# Elastic Constant Matrix: (Units=GPa)
#
#
# Indices 1 2 3 4 5 6 
#
# 1 66.5664 41.2925 21.6772 -2.0781 -1.5656 -14.9760
# 2 41.2925 160.6525 58.5840 16.9859 3.3417 -24.2906
# 3 21.6772 58.5840 105.2796 9.9896 -18.0989 -3.0744
# 4 -2.0781 16.9859 9.9896 27.6938 -7.6290 2.5136
# 5 -1.5656 3.3417 -18.0989 -7.6290 21.1330 -2.5937
# 6 -14.9760 -24.2906 -3.0744 2.5136 -2.5937 19.1638
#
#
#
# Elastic Compliance Matrix: (Units=1/GPa)
#
#
# Indices 1 2 3 4 5 6 
#
# 1 0.020480 -0.003415 -0.001797 0.004196 0.003420 0.011300
# 2 -0.003415 0.012602 -0.006777 -0.009381 -0.009951 0.012101
# 3 -0.001797 -0.006777 0.015724 0.002944 0.014749 -0.005861
# 4 0.004196 -0.009381 0.002944 0.047714 0.020108 -0.011676
# 5 0.003420 -0.009951 0.014749 0.020108 0.068928 -0.000882
# 6 0.011300 0.012101 -0.005861 -0.011676 -0.000882 0.076823
#
#
# Mechanical properties :
#
#
# Convention : Reuss Voigt Hill
#
# Bulk Modulus (GPa) = 40.27430 63.95622 52.11526
# Shear Modulus (GPa) = 18.21332 27.66112 22.93722
#
# Velocity S-wave (km/s) = 3.04812 3.75641 3.42064
# Velocity P-wave (km/s) = 5.73872 7.17214 6.49510
#
# Compressibility (1/GPa) = 0.02482973
#
# Stress axis : x y z
#
# Youngs Moduli (GPa) = 48.82869 79.35249 63.59583
#
# Poissons Ratio (x) = 0.27098 0.11427
# Poissons Ratio (y) = 0.16674 0.43096
# Poissons Ratio (z) = 0.08773 0.53773
#
# Static dielectric constant tensor:
#      x y z
#    x 3.372820 -0.398920 -0.134170 
#    y -0.398920 4.150140 0.092440 
#    z -0.134170 0.092440 3.346020 
# 
# 
# High freq. dielectric constant tensor:
#      x y z
#    x 1.731620 -0.021700 -0.020260 
#    y -0.021700 1.789330 0.014820 
#    z -0.020260 0.014820 1.747960 
# 
# From -- ./inp_files/259907.got.cif
#   From: 2010.06.25/outbox.cif.g09.slc.cpg/sg2_130_cif.got.tgz:259907.got - 2010.06.27 13:26:56.
