data_PCOD8001206
_publ_section_title
;
Structure prediction by ZEFSAII (Michael W. Deem and Ramdas Pophale) SiO2 
 PCOD8001206
Probable space group: P -1
;
_chemical_formula_sum "Si O2"
_cell_formula_units_Z 16
_cell_length_a 15.596004
_cell_length_b 16.696511
_cell_length_c 8.932538
_cell_angle_alpha 51.827767
_cell_angle_beta 119.778117
_cell_angle_gamma 155.086150
_cell_volume 755.851560
_symmetry_space_group_name_H-M "P -1"
_symmetry_group_IT_number 2
_symmetry_cell_setting 'triclinic'
loop_
_space_group_symop_operation_xyz
x,y,z
-x,-y,-z
loop_
_atom_site_type_symbol
_atom_site_label
_atom_site_fract_x
_atom_site_fract_y
_atom_site_fract_z
Si Si1 0.536247 0.230855 0.608923
Si Si2 0.182988 0.324383 0.708661
Si Si3 0.061985 0.525709 0.358821
Si Si4 0.632935 0.687195 0.287139
Si Si5 0.900852 0.560862 0.989490
Si Si6 0.102624 0.804311 0.576480
Si Si7 0.049180 0.863793 0.971556
Si Si8 0.475650 0.198558 0.943758
O O1 0.639541 0.429976 0.420492
O O2 0.695199 0.282737 0.657278
O O3 0.469477 0.171400 0.792054
O O4 0.339192 0.038512 0.552944
O O5 0.291037 0.314241 0.781359
O O6 0.007059 0.192252 0.584711
O O7 0.084647 0.224651 0.901443
O O8 0.000000 0.500000 0.500000
O O9 0.917127 0.299201 0.449429
O O10 0.032958 0.593127 0.143467
O O11 0.500000 0.500000 0.500000
O O12 0.478050 0.639177 0.165061
O O13 0.842118 0.936982 0.241077
O O14 0.659302 0.304857 0.064332
O O15 0.974732 0.644826 0.788745
O O16 0.909482 0.675822 0.951246
O O17 0.242683 0.963480 0.073926
#
# Coordination Sequence:
#
# PCOD8001206 Si02
#       8
#     2   2   2   2   2   2   2   2
#     4  11  22  43  64  95 127 168 220 260 312 384
#     4  11  21  42  64  95 140 163 211 272 313 369
#     4  11  26  42  65  96 133 161 210 273 323 374
#     4  10  19  42  66  92 131 174 211 262 312 377
#     4  12  21  43  66  94 127 172 215 261 317 387
#     4  11  23  40  68  96 121 178 213 253 326 379
#     4  10  24  38  64  97 129 168 210 268 321 362
#     4  10  22  40  64  95 126 166 219 261 305 380
#
# _framework density 21.168178000000001
#
# number of rings (size 3 to 8) (size 9 to 14) (size 15 to 20)
#    0.750    0.500    5.000    2.250    0.000    4.000 
#    2.250    2.500    0.000    0.000    0.000    0.000 
#    0.000    0.000    0.000    0.000    0.000    0.000 
#
# Total GULP energy -198223.608827 kJ/mol
# GULP energy per Si atom -12388.975552 kJ/mol
# Density = 2.112000 g / cm^3
# Si number density = 21.168178 Si / 1000 Ang^3
#
#
#
# Elastic Constant Matrix: (Units=GPa)
#
#
# Indices 1 2 3 4 5 6 
#
# 1 131.0990 31.2351 13.9610 14.8536 -21.9185 -5.4218
# 2 31.2351 133.2510 1.8896 8.0645 -8.8830 4.4048
# 3 13.9610 1.8896 27.9929 8.8824 -4.2563 -12.0223
# 4 14.8536 8.0645 8.8824 23.2858 4.0032 0.6136
# 5 -21.9185 -8.8830 -4.2563 4.0032 32.0631 -0.1103
# 6 -5.4218 4.4048 -12.0223 0.6136 -0.1103 23.5436
#
#
#
# Elastic Compliance Matrix: (Units=1/GPa)
#
#
# Indices 1 2 3 4 5 6 
#
# 1 0.010195 -0.001547 -0.000476 -0.007123 0.007376 0.002615
# 2 -0.001547 0.008151 0.000500 -0.002251 0.001543 -0.001560
# 3 -0.000476 0.000500 0.058484 -0.024832 0.010782 0.030359
# 4 -0.007123 -0.002251 -0.024832 0.060980 -0.016457 -0.015566
# 5 0.007376 0.001543 0.010782 -0.016457 0.040170 0.007533
# 6 0.002615 -0.001560 0.030359 -0.015566 0.007533 0.059312
#
#
# Mechanical properties :
#
#
# Convention : Reuss Voigt Hill
#
# Bulk Modulus (GPa) = 13.55271 42.94603 28.24937
# Shear Modulus (GPa) = 18.87280 32.12899 25.50089
#
# Velocity S-wave (km/s) = 2.98915 3.90012 3.47462
# Velocity P-wave (km/s) = 4.28131 6.37286 5.42876
#
# Compressibility (1/GPa) = 0.07378598
#
# Stress axis : x y z
#
# Youngs Moduli (GPa) = 98.08269 122.68786 17.09867
#
# Poissons Ratio (x) = 0.18976 0.00813
# Poissons Ratio (y) = 0.15171 -0.00855
# Poissons Ratio (z) = 0.04665 -0.06137
#
# Static dielectric constant tensor:
#      x y z
#    x 4.242860 0.184350 0.012900 
#    y 0.184350 4.351230 -0.001720 
#    z 0.012900 -0.001720 3.551390 
# 
# 
# High freq. dielectric constant tensor:
#      x y z
#    x 1.848220 0.000850 -0.010580 
#    y 0.000850 1.828810 -0.012560 
#    z -0.010580 -0.012560 1.804520 
# 
# From -- ./inp_files/314815.got.cif
#   From: 2010.06.25/outbox.cif.g09.slc.cpg/sg2_158_cif.got.tgz:314815.got - 2010.06.27 13:26:56.
