data_PCOD8001016
_publ_section_title
;
Structure prediction by ZEFSAII (Michael W. Deem and Ramdas Pophale) SiO2 
 PCOD8001016
Probable space group: P -1
;
_chemical_formula_sum "Si O2"
_cell_formula_units_Z 14
_cell_length_a 8.483335
_cell_length_b 13.690382
_cell_length_c 7.896396
_cell_angle_alpha 43.613763
_cell_angle_beta 70.125903
_cell_angle_gamma 79.669995
_cell_volume 591.761255
_symmetry_space_group_name_H-M "P -1"
_symmetry_group_IT_number 2
_symmetry_cell_setting 'triclinic'
loop_
_space_group_symop_operation_xyz
x,y,z
-x,-y,-z
loop_
_atom_site_type_symbol
_atom_site_label
_atom_site_fract_x
_atom_site_fract_y
_atom_site_fract_z
Si Si1 0.016627 0.320969 0.392503
Si Si2 0.183218 0.460063 0.456413
Si Si3 0.587976 0.226163 0.400438
Si Si4 0.868116 0.043733 0.631207
Si Si5 0.761130 0.494553 0.155421
Si Si6 0.353099 0.215054 0.826343
Si Si7 0.477387 0.686474 0.041476
O O1 0.959587 0.155068 0.593030
O O2 0.849785 0.407464 0.382489
O O3 0.163617 0.350987 0.439341
O O4 0.097292 0.382447 0.110392
O O5 0.265586 0.363645 0.687334
O O6 0.289374 0.610815 0.198045
O O7 0.000000 0.500000 0.500000
O O8 0.714150 0.104416 0.512112
O O9 0.701061 0.377811 0.180833
O O10 0.452647 0.202087 0.631433
O O11 0.490446 0.224243 0.257287
O O12 0.000000 0.000000 0.500000
O O13 0.795316 0.911376 0.939075
O O14 0.594208 0.560291 0.187193
O O15 0.486214 0.209875 0.940183
#
# Coordination Sequence:
#
# PCOD8001016 Si02
#       7
#     2   2   2   2   2   2   2
#     4  10  22  41  70 100 144 185 233 293 357 418
#     4  12  26  41  71 113 143 181 239 305 365 423
#     4  11  24  45  75 103 138 190 243 294 357 422
#     4  11  27  48  69 102 149 197 239 290 360 431
#     4  10  19  40  70 105 134 179 232 297 355 414
#     4  12  27  46  73 107 148 190 241 291 353 442
#     4  12  24  44  74 107 146 179 240 301 367 420
#
# _framework density 23.658192
#
# number of rings (size 3 to 8) (size 9 to 14) (size 15 to 20)
#    0.000    0.857    2.857    3.857    6.000    1.143 
#    0.000    1.429    0.000    0.000    0.000    0.000 
#    0.000    0.000    0.000    0.000    0.000    0.000 
#
# Total GULP energy -173543.609824 kJ/mol
# GULP energy per Si atom -12395.972130 kJ/mol
# Density = 2.360434 g / cm^3
# Si number density = 23.658192 Si / 1000 Ang^3
#
#
#
# Elastic Constant Matrix: (Units=GPa)
#
#
# Indices 1 2 3 4 5 6 
#
# 1 109.8585 47.4579 46.1619 18.6319 -6.9115 -1.9019
# 2 47.4579 65.0838 57.0565 8.1837 -2.3824 -7.2295
# 3 46.1619 57.0565 138.9239 8.3504 -20.7218 8.2721
# 4 18.6319 8.1837 8.3504 34.7481 8.0700 2.5672
# 5 -6.9115 -2.3824 -20.7218 8.0700 46.8024 2.4224
# 6 -1.9019 -7.2295 8.2721 2.5672 2.4224 59.9240
#
#
#
# Elastic Compliance Matrix: (Units=1/GPa)
#
#
# Indices 1 2 3 4 5 6 
#
# 1 0.014523 -0.009790 0.000000 -0.006072 0.002723 -0.000570
# 2 -0.009790 0.032730 -0.011363 0.001101 -0.005278 0.005373
# 3 0.000000 -0.011363 0.012989 -0.001501 0.005603 -0.003326
# 4 -0.006072 0.001101 -0.001501 0.033906 -0.007299 -0.001010
# 5 0.002723 -0.005278 0.005603 -0.007299 0.025345 -0.002036
# 6 -0.000570 0.005373 -0.003326 -0.001010 -0.002036 0.017903
#
#
# Mechanical properties :
#
#
# Convention : Reuss Voigt Hill
#
# Bulk Modulus (GPa) = 55.75198 68.35764 62.05481
# Shear Modulus (GPa) = 26.92815 39.17422 33.05119
#
# Velocity S-wave (km/s) = 3.37741 4.07362 3.74174
# Velocity P-wave (km/s) = 6.23105 7.14720 6.70479
#
# Compressibility (1/GPa) = 0.01793658
#
# Stress axis : x y z
#
# Youngs Moduli (GPa) = 68.85595 30.55291 76.98906
#
# Poissons Ratio (x) = 0.29912 -0.00002
# Poissons Ratio (y) = 0.67412 0.87480
# Poissons Ratio (z) = -0.00002 0.34716
#
# Static dielectric constant tensor:
#      x y z
#    x 5.073220 0.464090 0.071920 
#    y 0.464090 4.408510 0.030760 
#    z 0.071920 0.030760 4.148990 
# 
# 
# High freq. dielectric constant tensor:
#      x y z
#    x 1.955080 0.004430 -0.003980 
#    y 0.004430 1.930170 0.003770 
#    z -0.003980 0.003770 1.925380 
# 
# From -- ./inp_files/198966.got.cif
#   From: 2010.06.25/outbox.cif.g09.slc.cpg/sg2_100_cif.got.tgz:198966.got - 2010.06.27 13:26:56.
