data_PCOD8001405
_publ_section_title
;
Structure prediction by ZEFSAII (Michael W. Deem and Ramdas Pophale) SiO2 
 PCOD8001405
Probable space group: P -1
;
_chemical_formula_sum "Si O2"
_cell_formula_units_Z 16
_cell_length_a 4.979111
_cell_length_b 11.055029
_cell_length_c 18.582661
_cell_angle_alpha 60.518281
_cell_angle_beta 103.377869
_cell_angle_gamma 77.626024
_cell_volume 798.581683
_symmetry_space_group_name_H-M "P -1"
_symmetry_group_IT_number 2
_symmetry_cell_setting 'triclinic'
loop_
_space_group_symop_operation_xyz
x,y,z
-x,-y,-z
loop_
_atom_site_type_symbol
_atom_site_label
_atom_site_fract_x
_atom_site_fract_y
_atom_site_fract_z
Si Si1 0.329117 0.919050 0.110751
Si Si2 0.306589 0.710829 0.447132
Si Si3 0.970270 0.575631 0.562967
Si Si4 0.538074 0.302109 0.699110
Si Si5 0.159441 0.188658 0.935683
Si Si6 0.800255 0.995333 0.555023
Si Si7 0.308583 0.519166 0.219329
Si Si8 0.033999 0.669547 0.693875
O O1 0.447115 0.853045 0.216547
O O2 0.567290 0.814158 0.097024
O O3 0.010181 0.905441 0.086338
O O4 0.286850 0.094724 0.045682
O O5 0.632178 0.586214 0.527747
O O6 0.280318 0.736949 0.352494
O O7 0.259722 0.868341 0.434359
O O8 0.061269 0.647404 0.477098
O O9 0.187936 0.401726 0.636372
O O10 0.004357 0.669071 0.605885
O O11 0.686425 0.391207 0.733375
O O12 0.928420 0.360884 0.884898
O O13 0.500000 0.000000 0.500000
O O14 0.000000 0.000000 0.500000
O O15 0.958731 0.843488 0.657242
O O16 0.635957 0.441999 0.226759
O O17 0.206794 0.383440 0.269228
#
# Coordination Sequence:
#
# PCOD8001405 Si02
#       8
#     2   2   2   2   2   2   2   2
#     4   9  18  30  48  72 103 134 159 197 241 311
#     4  12  23  36  51  72  98 143 170 210 252 294
#     4  11  21  34  50  73 102 132 171 206 253 297
#     4  10  22  34  51  77 108 132 168 203 254 307
#     4   9  16  31  49  73 102 132 160 192 253 298
#     4  12  22  39  54  69  98 133 182 220 246 287
#     4  10  20  32  52  78 102 128 159 211 249 309
#     4  11  20  34  53  73  97 132 173 210 254 277
#
# _framework density 20.035520999999999
#
# number of rings (size 3 to 8) (size 9 to 14) (size 15 to 20)
#    0.000    1.500    2.500    5.250    0.000    5.000 
#    0.000    0.000    0.000    0.000    0.000    1.750 
#    0.000    0.000    0.000    0.750    0.000    0.000 
#
# Total GULP energy -198351.683039 kJ/mol
# GULP energy per Si atom -12396.980190 kJ/mol
# Density = 1.998992 g / cm^3
# Si number density = 20.035521 Si / 1000 Ang^3
#
#
#
# Elastic Constant Matrix: (Units=GPa)
#
#
# Indices 1 2 3 4 5 6 
#
# 1 93.5050 4.4680 15.6371 -4.2395 0.7514 -2.5850
# 2 4.4680 37.3666 27.6425 -10.5254 5.5123 -2.9173
# 3 15.6371 27.6425 114.2246 -27.3641 -10.8185 3.0838
# 4 -4.2395 -10.5254 -27.3641 27.0444 -5.7477 -1.7103
# 5 0.7514 5.5123 -10.8185 -5.7477 27.2476 -4.8740
# 6 -2.5850 -2.9173 3.0838 -1.7103 -4.8740 15.2061
#
#
#
# Elastic Compliance Matrix: (Units=1/GPa)
#
#
# Indices 1 2 3 4 5 6 
#
# 1 0.011027 0.000176 -0.001624 0.000161 -0.000580 0.002070
# 2 0.000176 0.036183 -0.008959 0.003528 -0.009011 0.006297
# 3 -0.001624 -0.008959 0.015668 0.014481 0.011138 0.000026
# 4 0.000161 0.003528 0.014481 0.057735 0.019066 0.010372
# 5 -0.000580 -0.009011 0.011138 0.019066 0.049473 0.013916
# 6 0.002070 0.006297 0.000026 0.010372 0.013916 0.072945
#
#
# Mechanical properties :
#
#
# Convention : Reuss Voigt Hill
#
# Bulk Modulus (GPa) = 23.77350 37.84350 30.80850
# Shear Modulus (GPa) = 17.99425 27.05618 22.52521
#
# Velocity S-wave (km/s) = 3.00011 3.67878 3.35664
# Velocity P-wave (km/s) = 4.88798 6.08061 5.51662
#
# Compressibility (1/GPa) = 0.04206363
#
# Stress axis : x y z
#
# Youngs Moduli (GPa) = 90.68609 27.63736 63.82283
#
# Poissons Ratio (x) = -0.00486 0.10367
# Poissons Ratio (y) = -0.01593 0.57177
# Poissons Ratio (z) = 0.14731 0.24759
#
# Static dielectric constant tensor:
#      x y z
#    x 3.721210 -0.147250 0.014680 
#    y -0.147250 3.474250 -0.388760 
#    z 0.014680 -0.388760 3.985360 
# 
# 
# High freq. dielectric constant tensor:
#      x y z
#    x 1.804080 -0.009230 -0.004670 
#    y -0.009230 1.731900 -0.042260 
#    z -0.004670 -0.042260 1.774100 
# 
# From -- ./inp_files/120785.got.cif
#   From: 2010.06.25/outbox.cif.g09.slc.cpg/sg2_61_cif.got.tgz:120785.got - 2010.06.27 13:26:56.
