data_PCOD8001383
_publ_section_title
;
Structure prediction by ZEFSAII (Michael W. Deem and Ramdas Pophale) SiO2 
 PCOD8001383
Probable space group: P -1
;
_chemical_formula_sum "Si O2"
_cell_formula_units_Z 16
_cell_length_a 10.787316
_cell_length_b 18.146412
_cell_length_c 25.367279
_cell_angle_alpha 23.099863
_cell_angle_beta 30.984700
_cell_angle_gamma 28.984111
_cell_volume 907.060491
_symmetry_space_group_name_H-M "P -1"
_symmetry_group_IT_number 2
_symmetry_cell_setting 'triclinic'
loop_
_space_group_symop_operation_xyz
x,y,z
-x,-y,-z
loop_
_atom_site_type_symbol
_atom_site_label
_atom_site_fract_x
_atom_site_fract_y
_atom_site_fract_z
Si Si1 0.631142 0.274174 0.950161
Si Si2 0.933394 0.834104 0.603367
Si Si3 0.235755 0.516924 0.613865
Si Si4 0.581954 0.997606 0.388300
Si Si5 0.704395 0.664031 0.645813
Si Si6 0.159615 0.123321 0.925944
Si Si7 0.166313 0.812797 0.900355
Si Si8 0.695633 0.614810 0.906296
O O1 0.616688 0.477827 0.791062
O O2 0.893425 0.197724 0.940173
O O3 0.374566 0.319846 0.050269
O O4 0.633027 0.101509 0.022102
O O5 0.894299 0.698276 0.753720
O O6 0.162197 0.681352 0.580794
O O7 0.670072 0.964570 0.580488
O O8 0.000000 0.000000 0.500000
O O9 0.500000 0.500000 0.500000
O O10 0.283754 0.290406 0.767409
O O11 0.001246 0.588378 0.609519
O O12 0.690565 0.771573 0.523731
O O13 0.506264 0.176663 0.341858
O O14 0.816480 0.006413 0.260765
O O15 0.095221 0.093043 0.029902
O O16 0.426494 0.703293 0.913007
O O17 0.155086 0.634247 0.984899
#
# Coordination Sequence:
#
# PCOD8001383 Si02
#       8
#     2   2   2   2   2   2   2   2
#     4   9  16  27  47  73  95 120 159 206 242 276
#     4  10  20  32  50  76 100 127 164 202 241 288
#     4  10  20  33  50  72 102 134 159 195 246 295
#     4   9  17  31  54  75  98 128 160 204 246 284
#     4   9  17  32  52  76  99 126 164 200 242 293
#     4   9  17  28  45  70  98 124 158 201 242 282
#     4   9  14  27  47  70  92 121 161 203 242 273
#     4   9  15  26  47  70  93 119 162 208 235 271
#
# _framework density 17.639398
#
# number of rings (size 3 to 8) (size 9 to 14) (size 15 to 20)
#    0.000    2.750    2.500    0.000    1.750    0.000 
#    2.250    0.625    0.000    3.000    0.000    0.000 
#    0.000    0.000    0.000    0.000    0.000    0.000 
#
# Total GULP energy -198314.818761 kJ/mol
# GULP energy per Si atom -12394.676173 kJ/mol
# Density = 1.759925 g / cm^3
# Si number density = 17.639398 Si / 1000 Ang^3
#
#
#
# Elastic Constant Matrix: (Units=GPa)
#
#
# Indices 1 2 3 4 5 6 
#
# 1 38.9417 34.3420 51.6386 -2.7512 9.0644 16.9359
# 2 34.3420 121.8346 80.7744 10.5141 3.6750 34.8091
# 3 51.6386 80.7744 156.3948 5.8676 16.1218 24.6624
# 4 -2.7512 10.5141 5.8676 36.8347 6.6649 -0.1617
# 5 9.0644 3.6750 16.1218 6.6649 30.3317 -1.8673
# 6 16.9359 34.8091 24.6624 -0.1617 -1.8673 23.5757
#
#
#
# Elastic Compliance Matrix: (Units=1/GPa)
#
#
# Indices 1 2 3 4 5 6 
#
# 1 0.062720 0.001089 -0.015029 0.009325 -0.014910 -0.032059
# 2 0.001089 0.018797 -0.006533 -0.004430 0.000508 -0.021691
# 3 -0.015029 -0.006533 0.014054 -0.001186 -0.001581 0.005607
# 4 0.009325 -0.004430 -0.001186 0.030812 -0.008351 0.000633
# 5 -0.014910 0.000508 -0.001581 -0.008351 0.040950 0.014801
# 6 -0.032059 -0.021691 0.005607 0.000633 0.014801 0.092784
#
#
# Mechanical properties :
#
#
# Convention : Reuss Voigt Hill
#
# Bulk Modulus (GPa) = 18.30676 72.29792 45.30234
# Shear Modulus (GPa) = 15.66077 28.17617 21.91847
#
# Velocity S-wave (km/s) = 2.98288 4.00101 3.52886
# Velocity P-wave (km/s) = 4.71850 7.90062 6.50707
#
# Compressibility (1/GPa) = 0.05462463
#
# Stress axis : x y z
#
# Youngs Moduli (GPa) = 15.94398 53.20131 71.15484
#
# Poissons Ratio (x) = -0.05796 1.06938
# Poissons Ratio (y) = -0.01737 0.46488
# Poissons Ratio (z) = 0.23962 0.34758
#
# Static dielectric constant tensor:
#      x y z
#    x 2.925710 0.307030 0.170700 
#    y 0.307030 3.339120 0.020620 
#    z 0.170700 0.020620 3.473620 
# 
# 
# High freq. dielectric constant tensor:
#      x y z
#    x 1.631830 0.027980 0.009930 
#    y 0.027980 1.672960 0.002550 
#    z 0.009930 0.002550 1.695860 
# 
# From -- ./inp_files/249494.got.cif
#   From: 2010.06.25/outbox.cif.g09.slc.cpg/sg2_125_cif.got.tgz:249494.got - 2010.06.27 13:26:56.
