data_PCOD8001251
_publ_section_title
;
Structure prediction by ZEFSAII (Michael W. Deem and Ramdas Pophale) SiO2 
 PCOD8001251
Probable space group: P -1
;
_chemical_formula_sum "Si O2"
_cell_formula_units_Z 16
_cell_length_a 14.639355
_cell_length_b 8.680430
_cell_length_c 9.339345
_cell_angle_alpha 102.160184
_cell_angle_beta 37.976172
_cell_angle_gamma 91.255278
_cell_volume 693.097746
_symmetry_space_group_name_H-M "P -1"
_symmetry_group_IT_number 2
_symmetry_cell_setting 'triclinic'
loop_
_space_group_symop_operation_xyz
x,y,z
-x,-y,-z
loop_
_atom_site_type_symbol
_atom_site_label
_atom_site_fract_x
_atom_site_fract_y
_atom_site_fract_z
Si Si1 0.653349 0.187634 0.607563
Si Si2 0.213248 0.737205 0.820878
Si Si3 0.268923 0.626425 0.179850
Si Si4 0.228739 0.375208 0.802343
Si Si5 0.465018 0.654160 0.680466
Si Si6 0.949593 0.832767 0.519789
Si Si7 0.889226 0.854634 0.277620
Si Si8 0.300294 0.277638 0.024153
O O1 0.704524 0.293436 0.440047
O O2 0.695454 0.262866 0.716274
O O3 0.754917 0.005980 0.430680
O O4 0.476626 0.180651 0.809956
O O5 0.178026 0.569586 0.890151
O O6 0.329637 0.790455 0.800293
O O7 0.059713 0.882116 0.044025
O O8 0.274335 0.442287 0.183751
O O9 0.101842 0.693780 0.332771
O O10 0.410749 0.611707 0.893516
O O11 0.376131 0.292832 0.503096
O O12 0.103455 0.295346 0.869860
O O13 0.262001 0.324126 0.915682
O O14 0.500000 0.500000 0.500000
O O15 0.878599 0.809293 0.448305
O O16 0.815704 0.827211 0.797761
O O17 0.000000 0.000000 0.500000
#
# Coordination Sequence:
#
# PCOD8001251 Si02
#       8
#     2   2   2   2   2   2   2   2
#     4  12  28  44  71 112 146 188 234 291 363 421
#     4  11  22  46  74 101 148 184 239 291 351 421
#     4  12  24  47  76 106 144 186 238 297 352 424
#     4  11  24  45  74 109 137 186 241 293 351 421
#     4  10  19  42  73  99 141 177 230 288 352 405
#     4  12  28  49  70 103 146 191 233 295 365 418
#     4  12  27  45  68 104 145 194 236 286 355 426
#     4  12  26  47  73 107 141 186 243 296 352 423
#
# _framework density 23.084768
#
# number of rings (size 3 to 8) (size 9 to 14) (size 15 to 20)
#    0.000    0.500    6.250    2.250    5.250    3.000 
#    0.000    0.000    0.000    0.000    0.000    0.000 
#    0.000    0.000    0.000    0.000    0.000    0.000 
#
# Total GULP energy -198318.328553 kJ/mol
# GULP energy per Si atom -12394.895535 kJ/mol
# Density = 2.303223 g / cm^3
# Si number density = 23.084768 Si / 1000 Ang^3
#
#
#
# Elastic Constant Matrix: (Units=GPa)
#
#
# Indices 1 2 3 4 5 6 
#
# 1 85.0744 24.0160 16.6772 -1.2863 -1.3720 -8.6321
# 2 24.0160 74.3710 42.4653 -2.5451 -11.4767 -6.2490
# 3 16.6772 42.4653 128.0163 -11.1946 -21.5735 -2.5987
# 4 -1.2863 -2.5451 -11.1946 37.9356 -9.0764 -4.9904
# 5 -1.3720 -11.4767 -21.5735 -9.0764 47.6305 9.8821
# 6 -8.6321 -6.2490 -2.5987 -4.9904 9.8821 24.5520
#
#
#
# Elastic Compliance Matrix: (Units=1/GPa)
#
#
# Indices 1 2 3 4 5 6 
#
# 1 0.013386 -0.003839 -0.000655 0.000170 -0.001713 0.004384
# 2 -0.003839 0.018059 -0.005180 0.000190 0.001487 0.002139
# 3 -0.000655 -0.005180 0.010679 0.003679 0.004586 -0.001516
# 4 0.000170 0.000190 0.003679 0.029539 0.006544 0.003868
# 5 -0.001713 0.001487 0.004586 0.006544 0.026512 -0.009079
# 6 0.004384 0.002139 -0.001516 0.003868 -0.009079 0.047096
#
#
# Mechanical properties :
#
#
# Convention : Reuss Voigt Hill
#
# Bulk Modulus (GPa) = 43.90520 50.41985 47.16253
# Shear Modulus (GPa) = 29.03428 35.64383 32.33905
#
# Velocity S-wave (km/s) = 3.55029 3.93369 3.74690
# Velocity P-wave (km/s) = 5.98886 6.52077 6.26047
#
# Compressibility (1/GPa) = 0.02277634
#
# Stress axis : x y z
#
# Youngs Moduli (GPa) = 74.70312 55.37407 93.64327
#
# Poissons Ratio (x) = 0.21257 0.06138
# Poissons Ratio (y) = 0.28676 0.48505
# Poissons Ratio (z) = 0.04896 0.28682
#
# Static dielectric constant tensor:
#      x y z
#    x 4.598340 -0.168250 -0.490310 
#    y -0.168250 3.955340 -0.020330 
#    z -0.490310 -0.020330 4.646390 
# 
# 
# High freq. dielectric constant tensor:
#      x y z
#    x 1.925140 -0.015430 -0.011970 
#    y -0.015430 1.890640 0.003950 
#    z -0.011970 0.003950 1.928430 
# 
# From -- ./inp_files/298478.got.cif
#   From: 2010.06.25/outbox.cif.g09.slc.cpg/sg2_150_cif.got.tgz:298478.got - 2010.06.27 13:26:56.
