data_PCOD8001303
_publ_section_title
;
Structure prediction by ZEFSAII (Michael W. Deem and Ramdas Pophale) SiO2 
 PCOD8001303
Probable space group: P -1
;
_chemical_formula_sum "Si O2"
_cell_formula_units_Z 14
_cell_length_a 6.310586
_cell_length_b 21.972454
_cell_length_c 13.508968
_cell_angle_alpha 27.548027
_cell_angle_beta 52.944192
_cell_angle_gamma 46.962246
_cell_volume 633.174006
_symmetry_space_group_name_H-M "P -1"
_symmetry_group_IT_number 2
_symmetry_cell_setting 'triclinic'
loop_
_space_group_symop_operation_xyz
x,y,z
-x,-y,-z
loop_
_atom_site_type_symbol
_atom_site_label
_atom_site_fract_x
_atom_site_fract_y
_atom_site_fract_z
Si Si1 0.845284 0.285289 0.986834
Si Si2 0.774105 0.573951 0.648979
Si Si3 0.150359 0.792193 0.489765
Si Si4 0.039568 0.195011 0.682338
Si Si5 0.770202 0.381962 0.651752
Si Si6 0.651805 0.001684 0.748334
Si Si7 0.477647 0.120349 0.410575
O O1 0.643500 0.214965 0.190650
O O2 0.858232 0.404832 0.888883
O O3 0.700234 0.362398 0.813048
O O4 0.172225 0.169411 0.043874
O O5 0.426983 0.644968 0.639313
O O6 0.878130 0.665184 0.567077
O O7 0.944509 0.579745 0.490488
O O8 0.160090 0.924662 0.356912
O O9 0.140925 0.828813 0.322765
O O10 0.858369 0.774264 0.629630
O O11 0.337576 0.052508 0.816383
O O12 0.854415 0.230027 0.786043
O O13 0.500000 0.500000 0.500000
O O14 0.622845 0.042535 0.582791
O O15 0.500000 0.000000 0.500000
#
# Coordination Sequence:
#
# PCOD8001303 Si02
#       7
#     2   2   2   2   2   2   2
#     4  12  23  39  69  99 127 177 211 262 331 374
#     4   9  22  41  64  92 129 165 215 264 316 379
#     4  10  19  45  66  87 136 171 207 272 318 369
#     4   8  20  40  64  89 130 171 205 270 315 369
#     4  10  22  42  66  97 132 165 215 269 320 381
#     4  10  22  42  65  93 130 169 216 264 315 378
#     4  11  24  41  66  98 133 166 214 270 317 381
#
# _framework density 22.110824000000001
#
# number of rings (size 3 to 8) (size 9 to 14) (size 15 to 20)
#    0.857    1.143    1.429    1.714    0.000    2.286 
#    0.000    7.143    0.000    0.000    0.000    0.000 
#    0.000    0.000    0.000    0.000    0.000    0.000 
#
# Total GULP energy -173439.180051 kJ/mol
# GULP energy per Si atom -12388.512861 kJ/mol
# Density = 2.206050 g / cm^3
# Si number density = 22.110824 Si / 1000 Ang^3
#
#
#
# Elastic Constant Matrix: (Units=GPa)
#
#
# Indices 1 2 3 4 5 6 
#
# 1 75.7616 34.7089 19.3663 -13.3519 18.9278 10.2438
# 2 34.7089 97.3366 24.4236 -25.3901 12.1238 -9.1707
# 3 19.3663 24.4236 70.0050 -19.0433 13.7990 -1.3287
# 4 -13.3519 -25.3901 -19.0433 46.6660 1.6943 3.1487
# 5 18.9278 12.1238 13.7990 1.6943 24.5092 -5.0602
# 6 10.2438 -9.1707 -1.3287 3.1487 -5.0602 41.9799
#
#
#
# Elastic Compliance Matrix: (Units=1/GPa)
#
#
# Indices 1 2 3 4 5 6 
#
# 1 0.021677 -0.005388 0.000155 0.004517 -0.016285 -0.008763
# 2 -0.005388 0.014640 -0.001702 0.005533 -0.001713 0.003838
# 3 0.000155 -0.001702 0.018928 0.007347 -0.010786 -0.001662
# 4 0.004517 0.005533 0.007347 0.029438 -0.013108 -0.003449
# 5 -0.016285 -0.001713 -0.010786 -0.013108 0.063663 0.011915
# 6 -0.008763 0.003838 -0.001662 -0.003449 0.011915 0.028440
#
#
# Mechanical properties :
#
#
# Convention : Reuss Voigt Hill
#
# Bulk Modulus (GPa) = 24.16797 44.45565 34.31181
# Shear Modulus (GPa) = 24.45604 33.60462 29.03033
#
# Velocity S-wave (km/s) = 3.32937 3.90273 3.62739
# Velocity P-wave (km/s) = 5.07284 6.36065 5.75289
#
# Compressibility (1/GPa) = 0.04137708
#
# Stress axis : x y z
#
# Youngs Moduli (GPa) = 46.13101 68.30612 52.83044
#
# Poissons Ratio (x) = 0.36803 -0.00820
# Poissons Ratio (y) = 0.24855 0.08990
# Poissons Ratio (z) = -0.00716 0.11623
#
# Static dielectric constant tensor:
#      x y z
#    x 4.044160 0.002190 -0.017000 
#    y 0.002190 4.342770 -0.186650 
#    z -0.017000 -0.186650 3.538710 
# 
# 
# High freq. dielectric constant tensor:
#      x y z
#    x 1.874500 -0.001920 -0.001530 
#    y -0.001920 1.896010 -0.016380 
#    z -0.001530 -0.016380 1.822250 
# 
# From -- ./inp_files/370252.got.cif
#   From: 2010.06.25/outbox.cif.g09.slc.cpg/sg2_186_cif.got.tgz:370252.got - 2010.06.27 13:26:56.
