data_PCOD8001484
_publ_section_title
;
Structure prediction by ZEFSAII (Michael W. Deem and Ramdas Pophale) SiO2 
 PCOD8001484
Probable space group: P -1
;
_chemical_formula_sum "Si O2"
_cell_formula_units_Z 16
_cell_length_a 20.382802
_cell_length_b 9.549444
_cell_length_c 11.348982
_cell_angle_alpha 113.499286
_cell_angle_beta 32.466995
_cell_angle_gamma 91.486864
_cell_volume 843.955132
_symmetry_space_group_name_H-M "P -1"
_symmetry_group_IT_number 2
_symmetry_cell_setting 'triclinic'
loop_
_space_group_symop_operation_xyz
x,y,z
-x,-y,-z
loop_
_atom_site_type_symbol
_atom_site_label
_atom_site_fract_x
_atom_site_fract_y
_atom_site_fract_z
Si Si1 0.830895 0.131101 0.358405
Si Si2 0.616129 0.395662 0.561491
Si Si3 0.354193 0.723530 0.766324
Si Si4 0.869087 0.343100 0.826197
Si Si5 0.209673 0.018017 0.263712
Si Si6 0.752437 0.313762 0.772167
Si Si7 0.809813 0.519064 0.210637
Si Si8 0.167690 0.179702 0.615926
O O1 0.698428 0.274685 0.513287
O O2 0.827222 0.264198 0.511493
O O3 0.786786 0.001243 0.434452
O O4 0.000000 0.000000 0.000000
O O5 0.643111 0.246484 0.367521
O O6 0.679984 0.507592 0.456384
O O7 0.433154 0.558941 0.919008
O O8 0.500000 0.500000 0.500000
O O9 0.191562 0.767760 0.061692
O O10 0.350548 0.879710 0.906845
O O11 0.797993 0.419773 0.826303
O O12 0.057166 0.195142 0.482914
O O13 0.809169 0.520490 0.068367
O O14 0.250353 0.106936 0.336143
O O15 0.170858 0.893431 0.351118
O O16 0.767107 0.721870 0.385875
O O17 0.979152 0.331359 0.938606
#
# Coordination Sequence:
#
# PCOD8001484 Si02
#       8
#     2   2   2   2   2   2   2   2
#     4  11  22  34  52  76 103 140 176 213 258 307
#     4  11  20  32  52  82 104 136 168 215 265 311
#     4  10  16  27  48  77 105 125 162 218 257 294
#     4   9  17  29  51  77  99 133 173 219 254 300
#     4   9  17  29  49  75 104 131 173 213 259 295
#     4  10  19  32  49  74 111 133 167 217 262 304
#     4   9  18  32  58  78 103 135 177 211 263 306
#     4   9  18  36  52  77 107 139 171 219 250 308
#
# _framework density 18.958354
#
# number of rings (size 3 to 8) (size 9 to 14) (size 15 to 20)
#    0.000    2.250    3.750    1.875    3.500    0.000 
#    0.000    2.500    0.000    3.000    0.000    0.000 
#    0.000    0.000    0.000    0.000    0.000    0.000 
#
# Total GULP energy -198217.810409 kJ/mol
# GULP energy per Si atom -12388.613151 kJ/mol
# Density = 1.891520 g / cm^3
# Si number density = 18.958354 Si / 1000 Ang^3
#
#
#
# Elastic Constant Matrix: (Units=GPa)
#
#
# Indices 1 2 3 4 5 6 
#
# 1 191.9957 47.4859 71.5567 10.8434 32.4819 -6.5260
# 2 47.4859 42.7513 23.7431 6.5818 5.2972 0.0710
# 3 71.5567 23.7431 106.2981 4.1771 20.1655 1.4643
# 4 10.8434 6.5818 4.1771 14.6481 -2.0251 5.4755
# 5 32.4819 5.2972 20.1655 -2.0251 38.9124 5.6207
# 6 -6.5260 0.0710 1.4643 5.4755 5.6207 27.4348
#
#
#
# Elastic Compliance Matrix: (Units=1/GPa)
#
#
# Indices 1 2 3 4 5 6 
#
# 1 0.010009 -0.007367 -0.003705 -0.005839 -0.006471 0.005089
# 2 -0.007367 0.034129 -0.002813 -0.008526 0.002593 -0.000520
# 3 -0.003705 -0.002813 0.013141 0.000177 -0.003186 -0.000958
# 4 -0.005839 -0.008526 0.000177 0.086221 0.013514 -0.021353
# 5 -0.006471 0.002593 -0.003186 0.013514 0.034718 -0.011186
# 6 0.005089 -0.000520 -0.000958 -0.021353 -0.011186 0.044266
#
#
# Mechanical properties :
#
#
# Convention : Reuss Voigt Hill
#
# Bulk Modulus (GPa) = 33.89046 69.62407 51.75726
# Shear Modulus (GPa) = 19.22395 29.41637 24.32016
#
# Velocity S-wave (km/s) = 3.18781 3.94335 3.58553
# Velocity P-wave (km/s) = 5.60933 7.58537 6.67092
#
# Compressibility (1/GPa) = 0.02950683
#
# Stress axis : x y z
#
# Youngs Moduli (GPa) = 99.90956 29.30048 76.09817
#
# Poissons Ratio (x) = 0.21587 0.28196
# Poissons Ratio (y) = 0.73608 0.21410
# Poissons Ratio (z) = 0.37019 0.08244
#
# Static dielectric constant tensor:
#      x y z
#    x 4.292570 0.043600 0.432570 
#    y 0.043600 2.936690 0.185620 
#    z 0.432570 0.185620 3.558380 
# 
# 
# High freq. dielectric constant tensor:
#      x y z
#    x 1.767350 -0.006670 0.018420 
#    y -0.006670 1.652270 0.018330 
#    z 0.018420 0.018330 1.742920 
# 
# From -- ./inp_files/189229.got.cif
#   From: 2010.06.25/outbox.cif.g09.slc.cpg/sg2_95_cif.got.tgz:189229.got - 2010.06.27 13:26:56.
