data_PCOD8001327
_publ_section_title
;
Structure prediction by ZEFSAII (Michael W. Deem and Ramdas Pophale) SiO2 
 PCOD8001327
Probable space group: P -1
;
_chemical_formula_sum "Si O2"
_cell_formula_units_Z 12
_cell_length_a 9.379276
_cell_length_b 9.825803
_cell_length_c 17.138455
_cell_angle_alpha 36.896203
_cell_angle_beta 130.241455
_cell_angle_gamma 135.911511
_cell_volume 650.004137
_symmetry_space_group_name_H-M "P -1"
_symmetry_group_IT_number 2
_symmetry_cell_setting 'triclinic'
loop_
_space_group_symop_operation_xyz
x,y,z
-x,-y,-z
loop_
_atom_site_type_symbol
_atom_site_label
_atom_site_fract_x
_atom_site_fract_y
_atom_site_fract_z
Si Si1 0.120866 0.909864 0.354374
Si Si2 0.086995 0.720062 0.695592
Si Si3 0.652663 0.726334 0.504334
Si Si4 0.461288 0.364859 0.322255
Si Si5 0.895064 0.507559 0.347613
Si Si6 0.057429 0.369457 0.150394
O O1 0.062741 0.711736 0.496031
O O2 0.080318 0.775007 0.317401
O O3 0.365317 0.100052 0.361164
O O4 0.987772 0.070994 0.245396
O O5 0.117324 0.528883 0.733040
O O6 0.869986 0.719029 0.597885
O O7 0.066758 0.610103 0.826370
O O8 0.285861 0.994944 0.636747
O O9 0.500000 0.500000 0.500000
O O10 0.530733 0.695379 0.556306
O O11 0.690954 0.528492 0.297273
O O12 0.309410 0.502681 0.192099
O O13 0.000000 0.500000 0.000000
#
# Coordination Sequence:
#
# PCOD8001327 Si02
#       6
#     2   2   2   2   2   2
#     4   9  20  32  57  77 113 141 167 216 280 319
#     4  10  20  34  51  81 108 138 179 227 257 315
#     4  10  20  30  53  81 113 137 174 216 276 323
#     4   9  20  33  54  80 110 141 169 219 272 325
#     4  11  19  32  56  87 109 132 170 226 289 313
#     4   9  20  41  56  68 108 156 185 215 254 310
#
# _framework density 18.461421000000001
#
# number of rings (size 3 to 8) (size 9 to 14) (size 15 to 20)
#    1.000    1.333    1.667    1.500    7.000    0.000 
#    0.000    2.500    0.000    0.000    0.000    0.000 
#    0.000    0.000    0.000    0.000    0.000    0.000 
#
# Total GULP energy -148660.703575 kJ/mol
# GULP energy per Si atom -12388.391965 kJ/mol
# Density = 1.841940 g / cm^3
# Si number density = 18.461421 Si / 1000 Ang^3
#
#
#
# Elastic Constant Matrix: (Units=GPa)
#
#
# Indices 1 2 3 4 5 6 
#
# 1 87.4766 19.1492 37.6105 12.1069 -16.0186 -14.6544
# 2 19.1492 115.8685 22.4740 19.2166 -8.2564 -11.2509
# 3 37.6105 22.4740 102.2013 18.2503 -10.4347 -10.4122
# 4 12.1069 19.2166 18.2503 12.3077 -9.9773 -3.8984
# 5 -16.0186 -8.2564 -10.4347 -9.9773 20.4381 5.9315
# 6 -14.6544 -11.2509 -10.4122 -3.8984 5.9315 24.3642
#
#
#
# Elastic Compliance Matrix: (Units=1/GPa)
#
#
# Indices 1 2 3 4 5 6 
#
# 1 0.015862 -0.000784 -0.004395 0.000949 0.008793 0.005311
# 2 -0.000784 0.012860 0.002047 -0.028879 -0.009654 0.004071
# 3 -0.004395 0.002047 0.015329 -0.028413 -0.009416 0.002599
# 4 0.000949 -0.028879 -0.028413 0.241877 0.095384 -0.009427
# 5 0.008793 -0.009654 -0.009416 0.095384 0.097029 -0.011553
# 6 0.005311 0.004071 0.002599 -0.009427 -0.011553 0.048533
#
#
# Mechanical properties :
#
#
# Convention : Reuss Voigt Hill
#
# Bulk Modulus (GPa) = 26.46512 51.55709 39.01110
# Shear Modulus (GPa) = 11.10248 26.50950 18.80599
#
# Velocity S-wave (km/s) = 2.45498 3.79349 3.19511
# Velocity P-wave (km/s) = 4.73312 6.86841 5.89819
#
# Compressibility (1/GPa) = 0.03778558
#
# Stress axis : x y z
#
# Youngs Moduli (GPa) = 63.04554 77.76016 65.23506
#
# Poissons Ratio (x) = 0.06096 0.28673
# Poissons Ratio (y) = 0.04943 -0.13352
# Poissons Ratio (z) = 0.27711 -0.15916
#
# Static dielectric constant tensor:
#      x y z
#    x 3.372320 -0.150060 -0.141480 
#    y -0.150060 3.552010 0.179630 
#    z -0.141480 0.179630 2.945040 
# 
# 
# High freq. dielectric constant tensor:
#      x y z
#    x 1.712300 -0.008120 -0.006000 
#    y -0.008120 1.722490 0.016140 
#    z -0.006000 0.016140 1.660120 
# 
# From -- ./inp_files/252812.got.cif
#   From: 2010.06.25/outbox.cif.g09.slc.cpg/sg2_127_cif.got.tgz:252812.got - 2010.06.27 13:26:56.
