data_PCOD8001216
_publ_section_title
;
Structure prediction by ZEFSAII (Michael W. Deem and Ramdas Pophale) SiO2 
 PCOD8001216
Probable space group: P -1
;
_chemical_formula_sum "Si O2"
_cell_formula_units_Z 16
_cell_length_a 11.254455
_cell_length_b 20.361752
_cell_length_c 8.166301
_cell_angle_alpha 54.305444
_cell_angle_beta 42.459659
_cell_angle_gamma 31.969966
_cell_volume 664.176702
_symmetry_space_group_name_H-M "P -1"
_symmetry_group_IT_number 2
_symmetry_cell_setting 'triclinic'
loop_
_space_group_symop_operation_xyz
x,y,z
-x,-y,-z
loop_
_atom_site_type_symbol
_atom_site_label
_atom_site_fract_x
_atom_site_fract_y
_atom_site_fract_z
Si Si1 0.826008 0.818480 0.005990
Si Si2 0.454759 0.809278 0.323788
Si Si3 0.360424 0.346297 0.931806
Si Si4 0.622396 0.332397 0.226863
Si Si5 0.835598 0.806648 0.635950
Si Si6 0.250766 0.989316 0.014635
Si Si7 0.825739 0.463762 0.385136
Si Si8 0.158975 0.809919 0.096939
O O1 0.632991 0.808451 0.255824
O O2 0.730126 0.925979 0.059486
O O3 0.815193 0.844726 0.787513
O O4 0.140495 0.691387 0.914865
O O5 0.666774 0.703884 0.123349
O O6 0.333301 0.775664 0.593790
O O7 0.216733 0.940074 0.275054
O O8 0.357880 0.437910 0.723284
O O9 0.639480 0.226312 0.917086
O O10 0.093340 0.425865 0.197025
O O11 0.340198 0.471037 0.369911
O O12 0.650379 0.315609 0.026322
O O13 0.085078 0.657743 0.569472
O O14 0.904274 0.855830 0.374396
O O15 0.539304 0.872869 0.795761
O O16 0.992148 0.069577 0.038342
#
# Coordination Sequence:
#
# PCOD8001216 Si02
#       8
#     2   2   2   2   2   2   2   2
#     4  10  21  40  67  93 122 166 220 258 307 375
#     4  10  19  42  67  93 125 171 218 255 317 370
#     4  10  21  41  64  96 123 161 219 267 309 378
#     4  10  24  42  62  99 132 166 212 265 314 383
#     4  11  20  41  66  94 124 168 213 260 320 375
#     4  10  22  42  67  95 129 166 212 266 317 380
#     4  10  21  41  68  89 123 168 219 259 307 382
#     4  11  25  40  59  96 136 164 207 264 324 378
#
# _framework density 24.089974999999999
#
# number of rings (size 3 to 8) (size 9 to 14) (size 15 to 20)
#    0.000    1.750    2.500    3.375    0.000    5.500 
#    4.500    5.000    0.000    0.000    0.000    0.000 
#    0.000    0.000    0.000    0.000    0.000    0.000 
#
# Total GULP energy -198261.789583 kJ/mol
# GULP energy per Si atom -12391.361849 kJ/mol
# Density = 2.403515 g / cm^3
# Si number density = 24.089975 Si / 1000 Ang^3
#
#
#
# Elastic Constant Matrix: (Units=GPa)
#
#
# Indices 1 2 3 4 5 6 
#
# 1 80.1791 11.4030 15.1095 -4.9888 -10.3897 -13.4754
# 2 11.4030 80.0418 -13.3729 -2.4195 -6.6947 -13.2523
# 3 15.1095 -13.3729 56.9609 4.2615 -0.3272 -13.4930
# 4 -4.9888 -2.4195 4.2615 29.2769 10.8307 -2.7189
# 5 -10.3897 -6.6947 -0.3272 10.8307 22.2020 7.1118
# 6 -13.4754 -13.2523 -13.4930 -2.7189 7.1118 20.8973
#
#
#
# Elastic Compliance Matrix: (Units=1/GPa)
#
#
# Indices 1 2 3 4 5 6 
#
# 1 0.014792 -0.001270 -0.002968 0.002052 0.003620 0.005852
# 2 -0.001270 0.016424 0.007653 0.001950 -0.001367 0.015257
# 3 -0.002968 0.007653 0.025079 0.000580 -0.005777 0.021174
# 4 0.002052 0.001950 0.000580 0.046147 -0.026732 0.018035
# 5 0.003620 -0.001367 -0.005777 -0.026732 0.068595 -0.029085
# 6 0.005852 0.015257 0.021174 0.018035 -0.029085 0.087218
#
#
# Mechanical properties :
#
#
# Convention : Reuss Voigt Hill
#
# Bulk Modulus (GPa) = 15.84162 27.05122 21.44642
# Shear Modulus (GPa) = 18.35084 28.07806 23.21445
#
# Velocity S-wave (km/s) = 2.76300 3.41772 3.10765
# Velocity P-wave (km/s) = 4.09502 5.17958 4.66890
#
# Compressibility (1/GPa) = 0.06312487
#
# Stress axis : x y z
#
# Youngs Moduli (GPa) = 67.60268 60.88811 39.87378
#
# Poissons Ratio (x) = 0.07730 0.11836
# Poissons Ratio (y) = 0.08583 -0.30515
# Poissons Ratio (z) = 0.20067 -0.46597
#
# Static dielectric constant tensor:
#      x y z
#    x 4.077040 -0.102130 0.009120 
#    y -0.102130 4.493450 0.093340 
#    z 0.009120 0.093340 4.327150 
# 
# 
# High freq. dielectric constant tensor:
#      x y z
#    x 1.927330 0.002000 -0.002170 
#    y 0.002000 1.960710 0.015880 
#    z -0.002170 0.015880 1.953620 
# 
# From -- ./inp_files/282835.got.cif
#   From: 2010.06.25/outbox.cif.g09.slc.cpg/sg2_142_cif.got.tgz:282835.got - 2010.06.27 13:26:56.
