data_PCOD8001932
_publ_section_title
;
Structure prediction by ZEFSAII (Michael W. Deem and Ramdas Pophale) SiO2 
 PCOD8001932
Probable space group: P -1
;
_chemical_formula_sum "Si O2"
_cell_formula_units_Z 12
_cell_length_a 7.853144
_cell_length_b 15.015856
_cell_length_c 8.233038
_cell_angle_alpha 50.688052
_cell_angle_beta 107.906706
_cell_angle_gamma 77.870750
_cell_volume 596.959685
_symmetry_space_group_name_H-M "P -1"
_symmetry_group_IT_number 2
_symmetry_cell_setting 'triclinic'
loop_
_space_group_symop_operation_xyz
x,y,z
-x,-y,-z
loop_
_atom_site_type_symbol
_atom_site_label
_atom_site_fract_x
_atom_site_fract_y
_atom_site_fract_z
Si Si1 0.941629 0.347764 0.251895
Si Si2 0.500728 0.901431 0.837144
Si Si3 0.356817 0.902557 0.428255
Si Si4 0.851819 0.625704 0.427822
Si Si5 0.692157 0.622714 0.713559
Si Si6 0.963537 0.943804 0.393980
O O1 0.990712 0.342591 0.465319
O O2 0.131147 0.345762 0.208251
O O3 0.934057 0.217495 0.355453
O O4 0.722212 0.489995 0.968951
O O5 0.440187 0.884851 0.657454
O O6 0.596384 0.995941 0.768594
O O7 0.291384 0.972807 0.812392
O O8 0.679958 0.752539 0.123809
O O9 0.463709 0.756416 0.537550
O O10 0.102274 0.962134 0.277118
O O11 0.722544 0.594402 0.559874
O O12 0.000000 0.500000 0.500000
O O13 0.000000 0.000000 0.500000
#
# Coordination Sequence:
#
# PCOD8001932 Si02
#       6
#     2   2   2   2   2   2
#     4   9  19  36  59  83 115 143 193 230 276 337
#     4  10  20  36  57  84 116 145 193 230 277 339
#     4  10  20  35  60  83 110 156 185 229 284 329
#     4  10  20  34  60  85 110 151 189 234 285 330
#     4   9  19  35  59  84 109 147 192 228 278 336
#     4  10  21  36  58  87 114 148 190 232 276 337
#
# _framework density 20.101861
#
# number of rings (size 3 to 8) (size 9 to 14) (size 15 to 20)
#    1.000    1.333    1.667    1.000    0.000    3.333 
#    0.000    3.333    0.000    6.000    0.000    0.000 
#    0.000    0.000    0.000    0.000    0.000    0.000 
#
# Total GULP energy -148674.035381 kJ/mol
# GULP energy per Si atom -12389.502948 kJ/mol
# Density = 2.005611 g / cm^3
# Si number density = 20.101861 Si / 1000 Ang^3
#
#
#
# Elastic Constant Matrix: (Units=GPa)
#
#
# Indices 1 2 3 4 5 6 
#
# 1 136.8271 47.4455 50.5369 -22.6105 9.9687 -16.5590
# 2 47.4455 110.0809 39.1347 -27.8159 2.3054 -10.0388
# 3 50.5369 39.1347 122.4615 -23.3717 10.8141 -3.1712
# 4 -22.6105 -27.8159 -23.3717 32.5708 -6.9541 0.5998
# 5 9.9687 2.3054 10.8141 -6.9541 10.0011 -13.1287
# 6 -16.5590 -10.0388 -3.1712 0.5998 -13.1287 33.0883
#
#
#
# Elastic Compliance Matrix: (Units=1/GPa)
#
#
# Indices 1 2 3 4 5 6 
#
# 1 0.010132 -0.001851 -0.003015 0.003991 0.003772 0.005644
# 2 -0.001851 0.017204 -0.004340 0.019024 0.042655 0.020457
# 3 -0.003015 -0.004340 0.012432 -0.002580 -0.027789 -0.012613
# 4 0.003991 0.019024 -0.002580 0.069766 0.106756 0.048615
# 5 0.003772 0.042655 -0.027789 0.106756 0.425985 0.179252
# 6 0.005644 0.020457 -0.012613 0.048615 0.179252 0.108286
#
#
# Mechanical properties :
#
#
# Convention : Reuss Voigt Hill
#
# Bulk Modulus (GPa) = 46.82616 71.51150 59.16883
# Shear Modulus (GPa) = 7.47009 30.61553 19.04281
#
# Velocity S-wave (km/s) = 1.92982 3.90682 3.08119
# Velocity P-wave (km/s) = 5.32077 7.48350 6.49282
#
# Compressibility (1/GPa) = 0.02135559
#
# Stress axis : x y z
#
# Youngs Moduli (GPa) = 98.70190 58.12503 80.43757
#
# Poissons Ratio (x) = 0.10758 0.24251
# Poissons Ratio (y) = 0.18268 0.34913
# Poissons Ratio (z) = 0.29757 0.25229
#
# Static dielectric constant tensor:
#      x y z
#    x 4.022090 -0.212260 0.110290 
#    y -0.212260 3.486090 -0.173570 
#    z 0.110290 -0.173570 3.461010 
# 
# 
# High freq. dielectric constant tensor:
#      x y z
#    x 1.771520 -0.015170 0.001480 
#    y -0.015170 1.777020 -0.019310 
#    z 0.001480 -0.019310 1.771630 
# 
# From -- ./inp_files/199712.got.cif
#   From: 2010.06.25/outbox.cif.g09.slc.cpg/sg2_100_cif.got.tgz:199712.got - 2010.06.27 13:26:56.
