data_PCOD8001548
_publ_section_title
;
Structure prediction by ZEFSAII (Michael W. Deem and Ramdas Pophale) SiO2 
 PCOD8001548
Probable space group: P -1
;
_chemical_formula_sum "Si O2"
_cell_formula_units_Z 16
_cell_length_a 22.364058
_cell_length_b 16.350621
_cell_length_c 12.753554
_cell_angle_alpha 132.442537
_cell_angle_beta 151.785965
_cell_angle_gamma 26.377634
_cell_volume 820.926123
_symmetry_space_group_name_H-M "P -1"
_symmetry_group_IT_number 2
_symmetry_cell_setting 'triclinic'
loop_
_space_group_symop_operation_xyz
x,y,z
-x,-y,-z
loop_
_atom_site_type_symbol
_atom_site_label
_atom_site_fract_x
_atom_site_fract_y
_atom_site_fract_z
Si Si1 0.704079 0.100819 0.655405
Si Si2 0.133155 0.491107 0.074542
Si Si3 0.858369 0.328618 0.922857
Si Si4 0.673142 0.271348 0.177083
Si Si5 0.706389 0.208087 0.529540
Si Si6 0.829962 0.994295 0.333156
Si Si7 0.449394 0.665946 0.177618
Si Si8 0.986898 0.364119 0.758409
O O1 0.431082 0.252180 0.351066
O O2 0.765015 0.124008 0.665526
O O3 0.702213 0.184483 0.824506
O O4 0.926620 0.844553 0.804360
O O5 0.063451 0.632496 0.000761
O O6 0.980065 0.645703 0.074273
O O7 0.035820 0.444574 0.846681
O O8 0.825964 0.239539 0.728932
O O9 0.588264 0.563599 0.757514
O O10 0.453606 0.528641 0.067468
O O11 0.924891 0.152344 0.479455
O O12 0.615135 0.225338 0.139064
O O13 0.691907 0.194972 0.027800
O O14 0.832627 0.025407 0.486636
O O15 0.810910 0.876289 0.185232
O O16 0.710880 0.530688 0.452447
#
# Coordination Sequence:
#
# PCOD8001548 Si02
#       8
#     2   2   2   2   2   2   2   2
#     4  10  20  36  57  80 109 145 182 226 267 314
#     4   9  20  38  57  80 112 139 186 224 267 321
#     4  10  21  35  57  80 108 147 183 224 268 316
#     4   9  19  31  52  83 111 139 172 218 287 327
#     4  10  22  35  54  85 109 143 182 225 268 323
#     4  10  20  33  55  78 112 146 172 219 279 328
#     4   9  18  33  53  82 112 136 175 230 268 326
#     4   9  19  37  55  79 110 145 173 228 272 318
#
# _framework density 19.490182000000001
#
# number of rings (size 3 to 8) (size 9 to 14) (size 15 to 20)
#    0.000    2.500    0.000    1.125   12.250    0.000 
#    6.750    4.375    0.000    1.500    0.000    0.000 
#    0.000    0.000    0.000    0.000    0.000    0.000 
#
# Total GULP energy -198278.615488 kJ/mol
# GULP energy per Si atom -12392.413468 kJ/mol
# Density = 1.944582 g / cm^3
# Si number density = 19.490182 Si / 1000 Ang^3
#
#
#
# Elastic Constant Matrix: (Units=GPa)
#
#
# Indices 1 2 3 4 5 6 
#
# 1 109.6658 55.4456 32.7241 11.7257 -9.7883 20.0728
# 2 55.4456 99.9398 38.2835 13.9941 1.3701 14.9747
# 3 32.7241 38.2835 51.1139 2.5368 -8.5831 15.0509
# 4 11.7257 13.9941 2.5368 39.6205 5.1625 -1.4197
# 5 -9.7883 1.3701 -8.5831 5.1625 29.1335 0.7073
# 6 20.0728 14.9747 15.0509 -1.4197 0.7073 32.5547
#
#
#
# Elastic Compliance Matrix: (Units=1/GPa)
#
#
# Indices 1 2 3 4 5 6 
#
# 1 0.014641 -0.006152 -0.002140 -0.002899 0.005224 -0.005448
# 2 -0.006152 0.017800 -0.010237 -0.003099 -0.005379 0.000320
# 3 -0.002140 -0.010237 0.032952 0.000552 0.009600 -0.009390
# 4 -0.002899 -0.003099 0.000552 0.028059 -0.005742 0.004306
# 5 0.005224 -0.005379 0.009600 -0.005742 0.040332 -0.006312
# 6 -0.005448 0.000320 -0.009390 0.004306 -0.006312 0.038596
#
#
# Mechanical properties :
#
#
# Convention : Reuss Voigt Hill
#
# Bulk Modulus (GPa) = 35.29354 57.06954 46.18154
# Shear Modulus (GPa) = 22.84316 29.21282 26.02799
#
# Velocity S-wave (km/s) = 3.42721 3.87570 3.65833
# Velocity P-wave (km/s) = 5.81453 7.02658 6.44909
#
# Compressibility (1/GPa) = 0.02833379
#
# Stress axis : x y z
#
# Youngs Moduli (GPa) = 68.30045 56.17853 30.34754
#
# Poissons Ratio (x) = 0.34563 0.06495
# Poissons Ratio (y) = 0.42020 0.31067
# Poissons Ratio (z) = 0.14619 0.57510
#
# Static dielectric constant tensor:
#      x y z
#    x 3.434440 0.104200 -0.063720 
#    y 0.104200 3.801590 -0.110300 
#    z -0.063720 -0.110300 3.431890 
# 
# 
# High freq. dielectric constant tensor:
#      x y z
#    x 1.747520 0.003330 -0.010480 
#    y 0.003330 1.755250 -0.009090 
#    z -0.010480 -0.009090 1.738780 
# 
# From -- ./inp_files/436604.got.cif
#   From: 2010.06.25/outbox.cif.g09.slc.cpg/sg2_219_cif.got.tgz:436604.got - 2010.06.27 13:26:56.
