data_PCOD8001342
_publ_section_title
;
Structure prediction by ZEFSAII (Michael W. Deem and Ramdas Pophale) SiO2 
 PCOD8001342
Probable space group: P -1
;
_chemical_formula_sum "Si O2"
_cell_formula_units_Z 14
_cell_length_a 5.055159
_cell_length_b 28.881950
_cell_length_c 9.841093
_cell_angle_alpha 147.933011
_cell_angle_beta 107.162465
_cell_angle_gamma 91.357467
_cell_volume 613.616672
_symmetry_space_group_name_H-M "P -1"
_symmetry_group_IT_number 2
_symmetry_cell_setting 'triclinic'
loop_
_space_group_symop_operation_xyz
x,y,z
-x,-y,-z
loop_
_atom_site_type_symbol
_atom_site_label
_atom_site_fract_x
_atom_site_fract_y
_atom_site_fract_z
Si Si1 0.938044 0.854984 0.866431
Si Si2 0.489417 0.537630 0.238355
Si Si3 0.458022 0.910743 0.866652
Si Si4 0.024349 0.498492 0.289570
Si Si5 0.047700 0.234973 0.079914
Si Si6 0.507457 0.727002 0.991537
Si Si7 0.396873 0.727944 0.276826
O O1 0.812412 0.933323 0.025166
O O2 0.008216 0.846239 0.013218
O O3 0.663860 0.745224 0.477139
O O4 0.278057 0.905137 0.963820
O O5 0.721264 0.512730 0.298509
O O6 0.637403 0.658874 0.555267
O O7 0.124121 0.484199 0.115654
O O8 0.500000 0.500000 0.000000
O O9 0.265669 0.802223 0.482278
O O10 0.500000 0.000000 0.000000
O O11 0.347412 0.601668 0.655239
O O12 0.912669 0.390539 0.079332
O O13 0.152709 0.213010 0.894400
O O14 0.732467 0.242990 0.039194
O O15 0.582785 0.765753 0.254150
#
# Coordination Sequence:
#
# PCOD8001342 Si02
#       7
#     2   2   2   2   2   2   2
#     4  10  22  38  65  87 113 148 197 238 285 348
#     4  10  20  31  50  76 120 153 193 233 270 326
#     4  10  23  40  64  90 111 141 192 252 296 334
#     4  10  21  33  50  82 116 157 192 228 272 329
#     4  10  21  37  56  84 120 159 187 231 288 337
#     4  10  22  37  55  85 127 159 186 230 281 337
#     4  10  24  35  65  84 116 153 202 235 281 340
#
# _framework density 22.815550000000002
#
# number of rings (size 3 to 8) (size 9 to 14) (size 15 to 20)
#    0.857    1.143    0.000    3.000    6.000    1.143 
#    0.000    4.286    0.000    5.143    0.000    0.000 
#    0.000    0.000    0.000    0.000    0.000    0.000 
#
# Total GULP energy -173452.582978 kJ/mol
# GULP energy per Si atom -12389.470213 kJ/mol
# Density = 2.276362 g / cm^3
# Si number density = 22.815550 Si / 1000 Ang^3
#
#
#
# Elastic Constant Matrix: (Units=GPa)
#
#
# Indices 1 2 3 4 5 6 
#
# 1 112.3850 32.4178 13.3677 8.3378 -29.7105 24.7306
# 2 32.4178 122.6235 22.5547 5.9263 -21.1293 22.4259
# 3 13.3677 22.5547 18.4131 14.4881 -13.1719 -6.9017
# 4 8.3378 5.9263 14.4881 33.4148 -5.7490 -7.7575
# 5 -29.7105 -21.1293 -13.1719 -5.7490 22.5379 -1.7511
# 6 24.7306 22.4259 -6.9017 -7.7575 -1.7511 40.0608
#
#
#
# Elastic Compliance Matrix: (Units=1/GPa)
#
#
# Indices 1 2 3 4 5 6 
#
# 1 0.016956 0.001419 0.000432 -0.003368 0.022231 -0.010867
# 2 0.001419 0.015613 -0.032218 0.007382 -0.001511 -0.013803
# 3 0.000432 -0.032218 0.229497 -0.067000 0.091155 0.048317
# 4 -0.003368 0.007382 -0.067000 0.053501 -0.023360 -0.004257
# 5 0.022231 -0.001511 0.091155 -0.023360 0.119850 0.003541
# 6 -0.010867 -0.013803 0.048317 -0.004257 0.003541 0.047052
#
#
# Mechanical properties :
#
#
# Convention : Reuss Voigt Hill
#
# Bulk Modulus (GPa) = 4.96693 43.34466 24.15580
# Shear Modulus (GPa) = 8.19251 31.54145 19.86698
#
# Velocity S-wave (km/s) = 1.89699 3.72217 2.95407
# Velocity P-wave (km/s) = 2.64193 6.12469 4.71655
#
# Compressibility (1/GPa) = 0.20133157
#
# Stress axis : x y z
#
# Youngs Moduli (GPa) = 58.97724 64.04804 4.35736
#
# Poissons Ratio (x) = -0.09088 -0.00188
# Poissons Ratio (y) = -0.08368 0.14039
# Poissons Ratio (z) = -0.02549 2.06351
#
# Static dielectric constant tensor:
#      x y z
#    x 6.199520 0.365890 -0.424890 
#    y 0.365890 3.985520 -0.049110 
#    z -0.424890 -0.049110 3.759200 
# 
# 
# High freq. dielectric constant tensor:
#      x y z
#    x 1.906400 0.014720 -0.021870 
#    y 0.014720 1.898220 -0.005060 
#    z -0.021870 -0.005060 1.859570 
# 
# From -- ./inp_files/79684.got.cif
#   From: 2010.06.25/outbox.cif.g09.slc.cpg/sg2_40_cif.got.tgz:79684.got - 2010.06.27 13:26:56.
