data_PCOD8001060
_publ_section_title
;
Structure prediction by ZEFSAII (Michael W. Deem and Ramdas Pophale) SiO2 
 PCOD8001060
Probable space group: P -1
;
_chemical_formula_sum "Si O2"
_cell_formula_units_Z 16
_cell_length_a 10.189668
_cell_length_b 15.422345
_cell_length_c 23.819598
_cell_angle_alpha 161.879044
_cell_angle_beta 45.335201
_cell_angle_gamma 135.296227
_cell_volume 812.493336
_symmetry_space_group_name_H-M "P -1"
_symmetry_group_IT_number 2
_symmetry_cell_setting 'triclinic'
loop_
_space_group_symop_operation_xyz
x,y,z
-x,-y,-z
loop_
_atom_site_type_symbol
_atom_site_label
_atom_site_fract_x
_atom_site_fract_y
_atom_site_fract_z
Si Si1 0.520534 0.869757 0.076090
Si Si2 0.469444 0.097078 0.432436
Si Si3 0.652971 0.074143 0.952434
Si Si4 0.433835 0.232498 0.702937
Si Si5 0.181221 0.296577 0.723661
Si Si6 0.237955 0.001624 0.332151
Si Si7 0.709895 0.448979 0.406287
Si Si8 0.193239 0.446194 0.431701
O O1 0.467142 0.977678 0.099263
O O2 0.341755 0.865797 0.167883
O O3 0.702655 0.112772 0.188393
O O4 0.566935 0.551021 0.860585
O O5 0.306428 0.136088 0.548209
O O6 0.370420 0.985671 0.335941
O O7 0.625513 0.371798 0.541463
O O8 0.579671 0.875673 0.294982
O O9 0.805254 0.874217 0.783005
O O10 0.776352 0.382827 0.112605
O O11 0.500000 0.000000 0.000000
O O12 0.235803 0.271306 0.757928
O O13 0.500000 0.000000 0.500000
O O14 0.962858 0.189190 0.712953
O O15 0.194257 0.317395 0.524861
O O16 0.500000 0.500000 0.500000
O O17 0.807358 0.509513 0.474158
O O18 0.000000 0.500000 0.500000
#
# Coordination Sequence:
#
# PCOD8001060 Si02
#       8
#     2   2   2   2   2   2   2   2
#     4  10  20  39  66  88 118 172 216 248 318 376
#     4  11  21  41  60  90 128 164 201 267 324 371
#     4  11  21  40  66  91 126 168 216 261 312 390
#     4   9  22  39  58  86 125 164 203 259 321 370
#     4  10  23  38  64  89 123 171 213 251 318 375
#     4  11  21  37  65  93 122 162 216 262 308 382
#     4  10  19  41  63  90 124 164 209 263 316 371
#     4  12  24  39  66  98 124 161 214 272 321 373
#
# _framework density 19.69247
#
# number of rings (size 3 to 8) (size 9 to 14) (size 15 to 20)
#    0.000    1.500    6.250    0.375    1.750    3.500 
#    2.250    0.000    0.000    3.750    0.000    0.000 
#    0.000    0.000    0.000    0.000    0.000    0.000 
#
# Total GULP energy -198229.536304 kJ/mol
# GULP energy per Si atom -12389.346019 kJ/mol
# Density = 1.964765 g / cm^3
# Si number density = 19.692470 Si / 1000 Ang^3
#
#
#
# Elastic Constant Matrix: (Units=GPa)
#
#
# Indices 1 2 3 4 5 6 
#
# 1 121.7836 53.1954 32.8731 4.5596 0.8973 -16.3344
# 2 53.1954 107.5210 33.9334 12.0925 6.0079 -4.5982
# 3 32.8731 33.9334 128.0821 18.9000 3.9977 -3.1507
# 4 4.5596 12.0925 18.9000 30.7755 -3.5681 4.0167
# 5 0.8973 6.0079 3.9977 -3.5681 27.0253 6.3539
# 6 -16.3344 -4.5982 -3.1507 4.0167 6.3539 36.7536
#
#
#
# Elastic Compliance Matrix: (Units=1/GPa)
#
#
# Indices 1 2 3 4 5 6 
#
# 1 0.011374 -0.005032 -0.001594 0.000734 0.000088 0.004193
# 2 -0.005032 0.012852 -0.001456 -0.003783 -0.003017 0.000181
# 3 -0.001594 -0.001456 0.009471 -0.005341 -0.001927 0.000838
# 4 0.000734 -0.003783 -0.005341 0.038924 0.008222 -0.006280
# 5 0.000088 -0.003017 -0.001927 0.008222 0.041038 -0.008497
# 6 0.004193 0.000181 0.000838 -0.006280 -0.008497 0.031322
#
#
# Mechanical properties :
#
#
# Convention : Reuss Voigt Hill
#
# Bulk Modulus (GPa) = 57.03933 66.37672 61.70802
# Shear Modulus (GPa) = 29.94191 34.73654 32.33922
#
# Velocity S-wave (km/s) = 3.90356 4.20450 4.05682
# Velocity P-wave (km/s) = 7.02460 7.57299 7.30394
#
# Compressibility (1/GPa) = 0.01753176
#
# Stress axis : x y z
#
# Youngs Moduli (GPa) = 87.92021 77.81100 105.58244
#
# Poissons Ratio (x) = 0.39157 0.16828
# Poissons Ratio (y) = 0.44244 0.15377
# Poissons Ratio (z) = 0.14013 0.11332
#
# Static dielectric constant tensor:
#      x y z
#    x 3.799280 -0.235080 0.152780 
#    y -0.235080 3.678020 0.559050 
#    z 0.152780 0.559050 4.227510 
# 
# 
# High freq. dielectric constant tensor:
#      x y z
#    x 1.768910 -0.022700 0.009890 
#    y -0.022700 1.755990 0.021900 
#    z 0.009890 0.021900 1.768880 
# 
# From -- ./inp_files/508750.got.cif
#   From: 2010.06.25/outbox.cif.g09.slc.cpg/sg2_255_cif.got.tgz:508750.got - 2010.06.27 13:26:56.
