data_PCOD8001748
_publ_section_title
;
Structure prediction by ZEFSAII (Michael W. Deem and Ramdas Pophale) SiO2 
 PCOD8001748
Probable space group: P -1
;
_chemical_formula_sum "Si O2"
_cell_formula_units_Z 16
_cell_length_a 11.783184
_cell_length_b 11.833940
_cell_length_c 15.690331
_cell_angle_alpha 145.763982
_cell_angle_beta 120.088477
_cell_angle_gamma 84.454684
_cell_volume 806.698945
_symmetry_space_group_name_H-M "P -1"
_symmetry_group_IT_number 2
_symmetry_cell_setting 'triclinic'
loop_
_space_group_symop_operation_xyz
x,y,z
-x,-y,-z
loop_
_atom_site_type_symbol
_atom_site_label
_atom_site_fract_x
_atom_site_fract_y
_atom_site_fract_z
Si Si1 0.999952 0.102803 0.696334
Si Si2 0.306460 0.863574 0.671332
Si Si3 0.693530 0.250749 0.058445
Si Si4 0.695326 0.657446 0.408466
Si Si5 0.202893 0.065397 0.037283
Si Si6 0.304564 0.266598 0.017683
Si Si7 0.999999 0.684639 0.338237
Si Si8 0.797049 0.659684 0.631506
O O1 0.172034 0.285890 0.933453
O O2 0.999987 0.291724 0.749457
O O3 0.827759 0.941670 0.589127
O O4 0.000059 0.900808 0.516118
O O5 0.293225 0.645186 0.582458
O O6 0.170662 0.731462 0.459624
O O7 0.264622 0.999901 0.806503
O O8 0.499973 0.080718 0.841806
O O9 0.735354 0.470745 0.277267
O O10 0.829271 0.390216 0.118289
O O11 0.706919 0.059082 0.996303
O O12 0.721393 0.695391 0.542960
O O13 0.499915 0.527534 0.230346
O O14 0.250397 0.250224 0.250320
O O15 0.278586 0.252477 0.100124
O O16 0.999972 0.829375 0.803107
#
# Coordination Sequence:
#
# PCOD8001748 Si02
#       8
#     2   2   2   2   2   2   2   2
#     4   9  18  33  53  78 108 139 172 215 260 301
#     4  10  20  34  55  81 107 138 174 212 259 313
#     4  10  20  34  55  81 107 138 174 212 259 313
#     4  10  20  34  55  81 107 138 174 212 259 313
#     4  11  22  35  54  79 107 140 175 214 263 315
#     4  10  20  34  55  81 107 138 174 212 259 313
#     4   9  18  33  53  78 108 139 172 215 260 301
#     4  11  22  35  54  79 107 140 175 214 263 315
#
# _framework density 19.833918000000001
#
# number of rings (size 3 to 8) (size 9 to 14) (size 15 to 20)
#    0.000    2.000    2.500    1.500    0.000    6.000 
#    0.000    5.000    0.000    3.000    0.000    3.500 
#    0.000    0.000    0.000    0.000    0.000    0.000 
#
# Total GULP energy -198442.043288 kJ/mol
# GULP energy per Si atom -12402.627705 kJ/mol
# Density = 1.978878 g / cm^3
# Si number density = 19.833918 Si / 1000 Ang^3
#
#
#
# Elastic Constant Matrix: (Units=GPa)
#
#
# Indices 1 2 3 4 5 6 
#
# 1 63.4803 32.5645 43.6514 -11.3107 23.3801 15.1032
# 2 32.5645 126.8657 44.4357 -23.6903 18.5165 28.7584
# 3 43.6514 44.4357 93.2248 -11.4174 30.3896 17.6911
# 4 -11.3107 -23.6903 -11.4174 19.1187 -1.8179 -1.4608
# 5 23.3801 18.5165 30.3896 -1.8179 29.9372 3.2646
# 6 15.1032 28.7584 17.6911 -1.4608 3.2646 18.9612
#
#
#
# Elastic Compliance Matrix: (Units=1/GPa)
#
#
# Indices 1 2 3 4 5 6 
#
# 1 0.033283 0.005738 -0.003755 0.020486 -0.021606 -0.026412
# 2 0.005738 0.019574 0.001099 0.024706 -0.012804 -0.031175
# 3 -0.003755 0.001099 0.021702 0.009271 -0.017558 -0.015187
# 4 0.020486 0.024706 0.009271 0.093937 -0.029521 -0.050118
# 5 -0.021606 -0.012804 -0.017558 -0.029521 0.070009 0.038684
# 6 -0.026412 -0.031175 -0.015187 -0.050118 0.038684 0.124709
#
#
# Mechanical properties :
#
#
# Convention : Reuss Voigt Hill
#
# Bulk Modulus (GPa) = 12.38801 58.31933 35.35367
# Shear Modulus (GPa) = 13.02222 24.46471 18.74347
#
# Velocity S-wave (km/s) = 2.56513 3.51590 3.07745
# Velocity P-wave (km/s) = 3.87719 6.77862 5.52188
#
# Compressibility (1/GPa) = 0.08072323
#
# Stress axis : x y z
#
# Youngs Moduli (GPa) = 30.04495 51.08927 46.07797
#
# Poissons Ratio (x) = -0.29316 0.17303
# Poissons Ratio (y) = -0.17240 -0.05064
# Poissons Ratio (z) = 0.11282 -0.05615
#
# Static dielectric constant tensor:
#      x y z
#    x 3.474660 0.126450 0.270910 
#    y 0.126450 3.628610 -0.090140 
#    z 0.270910 -0.090140 3.621940 
# 
# 
# High freq. dielectric constant tensor:
#      x y z
#    x 1.757100 0.010150 0.026410 
#    y 0.010150 1.761650 -0.006670 
#    z 0.026410 -0.006670 1.771230 
# 
# From -- ./inp_files/224368.got.cif
#   From: 2010.06.25/outbox.cif.g09.slc.cpg/sg2_113_cif.got.tgz:224368.got - 2010.06.27 13:26:56.
