data_PCOD8001166
_publ_section_title
;
Structure prediction by ZEFSAII (Michael W. Deem and Ramdas Pophale) SiO2 
 PCOD8001166
Probable space group: P -1
;
_chemical_formula_sum "Si O2"
_cell_formula_units_Z 16
_cell_length_a 18.860346
_cell_length_b 9.650142
_cell_length_c 18.737101
_cell_angle_alpha 149.268154
_cell_angle_beta 23.787396
_cell_angle_gamma 143.868560
_cell_volume 699.210630
_symmetry_space_group_name_H-M "P -1"
_symmetry_group_IT_number 2
_symmetry_cell_setting 'triclinic'
loop_
_space_group_symop_operation_xyz
x,y,z
-x,-y,-z
loop_
_atom_site_type_symbol
_atom_site_label
_atom_site_fract_x
_atom_site_fract_y
_atom_site_fract_z
Si Si1 0.209996 0.089832 0.039744
Si Si2 0.702732 0.491234 0.326251
Si Si3 0.134380 0.654429 0.748025
Si Si4 0.000828 0.718426 0.413574
Si Si5 0.236032 0.208334 0.829208
Si Si6 0.366661 0.489412 0.962788
Si Si7 0.191551 0.991639 0.627836
Si Si8 0.264148 0.401897 0.274951
O O1 0.251144 0.263125 0.149267
O O2 0.341381 0.214863 0.912493
O O3 0.008567 0.109446 0.208717
O O4 0.236783 0.773216 0.886600
O O5 0.500000 0.500000 0.500000
O O6 0.737783 0.478844 0.373346
O O7 0.809797 0.769514 0.323107
O O8 0.121751 0.503437 0.617212
O O9 0.205540 0.963921 0.805269
O O10 0.940922 0.646025 0.958423
O O11 0.906761 0.725430 0.580086
O O12 0.000000 0.000000 0.500000
O O13 0.203280 0.658272 0.208489
O O14 0.371601 0.421335 0.842738
O O15 0.304285 0.108504 0.645731
O O16 0.551939 0.664237 0.887321
O O17 0.273802 0.730659 0.404266
#
# Coordination Sequence:
#
# PCOD8001166 Si02
#       8
#     2   2   2   2   2   2   2   2
#     4  12  24  46  69 100 146 188 233 287 358 430
#     4  12  27  42  68 109 144 183 236 300 356 409
#     4  10  20  42  67  96 134 180 230 290 346 412
#     4  11  26  44  70 100 136 189 236 290 359 420
#     4  10  19  41  74  94 129 177 241 286 342 409
#     4  11  24  45  71 100 137 184 241 294 347 421
#     4  12  24  43  73 106 135 190 240 287 358 422
#     4  12  27  44  71 104 143 189 234 288 359 431
#
# _framework density 22.882947999999999
#
# number of rings (size 3 to 8) (size 9 to 14) (size 15 to 20)
#    0.000    0.750    5.000    2.625    1.750    4.000 
#    0.000    0.000    0.000    0.000    0.000    0.000 
#    0.000    0.000    0.000    0.000    0.000    0.000 
#
# Total GULP energy -198413.348500 kJ/mol
# GULP energy per Si atom -12400.834281 kJ/mol
# Density = 2.283086 g / cm^3
# Si number density = 22.882948 Si / 1000 Ang^3
#
#
#
# Elastic Constant Matrix: (Units=GPa)
#
#
# Indices 1 2 3 4 5 6 
#
# 1 139.0242 9.4625 41.8453 1.6550 -0.3404 12.7647
# 2 9.4625 52.4648 19.1108 7.5799 -14.6050 -1.6184
# 3 41.8453 19.1108 90.7869 7.9583 -9.3344 12.3666
# 4 1.6550 7.5799 7.9583 26.3369 4.3896 -8.1209
# 5 -0.3404 -14.6050 -9.3344 4.3896 35.2607 7.0782
# 6 12.7647 -1.6184 12.3666 -8.1209 7.0782 34.3044
#
#
#
# Elastic Compliance Matrix: (Units=1/GPa)
#
#
# Indices 1 2 3 4 5 6 
#
# 1 0.008482 -0.000521 -0.003707 0.000392 -0.000847 -0.001577
# 2 -0.000521 0.024337 -0.002768 -0.008519 0.010785 -0.001902
# 3 -0.003707 -0.002768 0.015343 -0.006577 0.005081 -0.006888
# 4 0.000392 -0.008519 -0.006577 0.050018 -0.014851 0.016728
# 5 -0.000847 0.010785 0.005081 -0.014851 0.038516 -0.012470
# 6 -0.001577 -0.001902 -0.006888 0.016728 -0.012470 0.038664
#
#
# Mechanical properties :
#
#
# Convention : Reuss Voigt Hill
#
# Bulk Modulus (GPa) = 29.26436 47.01259 38.13847
# Shear Modulus (GPa) = 24.90758 33.30421 29.10590
#
# Velocity S-wave (km/s) = 3.30279 3.81913 3.57031
# Velocity P-wave (km/s) = 5.23078 6.32749 5.80509
#
# Compressibility (1/GPa) = 0.03417125
#
# Stress axis : x y z
#
# Youngs Moduli (GPa) = 117.89453 41.08947 65.17566
#
# Poissons Ratio (x) = 0.02140 0.24158
# Poissons Ratio (y) = 0.06140 0.18042
# Poissons Ratio (z) = 0.43699 0.11374
#
# Static dielectric constant tensor:
#      x y z
#    x 4.397910 0.178280 0.125760 
#    y 0.178280 4.070320 0.293660 
#    z 0.125760 0.293660 4.417980 
# 
# 
# High freq. dielectric constant tensor:
#      x y z
#    x 1.916630 0.006120 0.000390 
#    y 0.006120 1.884130 0.006540 
#    z 0.000390 0.006540 1.900670 
# 
# From -- ./inp_files/575613.got.cif
#   From: 2010.06.25/outbox.cif.g09.slc.cpg/sg2_288_cif.got.tgz:575613.got - 2010.06.27 13:26:56.
