data_PCOD8001141
_publ_section_title
;
Structure prediction by ZEFSAII (Michael W. Deem and Ramdas Pophale) SiO2 
 PCOD8001141
Probable space group: P -1
;
_chemical_formula_sum "Si O2"
_cell_formula_units_Z 14
_cell_length_a 13.744533
_cell_length_b 14.963010
_cell_length_c 9.125276
_cell_angle_alpha 31.214460
_cell_angle_beta 137.627861
_cell_angle_gamma 136.944646
_cell_volume 628.661475
_symmetry_space_group_name_H-M "P -1"
_symmetry_group_IT_number 2
_symmetry_cell_setting 'triclinic'
loop_
_space_group_symop_operation_xyz
x,y,z
-x,-y,-z
loop_
_atom_site_type_symbol
_atom_site_label
_atom_site_fract_x
_atom_site_fract_y
_atom_site_fract_z
Si Si1 0.631107 0.824794 0.669519
Si Si2 0.104881 0.366705 0.297656
Si Si3 0.382528 0.349232 0.792361
Si Si4 0.866456 0.359224 0.465127
Si Si5 0.304465 0.406150 0.184780
Si Si6 0.611542 0.031096 0.721275
Si Si7 0.076616 0.886568 0.346604
O O1 0.689938 0.761134 0.674712
O O2 0.477302 0.878472 0.387291
O O3 0.749960 0.008968 0.592140
O O4 0.615308 0.680561 0.987030
O O5 0.242963 0.424426 0.487084
O O6 0.172716 0.348888 0.238374
O O7 0.005263 0.165195 0.515271
O O8 0.000000 0.500000 0.000000
O O9 0.532334 0.500780 0.695505
O O10 0.371022 0.165272 0.945447
O O11 0.781742 0.164953 0.715072
O O12 0.939213 0.309323 0.467776
O O13 0.000000 0.500000 0.500000
O O14 0.732634 0.446997 0.167512
O O15 0.500000 0.000000 0.500000
O O16 0.000000 0.000000 0.000000
#
# Coordination Sequence:
#
# PCOD8001141 Si02
#       7
#     2   2   2   2   2   2   2
#     4  11  22  40  75 100 132 181 241 281 337 415
#     4  12  27  43  68 101 144 184 226 293 361 404
#     4  11  22  45  73  95 135 193 236 272 351 428
#     4  12  23  37  67 108 139 175 238 292 337 410
#     4  12  25  42  64 107 142 177 231 294 343 419
#     4  10  19  41  69  99 131 183 236 279 339 411
#     4  12  22  44  68  95 136 189 230 279 350 418
#
# _framework density 22.269537
#
# number of rings (size 3 to 8) (size 9 to 14) (size 15 to 20)
#    0.000    0.571    8.571    1.714    0.000    0.571 
#    0.000    0.714    0.000    0.000    0.000    0.000 
#    0.000    0.000    0.000    0.000    0.000    0.000 
#
# Total GULP energy -173481.701506 kJ/mol
# GULP energy per Si atom -12391.550108 kJ/mol
# Density = 2.221885 g / cm^3
# Si number density = 22.269537 Si / 1000 Ang^3
#
#
#
# Elastic Constant Matrix: (Units=GPa)
#
#
# Indices 1 2 3 4 5 6 
#
# 1 154.8989 43.4472 47.6852 -6.5829 10.9719 -4.2957
# 2 43.4472 122.7197 30.0785 -7.2538 11.6612 6.4387
# 3 47.6852 30.0785 97.6638 2.3231 20.9456 2.0798
# 4 -6.5829 -7.2538 2.3231 27.2165 7.3058 8.6605
# 5 10.9719 11.6612 20.9456 7.3058 36.7404 -1.4032
# 6 -4.2957 6.4387 2.0798 8.6605 -1.4032 41.4201
#
#
#
# Elastic Compliance Matrix: (Units=1/GPa)
#
#
# Indices 1 2 3 4 5 6 
#
# 1 0.008164 -0.002017 -0.003398 0.001428 -0.000105 0.001029
# 2 -0.002017 0.009830 -0.001547 0.003731 -0.002474 -0.002524
# 3 -0.003398 -0.001547 0.013753 -0.000426 -0.006285 -0.000926
# 4 0.001428 0.003731 -0.000426 0.044123 -0.010523 -0.009993
# 5 -0.000105 -0.002474 -0.006285 -0.010523 0.033865 0.004037
# 6 0.001029 -0.002524 -0.000926 -0.009993 0.004037 0.026914
#
#
# Mechanical properties :
#
#
# Convention : Reuss Voigt Hill
#
# Bulk Modulus (GPa) = 56.11004 68.63379 62.37192
# Shear Modulus (GPa) = 31.94577 38.01351 34.97964
#
# Velocity S-wave (km/s) = 3.79160 4.13604 3.96756
# Velocity P-wave (km/s) = 6.66475 7.32772 7.00408
#
# Compressibility (1/GPa) = 0.01782212
#
# Stress axis : x y z
#
# Youngs Moduli (GPa) = 122.48173 101.72959 72.71248
#
# Poissons Ratio (x) = 0.20520 0.24711
# Poissons Ratio (y) = 0.24706 0.11248
# Poissons Ratio (z) = 0.41625 0.15737
#
# Static dielectric constant tensor:
#      x y z
#    x 4.539450 0.018200 0.308950 
#    y 0.018200 4.511130 -0.378140 
#    z 0.308950 -0.378140 4.193570 
# 
# 
# High freq. dielectric constant tensor:
#      x y z
#    x 1.893490 0.024320 0.024190 
#    y 0.024320 1.860370 -0.011760 
#    z 0.024190 -0.011760 1.860840 
# 
# From -- ./inp_files/299222.got.cif
#   From: 2010.06.25/outbox.cif.g09.slc.cpg/sg2_150_cif.got.tgz:299222.got - 2010.06.27 13:26:56.
