data_PCOD8001713
_publ_section_title
;
Structure prediction by ZEFSAII (Michael W. Deem and Ramdas Pophale) SiO2 
 PCOD8001713
Probable space group: P -1
;
_chemical_formula_sum "Si O2"
_cell_formula_units_Z 16
_cell_length_a 24.302292
_cell_length_b 12.893675
_cell_length_c 15.019880
_cell_angle_alpha 43.478608
_cell_angle_beta 29.062153
_cell_angle_gamma 23.165407
_cell_volume 821.048388
_symmetry_space_group_name_H-M "P -1"
_symmetry_group_IT_number 2
_symmetry_cell_setting 'triclinic'
loop_
_space_group_symop_operation_xyz
x,y,z
-x,-y,-z
loop_
_atom_site_type_symbol
_atom_site_label
_atom_site_fract_x
_atom_site_fract_y
_atom_site_fract_z
Si Si1 0.281270 0.442092 0.045568
Si Si2 0.183052 0.103101 0.943995
Si Si3 0.551011 0.607960 0.327756
Si Si4 0.977767 0.613079 0.821476
Si Si5 0.244801 0.159785 0.191760
Si Si6 0.125136 0.078972 0.555015
Si Si7 0.607484 0.713945 0.524691
Si Si8 0.791170 0.356051 0.316094
O O1 0.215867 0.361356 0.141327
O O2 0.092938 0.702683 0.217619
O O3 0.305374 0.542553 0.872086
O O4 0.504676 0.174838 0.950453
O O5 0.091948 0.326787 0.862650
O O6 0.440084 0.785106 0.761225
O O7 0.171706 0.171221 0.018781
O O8 0.046241 0.107285 0.117242
O O9 0.500000 0.500000 0.500000
O O10 0.684338 0.537229 0.262038
O O11 0.312287 0.949596 0.431412
O O12 0.163506 0.530858 0.594442
O O13 0.827884 0.768269 0.851582
O O14 0.089297 0.227693 0.428367
O O15 0.221695 0.809684 0.552238
O O16 0.654459 0.601402 0.429557
O O17 0.500000 0.000000 0.500000
#
# Coordination Sequence:
#
# PCOD8001713 Si02
#       8
#     2   2   2   2   2   2   2   2
#     4  10  21  37  56  80 109 147 187 223 266 318
#     4   9  18  33  54  82 107 132 174 224 275 327
#     4   9  20  35  54  84 115 140 177 224 271 329
#     4   9  18  34  55  80 107 135 176 227 271 317
#     4  10  21  37  56  79 109 145 188 228 261 315
#     4  10  22  37  53  78 113 147 184 223 265 322
#     4   9  19  34  54  81 108 134 171 220 273 324
#     4  10  20  34  54  80 110 141 173 221 274 322
#
# _framework density 19.487280999999999
#
# number of rings (size 3 to 8) (size 9 to 14) (size 15 to 20)
#    0.000    2.500    0.000    1.875    0.000    9.000 
#    0.000    2.500    0.000    4.500    0.000    0.000 
#    0.000    0.000    0.000    0.000    0.000    0.000 
#
# Total GULP energy -198262.979200 kJ/mol
# GULP energy per Si atom -12391.436200 kJ/mol
# Density = 1.944293 g / cm^3
# Si number density = 19.487281 Si / 1000 Ang^3
#
#
#
# Elastic Constant Matrix: (Units=GPa)
#
#
# Indices 1 2 3 4 5 6 
#
# 1 128.6105 44.2469 50.3058 -2.0295 7.2815 -16.9175
# 2 44.2469 53.5651 37.7337 -5.9387 11.4306 -3.7691
# 3 50.3058 37.7337 149.8144 3.9452 0.9559 -5.7458
# 4 -2.0295 -5.9387 3.9452 33.6587 -0.4898 3.4807
# 5 7.2815 11.4306 0.9559 -0.4898 24.7726 -3.3462
# 6 -16.9175 -3.7691 -5.7458 3.4807 -3.3462 25.5271
#
#
#
# Elastic Compliance Matrix: (Units=1/GPa)
#
#
# Indices 1 2 3 4 5 6 
#
# 1 0.012291 -0.009047 -0.001560 -0.001358 0.001520 0.006843
# 2 -0.009047 0.033208 -0.005597 0.006289 -0.012987 -0.004912
# 3 -0.001560 -0.005597 0.008676 -0.002135 0.002765 0.000746
# 4 -0.001358 0.006289 -0.002135 0.031476 -0.002483 -0.005069
# 5 0.001520 -0.012987 0.002765 -0.002483 0.046589 0.006158
# 6 0.006843 -0.004912 0.000746 -0.005069 0.006158 0.044650
#
#
# Mechanical properties :
#
#
# Convention : Reuss Voigt Hill
#
# Bulk Modulus (GPa) = 45.94348 66.28476 56.11412
# Shear Modulus (GPa) = 23.08898 30.10525 26.59712
#
# Velocity S-wave (km/s) = 3.44586 3.93474 3.69839
# Velocity P-wave (km/s) = 6.28166 7.39805 6.86259
#
# Compressibility (1/GPa) = 0.02176587
#
# Stress axis : x y z
#
# Youngs Moduli (GPa) = 81.36189 30.11318 115.26407
#
# Poissons Ratio (x) = 0.27244 0.17980
# Poissons Ratio (y) = 0.73609 0.64517
# Poissons Ratio (z) = 0.12692 0.16855
#
# Static dielectric constant tensor:
#      x y z
#    x 3.782370 -0.209990 -0.327190 
#    y -0.209990 3.292600 0.026360 
#    z -0.327190 0.026360 3.999200 
# 
# 
# High freq. dielectric constant tensor:
#      x y z
#    x 1.762130 -0.005540 -0.014530 
#    y -0.005540 1.721810 -0.000050 
#    z -0.014530 -0.000050 1.774870 
# 
# From -- ./inp_files/470970.got.cif
#   From: 2010.06.25/outbox.cif.g09.slc.cpg/sg2_236_cif.got.tgz:470970.got - 2010.06.27 13:26:56.
