data_PCOD8001335
_publ_section_title
;
Structure prediction by ZEFSAII (Michael W. Deem and Ramdas Pophale) SiO2 
 PCOD8001335
Probable space group: P -1
;
_chemical_formula_sum "Si O2"
_cell_formula_units_Z 16
_cell_length_a 5.094158
_cell_length_b 15.288248
_cell_length_c 12.259879
_cell_angle_alpha 59.330355
_cell_angle_beta 103.050675
_cell_angle_gamma 82.834351
_cell_volume 766.541888
_symmetry_space_group_name_H-M "P -1"
_symmetry_group_IT_number 2
_symmetry_cell_setting 'triclinic'
loop_
_space_group_symop_operation_xyz
x,y,z
-x,-y,-z
loop_
_atom_site_type_symbol
_atom_site_label
_atom_site_fract_x
_atom_site_fract_y
_atom_site_fract_z
Si Si1 0.458823 0.160354 0.556325
Si Si2 0.884927 0.410517 0.675771
Si Si3 0.130308 0.094307 0.935791
Si Si4 0.982923 0.725143 0.032626
Si Si5 0.912848 0.124690 0.438135
Si Si6 0.342224 0.801159 0.853799
Si Si7 0.668604 0.638294 0.427995
Si Si8 0.358823 0.007383 0.810628
O O1 0.734469 0.147183 0.518174
O O2 0.404149 0.263911 0.558970
O O3 0.189668 0.163482 0.454592
O O4 0.518867 0.055754 0.704362
O O5 0.842031 0.535560 0.577967
O O6 0.610836 0.378474 0.637124
O O7 0.957133 0.386825 0.827022
O O8 0.143035 0.343471 0.667448
O O9 0.953486 0.201614 0.908866
O O10 0.150553 0.104137 0.799084
O O11 0.434754 0.066951 0.036299
O O12 0.000000 0.000000 0.000000
O O13 0.676458 0.761900 0.926632
O O14 0.202205 0.724255 0.957152
O O15 0.729957 0.199985 0.279801
O O16 0.000000 0.000000 0.500000
O O17 0.207062 0.925376 0.795894
#
# Coordination Sequence:
#
# PCOD8001335 Si02
#       8
#     2   2   2   2   2   2   2   2
#     4  12  25  39  65  85 120 162 205 257 301 352
#     4  10  21  40  66  94 128 155 197 242 309 373
#     4  10  20  31  48  80 119 150 183 230 279 371
#     4  11  22  36  61  83 120 161 191 243 300 373
#     4  12  26  42  61  85 119 165 213 261 295 349
#     4  11  23  39  56  83 116 156 208 240 302 346
#     4  10  22  40  64  97 124 157 198 251 298 370
#     4  10  22  33  51  81 116 156 189 235 290 359
#
# _framework density 20.872962000000001
#
# number of rings (size 3 to 8) (size 9 to 14) (size 15 to 20)
#    0.000    1.250    2.500    3.375    7.000    0.000 
#    0.000    0.000    0.000    4.500    0.000    0.000 
#    0.000    0.000    0.000    0.000    0.000    0.000 
#
# Total GULP energy -198334.935596 kJ/mol
# GULP energy per Si atom -12395.933475 kJ/mol
# Density = 2.082545 g / cm^3
# Si number density = 20.872962 Si / 1000 Ang^3
#
#
#
# Elastic Constant Matrix: (Units=GPa)
#
#
# Indices 1 2 3 4 5 6 
#
# 1 80.9297 2.4663 8.3681 2.1648 -14.0565 -10.8010
# 2 2.4663 37.4604 22.1407 0.2107 2.2399 -14.8519
# 3 8.3681 22.1407 109.0316 5.9347 -20.8412 -0.7271
# 4 2.1648 0.2107 5.9347 23.8716 -1.9471 -2.4214
# 5 -14.0565 2.2399 -20.8412 -1.9471 33.7666 12.1044
# 6 -10.8010 -14.8519 -0.7271 -2.4214 12.1044 19.6215
#
#
#
# Elastic Compliance Matrix: (Units=1/GPa)
#
#
# Indices 1 2 3 4 5 6 
#
# 1 0.013903 0.004026 -0.001661 0.000215 0.000879 0.010124
# 2 0.004026 0.092973 -0.031210 0.012779 -0.063156 0.111970
# 3 -0.001661 -0.031210 0.021364 -0.006819 0.029512 -0.042793
# 4 0.000215 0.012779 -0.006819 0.044792 -0.009995 0.021232
# 5 0.000879 -0.063156 0.029512 -0.009995 0.088363 -0.101970
# 6 0.010124 0.111970 -0.042793 0.021232 -0.101970 0.205229
#
#
# Mechanical properties :
#
#
# Convention : Reuss Voigt Hill
#
# Bulk Modulus (GPa) = 14.17407 32.59688 23.38547
# Shear Modulus (GPa) = 9.12691 28.41504 18.77097
#
# Velocity S-wave (km/s) = 2.09334 3.69363 3.00208
# Velocity P-wave (km/s) = 3.55643 5.81732 4.82127
#
# Compressibility (1/GPa) = 0.07055138
#
# Stress axis : x y z
#
# Youngs Moduli (GPa) = 71.92450 10.75578 46.80822
#
# Poissons Ratio (x) = -0.04331 0.07774
# Poissons Ratio (y) = -0.28958 1.46088
# Poissons Ratio (z) = 0.11946 0.33569
#
# Static dielectric constant tensor:
#      x y z
#    x 3.700250 -0.098230 -0.440610 
#    y -0.098230 3.813890 -0.016160 
#    z -0.440610 -0.016160 2.859890 
# 
# 
# High freq. dielectric constant tensor:
#      x y z
#    x 1.828370 0.002570 -0.005300 
#    y 0.002570 1.782500 0.010330 
#    z -0.005300 0.010330 1.827430 
# 
# From -- ./inp_files/367615.got.cif
#   From: 2010.06.25/outbox.cif.g09.slc.cpg/sg2_184_cif.got.tgz:367615.got - 2010.06.27 13:26:56.
