data_PCOD8001102
_publ_section_title
;
Structure prediction by ZEFSAII (Michael W. Deem and Ramdas Pophale) SiO2 
 PCOD8001102
Probable space group: P -1
;
_chemical_formula_sum "Si O2"
_cell_formula_units_Z 16
_cell_length_a 9.602151
_cell_length_b 22.635119
_cell_length_c 19.786783
_cell_angle_alpha 18.522797
_cell_angle_beta 145.856975
_cell_angle_gamma 146.157200
_cell_volume 741.070002
_symmetry_space_group_name_H-M "P -1"
_symmetry_group_IT_number 2
_symmetry_cell_setting 'triclinic'
loop_
_space_group_symop_operation_xyz
x,y,z
-x,-y,-z
loop_
_atom_site_type_symbol
_atom_site_label
_atom_site_fract_x
_atom_site_fract_y
_atom_site_fract_z
Si Si1 0.563607 0.683790 0.985058
Si Si2 0.824319 0.193535 0.663672
Si Si3 0.267705 0.254345 0.869027
Si Si4 0.176795 0.933410 0.551877
Si Si5 0.302202 0.268067 0.344073
Si Si6 0.016341 0.091121 0.185056
Si Si7 0.643143 0.334269 0.815119
Si Si8 0.169700 0.258422 0.608242
O O1 0.425365 0.855322 0.748665
O O2 0.781364 0.736564 0.958388
O O3 0.693020 0.651159 0.143810
O O4 0.357544 0.483547 0.102222
O O5 0.554562 0.242972 0.511094
O O6 0.029001 0.309530 0.675503
O O7 0.926873 0.249005 0.569075
O O8 0.793512 0.971700 0.902991
O O9 0.528177 0.325943 0.853001
O O10 0.923889 0.771740 0.648349
O O11 0.214384 0.127401 0.398814
O O12 0.158845 0.984735 0.410713
O O13 0.870508 0.932592 0.245280
O O14 0.819704 0.186066 0.042509
O O15 0.422587 0.268398 0.742444
O O16 0.802754 0.553505 0.630518
#
# Coordination Sequence:
#
# PCOD8001102 Si02
#       8
#     2   2   2   2   2   2   2   2
#     4  12  25  43  66  94 126 163 213 261 309 370
#     4  10  19  41  66  92 130 166 198 256 321 364
#     4  10  21  39  67  94 128 164 201 258 313 371
#     4  11  26  44  62  91 128 166 210 264 310 359
#     4  11  24  43  67  91 125 165 211 261 308 373
#     4  12  24  40  66  93 122 168 212 255 310 374
#     4  10  23  39  63  94 130 166 206 248 315 372
#     4  10  21  41  62  93 133 164 200 261 307 372
#
# _framework density 21.590403999999999
#
# number of rings (size 3 to 8) (size 9 to 14) (size 15 to 20)
#    0.000    1.250    2.500    2.625    3.500    2.000 
#    2.250    0.000    0.000    0.000    0.000    0.000 
#    0.000    0.000    0.000    0.000    0.000    0.000 
#
# Total GULP energy -198479.504270 kJ/mol
# GULP energy per Si atom -12404.969017 kJ/mol
# Density = 2.154126 g / cm^3
# Si number density = 21.590404 Si / 1000 Ang^3
#
#
#
# Elastic Constant Matrix: (Units=GPa)
#
#
# Indices 1 2 3 4 5 6 
#
# 1 77.1811 31.2999 10.5554 6.5373 -28.1830 14.1081
# 2 31.2999 84.6037 16.5842 -7.7634 -12.0938 8.1989
# 3 10.5554 16.5842 66.2990 -5.9785 -19.0848 1.8941
# 4 6.5373 -7.7634 -5.9785 42.4388 10.0796 -3.1159
# 5 -28.1830 -12.0938 -19.0848 10.0796 40.1429 1.1152
# 6 14.1081 8.1989 1.8941 -3.1159 1.1152 28.0907
#
#
#
# Elastic Compliance Matrix: (Units=1/GPa)
#
#
# Indices 1 2 3 4 5 6 
#
# 1 0.026473 -0.007077 0.003000 -0.010927 0.020998 -0.013478
# 2 -0.007077 0.015005 -0.003106 0.004095 -0.002951 -0.000044
# 3 0.003000 -0.003106 0.018290 -0.001048 0.010194 -0.002354
# 4 -0.010927 0.004095 -0.001048 0.029943 -0.014684 0.008267
# 5 0.020998 -0.002951 0.010194 -0.014684 0.047683 -0.013894
# 6 -0.013478 -0.000044 -0.002354 0.008267 -0.013894 0.044008
#
#
# Mechanical properties :
#
#
# Convention : Reuss Voigt Hill
#
# Bulk Modulus (GPa) = 22.02557 38.32918 30.17738
# Shear Modulus (GPa) = 23.70780 33.44411 28.57596
#
# Velocity S-wave (km/s) = 3.31731 3.94004 3.64201
# Velocity P-wave (km/s) = 4.98963 6.20403 5.62967
#
# Compressibility (1/GPa) = 0.04540177
#
# Stress axis : x y z
#
# Youngs Moduli (GPa) = 37.77461 66.64487 54.67549
#
# Poissons Ratio (x) = 0.47163 -0.16401
# Poissons Ratio (y) = 0.26732 0.16981
# Poissons Ratio (z) = -0.11331 0.20698
#
# Static dielectric constant tensor:
#      x y z
#    x 3.659540 0.243480 -0.162260 
#    y 0.243480 3.999580 -0.052530 
#    z -0.162260 -0.052530 3.846930 
# 
# 
# High freq. dielectric constant tensor:
#      x y z
#    x 1.848690 0.010330 -0.010640 
#    y 0.010330 1.851760 -0.004140 
#    z -0.010640 -0.004140 1.850060 
# 
# From -- ./inp_files/199296.got.cif
#   From: 2010.06.25/outbox.cif.g09.slc.cpg/sg2_100_cif.got.tgz:199296.got - 2010.06.27 13:26:56.
