data_PCOD8001341
_publ_section_title
;
Structure prediction by ZEFSAII (Michael W. Deem and Ramdas Pophale) SiO2 
 PCOD8001341
Probable space group: P -1
;
_chemical_formula_sum "Si O2"
_cell_formula_units_Z 16
_cell_length_a 9.634568
_cell_length_b 24.163747
_cell_length_c 8.882972
_cell_angle_alpha 130.198167
_cell_angle_beta 149.036587
_cell_angle_gamma 63.486155
_cell_volume 781.953673
_symmetry_space_group_name_H-M "P -1"
_symmetry_group_IT_number 2
_symmetry_cell_setting 'triclinic'
loop_
_space_group_symop_operation_xyz
x,y,z
-x,-y,-z
loop_
_atom_site_type_symbol
_atom_site_label
_atom_site_fract_x
_atom_site_fract_y
_atom_site_fract_z
Si Si1 0.538870 0.585305 0.643646
Si Si2 0.452601 0.735620 0.384172
Si Si3 0.761642 0.083533 0.176384
Si Si4 0.764396 0.220720 0.232388
Si Si5 0.638891 0.712242 0.197662
Si Si6 0.049339 0.834484 0.191688
Si Si7 0.130024 0.991255 0.445721
Si Si8 0.139303 0.652323 0.216321
O O1 0.500000 0.500000 0.500000
O O2 0.268064 0.592102 0.313184
O O3 0.565092 0.632485 0.904756
O O4 0.806086 0.616352 0.838060
O O5 0.527651 0.696677 0.235865
O O6 0.270098 0.791492 0.265420
O O7 0.266307 0.668874 0.196982
O O8 0.734718 0.780365 0.811443
O O9 0.744228 0.134780 0.106026
O O10 0.870675 0.135322 0.513080
O O11 0.976241 0.032227 0.252849
O O12 0.458893 0.028000 0.825010
O O13 0.792153 0.268198 0.494949
O O14 0.027896 0.252766 0.424604
O O15 0.488502 0.227118 0.899770
O O16 0.069069 0.901432 0.205371
O O17 0.000000 0.000000 0.500000
#
# Coordination Sequence:
#
# PCOD8001341 Si02
#       8
#     2   2   2   2   2   2   2   2
#     4  10  21  41  63  87 118 151 185 226 277 337
#     4  12  22  37  58  85 120 149 191 238 286 339
#     4  11  19  33  56  82 111 144 201 247 287 331
#     4  10  20  36  58  81 112 149 195 241 285 329
#     4  10  23  38  57  86 117 152 187 231 287 342
#     4  11  21  33  56  82 118 152 186 242 304 329
#     4  10  20  31  49  83 116 144 189 249 295 338
#     4  10  21  35  61  89 111 147 194 232 272 332
#
# _framework density 20.461569999999998
#
# number of rings (size 3 to 8) (size 9 to 14) (size 15 to 20)
#    0.000    1.500    1.250    6.375    3.500    0.000 
#    0.000    1.250    0.000   15.000    0.000    0.000 
#    0.000    0.000    0.000    0.000    0.000    0.000 
#
# Total GULP energy -198426.212167 kJ/mol
# GULP energy per Si atom -12401.638260 kJ/mol
# Density = 2.041500 g / cm^3
# Si number density = 20.461570 Si / 1000 Ang^3
#
#
#
# Elastic Constant Matrix: (Units=GPa)
#
#
# Indices 1 2 3 4 5 6 
#
# 1 110.0572 30.7180 23.1008 11.0568 12.5438 1.2409
# 2 30.7180 127.2483 26.5602 -1.0685 6.1365 -2.0425
# 3 23.1008 26.5602 77.6268 -10.2151 15.6589 -6.6579
# 4 11.0568 -1.0685 -10.2151 26.1746 -5.6092 10.8188
# 5 12.5438 6.1365 15.6589 -5.6092 16.2414 -5.4756
# 6 1.2409 -2.0425 -6.6579 10.8188 -5.4756 22.9912
#
#
#
# Elastic Compliance Matrix: (Units=1/GPa)
#
#
# Indices 1 2 3 4 5 6 
#
# 1 0.011933 -0.002081 -0.002021 -0.007937 -0.009177 0.000135
# 2 -0.002081 0.008851 -0.002524 0.000359 0.000891 0.000211
# 3 -0.002021 -0.002524 0.017559 0.005044 -0.012828 -0.000459
# 4 -0.007937 0.000359 0.005044 0.054951 0.013090 -0.020820
# 5 -0.009177 0.000891 -0.012828 0.013090 0.089241 0.011954
# 6 0.000135 0.000211 -0.000459 -0.020820 0.011954 0.056017
#
#
# Mechanical properties :
#
#
# Convention : Reuss Voigt Hill
#
# Bulk Modulus (GPa) = 39.85205 52.85449 46.35327
# Shear Modulus (GPa) = 19.21837 28.71833 23.96835
#
# Velocity S-wave (km/s) = 3.06803 3.75043 3.42626
# Velocity P-wave (km/s) = 5.66297 6.68143 6.19317
#
# Compressibility (1/GPa) = 0.02509281
#
# Stress axis : x y z
#
# Youngs Moduli (GPa) = 83.80163 112.97992 56.95092
#
# Poissons Ratio (x) = 0.23508 0.11508
# Poissons Ratio (y) = 0.17437 0.14372
# Poissons Ratio (z) = 0.16934 0.28512
#
# Static dielectric constant tensor:
#      x y z
#    x 3.405120 0.257760 0.256420 
#    y 0.257760 1.071870 -0.425810 
#    z 0.256420 -0.425810 3.675530 
# 
# 
# High freq. dielectric constant tensor:
#      x y z
#    x 1.779710 -0.000600 0.026170 
#    y -0.000600 1.807390 -0.022270 
#    z 0.026170 -0.022270 1.793050 
# 
# From -- ./inp_files/45133.got.cif
#   From: 2010.06.25/outbox.cif.g09.slc.cpg/sg2_23_cif.got.tgz:45133.got - 2010.06.27 13:26:56.
