data_PCOD8001656
_publ_section_title
;
Structure prediction by ZEFSAII (Michael W. Deem and Ramdas Pophale) SiO2 
 PCOD8001656
Probable space group: P -1
;
_chemical_formula_sum "Si O2"
_cell_formula_units_Z 16
_cell_length_a 14.809383
_cell_length_b 23.411869
_cell_length_c 23.865329
_cell_angle_alpha 12.093578
_cell_angle_beta 28.128138
_cell_angle_gamma 28.213347
_cell_volume 802.232564
_symmetry_space_group_name_H-M "P -1"
_symmetry_group_IT_number 2
_symmetry_cell_setting 'triclinic'
loop_
_space_group_symop_operation_xyz
x,y,z
-x,-y,-z
loop_
_atom_site_type_symbol
_atom_site_label
_atom_site_fract_x
_atom_site_fract_y
_atom_site_fract_z
Si Si1 0.381745 0.550226 0.671260
Si Si2 0.473508 0.049858 0.358893
Si Si3 0.177891 0.085063 0.092259
Si Si4 0.503352 0.025800 0.881028
Si Si5 0.047798 0.411183 0.122213
Si Si6 0.919954 0.634233 0.674288
Si Si7 0.700890 0.178043 0.426615
Si Si8 0.366498 0.466594 0.157536
O O1 0.497061 0.234093 0.910587
O O2 0.397297 0.661668 0.618803
O O3 0.159662 0.563486 0.757888
O O4 0.487754 0.711404 0.414046
O O5 0.254889 0.201511 0.349395
O O6 0.466482 0.905184 0.441184
O O7 0.556886 0.824226 0.575863
O O8 0.619853 0.270669 0.061915
O O9 0.305194 0.100076 0.952847
O O10 0.073637 0.824896 0.393451
O O11 0.310242 0.048952 0.109222
O O12 0.019516 0.369404 0.910324
O O13 0.153349 0.093970 0.371386
O O14 0.184420 0.625217 0.862730
O O15 0.000000 0.500000 0.000000
O O16 0.847541 0.533906 0.750107
O O17 0.500000 0.500000 0.000000
#
# Coordination Sequence:
#
# PCOD8001656 Si02
#       8
#     2   2   2   2   2   2   2   2
#     4  11  21  37  56  76 111 157 182 230 280 316
#     4  11  22  35  57  87 121 142 179 229 275 344
#     4  11  24  39  55  85 107 147 198 237 269 332
#     4  11  24  39  56  78 116 146 194 242 274 301
#     4  10  20  34  49  76 114 147 190 224 253 326
#     4  11  21  37  61  80 112 148 185 222 291 337
#     4  11  22  35  53  86 112 149 191 216 272 349
#     4  10  20  38  55  84 115 147 177 228 284 343
#
# _framework density 19.94434
#
# number of rings (size 3 to 8) (size 9 to 14) (size 15 to 20)
#    0.000    1.250    0.000    9.750    5.250    2.000 
#    0.000    0.000    0.000    0.000    0.000   17.500 
#    0.000    0.000    0.000    0.000    0.000    0.000 
#
# Total GULP energy -198395.721589 kJ/mol
# GULP energy per Si atom -12399.732599 kJ/mol
# Density = 1.989895 g / cm^3
# Si number density = 19.944340 Si / 1000 Ang^3
#
#
#
# Elastic Constant Matrix: (Units=GPa)
#
#
# Indices 1 2 3 4 5 6 
#
# 1 78.8892 22.0438 6.8030 -1.3723 -21.0408 3.7317
# 2 22.0438 34.9774 20.4936 -1.0799 -2.1475 3.5691
# 3 6.8030 20.4936 82.6959 -15.7864 -15.9552 5.5391
# 4 -1.3723 -1.0799 -15.7864 19.4622 -0.5410 7.0376
# 5 -21.0408 -2.1475 -15.9552 -0.5410 35.1215 -6.1253
# 6 3.7317 3.5691 5.5391 7.0376 -6.1253 22.7594
#
#
#
# Elastic Compliance Matrix: (Units=1/GPa)
#
#
# Indices 1 2 3 4 5 6 
#
# 1 0.020229 -0.015143 0.005943 0.005972 0.013899 -0.000495
# 2 -0.015143 0.045628 -0.014425 -0.010013 -0.013275 -0.001638
# 3 0.005943 -0.014425 0.021744 0.020148 0.011628 -0.007105
# 4 0.005972 -0.010013 0.020148 0.077165 0.008807 -0.025803
# 5 0.013899 -0.013275 0.011628 0.008807 0.042392 0.005659
# 6 -0.000495 -0.001638 -0.007105 -0.025803 0.005659 0.055507
#
#
# Mechanical properties :
#
#
# Convention : Reuss Voigt Hill
#
# Bulk Modulus (GPa) = 24.78174 32.80482 28.79328
# Shear Modulus (GPa) = 15.46241 25.28343 20.37292
#
# Velocity S-wave (km/s) = 2.78740 3.56434 3.19954
# Velocity P-wave (km/s) = 4.77618 5.78128 5.30260
#
# Compressibility (1/GPa) = 0.04035230
#
# Stress axis : x y z
#
# Youngs Moduli (GPa) = 49.43367 21.91634 45.99002
#
# Poissons Ratio (x) = 0.33188 -0.27334
# Poissons Ratio (y) = 0.74858 0.66339
# Poissons Ratio (z) = -0.29380 0.31614
#
# Static dielectric constant tensor:
#      x y z
#    x 4.024010 -0.129540 -0.491330 
#    y -0.129540 3.374450 0.080970 
#    z -0.491330 0.080970 4.328390 
# 
# 
# High freq. dielectric constant tensor:
#      x y z
#    x 1.775970 0.005120 -0.007190 
#    y 0.005120 1.734550 -0.008030 
#    z -0.007190 -0.008030 1.809950 
# 
# From -- ./inp_files/522717.got.cif
#   From: 2010.06.25/outbox.cif.g09.slc.cpg/sg2_262_cif.got.tgz:522717.got - 2010.06.27 13:26:56.
