data_PCOD8001340
_publ_section_title
;
Structure prediction by ZEFSAII (Michael W. Deem and Ramdas Pophale) SiO2 
 PCOD8001340
Probable space group: P -1
;
_chemical_formula_sum "Si O2"
_cell_formula_units_Z 16
_cell_length_a 17.645004
_cell_length_b 9.013746
_cell_length_c 26.162512
_cell_angle_alpha 139.765350
_cell_angle_beta 160.364744
_cell_angle_gamma 40.321436
_cell_volume 884.910073
_symmetry_space_group_name_H-M "P -1"
_symmetry_group_IT_number 2
_symmetry_cell_setting 'triclinic'
loop_
_space_group_symop_operation_xyz
x,y,z
-x,-y,-z
loop_
_atom_site_type_symbol
_atom_site_label
_atom_site_fract_x
_atom_site_fract_y
_atom_site_fract_z
Si Si1 0.009036 0.519210 0.130513
Si Si2 0.577145 0.892575 0.698609
Si Si3 0.610107 0.357958 0.786288
Si Si4 0.167898 0.633725 0.529785
Si Si5 0.758422 0.223153 0.736328
Si Si6 0.207625 0.998673 0.568478
Si Si7 0.835513 0.322163 0.628290
Si Si8 0.232717 0.295110 0.393491
O O1 0.173607 0.263780 0.173153
O O2 0.074680 0.656784 0.159713
O O3 0.012002 0.683193 0.225403
O O4 0.751082 0.475833 0.948466
O O5 0.419982 0.718992 0.529477
O O6 0.587421 0.097415 0.719159
O O7 0.458269 0.008615 0.706500
O O8 0.359001 0.521372 0.662950
O O9 0.750034 0.336913 0.816745
O O10 0.115057 0.437673 0.405553
O O11 0.934463 0.742639 0.440792
O O12 0.251952 0.840053 0.605854
O O13 0.506292 0.266015 0.563292
O O14 0.857930 0.945399 0.729089
O O15 0.064252 0.879048 0.403121
O O16 0.832744 0.573684 0.666950
#
# Coordination Sequence:
#
# PCOD8001340 Si02
#       8
#     2   2   2   2   2   2   2   2
#     4  12  21  34  51  76 112 142 165 206 265 317
#     4  10  20  34  52  78 103 141 172 212 251 303
#     4  11  23  33  50  79 112 137 166 210 264 314
#     4   9  17  36  54  80 102 130 176 218 258 293
#     4  10  20  31  49  75 103 135 171 213 258 298
#     4   8  18  34  60  75  97 135 178 221 248 295
#     4   9  19  33  52  77  99 137 173 211 253 298
#     4   9  17  30  54  77  99 127 174 224 247 294
#
# _framework density 18.080933999999999
#
# number of rings (size 3 to 8) (size 9 to 14) (size 15 to 20)
#    0.750    1.500    1.250    2.625    5.250    0.500 
#    0.000    0.625    0.000    0.000    0.000    6.125 
#    0.000    0.000    0.000    0.000    0.000    0.000 
#
# Total GULP energy -198319.003896 kJ/mol
# GULP energy per Si atom -12394.937743 kJ/mol
# Density = 1.803978 g / cm^3
# Si number density = 18.080934 Si / 1000 Ang^3
#
#
#
# Elastic Constant Matrix: (Units=GPa)
#
#
# Indices 1 2 3 4 5 6 
#
# 1 57.6643 14.9360 8.1140 0.9979 -0.7672 8.7789
# 2 14.9360 82.7834 12.7308 4.5381 6.8215 6.0538
# 3 8.1140 12.7308 48.8581 1.5345 -10.3480 5.5873
# 4 0.9979 4.5381 1.5345 14.5678 -0.3824 1.5292
# 5 -0.7672 6.8215 -10.3480 -0.3824 15.5037 -1.1231
# 6 8.7789 6.0538 5.5873 1.5292 -1.1231 30.5397
#
#
#
# Elastic Compliance Matrix: (Units=1/GPa)
#
#
# Indices 1 2 3 4 5 6 
#
# 1 0.019040 -0.002912 -0.001733 0.000284 0.000743 -0.004566
# 2 -0.002912 0.014555 -0.005202 -0.003921 -0.010209 -0.001276
# 3 -0.001733 -0.005202 0.026602 -0.000271 0.019764 -0.002597
# 4 0.000284 -0.003921 -0.000271 0.070235 0.003098 -0.002658
# 5 0.000743 -0.010209 0.019764 0.003098 0.082375 0.001068
# 6 -0.004566 -0.001276 -0.002597 -0.002658 0.001068 0.034957
#
#
# Mechanical properties :
#
#
# Convention : Reuss Voigt Hill
#
# Bulk Modulus (GPa) = 24.68926 28.98528 26.83727
# Shear Modulus (GPa) = 17.79625 22.35724 20.07674
#
# Velocity S-wave (km/s) = 3.14069 3.52022 3.33585
# Velocity P-wave (km/s) = 5.18038 5.70861 5.45090
#
# Compressibility (1/GPa) = 0.04050345
#
# Stress axis : x y z
#
# Youngs Moduli (GPa) = 52.52151 68.70726 37.59084
#
# Poissons Ratio (x) = 0.20005 0.06514
# Poissons Ratio (y) = 0.15292 0.19555
# Poissons Ratio (z) = 0.09101 0.35743
#
# Static dielectric constant tensor:
#      x y z
#    x 3.336080 0.035100 -0.114580 
#    y 0.035100 3.383770 0.054230 
#    z -0.114580 0.054230 2.897210 
# 
# 
# High freq. dielectric constant tensor:
#      x y z
#    x 1.704420 0.011030 -0.012690 
#    y 0.011030 1.699710 0.010200 
#    z -0.012690 0.010200 1.654010 
# 
# From -- ./inp_files/335020.got.cif
#   From: 2010.06.25/outbox.cif.g09.slc.cpg/sg2_168_cif.got.tgz:335020.got - 2010.06.27 13:26:56.
