data_PCOD8001798
_publ_section_title
;
Structure prediction by ZEFSAII (Michael W. Deem and Ramdas Pophale) SiO2 
 PCOD8001798
Probable space group: P -1
;
_chemical_formula_sum "Si O2"
_cell_formula_units_Z 16
_cell_length_a 14.491445
_cell_length_b 12.314612
_cell_length_c 13.648593
_cell_angle_alpha 76.381945
_cell_angle_beta 159.291358
_cell_angle_gamma 103.836300
_cell_volume 835.813259
_symmetry_space_group_name_H-M "P -1"
_symmetry_group_IT_number 2
_symmetry_cell_setting 'triclinic'
loop_
_space_group_symop_operation_xyz
x,y,z
-x,-y,-z
loop_
_atom_site_type_symbol
_atom_site_label
_atom_site_fract_x
_atom_site_fract_y
_atom_site_fract_z
Si Si1 0.743435 0.432399 0.225266
Si Si2 0.959225 0.598869 0.862599
Si Si3 0.815743 0.285882 0.495261
Si Si4 0.562159 0.982473 0.452324
Si Si5 0.462036 0.726438 0.399003
Si Si6 0.419449 0.300176 0.263245
Si Si7 0.877515 0.507934 0.143374
Si Si8 0.904779 0.886932 0.092837
O O1 0.727417 0.311298 0.290323
O O2 0.750513 0.420263 0.116339
O O3 0.000000 0.500000 0.500000
O O4 0.500000 0.500000 0.000000
O O5 0.955825 0.556071 0.756552
O O6 0.681343 0.647944 0.594488
O O7 0.189718 0.694662 0.082247
O O8 0.000000 0.500000 0.000000
O O9 0.572730 0.253034 0.331955
O O10 0.943036 0.400381 0.641148
O O11 0.009937 0.182813 0.710563
O O12 0.549638 0.853793 0.435822
O O13 0.500000 0.000000 0.500000
O O14 0.856326 0.031240 0.720758
O O15 0.350434 0.041649 0.161162
O O16 0.414226 0.706256 0.471613
O O17 0.348513 0.428256 0.150773
O O18 0.164632 0.211869 0.036268
#
# Coordination Sequence:
#
# PCOD8001798 Si02
#       8
#     2   2   2   2   2   2   2   2
#     4  10  20  34  56  85 115 147 183 233 286 337
#     4  12  25  39  56  80 116 159 198 216 265 331
#     4  10  20  36  58  89 117 144 187 233 292 345
#     4  12  23  37  58  79 115 146 192 237 293 326
#     4  12  26  37  55  83 112 155 193 229 266 335
#     4  11  20  34  57  83 118 145 190 224 280 343
#     4  10  22  35  57  81 120 156 184 227 275 333
#     4  11  22  35  56  84 112 148 178 236 296 338
#
# _framework density 19.143032000000002
#
# number of rings (size 3 to 8) (size 9 to 14) (size 15 to 20)
#    0.000    1.000    5.000    2.250    5.250    0.000 
#    0.000    0.000    0.000    0.000    0.000    5.250 
#    0.000    0.000    0.000    0.000    0.000    0.000 
#
# Total GULP energy -198312.252776 kJ/mol
# GULP energy per Si atom -12394.515799 kJ/mol
# Density = 1.909946 g / cm^3
# Si number density = 19.143032 Si / 1000 Ang^3
#
#
#
# Elastic Constant Matrix: (Units=GPa)
#
#
# Indices 1 2 3 4 5 6 
#
# 1 97.2501 35.9842 12.0228 -8.6192 1.9280 15.7180
# 2 35.9842 81.1021 17.5995 -10.2657 -6.5605 9.4495
# 3 12.0228 17.5995 76.8458 -6.3509 8.6522 11.0624
# 4 -8.6192 -10.2657 -6.3509 40.4895 4.1171 -0.1689
# 5 1.9280 -6.5605 8.6522 4.1171 24.6274 -5.5185
# 6 15.7180 9.4495 11.0624 -0.1689 -5.5185 19.6326
#
#
#
# Elastic Compliance Matrix: (Units=1/GPa)
#
#
# Indices 1 2 3 4 5 6 
#
# 1 0.014320 -0.005550 0.001557 0.002459 -0.006104 -0.011365
# 2 -0.005550 0.016190 -0.003345 0.001825 0.005648 0.000139
# 3 0.001557 -0.003345 0.016610 0.003056 -0.009999 -0.011780
# 4 0.002459 0.001825 0.003056 0.026814 -0.006654 -0.006209
# 5 -0.006104 0.005648 -0.009999 -0.006654 0.052239 0.022429
# 6 -0.011365 0.000139 -0.011780 -0.006209 0.022429 0.072857
#
#
# Mechanical properties :
#
#
# Convention : Reuss Voigt Hill
#
# Bulk Modulus (GPa) = 30.82144 42.93457 36.87800
# Shear Modulus (GPa) = 22.26983 29.58934 25.92959
#
# Velocity S-wave (km/s) = 3.41448 3.93580 3.68437
# Velocity P-wave (km/s) = 5.62854 6.56742 6.11602
#
# Compressibility (1/GPa) = 0.03244495
#
# Stress axis : x y z
#
# Youngs Moduli (GPa) = 69.83423 61.76612 60.20592
#
# Poissons Ratio (x) = 0.34279 -0.09376
# Poissons Ratio (y) = 0.38756 0.20137
# Poissons Ratio (z) = -0.10875 0.20659
#
# Static dielectric constant tensor:
#      x y z
#    x 3.750950 0.476610 -0.047900 
#    y 0.476610 3.727940 -0.162260 
#    z -0.047900 -0.162260 3.734650 
# 
# 
# High freq. dielectric constant tensor:
#      x y z
#    x 1.705980 0.028620 0.010070 
#    y 0.028620 1.735370 -0.007290 
#    z 0.010070 -0.007290 1.763050 
# 
# From -- ./inp_files/84397.got.cif
#   From: 2010.06.25/outbox.cif.g09.slc.cpg/sg2_43_cif.got.tgz:84397.got - 2010.06.27 13:26:56.
