data_PCOD8001053
_publ_section_title
;
Structure prediction by ZEFSAII (Michael W. Deem and Ramdas Pophale) SiO2 
 PCOD8001053
Probable space group: P -1
;
_chemical_formula_sum "Si O2"
_cell_formula_units_Z 16
_cell_length_a 11.273908
_cell_length_b 8.692794
_cell_length_c 8.754100
_cell_angle_alpha 115.050847
_cell_angle_beta 89.738083
_cell_angle_gamma 66.913377
_cell_volume 699.828397
_symmetry_space_group_name_H-M "P -1"
_symmetry_group_IT_number 2
_symmetry_cell_setting 'triclinic'
loop_
_space_group_symop_operation_xyz
x,y,z
-x,-y,-z
loop_
_atom_site_type_symbol
_atom_site_label
_atom_site_fract_x
_atom_site_fract_y
_atom_site_fract_z
Si Si1 0.737326 0.855140 0.155958
Si Si2 0.789690 0.204338 0.269471
Si Si3 0.922815 0.623826 0.819049
Si Si4 0.819141 0.708247 0.411140
Si Si5 0.295163 0.698857 0.021133
Si Si6 0.280652 0.446902 0.389249
Si Si7 0.429103 0.318954 0.043399
Si Si8 0.913649 0.922115 0.719442
O O1 0.729340 0.828871 0.325172
O O2 0.723075 0.062419 0.211182
O O3 0.874720 0.685826 0.019380
O O4 0.611865 0.846632 0.071314
O O5 0.720788 0.363176 0.464148
O O6 0.942063 0.089897 0.265628
O O7 0.768826 0.301874 0.143835
O O8 0.846765 0.511538 0.697799
O O9 0.879293 0.825629 0.823207
O O10 0.077607 0.497329 0.738364
O O11 0.721256 0.686691 0.527251
O O12 0.900665 0.817301 0.522882
O O13 0.335173 0.501212 0.021247
O O14 0.188599 0.859238 0.195174
O O15 0.419892 0.745374 0.023337
O O16 0.408833 0.355239 0.241561
#
# Coordination Sequence:
#
# PCOD8001053 Si02
#       8
#     2   2   2   2   2   2   2   2
#     4  11  25  38  65 104 129 175 219 262 329 388
#     4  12  23  40  68 106 134 162 217 278 335 390
#     4  10  19  41  61  98 138 175 209 259 334 396
#     4  11  21  40  66  97 141 174 211 266 333 391
#     4  11  25  46  72  89 133 176 226 274 317 390
#     4  10  21  41  68  92 135 171 218 267 323 393
#     4  10  26  49  67  93 126 183 230 261 324 390
#     4  11  22  40  67 105 133 169 211 279 336 379
#
# _framework density 22.862746999999999
#
# number of rings (size 3 to 8) (size 9 to 14) (size 15 to 20)
#    0.000    1.250    3.750    2.250    1.750    3.500 
#    0.000    0.625    0.000    0.000    0.000    0.000 
#    0.000    0.000    0.000    0.000    0.000    0.000 
#
# Total GULP energy -198422.240343 kJ/mol
# GULP energy per Si atom -12401.390021 kJ/mol
# Density = 2.281071 g / cm^3
# Si number density = 22.862747 Si / 1000 Ang^3
#
#
#
# Elastic Constant Matrix: (Units=GPa)
#
#
# Indices 1 2 3 4 5 6 
#
# 1 74.1953 4.8222 35.6302 7.0189 13.8116 11.2311
# 2 4.8222 54.2677 42.0115 -1.6757 7.8188 4.2102
# 3 35.6302 42.0115 119.2182 -12.2388 13.9525 15.0761
# 4 7.0189 -1.6757 -12.2388 33.2690 16.4314 2.1186
# 5 13.8116 7.8188 13.9525 16.4314 29.9756 3.8192
# 6 11.2311 4.2102 15.0761 2.1186 3.8192 32.0573
#
#
#
# Elastic Compliance Matrix: (Units=1/GPa)
#
#
# Indices 1 2 3 4 5 6 
#
# 1 0.017756 0.003927 -0.006230 -0.003734 -0.003864 -0.003100
# 2 0.003927 0.026465 -0.010434 -0.001961 -0.002848 0.000524
# 3 -0.006230 -0.010434 0.016402 0.010743 -0.007424 -0.003987
# 4 -0.003734 -0.001961 0.010743 0.049459 -0.029467 -0.003245
# 5 -0.003864 -0.002848 -0.007424 -0.029467 0.055420 0.000564
# 6 -0.003100 0.000524 -0.003987 -0.003245 0.000564 0.034233
#
#
# Mechanical properties :
#
#
# Convention : Reuss Voigt Hill
#
# Bulk Modulus (GPa) = 28.44956 45.84545 37.14750
# Shear Modulus (GPa) = 21.10367 30.07488 25.58927
#
# Velocity S-wave (km/s) = 3.04148 3.63085 3.34916
# Velocity P-wave (km/s) = 4.98044 6.13787 5.58920
#
# Compressibility (1/GPa) = 0.03514993
#
# Stress axis : x y z
#
# Youngs Moduli (GPa) = 56.31884 37.78617 60.96649
#
# Poissons Ratio (x) = -0.14838 0.37980
# Poissons Ratio (y) = -0.22115 0.63611
# Poissons Ratio (z) = 0.35084 0.39425
#
# Static dielectric constant tensor:
#      x y z
#    x 3.931130 0.188400 0.051240 
#    y 0.188400 3.840370 -0.081180 
#    z 0.051240 -0.081180 4.241940 
# 
# 
# High freq. dielectric constant tensor:
#      x y z
#    x 1.892380 0.016960 0.009490 
#    y 0.016960 1.885800 -0.001480 
#    z 0.009490 -0.001480 1.912860 
# 
# From -- ./inp_files/245562.got.cif
#   From: 2010.06.25/outbox.cif.g09.slc.cpg/sg2_123_cif.got.tgz:245562.got - 2010.06.27 13:26:56.
