data_PCOD8001962
_publ_section_title
;
Structure prediction by ZEFSAII (Michael W. Deem and Ramdas Pophale) SiO2 
 PCOD8001962
Probable space group: P -1
;
_chemical_formula_sum "Si O2"
_cell_formula_units_Z 16
_cell_length_a 10.861013
_cell_length_b 16.863130
_cell_length_c 13.095292
_cell_angle_alpha 157.590514
_cell_angle_beta 116.586771
_cell_angle_gamma 64.667316
_cell_volume 816.945674
_symmetry_space_group_name_H-M "P -1"
_symmetry_group_IT_number 2
_symmetry_cell_setting 'triclinic'
loop_
_space_group_symop_operation_xyz
x,y,z
-x,-y,-z
loop_
_atom_site_type_symbol
_atom_site_label
_atom_site_fract_x
_atom_site_fract_y
_atom_site_fract_z
Si Si1 0.370798 0.349879 0.352826
Si Si2 0.542054 0.221088 0.081144
Si Si3 0.031083 0.214265 0.394333
Si Si4 0.170420 0.454650 0.230567
Si Si5 0.208894 0.056767 0.092926
Si Si6 0.129243 0.226315 0.659508
Si Si7 0.721424 0.938865 0.299092
Si Si8 0.825871 0.341393 0.734997
O O1 0.480386 0.211416 0.162254
O O2 0.440892 0.539129 0.663335
O O3 0.271468 0.478887 0.391408
O O4 0.289440 0.205347 0.225415
O O5 0.435550 0.129030 0.851392
O O6 0.685697 0.089171 0.976450
O O7 0.123522 0.202433 0.314069
O O8 0.119053 0.138503 0.435988
O O9 0.980404 0.455841 0.682726
O O10 0.896100 0.076528 0.170181
O O11 0.218869 0.594917 0.320668
O O12 0.172887 0.213587 0.908915
O O13 0.231325 0.070761 0.576548
O O14 0.980453 0.241448 0.676881
O O15 0.188077 0.458161 0.957860
O O16 0.723193 0.172247 0.536009
#
# Coordination Sequence:
#
# PCOD8001962 Si02
#       8
#     2   2   2   2   2   2   2   2
#     4  10  21  37  59  84 113 151 184 238 287 326
#     4  10  22  37  56  87 114 140 195 238 273 339
#     4  10  22  40  57  81 121 149 189 236 267 344
#     4   9  19  33  55  86 116 137 186 232 279 331
#     4  11  23  40  57  83 114 158 190 223 284 333
#     4   9  19  35  53  83 117 142 187 234 278 332
#     4  10  20  34  61  85 111 149 184 233 290 332
#     4   9  18  34  55  87 116 144 180 239 284 334
#
# _framework density 19.585146000000002
#
# number of rings (size 3 to 8) (size 9 to 14) (size 15 to 20)
#    0.000    2.250    1.250    1.500    7.000    4.500 
#    0.000    0.625    0.000    1.500    0.000    0.000 
#    0.000    0.000    0.000    0.000    0.000    0.000 
#
# Total GULP energy -198339.281196 kJ/mol
# GULP energy per Si atom -12396.205075 kJ/mol
# Density = 1.954057 g / cm^3
# Si number density = 19.585146 Si / 1000 Ang^3
#
#
#
# Elastic Constant Matrix: (Units=GPa)
#
#
# Indices 1 2 3 4 5 6 
#
# 1 64.2495 8.9517 24.7445 2.3754 -0.2921 2.6742
# 2 8.9517 85.0726 24.4618 -7.0788 -1.1168 -7.1923
# 3 24.7445 24.4618 62.6130 2.3477 7.7235 2.9596
# 4 2.3754 -7.0788 2.3477 27.2625 2.7450 2.3996
# 5 -0.2921 -1.1168 7.7235 2.7450 30.2739 1.2739
# 6 2.6742 -7.1923 2.9596 2.3996 1.2739 22.2828
#
#
#
# Elastic Compliance Matrix: (Units=1/GPa)
#
#
# Indices 1 2 3 4 5 6 
#
# 1 0.018560 0.000050 -0.007534 -0.001074 0.002252 -0.001224
# 2 0.000050 0.014258 -0.006152 0.003637 0.001559 0.004933
# 3 -0.007534 -0.006152 0.022290 -0.001982 -0.005659 -0.003505
# 4 -0.001074 0.003637 -0.001982 0.038378 -0.002749 -0.002410
# 5 0.002252 0.001559 -0.005659 -0.002749 0.034834 -0.000711
# 6 -0.001224 0.004933 -0.003505 -0.002410 -0.000711 0.047382
#
#
# Mechanical properties :
#
#
# Convention : Reuss Voigt Hill
#
# Bulk Modulus (GPa) = 35.92425 36.47235 36.19830
# Shear Modulus (GPa) = 23.55677 26.21566 24.88622
#
# Velocity S-wave (km/s) = 3.47189 3.66259 3.56851
# Velocity P-wave (km/s) = 5.86979 6.04557 5.95833
#
# Compressibility (1/GPa) = 0.02783635
#
# Stress axis : x y z
#
# Youngs Moduli (GPa) = 53.87989 70.13384 44.86292
#
# Poissons Ratio (x) = -0.00351 0.33800
# Poissons Ratio (y) = -0.00270 0.27600
# Poissons Ratio (z) = 0.40593 0.43147
#
# Static dielectric constant tensor:
#      x y z
#    x 3.240130 -0.213600 -0.002290 
#    y -0.213600 3.615740 -0.115660 
#    z -0.002290 -0.115660 3.544000 
# 
# 
# High freq. dielectric constant tensor:
#      x y z
#    x 1.719960 -0.017380 0.007110 
#    y -0.017380 1.768050 -0.004800 
#    z 0.007110 -0.004800 1.760060 
# 
# From -- ./inp_files/523121.got.cif
#   From: 2010.06.25/outbox.cif.g09.slc.cpg/sg2_262_cif.got.tgz:523121.got - 2010.06.27 13:26:56.
