data_PCOD8001297
_publ_section_title
;
Structure prediction by ZEFSAII (Michael W. Deem and Ramdas Pophale) SiO2 
 PCOD8001297
Probable space group: P -1
;
_chemical_formula_sum "Si O2"
_cell_formula_units_Z 14
_cell_length_a 23.474429
_cell_length_b 17.225445
_cell_length_c 9.165512
_cell_angle_alpha 138.597203
_cell_angle_beta 30.968954
_cell_angle_gamma 158.910910
_cell_volume 660.775687
_symmetry_space_group_name_H-M "P -1"
_symmetry_group_IT_number 2
_symmetry_cell_setting 'triclinic'
loop_
_space_group_symop_operation_xyz
x,y,z
-x,-y,-z
loop_
_atom_site_type_symbol
_atom_site_label
_atom_site_fract_x
_atom_site_fract_y
_atom_site_fract_z
Si Si1 0.896317 0.571266 0.729252
Si Si2 0.325945 0.867332 0.318487
Si Si3 0.509294 0.127046 0.568968
Si Si4 0.521762 0.391593 0.366518
Si Si5 0.257751 0.079956 0.247299
Si Si6 0.839301 0.598389 0.580350
Si Si7 0.501623 0.515790 0.845187
O O1 0.757802 0.329864 0.712154
O O2 0.939995 0.634372 0.553738
O O3 0.128549 0.769005 0.565012
O O4 0.759787 0.555047 0.073231
O O5 0.438601 0.044532 0.443809
O O6 0.500000 0.000000 0.000000
O O7 0.739400 0.397074 0.429877
O O8 0.500000 0.000000 0.500000
O O9 0.361177 0.080678 0.914794
O O10 0.500000 0.500000 0.500000
O O11 0.360684 0.165571 0.306411
O O12 0.461715 0.355999 0.621475
O O13 0.278155 0.227990 0.336667
O O14 0.013701 0.824132 0.423241
O O15 0.666562 0.539817 0.919182
O O16 0.500000 0.500000 0.000000
#
# Coordination Sequence:
#
# PCOD8001297 Si02
#       7
#     2   2   2   2   2   2   2
#     4  11  23  44  68 101 132 172 232 269 334 400
#     4  11  27  43  68  99 133 176 222 282 332 391
#     4  11  22  44  65  94 135 172 224 279 329 394
#     4  10  19  44  70  95 134 176 218 272 329 402
#     4  10  23  40  66  98 127 175 226 266 332 397
#     4  11  23  42  69  97 132 180 222 268 336 399
#     4  10  23  43  66 100 140 167 221 279 328 394
#
# _framework density 21.187221000000001
#
# number of rings (size 3 to 8) (size 9 to 14) (size 15 to 20)
#    0.000    1.429    5.714    0.000    4.000    7.429 
#    0.000    0.000    0.000    0.000    0.000    0.000 
#    0.000    0.000    0.000    0.000    0.000    0.000 
#
# Total GULP energy -173480.502165 kJ/mol
# GULP energy per Si atom -12391.464440 kJ/mol
# Density = 2.113900 g / cm^3
# Si number density = 21.187221 Si / 1000 Ang^3
#
#
#
# Elastic Constant Matrix: (Units=GPa)
#
#
# Indices 1 2 3 4 5 6 
#
# 1 118.0840 53.0030 49.8681 6.1064 12.2375 12.4838
# 2 53.0030 138.6832 64.1978 -8.1146 19.6764 8.9696
# 3 49.8681 64.1978 116.1548 16.1635 7.0563 17.8916
# 4 6.1064 -8.1146 16.1635 38.0375 6.8283 13.3505
# 5 12.2375 19.6764 7.0563 6.8283 46.4216 7.4730
# 6 12.4838 8.9696 17.8916 13.3505 7.4730 35.5719
#
#
#
# Elastic Compliance Matrix: (Units=1/GPa)
#
#
# Indices 1 2 3 4 5 6 
#
# 1 0.011217 -0.002682 -0.002998 -0.000426 -0.001082 -0.001365
# 2 -0.002682 0.012104 -0.006098 0.006600 -0.004370 -0.000602
# 3 -0.002998 -0.006098 0.014437 -0.006435 0.002578 -0.002798
# 4 -0.000426 0.006600 -0.006435 0.035065 -0.005200 -0.010346
# 5 -0.001082 -0.004370 0.002578 -0.005200 0.024538 -0.003018
# 6 -0.001365 -0.000602 -0.002798 -0.010346 -0.003018 0.034667
#
#
# Mechanical properties :
#
#
# Convention : Reuss Voigt Hill
#
# Bulk Modulus (GPa) = 70.42076 78.56221 74.49148
# Shear Modulus (GPa) = 31.18768 37.72976 34.45872
#
# Velocity S-wave (km/s) = 3.84083 4.22451 4.03723
# Velocity P-wave (km/s) = 7.27866 7.80742 7.54767
#
# Compressibility (1/GPa) = 0.01420036
#
# Stress axis : x y z
#
# Youngs Moduli (GPa) = 89.14955 82.61727 69.26805
#
# Poissons Ratio (x) = 0.22160 0.20767
# Poissons Ratio (y) = 0.23913 0.42242
# Poissons Ratio (z) = 0.26727 0.50383
#
# Static dielectric constant tensor:
#      x y z
#    x 3.901090 0.029430 0.136800 
#    y 0.029430 4.587830 0.040440 
#    z 0.136800 0.040440 3.929630 
# 
# 
# High freq. dielectric constant tensor:
#      x y z
#    x 1.830470 0.000230 0.003510 
#    y 0.000230 1.833240 0.010190 
#    z 0.003510 0.010190 1.831450 
# 
# From -- ./inp_files/355028.got.cif
#   From: 2010.06.25/outbox.cif.g09.slc.cpg/sg2_178_cif.got.tgz:355028.got - 2010.06.27 13:26:56.
