data_PCOD8001215
_publ_section_title
;
Structure prediction by ZEFSAII (Michael W. Deem and Ramdas Pophale) SiO2 
 PCOD8001215
Probable space group: P -1
;
_chemical_formula_sum "Si O2"
_cell_formula_units_Z 16
_cell_length_a 14.803141
_cell_length_b 14.966200
_cell_length_c 9.022258
_cell_angle_alpha 100.007073
_cell_angle_beta 49.137345
_cell_angle_gamma 139.648089
_cell_volume 732.449227
_symmetry_space_group_name_H-M "P -1"
_symmetry_group_IT_number 2
_symmetry_cell_setting 'triclinic'
loop_
_space_group_symop_operation_xyz
x,y,z
-x,-y,-z
loop_
_atom_site_type_symbol
_atom_site_label
_atom_site_fract_x
_atom_site_fract_y
_atom_site_fract_z
Si Si1 0.211149 0.581963 0.365437
Si Si2 0.761170 0.859692 0.401292
Si Si3 0.588409 0.110083 0.203527
Si Si4 0.066219 0.903433 0.967025
Si Si5 0.339585 0.076648 0.224251
Si Si6 0.332125 0.473041 0.635694
Si Si7 0.580517 0.174765 0.544880
Si Si8 0.975059 0.702785 0.365475
O O1 0.235209 0.633208 0.523513
O O2 0.136880 0.427056 0.412688
O O3 0.000000 0.500000 0.500000
O O4 0.459017 0.760698 0.062663
O O5 0.742375 0.885110 0.594879
O O6 0.487530 0.664274 0.571586
O O7 0.923273 0.876054 0.225928
O O8 0.898791 0.028076 0.209320
O O9 0.445068 0.073071 0.225000
O O10 0.654558 0.215457 0.305230
O O11 0.409147 0.913213 0.400965
O O12 0.832098 0.232848 0.907132
O O13 0.911222 0.707255 0.057576
O O14 0.314016 0.039782 0.816636
O O15 0.106818 0.880167 0.334892
O O16 0.500000 0.500000 0.500000
O O17 0.249744 0.421739 0.537477
#
# Coordination Sequence:
#
# PCOD8001215 Si02
#       8
#     2   2   2   2   2   2   2   2
#     4  12  25  40  64  95 141 178 215 266 340 394
#     4  10  23  39  69  95 127 171 225 268 323 389
#     4  11  22  39  68  96 131 176 220 267 323 399
#     4  10  19  42  67  93 124 170 219 279 321 375
#     4  12  24  45  62 102 140 173 215 272 334 401
#     4  10  22  42  67  96 126 170 227 274 319 384
#     4  11  22  40  66  99 127 174 229 270 324 397
#     4  12  24  41  68  95 139 178 212 274 337 388
#
# _framework density 21.844515000000001
#
# number of rings (size 3 to 8) (size 9 to 14) (size 15 to 20)
#    0.000    1.000    5.000    1.875    0.000    2.500 
#    0.000    5.625    0.000   10.500    0.000    0.000 
#    0.000    0.000    0.000    0.000    0.000    0.000 
#
# Total GULP energy -198337.112400 kJ/mol
# GULP energy per Si atom -12396.069525 kJ/mol
# Density = 2.179480 g / cm^3
# Si number density = 21.844515 Si / 1000 Ang^3
#
#
#
# Elastic Constant Matrix: (Units=GPa)
#
#
# Indices 1 2 3 4 5 6 
#
# 1 80.5107 20.2065 24.4238 -3.9929 7.4720 7.9438
# 2 20.2065 134.6625 69.7580 0.1199 3.4706 18.8299
# 3 24.4238 69.7580 71.0436 2.2987 9.5460 5.2152
# 4 -3.9929 0.1199 2.2987 38.8744 -9.0726 4.9115
# 5 7.4720 3.4706 9.5460 -9.0726 38.2728 -10.1475
# 6 7.9438 18.8299 5.2152 4.9115 -10.1475 30.8151
#
#
#
# Elastic Compliance Matrix: (Units=1/GPa)
#
#
# Indices 1 2 3 4 5 6 
#
# 1 0.014632 0.001695 -0.006089 0.001929 -0.002320 -0.004848
# 2 0.001695 0.017031 -0.016884 0.002316 0.000733 -0.008114
# 3 -0.006089 -0.016884 0.033206 -0.004418 -0.005217 0.005253
# 4 0.001929 0.002316 -0.004418 0.028082 0.006220 -0.003593
# 5 -0.002320 0.000733 -0.005217 0.006220 0.032104 0.010613
# 6 -0.004848 -0.008114 0.005253 -0.003593 0.010613 0.041839
#
#
# Mechanical properties :
#
#
# Convention : Reuss Voigt Hill
#
# Bulk Modulus (GPa) = 44.81720 57.22151 51.01936
# Shear Modulus (GPa) = 23.05349 33.04768 28.05058
#
# Velocity S-wave (km/s) = 3.25213 3.89377 3.58732
# Velocity P-wave (km/s) = 5.88751 6.81667 6.36906
#
# Compressibility (1/GPa) = 0.02231286
#
# Stress axis : x y z
#
# Youngs Moduli (GPa) = 68.34381 58.71493 30.11536
#
# Poissons Ratio (x) = -0.09951 0.18338
# Poissons Ratio (y) = -0.11583 0.50846
# Poissons Ratio (z) = 0.41615 0.99132
#
# Static dielectric constant tensor:
#      x y z
#    x 4.010200 -0.178000 0.140710 
#    y -0.178000 4.267160 -0.167870 
#    z 0.140710 -0.167870 3.976400 
# 
# 
# High freq. dielectric constant tensor:
#      x y z
#    x 1.867300 -0.004520 0.008070 
#    y -0.004520 1.855220 -0.018300 
#    z 0.008070 -0.018300 1.851750 
# 
# From -- ./inp_files/315392.got.cif
#   From: 2010.06.25/outbox.cif.g09.slc.cpg/sg2_158_cif.got.tgz:315392.got - 2010.06.27 13:26:56.
