data_PCOD8001304
_publ_section_title
;
Structure prediction by ZEFSAII (Michael W. Deem and Ramdas Pophale) SiO2 
 PCOD8001304
Probable space group: P -1
;
_chemical_formula_sum "Si O2"
_cell_formula_units_Z 16
_cell_length_a 10.697098
_cell_length_b 15.206114
_cell_length_c 6.718954
_cell_angle_alpha 55.332476
_cell_angle_beta 92.876019
_cell_angle_gamma 119.825953
_cell_volume 737.169890
_symmetry_space_group_name_H-M "P -1"
_symmetry_group_IT_number 2
_symmetry_cell_setting 'triclinic'
loop_
_space_group_symop_operation_xyz
x,y,z
-x,-y,-z
loop_
_atom_site_type_symbol
_atom_site_label
_atom_site_fract_x
_atom_site_fract_y
_atom_site_fract_z
Si Si1 0.363782 0.358577 0.725508
Si Si2 0.825231 0.845458 0.356387
Si Si3 0.100546 0.893419 0.124250
Si Si4 0.579784 0.950842 0.854785
Si Si5 0.403638 0.806658 0.406538
Si Si6 0.919587 0.629813 0.302359
Si Si7 0.938767 0.438021 0.284811
Si Si8 0.395392 0.213499 0.254715
O O1 0.500000 0.500000 0.500000
O O2 0.309667 0.248708 0.691531
O O3 0.229668 0.374308 0.742190
O O4 0.429289 0.326086 0.961949
O O5 0.760142 0.823416 0.602500
O O6 0.963842 0.827691 0.366184
O O7 0.901208 0.996368 0.131051
O O8 0.263583 0.949936 0.149557
O O9 0.062919 0.781220 0.107977
O O10 0.532942 0.051033 0.673799
O O11 0.615218 0.900960 0.724912
O O12 0.459363 0.832589 0.145257
O O13 0.221953 0.703353 0.541006
O O14 0.478658 0.745432 0.616579
O O15 0.924180 0.545940 0.241086
O O16 0.932371 0.572816 0.587386
O O17 0.000000 0.500000 0.000000
#
# Coordination Sequence:
#
# PCOD8001304 Si02
#       8
#     2   2   2   2   2   2   2   2
#     4  11  26  44  68  95 137 180 218 279 339 395
#     4  10  23  42  66 100 131 176 218 274 337 398
#     4  10  19  45  67  92 140 167 217 277 335 397
#     4  11  23  44  69 101 135 178 218 285 343 383
#     4  11  25  44  69 100 136 175 227 278 335 407
#     4  10  25  45  66  96 131 180 217 274 340 384
#     4  11  26  45  69  96 131 178 229 277 326 403
#     4  12  24  41  68 104 132 173 227 269 335 406
#
# _framework density 21.704630000000002
#
# number of rings (size 3 to 8) (size 9 to 14) (size 15 to 20)
#    0.000    1.250    3.750    0.375    5.250    5.000 
#    0.000    0.000    0.000    0.000    0.000    0.000 
#    0.000    0.000    0.000    0.000    0.000    0.000 
#
# Total GULP energy -198230.411939 kJ/mol
# GULP energy per Si atom -12389.400746 kJ/mol
# Density = 2.165523 g / cm^3
# Si number density = 21.704630 Si / 1000 Ang^3
#
#
#
# Elastic Constant Matrix: (Units=GPa)
#
#
# Indices 1 2 3 4 5 6 
#
# 1 79.3440 12.5506 44.0699 1.0034 9.5675 0.3961
# 2 12.5506 88.7891 52.9955 -12.3892 -5.3569 -14.6096
# 3 44.0699 52.9955 135.6855 -0.8198 -5.7275 -5.6708
# 4 1.0034 -12.3892 -0.8198 22.6219 0.4717 0.0618
# 5 9.5675 -5.3569 -5.7275 0.4717 39.9899 -5.7376
# 6 0.3961 -14.6096 -5.6708 0.0618 -5.7376 36.7822
#
#
#
# Elastic Compliance Matrix: (Units=1/GPa)
#
#
# Indices 1 2 3 4 5 6 
#
# 1 0.016341 0.000499 -0.005781 -0.000554 -0.004898 -0.001632
# 2 0.000499 0.017610 -0.006634 0.009321 0.002080 0.006275
# 3 -0.005781 -0.006634 0.011896 -0.002990 0.002177 -0.000394
# 4 -0.000554 0.009321 -0.002990 0.049200 0.000846 0.003297
# 5 -0.004898 0.002080 0.002177 0.000846 0.027549 0.005510
# 6 -0.001632 0.006275 -0.000394 0.003297 0.005510 0.030490
#
#
# Mechanical properties :
#
#
# Convention : Reuss Voigt Hill
#
# Bulk Modulus (GPa) = 45.42116 58.11674 51.76895
# Shear Modulus (GPa) = 27.13614 32.82565 29.98090
#
# Velocity S-wave (km/s) = 3.53972 3.89315 3.72063
# Velocity P-wave (km/s) = 6.13828 6.85880 6.50852
#
# Compressibility (1/GPa) = 0.02201617
#
# Stress axis : x y z
#
# Youngs Moduli (GPa) = 61.19593 56.78470 84.06256
#
# Poissons Ratio (x) = -0.02834 0.48594
# Poissons Ratio (y) = -0.03054 0.55766
# Poissons Ratio (z) = 0.35375 0.37670
#
# Static dielectric constant tensor:
#      x y z
#    x 4.183320 -0.332350 0.112390 
#    y -0.332350 3.796810 -0.024060 
#    z 0.112390 -0.024060 3.910070 
# 
# 
# High freq. dielectric constant tensor:
#      x y z
#    x 1.869020 -0.014610 0.007790 
#    y -0.014610 1.853150 -0.011720 
#    z 0.007790 -0.011720 1.839260 
# 
# From -- ./inp_files/77183.got.cif
#   From: 2010.06.25/outbox.cif.g09.slc.cpg/sg2_39_cif.got.tgz:77183.got - 2010.06.27 13:26:56.
