data_PCOD8001242
_publ_section_title
;
Structure prediction by ZEFSAII (Michael W. Deem and Ramdas Pophale) SiO2 
 PCOD8001242
Probable space group: P -1
;
_chemical_formula_sum "Si O2"
_cell_formula_units_Z 16
_cell_length_a 5.051701
_cell_length_b 10.652959
_cell_length_c 11.421062
_cell_angle_alpha 90.505410
_cell_angle_beta 76.496977
_cell_angle_gamma 103.417788
_cell_volume 580.658762
_symmetry_space_group_name_H-M "P -1"
_symmetry_group_IT_number 2
_symmetry_cell_setting 'triclinic'
loop_
_space_group_symop_operation_xyz
x,y,z
-x,-y,-z
loop_
_atom_site_type_symbol
_atom_site_label
_atom_site_fract_x
_atom_site_fract_y
_atom_site_fract_z
Si Si1 0.690499 0.089536 0.607027
Si Si2 0.309359 0.776063 0.076001
Si Si3 0.169133 0.505384 0.218339
Si Si4 0.234858 0.159132 0.796862
Si Si5 0.964967 0.105035 0.346485
Si Si6 0.170871 0.749046 0.827281
Si Si7 0.167670 0.340758 0.626162
Si Si8 0.602721 0.650929 0.639766
O O1 0.357416 0.069534 0.686210
O O2 0.701380 0.068458 0.465263
O O3 0.879727 0.229145 0.629763
O O4 0.820261 0.985832 0.661484
O O5 0.613006 0.845705 0.095257
O O6 0.251805 0.630248 0.128598
O O7 0.095627 0.861874 0.142517
O O8 0.325301 0.776319 0.935124
O O9 0.080596 0.380845 0.139721
O O10 0.913769 0.524905 0.329750
O O11 0.409687 0.478354 0.281294
O O12 0.323676 0.296813 0.722371
O O13 0.097757 0.252938 0.368345
O O14 0.910222 0.120179 0.211047
O O15 0.370695 0.723418 0.702910
O O16 0.397234 0.373335 0.500026
#
# Coordination Sequence:
#
# PCOD8001242 Si02
#       8
#     2   2   2   2   2   2   2   2
#     4  10  19  42  71  96 131 164 215 270 328 385
#     4  11  26  42  67  92 132 173 226 258 314 380
#     4  10  22  39  61  97 126 172 214 264 322 383
#     4  11  22  43  67  96 124 173 213 271 314 379
#     4   9  22  40  66 101 126 167 213 267 329 386
#     4  11  24  41  60  93 133 174 214 269 314 384
#     4  10  21  39  65 100 130 165 215 266 329 389
#     4  10  22  38  63  95 134 169 208 269 326 386
#
# _framework density 27.554908999999999
#
# number of rings (size 3 to 8) (size 9 to 14) (size 15 to 20)
#    0.000    1.750    2.500    1.500    7.000    2.000 
#    0.000    5.000    0.000    0.000    0.000    0.000 
#    0.000    0.000    0.000    0.000    0.000    0.000 
#
# Total GULP energy -198215.022334 kJ/mol
# GULP energy per Si atom -12388.438896 kJ/mol
# Density = 2.749219 g / cm^3
# Si number density = 27.554909 Si / 1000 Ang^3
#
#
#
# Elastic Constant Matrix: (Units=GPa)
#
#
# Indices 1 2 3 4 5 6 
#
# 1 64.9964 6.4753 8.7607 -14.7653 1.7945 -33.9687
# 2 6.4753 97.3349 30.7835 -1.3452 2.4731 -13.3894
# 3 8.7607 30.7835 119.0934 -6.1128 37.9382 -9.0126
# 4 -14.7653 -1.3452 -6.1128 32.7654 -3.8313 6.0064
# 5 1.7945 2.4731 37.9382 -3.8313 44.7207 -10.5064
# 6 -33.9687 -13.3894 -9.0126 6.0064 -10.5064 35.4704
#
#
#
# Elastic Compliance Matrix: (Units=1/GPa)
#
#
# Indices 1 2 3 4 5 6 
#
# 1 0.037463 0.003840 -0.003992 0.010690 0.011492 0.037906
# 2 0.003840 0.012488 -0.004418 0.000411 0.004976 0.008674
# 3 -0.003992 -0.004418 0.013295 0.000126 -0.012214 -0.005752
# 4 0.010690 0.000411 0.000126 0.034781 0.003747 0.005645
# 5 0.011492 0.004976 -0.012214 0.003747 0.037033 0.020116
# 6 0.037906 0.008674 -0.005752 0.005645 0.020116 0.071308
#
#
# Mechanical properties :
#
#
# Convention : Reuss Voigt Hill
#
# Bulk Modulus (GPa) = 18.48250 41.49598 29.98924
# Shear Modulus (GPa) = 21.40932 38.28498 29.84715
#
# Velocity S-wave (km/s) = 2.79044 3.73152 3.29475
# Velocity P-wave (km/s) = 4.13572 5.80153 5.03795
#
# Compressibility (1/GPa) = 0.05410525
#
# Stress axis : x y z
#
# Youngs Moduli (GPa) = 26.69331 80.07661 75.21842
#
# Poissons Ratio (x) = -0.30753 0.30029
# Poissons Ratio (y) = -0.10251 0.33233
# Poissons Ratio (z) = 0.10656 0.35380
#
# Static dielectric constant tensor:
#      x y z
#    x 5.059340 0.108010 0.163290 
#    y 0.108010 5.357830 -0.057000 
#    z 0.163290 -0.057000 5.010040 
# 
# 
# High freq. dielectric constant tensor:
#      x y z
#    x 2.112840 0.002830 0.017300 
#    y 0.002830 2.132680 -0.000710 
#    z 0.017300 -0.000710 2.105340 
# 
# From -- ./inp_files/80847.got.cif
#   From: 2010.06.25/outbox.cif.g09.slc.cpg/sg2_41_cif.got.tgz:80847.got - 2010.06.27 13:26:56.
