data_PCOD8001163
_publ_section_title
;
Structure prediction by ZEFSAII (Michael W. Deem and Ramdas Pophale) SiO2 
 PCOD8001163
Probable space group: P -1
;
_chemical_formula_sum "Si O2"
_cell_formula_units_Z 12
_cell_length_a 8.321972
_cell_length_b 10.103249
_cell_length_c 8.551308
_cell_angle_alpha 92.680771
_cell_angle_beta 49.366078
_cell_angle_gamma 110.150839
_cell_volume 496.063423
_symmetry_space_group_name_H-M "P -1"
_symmetry_group_IT_number 2
_symmetry_cell_setting 'triclinic'
loop_
_space_group_symop_operation_xyz
x,y,z
-x,-y,-z
loop_
_atom_site_type_symbol
_atom_site_label
_atom_site_fract_x
_atom_site_fract_y
_atom_site_fract_z
Si Si1 0.767400 0.149400 0.952410
Si Si2 0.698373 0.594480 0.999052
Si Si3 0.980168 0.442480 0.685717
Si Si4 0.267562 0.336588 0.685776
Si Si5 0.123982 0.103344 0.241688
Si Si6 0.656117 0.869585 0.584809
O O1 0.780317 0.274511 0.823814
O O2 0.015970 0.210676 0.887689
O O3 0.735705 0.999217 0.879851
O O4 0.570933 0.116795 0.206283
O O5 0.910482 0.547354 0.845305
O O6 0.785803 0.765612 0.927681
O O7 0.500000 0.500000 0.000000
O O8 0.606549 0.571996 0.235102
O O9 0.000000 0.500000 0.500000
O O10 0.225374 0.448149 0.596480
O O11 0.418213 0.260466 0.502415
O O12 0.196906 0.167761 0.373943
O O13 0.843229 0.020614 0.399742
#
# Coordination Sequence:
#
# PCOD8001163 Si02
#       6
#     2   2   2   2   2   2
#     4   9  21  41  73  98 138 180 226 282 348 404
#     4  12  25  45  67 100 140 186 231 283 348 405
#     4  10  22  44  70  99 137 177 225 286 346 404
#     4   9  23  44  68 102 140 177 231 289 334 412
#     4  10  22  39  68 101 140 179 231 281 333 416
#     4  10  19  41  72  98 134 182 228 280 345 401
#
# _framework density 24.190453999999999
#
# number of rings (size 3 to 8) (size 9 to 14) (size 15 to 20)
#    1.000    1.000    0.000    3.000    2.333    2.667 
#    3.000    5.833    0.000    0.000    0.000    1.167 
#    0.000    0.000    0.000    0.000    0.000    0.000 
#
# Total GULP energy -148688.214067 kJ/mol
# GULP energy per Si atom -12390.684506 kJ/mol
# Density = 2.413540 g / cm^3
# Si number density = 24.190454 Si / 1000 Ang^3
#
#
#
# Elastic Constant Matrix: (Units=GPa)
#
#
# Indices 1 2 3 4 5 6 
#
# 1 56.7671 40.6630 37.5559 0.0321 31.0816 4.6802
# 2 40.6630 151.8112 77.1182 9.2979 12.8087 -17.2646
# 3 37.5559 77.1182 158.2840 18.0379 -5.8484 2.5908
# 4 0.0321 9.2979 18.0379 39.7631 7.7181 8.8879
# 5 31.0816 12.8087 -5.8484 7.7181 42.6704 7.3520
# 6 4.6802 -17.2646 2.5908 8.8879 7.3520 35.6317
#
#
#
# Elastic Compliance Matrix: (Units=1/GPa)
#
#
# Indices 1 2 3 4 5 6 
#
# 1 0.053109 -0.005540 -0.013188 0.016150 -0.041016 -0.004266
# 2 -0.005540 0.011086 -0.003971 -0.002243 -0.000651 0.007082
# 3 -0.013188 -0.003971 0.012753 -0.007096 0.014224 -0.002284
# 4 0.016150 -0.002243 -0.007096 0.033866 -0.016869 -0.007659
# 5 -0.041016 -0.000651 0.014224 -0.016869 0.059192 -0.003968
# 6 -0.004266 0.007082 -0.002284 -0.007659 -0.003968 0.034952
#
#
# Mechanical properties :
#
#
# Convention : Reuss Voigt Hill
#
# Bulk Modulus (GPa) = 31.69555 75.28182 53.48868
# Shear Modulus (GPa) = 19.16644 37.71473 28.44058
#
# Velocity S-wave (km/s) = 2.81786 3.95280 3.43256
# Velocity P-wave (km/s) = 4.87012 7.21255 6.15382
#
# Compressibility (1/GPa) = 0.03155017
#
# Stress axis : x y z
#
# Youngs Moduli (GPa) = 18.82918 90.20415 78.41051
#
# Poissons Ratio (x) = 0.49970 1.03410
# Poissons Ratio (y) = 0.10431 0.31139
# Poissons Ratio (z) = 0.24832 0.35822
#
# Static dielectric constant tensor:
#      x y z
#    x 3.934650 0.043860 -0.051620 
#    y 0.043860 4.383400 0.088240 
#    z -0.051620 0.088240 4.452750 
# 
# 
# High freq. dielectric constant tensor:
#      x y z
#    x 1.926380 0.006460 -0.006850 
#    y 0.006460 1.965310 0.004280 
#    z -0.006850 0.004280 1.971750 
# 
# From -- ./inp_files/159042.got.cif
#   From: 2010.06.25/outbox.cif.g09.slc.cpg/sg2_80_cif.got.tgz:159042.got - 2010.06.27 13:26:56.
