data_PCOD8001344
_publ_section_title
;
Structure prediction by ZEFSAII (Michael W. Deem and Ramdas Pophale) SiO2 
 PCOD8001344
Probable space group: P -1
;
_chemical_formula_sum "Si O2"
_cell_formula_units_Z 16
_cell_length_a 23.504513
_cell_length_b 8.940253
_cell_length_c 14.627544
_cell_angle_alpha 140.711927
_cell_angle_beta 36.073110
_cell_angle_gamma 149.266727
_cell_volume 892.300792
_symmetry_space_group_name_H-M "P -1"
_symmetry_group_IT_number 2
_symmetry_cell_setting 'triclinic'
loop_
_space_group_symop_operation_xyz
x,y,z
-x,-y,-z
loop_
_atom_site_type_symbol
_atom_site_label
_atom_site_fract_x
_atom_site_fract_y
_atom_site_fract_z
Si Si1 0.160578 0.679580 0.046260
Si Si2 0.970909 0.756664 0.292153
Si Si3 0.134021 0.480046 0.187017
Si Si4 0.372854 0.741812 0.089799
Si Si5 0.173018 0.408351 0.423898
Si Si6 0.106096 0.161136 0.760309
Si Si7 0.366224 0.375265 0.082259
Si Si8 0.202232 0.820709 0.433995
O O1 0.149469 0.658655 0.160547
O O2 0.032503 0.592140 0.132545
O O3 0.279770 0.012085 0.017651
O O4 0.174672 0.438486 0.873519
O O5 0.854141 0.589164 0.433314
O O6 0.925908 0.745805 0.244973
O O7 0.075491 0.093457 0.350521
O O8 0.262301 0.530602 0.059623
O O9 0.112101 0.619730 0.369265
O O10 0.017234 0.126411 0.166251
O O11 0.382179 0.515659 0.028185
O O12 0.337762 0.918374 0.280881
O O13 0.500000 0.000000 0.000000
O O14 0.306468 0.482507 0.277670
O O15 0.159997 0.637162 0.497009
O O16 0.202895 0.101709 0.581489
O O17 0.500000 0.500000 0.000000
#
# Coordination Sequence:
#
# PCOD8001344 Si02
#       8
#     2   2   2   2   2   2   2   2
#     4  11  23  35  52  83 114 146 175 221 283 324
#     4  10  20  31  52  76 113 141 177 223 272 321
#     4  10  20  34  55  79 109 147 186 216 263 320
#     4   9  19  35  59  83 101 137 191 231 258 307
#     4   9  18  33  53  82 101 140 186 224 261 312
#     4  12  21  34  53  82 117 144 176 226 274 326
#     4  10  20  36  58  81 108 137 185 229 267 322
#     4   9  20  33  55  78 108 138 189 218 264 314
#
# _framework density 17.931175
#
# number of rings (size 3 to 8) (size 9 to 14) (size 15 to 20)
#    0.750    1.250    1.250    3.375    5.250    0.000 
#    0.000    0.000    0.000   11.250    0.000    0.000 
#    0.000    0.000    0.000    0.000    0.000    0.000 
#
# Total GULP energy -198310.545579 kJ/mol
# GULP energy per Si atom -12394.409099 kJ/mol
# Density = 1.789036 g / cm^3
# Si number density = 17.931175 Si / 1000 Ang^3
#
#
#
# Elastic Constant Matrix: (Units=GPa)
#
#
# Indices 1 2 3 4 5 6 
#
# 1 95.7871 38.9638 38.4937 -8.6429 -16.4493 -20.8446
# 2 38.9638 105.8789 50.1388 -12.4510 -3.4993 -15.0945
# 3 38.4937 50.1388 85.3318 4.8829 -10.3932 -4.1478
# 4 -8.6429 -12.4510 4.8829 30.2564 -5.5415 1.3315
# 5 -16.4493 -3.4993 -10.3932 -5.5415 24.0058 -3.9083
# 6 -20.8446 -15.0945 -4.1478 1.3315 -3.9083 27.6924
#
#
#
# Elastic Compliance Matrix: (Units=1/GPa)
#
#
# Indices 1 2 3 4 5 6 
#
# 1 0.020177 -0.000485 -0.006676 0.008780 0.015444 0.015680
# 2 -0.000485 0.015804 -0.009075 0.007702 0.000902 0.006647
# 3 -0.006676 -0.009075 0.020213 -0.008653 -0.000211 -0.006557
# 4 0.008780 0.007702 -0.008653 0.042403 0.014736 0.009551
# 5 0.015444 0.000902 -0.000211 0.014736 0.058886 0.019687
# 6 0.015680 0.006647 -0.006557 0.009551 0.019687 0.052874
#
#
# Mechanical properties :
#
#
# Convention : Reuss Voigt Hill
#
# Bulk Modulus (GPa) = 42.15508 60.24336 51.19922
# Shear Modulus (GPa) = 19.94131 27.01771 23.47951
#
# Velocity S-wave (km/s) = 3.33844 3.88589 3.62252
# Velocity P-wave (km/s) = 6.19844 7.33509 6.79059
#
# Compressibility (1/GPa) = 0.02372193
#
# Stress axis : x y z
#
# Youngs Moduli (GPa) = 49.56230 63.27576 49.47274
#
# Poissons Ratio (x) = 0.03072 0.33026
# Poissons Ratio (y) = 0.02406 0.44895
# Poissons Ratio (z) = 0.33086 0.57421
#
# Static dielectric constant tensor:
#      x y z
#    x 3.317770 -0.249130 -0.135270 
#    y -0.249130 3.120970 -0.152530 
#    z -0.135270 -0.152530 3.252990 
# 
# 
# High freq. dielectric constant tensor:
#      x y z
#    x 1.697750 -0.028960 -0.011910 
#    y -0.028960 1.672930 -0.015350 
#    z -0.011910 -0.015350 1.684230 
# 
# From -- ./inp_files/542609.got.cif
#   From: 2010.06.25/outbox.cif.g09.slc.cpg/sg2_272_cif.got.tgz:542609.got - 2010.06.27 13:26:56.
