data_PCOD8001533
_publ_section_title
;
Structure prediction by ZEFSAII (Michael W. Deem and Ramdas Pophale) SiO2 
 PCOD8001533
Probable space group: P -1
;
_chemical_formula_sum "Si O2"
_cell_formula_units_Z 16
_cell_length_a 8.719105
_cell_length_b 11.317414
_cell_length_c 13.922093
_cell_angle_alpha 130.639435
_cell_angle_beta 136.449829
_cell_angle_gamma 69.689618
_cell_volume 697.443080
_symmetry_space_group_name_H-M "P -1"
_symmetry_group_IT_number 2
_symmetry_cell_setting 'triclinic'
loop_
_space_group_symop_operation_xyz
x,y,z
-x,-y,-z
loop_
_atom_site_type_symbol
_atom_site_label
_atom_site_fract_x
_atom_site_fract_y
_atom_site_fract_z
Si Si1 0.811439 0.612861 0.560440
Si Si2 0.909825 0.105241 0.592278
Si Si3 0.237492 0.837072 0.799939
Si Si4 0.883085 0.311657 0.524503
Si Si5 0.605354 0.572095 0.246208
Si Si6 0.523975 0.134761 0.729363
Si Si7 0.602382 0.787343 0.076193
Si Si8 0.904461 0.957504 0.829380
O O1 0.788282 0.470810 0.552058
O O2 0.631665 0.553224 0.362039
O O3 0.757224 0.771345 0.668108
O O4 0.077227 0.660367 0.666017
O O5 0.829295 0.248091 0.574531
O O6 0.123369 0.173355 0.796348
O O7 0.688684 0.994383 0.486336
O O8 0.000000 0.000000 0.500000
O O9 0.240741 0.830247 0.681749
O O10 0.112349 0.971207 0.854273
O O11 0.491187 0.862351 0.974773
O O12 0.156063 0.348168 0.654897
O O13 0.442626 0.693846 0.216168
O O14 0.488372 0.403038 0.057361
O O15 0.473889 0.139502 0.822639
O O16 0.755802 0.077308 0.789256
O O17 0.000000 0.000000 0.000000
#
# Coordination Sequence:
#
# PCOD8001533 Si02
#       8
#     2   2   2   2   2   2   2   2
#     4   9  19  32  56  84 106 139 185 240 278 303
#     4  10  23  34  52  83 122 152 167 220 292 341
#     4   9  18  32  58  85 104 135 186 243 269 306
#     4  11  17  36  58  82 113 138 192 231 282 312
#     4  11  18  32  59  84 107 136 192 242 269 313
#     4  11  22  36  51  82 125 149 171 218 293 342
#     4  11  18  33  58  87 106 136 193 236 269 311
#     4  10  20  33  54  80 114 146 182 229 274 334
#
# _framework density 22.940939
#
# number of rings (size 3 to 8) (size 9 to 14) (size 15 to 20)
#    0.750    1.000    6.250    1.125    0.000    0.500 
#    0.000    3.125    2.750    0.750    0.000    0.000 
#    0.000    1.000    0.000    0.000    0.000    0.000 
#
# Total GULP energy -198359.604157 kJ/mol
# GULP energy per Si atom -12397.475260 kJ/mol
# Density = 2.288872 g / cm^3
# Si number density = 22.940939 Si / 1000 Ang^3
#
#
#
# Elastic Constant Matrix: (Units=GPa)
#
#
# Indices 1 2 3 4 5 6 
#
# 1 28.7038 30.9197 27.9908 -4.0897 1.2140 -10.4376
# 2 30.9197 140.9643 22.5596 -27.0143 3.1170 -21.0218
# 3 27.9908 22.5596 135.7067 -18.1903 4.9393 -15.5145
# 4 -4.0897 -27.0143 -18.1903 31.3503 -8.0095 -0.5827
# 5 1.2140 3.1170 4.9393 -8.0095 21.4475 -1.9337
# 6 -10.4376 -21.0218 -15.5145 -0.5827 -1.9337 26.9349
#
#
#
# Elastic Compliance Matrix: (Units=1/GPa)
#
#
# Indices 1 2 3 4 5 6 
#
# 1 0.059490 -0.011957 -0.010592 -0.009041 -0.001910 0.007287
# 2 -0.011957 0.012543 0.002659 0.011763 0.003282 0.007178
# 3 -0.010592 0.002659 0.010551 0.007344 0.000911 0.004273
# 4 -0.009041 0.011763 0.007344 0.049619 0.016739 0.012183
# 5 -0.001910 0.003282 0.000911 0.016739 0.052885 0.006505
# 6 0.007287 0.007178 0.004273 0.012183 0.006505 0.048744
#
#
# Mechanical properties :
#
#
# Convention : Reuss Voigt Hill
#
# Bulk Modulus (GPa) = 23.36214 52.03498 37.69856
# Shear Modulus (GPa) = 17.36829 30.87351 24.12090
#
# Velocity S-wave (km/s) = 2.75451 3.67247 3.24610
# Velocity P-wave (km/s) = 4.50801 6.38076 5.52432
#
# Compressibility (1/GPa) = 0.04280429
#
# Stress axis : x y z
#
# Youngs Moduli (GPa) = 16.80944 79.72315 94.77634
#
# Poissons Ratio (x) = 0.95328 1.00387
# Poissons Ratio (y) = 0.20100 -0.25202
# Poissons Ratio (z) = 0.17804 -0.21199
#
# Static dielectric constant tensor:
#      x y z
#    x 3.473500 -0.021770 0.049940 
#    y -0.021770 4.320990 -0.041500 
#    z 0.049940 -0.041500 4.500710 
# 
# 
# High freq. dielectric constant tensor:
#      x y z
#    x 1.837510 -0.000050 -0.007280 
#    y -0.000050 1.922960 -0.005420 
#    z -0.007280 -0.005420 1.916620 
# 
# From -- ./inp_files/568839.got.cif
#   From: 2010.06.25/outbox.cif.g09.slc.cpg/sg2_285_cif.got.tgz:568839.got - 2010.06.27 13:26:56.
