data_PCOD8001098
_publ_section_title
;
Structure prediction by ZEFSAII (Michael W. Deem and Ramdas Pophale) SiO2 
 PCOD8001098
Probable space group: P -1
;
_chemical_formula_sum "Si O2"
_cell_formula_units_Z 14
_cell_length_a 9.737499
_cell_length_b 23.232819
_cell_length_c 10.048502
_cell_angle_alpha 152.599738
_cell_angle_beta 140.152436
_cell_angle_gamma 34.324406
_cell_volume 584.660176
_symmetry_space_group_name_H-M "P -1"
_symmetry_group_IT_number 2
_symmetry_cell_setting 'triclinic'
loop_
_space_group_symop_operation_xyz
x,y,z
-x,-y,-z
loop_
_atom_site_type_symbol
_atom_site_label
_atom_site_fract_x
_atom_site_fract_y
_atom_site_fract_z
Si Si1 0.476512 0.891499 0.601881
Si Si2 0.673107 0.707371 0.124314
Si Si3 0.177102 0.886467 0.609969
Si Si4 0.021133 0.801127 0.900877
Si Si5 0.789986 0.387813 0.589421
Si Si6 0.892424 0.777362 0.033353
Si Si7 0.493567 0.265378 0.225912
O O1 0.483743 0.797086 0.285209
O O2 0.383320 0.841341 0.556677
O O3 0.750535 0.855640 0.757401
O O4 0.323881 0.060440 0.815345
O O5 0.940782 0.695030 0.313669
O O6 0.710812 0.548324 0.822517
O O7 0.548348 0.787537 0.057764
O O8 0.291609 0.864998 0.798595
O O9 0.061562 0.781252 0.286904
O O10 0.962536 0.052152 0.769134
O O11 0.215323 0.692308 0.716075
O O12 0.052616 0.721751 0.903186
O O13 0.581728 0.384399 0.521818
O O14 0.767620 0.679145 0.776766
#
# Coordination Sequence:
#
# PCOD8001098 Si02
#       7
#     2   2   2   2   2   2   2
#     4  10  19  41  66  91 122 169 202 244 308 376
#     4  10  24  44  66  87 123 167 210 244 303 372
#     4  11  22  38  64  94 128 157 204 253 310 362
#     4  10  19  41  66  91 122 169 202 244 308 376
#     4  10  24  44  66  87 123 167 210 244 303 372
#     4  11  22  38  64  94 128 157 204 253 310 362
#     4  12  23  41  62  97 126 155 204 263 307 351
#
# _framework density 23.945533999999999
#
# number of rings (size 3 to 8) (size 9 to 14) (size 15 to 20)
#    0.000    1.429    2.857    3.857    4.000    1.143 
#    0.000    1.429    0.000    0.000    0.000    0.000 
#    0.000    0.000    0.000    0.000    0.000    0.000 
#
# Total GULP energy -173520.046770 kJ/mol
# GULP energy per Si atom -12394.289055 kJ/mol
# Density = 2.389103 g / cm^3
# Si number density = 23.945534 Si / 1000 Ang^3
#
#
#
# Elastic Constant Matrix: (Units=GPa)
#
#
# Indices 1 2 3 4 5 6 
#
# 1 120.6600 48.0772 48.1920 -8.0025 17.7025 21.1413
# 2 48.0772 79.2916 20.2871 -29.3742 -12.0436 16.4906
# 3 48.1920 20.2871 75.4889 -14.7136 4.9182 22.3764
# 4 -8.0025 -29.3742 -14.7136 23.7797 5.2467 -8.6940
# 5 17.7025 -12.0436 4.9182 5.2467 45.2208 -6.7070
# 6 21.1413 16.4906 22.3764 -8.6940 -6.7070 30.5206
#
#
#
# Elastic Compliance Matrix: (Units=1/GPa)
#
#
# Indices 1 2 3 4 5 6 
#
# 1 0.020759 -0.018536 -0.010325 -0.021991 -0.010174 -0.005294
# 2 -0.018536 0.040755 0.009352 0.047330 0.011601 -0.000005
# 3 -0.010325 0.009352 0.024023 0.019245 0.000206 -0.009986
# 4 -0.021991 0.047330 0.019245 0.106015 0.007932 0.007492
# 5 -0.010174 0.011601 0.000206 0.007932 0.029638 0.009401
# 6 -0.005294 -0.000005 -0.009986 0.007492 0.009401 0.047956
#
#
# Mechanical properties :
#
#
# Convention : Reuss Voigt Hill
#
# Bulk Modulus (GPa) = 21.49701 56.50589 39.00145
# Shear Modulus (GPa) = 15.44774 30.49650 22.97212
#
# Velocity S-wave (km/s) = 2.54268 3.57259 3.10070
# Velocity P-wave (km/s) = 4.19729 6.37705 5.39833
#
# Compressibility (1/GPa) = 0.04651809
#
# Stress axis : x y z
#
# Youngs Moduli (GPa) = 48.17104 24.53676 41.62659
#
# Poissons Ratio (x) = 0.45482 0.42981
# Poissons Ratio (y) = 0.89291 -0.38928
# Poissons Ratio (z) = 0.49738 -0.22946
#
# Static dielectric constant tensor:
#      x y z
#    x 4.658280 0.002040 0.055910 
#    y 0.002040 4.134800 -0.516560 
#    z 0.055910 -0.516560 4.576700 
# 
# 
# High freq. dielectric constant tensor:
#      x y z
#    x 1.957180 -0.002810 0.020720 
#    y -0.002810 1.934710 -0.046290 
#    z 0.020720 -0.046290 1.945740 
# 
# From -- ./inp_files/224406.got.cif
#   From: 2010.06.25/outbox.cif.g09.slc.cpg/sg2_113_cif.got.tgz:224406.got - 2010.06.27 13:26:56.
