data_PCOD8001169
_publ_section_title
;
Structure prediction by ZEFSAII (Michael W. Deem and Ramdas Pophale) SiO2 
 PCOD8001169
Probable space group: P -1
;
_chemical_formula_sum "Si O2"
_cell_formula_units_Z 16
_cell_length_a 13.803236
_cell_length_b 15.091847
_cell_length_c 9.765456
_cell_angle_alpha 63.955884
_cell_angle_beta 91.130447
_cell_angle_gamma 37.870114
_cell_volume 838.763043
_symmetry_space_group_name_H-M "P -1"
_symmetry_group_IT_number 2
_symmetry_cell_setting 'triclinic'
loop_
_space_group_symop_operation_xyz
x,y,z
-x,-y,-z
loop_
_atom_site_type_symbol
_atom_site_label
_atom_site_fract_x
_atom_site_fract_y
_atom_site_fract_z
Si Si1 0.380647 0.828786 0.551535
Si Si2 0.750004 0.521631 0.400229
Si Si3 0.823826 0.918024 0.353627
Si Si4 0.968839 0.578539 0.589976
Si Si5 0.614253 0.425471 0.913599
Si Si6 0.954500 0.865499 0.904580
Si Si7 0.673594 0.173622 0.927936
Si Si8 0.806025 0.530634 0.708377
O O1 0.483239 0.627729 0.694392
O O2 0.568689 0.739525 0.619442
O O3 0.238552 0.975600 0.579233
O O4 0.235860 0.968455 0.319819
O O5 0.804539 0.570749 0.274903
O O6 0.519802 0.688783 0.262105
O O7 0.791253 0.509564 0.566804
O O8 0.927872 0.279293 0.528888
O O9 0.794031 0.825305 0.414249
O O10 0.686271 0.088597 0.113416
O O11 0.000000 0.500000 0.500000
O O12 0.896628 0.560374 0.708095
O O13 0.627820 0.323942 0.876930
O O14 0.500000 0.500000 0.000000
O O15 0.851985 0.246136 0.075619
O O16 0.032078 0.684377 0.058445
O O17 0.876959 0.986142 0.962227
#
# Coordination Sequence:
#
# PCOD8001169 Si02
#       8
#     2   2   2   2   2   2   2   2
#     4  11  24  41  61  92 122 160 199 247 311 351
#     4   9  20  36  63  90 119 161 201 245 289 355
#     4  10  22  38  63  89 124 158 199 248 295 356
#     4   8  17  38  61  89 123 155 198 253 285 351
#     4  11  26  41  62  90 123 155 202 258 295 357
#     4  11  24  41  64  89 120 163 202 245 302 359
#     4  12  21  42  64  88 119 167 201 244 301 354
#     4  10  19  42  60  88 130 152 198 257 291 350
#
# _framework density 19.075709
#
# number of rings (size 3 to 8) (size 9 to 14) (size 15 to 20)
#    0.750    1.000    3.750    0.375    1.750    2.500 
#    2.250    2.500    0.000    0.000    0.000    0.000 
#    0.000    0.000    0.000    0.000    0.000    0.000 
#
# Total GULP energy -198237.345162 kJ/mol
# GULP energy per Si atom -12389.834073 kJ/mol
# Density = 1.903229 g / cm^3
# Si number density = 19.075709 Si / 1000 Ang^3
#
#
#
# Elastic Constant Matrix: (Units=GPa)
#
#
# Indices 1 2 3 4 5 6 
#
# 1 -1115.2864 -271.2833 158.9785 -512.2265 166.2918 -403.2579
# 2 -271.2833 26.6241 51.1326 -121.6051 35.2337 -92.5296
# 3 158.9785 51.1326 85.6714 42.6620 -24.3806 42.2206
# 4 -512.2265 -121.6051 42.6620 -177.5713 71.0741 -167.9703
# 5 166.2918 35.2337 -24.3806 71.0741 -3.8843 57.5370
# 6 -403.2579 -92.5296 42.2206 -167.9703 57.5370 -100.3577
#
#
#
# Elastic Compliance Matrix: (Units=1/GPa)
#
#
# Indices 1 2 3 4 5 6 
#
# 1 0.004919 -0.001712 -0.001012 -0.006385 0.004382 -0.005414
# 2 -0.001712 0.011281 -0.001727 -0.000824 0.002361 -0.001512
# 3 -0.001012 -0.001727 0.011282 0.005583 0.001594 0.001973
# 4 -0.006385 -0.000824 0.005583 0.022664 0.004935 -0.006339
# 5 0.004382 0.002361 0.001594 0.004935 0.049865 0.001216
# 6 -0.005414 -0.001512 0.001973 -0.006339 0.001216 0.025323
#
#
# Mechanical properties :
#
#
# Convention : Reuss Voigt Hill
#
# Bulk Modulus (GPa) = 53.82346 -125.03726 -35.60690
# Shear Modulus (GPa) = 35.60498 -119.15058 -41.77280
#
# Velocity S-wave (km/s) = 4.32500 -7.91186 -4.68465
# Velocity P-wave (km/s) = 7.29505 12.21285 6.92589
#
# Compressibility (1/GPa) = 0.01857926
#
# Stress axis : x y z
#
# Youngs Moduli (GPa) = 203.28105 88.64777 88.63975
#
# Poissons Ratio (x) = 0.15181 0.08967
# Poissons Ratio (y) = 0.34811 0.15308
# Poissons Ratio (z) = 0.20564 0.15310
#
# Static dielectric constant tensor:
#      x y z
#    x 8.129260 -0.658950 0.080060 
#    y -0.658950 3.678030 -0.148810 
#    z 0.080060 -0.148810 3.327870 
# 
# 
# High freq. dielectric constant tensor:
#      x y z
#    x 1.740550 -0.010450 -0.010100 
#    y -0.010450 1.753380 -0.007830 
#    z -0.010100 -0.007830 1.724050 
# 
# From -- ./inp_files/314971.got.cif
#   From: 2010.06.25/outbox.cif.g09.slc.cpg/sg2_158_cif.got.tgz:314971.got - 2010.06.27 13:26:56.
