data_PCOD8001542
_publ_section_title
;
Structure prediction by ZEFSAII (Michael W. Deem and Ramdas Pophale) SiO2 
 PCOD8001542
Probable space group: P -1
;
_chemical_formula_sum "Si O2"
_cell_formula_units_Z 16
_cell_length_a 12.786356
_cell_length_b 13.901885
_cell_length_c 15.108532
_cell_angle_alpha 114.671904
_cell_angle_beta 29.037736
_cell_angle_gamma 131.259820
_cell_volume 881.781568
_symmetry_space_group_name_H-M "P -1"
_symmetry_group_IT_number 2
_symmetry_cell_setting 'triclinic'
loop_
_space_group_symop_operation_xyz
x,y,z
-x,-y,-z
loop_
_atom_site_type_symbol
_atom_site_label
_atom_site_fract_x
_atom_site_fract_y
_atom_site_fract_z
Si Si1 0.643857 0.820797 0.373526
Si Si2 0.241657 0.775528 0.787909
Si Si3 0.326156 0.395623 0.667881
Si Si4 0.213185 0.661806 0.937400
Si Si5 0.633409 0.476193 0.132604
Si Si6 0.317076 0.475011 0.211700
Si Si7 0.650569 0.285506 0.638527
Si Si8 0.167239 0.997049 0.952517
O O1 0.467170 0.852282 0.569218
O O2 0.620538 0.711177 0.410921
O O3 0.507557 0.753007 0.352650
O O4 0.981857 0.965091 0.166076
O O5 0.385880 0.768942 0.766938
O O6 0.150643 0.865566 0.906698
O O7 0.953544 0.614259 0.913742
O O8 0.500000 0.500000 0.500000
O O9 0.438864 0.481822 0.709580
O O10 0.987199 0.308948 0.866480
O O11 0.400816 0.662513 0.873778
O O12 0.000000 0.500000 0.000000
O O13 0.399878 0.423800 0.210377
O O14 0.379744 0.616134 0.246659
O O15 0.973786 0.352055 0.403699
O O16 0.500000 0.500000 0.000000
O O17 0.495962 0.147587 0.764039
O O18 0.000000 0.000000 0.000000
#
# Coordination Sequence:
#
# PCOD8001542 Si02
#       8
#     2   2   2   2   2   2   2   2
#     4  11  18  32  54  77 112 139 168 215 271 317
#     4  10  18  31  52  82 109 137 167 211 273 327
#     4  10  16  27  49  81 109 136 163 211 274 318
#     4   8  16  28  45  76 110 129 169 209 259 318
#     4  10  17  33  50  78 114 133 174 222 259 315
#     4  11  22  38  56  72 105 144 182 221 263 301
#     4  10  23  36  51  78 103 141 184 218 255 317
#     4  10  20  34  51  75 111 141 174 220 264 316
#
# _framework density 18.145083
#
# number of rings (size 3 to 8) (size 9 to 14) (size 15 to 20)
#    0.000    2.250    3.750    3.750    0.000    3.000 
#    0.000    0.000    0.000    0.750    0.000    2.625 
#    0.000    0.000    0.000    0.000    0.000    0.000 
#
# Total GULP energy -198210.232926 kJ/mol
# GULP energy per Si atom -12388.139558 kJ/mol
# Density = 1.810378 g / cm^3
# Si number density = 18.145083 Si / 1000 Ang^3
#
#
#
# Elastic Constant Matrix: (Units=GPa)
#
#
# Indices 1 2 3 4 5 6 
#
# 1 85.6675 30.9878 38.5499 0.4834 3.9299 -23.7614
# 2 30.9878 48.4327 32.1715 -3.3418 -0.1437 -18.8331
# 3 38.5499 32.1715 142.7934 0.2339 25.0137 -0.1706
# 4 0.4834 -3.3418 0.2339 29.2026 -3.9717 3.2198
# 5 3.9299 -0.1437 25.0137 -3.9717 33.5383 3.5777
# 6 -23.7614 -18.8331 -0.1706 3.2198 3.5777 27.1224
#
#
#
# Elastic Compliance Matrix: (Units=1/GPa)
#
#
# Indices 1 2 3 4 5 6 
#
# 1 0.018943 -0.004175 -0.003964 -0.002461 -0.001077 0.014106
# 2 -0.004175 0.037039 -0.008020 0.002688 0.004700 0.021072
# 3 -0.003964 -0.008020 0.011124 -0.001042 -0.007147 -0.007905
# 4 -0.002461 0.002688 -0.001042 0.035994 0.005910 -0.005349
# 5 -0.001077 0.004700 -0.007147 0.005910 0.036337 -0.003220
# 6 0.014106 0.021072 -0.007905 -0.005349 -0.003220 0.064870
#
#
# Mechanical properties :
#
#
# Convention : Reuss Voigt Hill
#
# Bulk Modulus (GPa) = 28.74527 53.36798 41.05662
# Shear Modulus (GPa) = 20.14339 29.65163 24.89751
#
# Velocity S-wave (km/s) = 3.33548 4.04684 3.70825
# Velocity P-wave (km/s) = 5.54167 7.16321 6.40397
#
# Compressibility (1/GPa) = 0.03478834
#
# Stress axis : x y z
#
# Youngs Moduli (GPa) = 52.79110 26.99844 89.89222
#
# Poissons Ratio (x) = 0.11271 0.35631
# Poissons Ratio (y) = 0.22039 0.72098
# Poissons Ratio (z) = 0.20925 0.21654
#
# Static dielectric constant tensor:
#      x y z
#    x 3.408490 -0.466630 -0.088860 
#    y -0.466630 3.345070 0.096280 
#    z -0.088860 0.096280 3.647640 
# 
# 
# High freq. dielectric constant tensor:
#      x y z
#    x 1.688680 -0.043800 0.014580 
#    y -0.043800 1.673540 0.018100 
#    z 0.014580 0.018100 1.713360 
# 
# From -- ./inp_files/520912.got.cif
#   From: 2010.06.25/outbox.cif.g09.slc.cpg/sg2_261_cif.got.tgz:520912.got - 2010.06.27 13:26:56.
