data_PCOD8001942
_publ_section_title
;
Structure prediction by ZEFSAII (Michael W. Deem and Ramdas Pophale) SiO2 
 PCOD8001942
Probable space group: P -1
;
_chemical_formula_sum "Si O2"
_cell_formula_units_Z 16
_cell_length_a 12.467440
_cell_length_b 11.441756
_cell_length_c 11.677861
_cell_angle_alpha 45.342223
_cell_angle_beta 39.553932
_cell_angle_gamma 53.292468
_cell_volume 748.828591
_symmetry_space_group_name_H-M "P -1"
_symmetry_group_IT_number 2
_symmetry_cell_setting 'triclinic'
loop_
_space_group_symop_operation_xyz
x,y,z
-x,-y,-z
loop_
_atom_site_type_symbol
_atom_site_label
_atom_site_fract_x
_atom_site_fract_y
_atom_site_fract_z
Si Si1 0.490510 0.213484 0.367008
Si Si2 0.050384 0.586605 0.281880
Si Si3 0.404771 0.460104 0.992425
Si Si4 0.079732 0.891384 0.189731
Si Si5 0.503620 0.147992 0.745342
Si Si6 0.219867 0.223166 0.766795
Si Si7 0.392291 0.811858 0.130641
Si Si8 0.697482 0.966310 0.508211
O O1 0.544010 0.391415 0.231945
O O2 0.333631 0.165911 0.603790
O O3 0.654082 0.083816 0.352242
O O4 0.419827 0.186727 0.311830
O O5 0.094425 0.770543 0.150453
O O6 0.000000 0.500000 0.500000
O O7 0.905553 0.615158 0.282543
O O8 0.204776 0.472955 0.173119
O O9 0.463705 0.291102 0.994422
O O10 0.500000 0.500000 0.000000
O O11 0.205296 0.796498 0.246687
O O12 0.895507 0.902647 0.391912
O O13 0.122008 0.071077 0.993021
O O14 0.351941 0.269306 0.724844
O O15 0.588235 0.243183 0.713467
O O16 0.647961 0.068963 0.593293
O O17 0.411676 0.003666 0.975599
#
# Coordination Sequence:
#
# PCOD8001942 Si02
#       8
#     2   2   2   2   2   2   2   2
#     4  10  21  34  59  91 120 152 198 248 301 355
#     4  12  25  37  59  94 128 152 189 253 312 355
#     4  12  23  37  59  86 125 157 194 243 312 357
#     4  11  22  36  62  90 122 156 202 247 300 351
#     4   9  21  41  63  83 115 163 207 244 284 361
#     4  10  21  40  61  88 122 158 201 249 293 355
#     4  10  22  40  60  86 119 160 204 244 296 352
#     4  10  20  34  60  87 117 152 201 248 294 345
#
# _framework density 21.366706000000001
#
# number of rings (size 3 to 8) (size 9 to 14) (size 15 to 20)
#    0.000    1.500    2.500    2.625    7.000    0.500 
#    0.000    3.125    0.000    0.000    0.000    0.000 
#    0.000    0.000    0.000    0.000    0.000    0.000 
#
# Total GULP energy -198233.948802 kJ/mol
# GULP energy per Si atom -12389.621800 kJ/mol
# Density = 2.131807 g / cm^3
# Si number density = 21.366706 Si / 1000 Ang^3
#
#
#
# Elastic Constant Matrix: (Units=GPa)
#
#
# Indices 1 2 3 4 5 6 
#
# 1 163.8152 64.4932 32.4649 34.5385 4.6895 -18.8519
# 2 64.4932 76.9948 19.8089 28.4578 -3.4835 -14.9803
# 3 32.4649 19.8089 69.9006 12.4838 -3.6776 -6.6130
# 4 34.5385 28.4578 12.4838 34.4260 -3.5179 -1.4203
# 5 4.6895 -3.4835 -3.6776 -3.5179 24.3879 9.9187
# 6 -18.8519 -14.9803 -6.6130 -1.4203 9.9187 37.0794
#
#
#
# Elastic Compliance Matrix: (Units=1/GPa)
#
#
# Indices 1 2 3 4 5 6 
#
# 1 0.010574 -0.005756 -0.002227 -0.005450 -0.005579 0.003937
# 2 -0.005756 0.024388 -0.001209 -0.013701 -0.000094 0.006212
# 3 -0.002227 -0.001209 0.016287 -0.002431 0.002106 0.000628
# 4 -0.005450 -0.013701 -0.002431 0.047293 0.009385 -0.009439
# 5 -0.005579 -0.000094 0.002106 0.009385 0.050050 -0.015527
# 6 0.003937 0.006212 0.000628 -0.009439 -0.015527 0.035384
#
#
# Mechanical properties :
#
#
# Convention : Reuss Voigt Hill
#
# Bulk Modulus (GPa) = 30.42679 60.47161 45.44920
# Shear Modulus (GPa) = 23.43954 32.10822 27.77388
#
# Velocity S-wave (km/s) = 3.31571 3.88070 3.60928
# Velocity P-wave (km/s) = 5.37864 6.96010 6.21984
#
# Compressibility (1/GPa) = 0.03286577
#
# Stress axis : x y z
#
# Youngs Moduli (GPa) = 94.57350 41.00340 61.39691
#
# Poissons Ratio (x) = 0.23601 0.13676
# Poissons Ratio (y) = 0.54435 0.07420
# Poissons Ratio (z) = 0.21066 0.04955
#
# Static dielectric constant tensor:
#      x y z
#    x 2.650170 -0.935080 2.599280 
#    y -0.935080 3.687490 0.722390 
#    z 2.599280 0.722390 0.243530 
# 
# 
# High freq. dielectric constant tensor:
#      x y z
#    x 1.837760 -0.024260 0.003010 
#    y -0.024260 1.822150 -0.000670 
#    z 0.003010 -0.000670 1.829860 
# 
# From -- ./inp_files/425241.got.cif
#   From: 2010.06.25/outbox.cif.g09.slc.cpg/sg2_213_cif.got.tgz:425241.got - 2010.06.27 13:26:56.
