data_PCOD8001535
_publ_section_title
;
Structure prediction by ZEFSAII (Michael W. Deem and Ramdas Pophale) SiO2 
 PCOD8001535
Probable space group: P -1
;
_chemical_formula_sum "Si O2"
_cell_formula_units_Z 16
_cell_length_a 12.696148
_cell_length_b 9.945208
_cell_length_c 9.633583
_cell_angle_alpha 127.289062
_cell_angle_beta 52.263765
_cell_angle_gamma 102.591793
_cell_volume 742.423489
_symmetry_space_group_name_H-M "P -1"
_symmetry_group_IT_number 2
_symmetry_cell_setting 'triclinic'
loop_
_space_group_symop_operation_xyz
x,y,z
-x,-y,-z
loop_
_atom_site_type_symbol
_atom_site_label
_atom_site_fract_x
_atom_site_fract_y
_atom_site_fract_z
Si Si1 0.901072 0.106366 0.833705
Si Si2 0.258159 0.285830 0.458810
Si Si3 0.379224 0.876764 0.594297
Si Si4 0.842093 0.328329 0.273389
Si Si5 0.698929 0.896174 0.949734
Si Si6 0.040850 0.755894 0.403897
Si Si7 0.324554 0.197887 0.664455
Si Si8 0.879934 0.623323 0.829368
O O1 0.876268 0.223728 0.789152
O O2 0.762080 0.050580 0.940864
O O3 0.928586 0.224692 0.011298
O O4 0.027591 0.933026 0.614507
O O5 0.254596 0.489523 0.585351
O O6 0.360889 0.182893 0.188305
O O7 0.304722 0.212877 0.525811
O O8 0.109981 0.253937 0.528090
O O9 0.258956 0.777282 0.642878
O O10 0.531730 0.749464 0.378506
O O11 0.339300 0.995801 0.565195
O O12 0.398530 0.008556 0.788674
O O13 0.964206 0.353844 0.290438
O O14 0.807867 0.728569 0.821198
O O15 0.116310 0.582267 0.317772
O O16 0.197681 0.316695 0.925358
#
# Coordination Sequence:
#
# PCOD8001535 Si02
#       8
#     2   2   2   2   2   2   2   2
#     4   9  17  30  48  75 110 139 174 217 262 311
#     4  10  20  33  54  81 110 140 178 221 269 316
#     4   9  21  39  57  78 108 142 182 221 265 317
#     4  10  20  34  56  83 108 138 181 224 262 317
#     4   9  20  36  52  78 111 143 176 220 269 318
#     4   9  18  31  49  77 113 143 172 217 271 320
#     4  10  20  36  59  80 105 144 182 220 264 318
#     4  10  20  35  57  80 109 143 177 218 270 317
#
# _framework density 21.551044000000001
#
# number of rings (size 3 to 8) (size 9 to 14) (size 15 to 20)
#    0.000    2.500    0.000    1.500    0.000   13.000 
#    0.000    2.500    0.000    9.750    0.000    0.000 
#    0.000    0.000    0.000    0.000    0.000    0.000 
#
# Total GULP energy -198220.485800 kJ/mol
# GULP energy per Si atom -12388.780362 kJ/mol
# Density = 2.150199 g / cm^3
# Si number density = 21.551044 Si / 1000 Ang^3
#
#
#
# Elastic Constant Matrix: (Units=GPa)
#
#
# Indices 1 2 3 4 5 6 
#
# 1 43.2682 33.3178 28.1426 -6.7209 -2.0981 -9.9246
# 2 33.3178 116.7021 43.5575 -2.3344 5.1668 -1.3773
# 3 28.1426 43.5575 58.1860 0.4202 3.4503 2.9449
# 4 -6.7209 -2.3344 0.4202 29.9783 1.6895 1.8519
# 5 -2.0981 5.1668 3.4503 1.6895 30.6744 -5.2512
# 6 -9.9246 -1.3773 2.9449 1.8519 -5.2512 18.3586
#
#
#
# Elastic Compliance Matrix: (Units=1/GPa)
#
#
# Indices 1 2 3 4 5 6 
#
# 1 0.053501 -0.006417 -0.023676 0.008935 0.012908 0.035030
# 2 -0.006417 0.012801 -0.006236 -0.000095 -0.002255 -0.002144
# 3 -0.023676 -0.006236 0.034843 -0.004571 -0.007766 -0.020617
# 4 0.008935 -0.000095 -0.004571 0.035330 -0.000487 0.001853
# 5 0.012908 -0.002255 -0.007766 -0.000487 0.038012 0.018977
# 6 0.035030 -0.002144 -0.020617 0.001853 0.018977 0.081795
#
#
# Mechanical properties :
#
#
# Convention : Reuss Voigt Hill
#
# Bulk Modulus (GPa) = 35.10389 47.57691 41.34040
# Shear Modulus (GPa) = 14.77384 23.34480 19.05932
#
# Velocity S-wave (km/s) = 2.62110 3.29482 2.97708
# Velocity P-wave (km/s) = 5.04820 6.04969 5.57149
#
# Compressibility (1/GPa) = 0.02848687
#
# Stress axis : x y z
#
# Youngs Moduli (GPa) = 18.69125 78.11874 28.70027
#
# Poissons Ratio (x) = 0.50128 0.67951
# Poissons Ratio (y) = 0.11994 0.17898
# Poissons Ratio (z) = 0.44253 0.48716
#
# Static dielectric constant tensor:
#      x y z
#    x 3.443110 -0.016010 0.164490 
#    y -0.016010 4.085360 0.011320 
#    z 0.164490 0.011320 4.355420 
# 
# 
# High freq. dielectric constant tensor:
#      x y z
#    x 1.797980 -0.009420 0.009590 
#    y -0.009420 1.860610 -0.009600 
#    z 0.009590 -0.009600 1.856020 
# 
# From -- ./inp_files/217341.got.cif
#   From: 2010.06.25/outbox.cif.g09.slc.cpg/sg2_109_cif.got.tgz:217341.got - 2010.06.27 13:26:56.
