data_PCOD8001864
_publ_section_title
;
Structure prediction by ZEFSAII (Michael W. Deem and Ramdas Pophale) SiO2 
 PCOD8001864
Probable space group: P -1
;
_chemical_formula_sum "Si O2"
_cell_formula_units_Z 16
_cell_length_a 16.943831
_cell_length_b 8.722383
_cell_length_c 11.144770
_cell_angle_alpha 133.351186
_cell_angle_beta 147.245336
_cell_angle_gamma 54.449354
_cell_volume 647.971342
_symmetry_space_group_name_H-M "P -1"
_symmetry_group_IT_number 2
_symmetry_cell_setting 'triclinic'
loop_
_space_group_symop_operation_xyz
x,y,z
-x,-y,-z
loop_
_atom_site_type_symbol
_atom_site_label
_atom_site_fract_x
_atom_site_fract_y
_atom_site_fract_z
Si Si1 0.695272 0.320869 0.722887
Si Si2 0.663018 0.116158 0.016626
Si Si3 0.900953 0.872991 0.479375
Si Si4 0.191601 0.290688 0.319163
Si Si5 0.069408 0.727572 0.402315
Si Si6 0.662914 0.846100 0.340754
Si Si7 0.844603 0.164747 0.048404
Si Si8 0.631837 0.658825 0.655468
O O1 0.809570 0.329909 0.984991
O O2 0.736560 0.475022 0.748440
O O3 0.536304 0.407169 0.605880
O O4 0.683528 0.081033 0.539973
O O5 0.507122 0.214995 0.911072
O O6 0.705312 0.172844 0.963941
O O7 0.654808 0.863394 0.877943
O O8 0.781649 0.201772 0.305294
O O9 0.736741 0.830993 0.294365
O O10 0.927845 0.766559 0.326810
O O11 0.941415 0.123425 0.650097
O O12 0.009638 0.768065 0.659988
O O13 0.076070 0.479796 0.247611
O O14 0.254132 0.310442 0.544907
O O15 0.325269 0.306283 0.407647
O O16 0.117346 0.065708 0.081866
#
# Coordination Sequence:
#
# PCOD8001864 Si02
#       8
#     2   2   2   2   2   2   2   2
#     4   9  17  31  57  86 114 140 179 231 277 323
#     4   9  19  37  59  82 112 147 183 225 276 327
#     4  10  22  40  56  75 112 151 186 228 275 326
#     4  10  20  34  58  84 110 143 185 227 274 327
#     4  10  22  40  57  77 111 152 188 226 272 328
#     4  10  20  35  57  86 114 142 182 232 277 324
#     4   9  19  37  59  83 112 146 181 225 278 329
#     4   9  17  33  57  87 111 140 182 228 275 326
#
# _framework density 24.692451999999999
#
# number of rings (size 3 to 8) (size 9 to 14) (size 15 to 20)
#    0.000    2.500    0.000    1.500    0.000    7.000 
#    0.000   10.000    0.000    3.000    0.000    0.000 
#    0.000    0.000    0.000    0.000    0.000    0.000 
#
# Total GULP energy -198330.614815 kJ/mol
# GULP energy per Si atom -12395.663426 kJ/mol
# Density = 2.463625 g / cm^3
# Si number density = 24.692452 Si / 1000 Ang^3
#
#
#
# Elastic Constant Matrix: (Units=GPa)
#
#
# Indices 1 2 3 4 5 6 
#
# 1 124.4207 22.1573 22.0309 -12.7841 19.4958 -6.0408
# 2 22.1573 94.2740 -1.1377 -20.3645 0.8277 7.6764
# 3 22.0309 -1.1377 38.4251 -18.6198 -2.3497 1.4799
# 4 -12.7841 -20.3645 -18.6198 25.7000 3.3773 -2.3736
# 5 19.4958 0.8277 -2.3497 3.3773 27.2033 -12.9079
# 6 -6.0408 7.6764 1.4799 -2.3736 -12.9079 38.1935
#
#
#
# Elastic Compliance Matrix: (Units=1/GPa)
#
#
# Indices 1 2 3 4 5 6 
#
# 1 0.011067 -0.002806 -0.007426 -0.001010 -0.008524 -0.000341
# 2 -0.002806 0.015895 0.011541 0.019444 -0.001495 -0.003382
# 3 -0.007426 0.011541 0.051232 0.041967 0.003363 -0.001735
# 4 -0.001010 0.019444 0.041967 0.085018 -0.008328 -0.003225
# 5 -0.008524 -0.001495 0.003363 -0.008328 0.051730 0.015787
# 6 -0.000341 -0.003382 -0.001735 -0.003225 0.015787 0.032010
#
#
# Mechanical properties :
#
#
# Convention : Reuss Voigt Hill
#
# Bulk Modulus (GPa) = 12.37446 38.13567 25.25507
# Shear Modulus (GPa) = 18.43161 32.49065 25.46113
#
# Velocity S-wave (km/s) = 2.73508 3.63135 3.21461
# Velocity P-wave (km/s) = 3.87254 5.74979 4.90187
#
# Compressibility (1/GPa) = 0.08081164
#
# Stress axis : x y z
#
# Youngs Moduli (GPa) = 90.35688 62.91288 19.51891
#
# Poissons Ratio (x) = 0.17655 0.14495
# Poissons Ratio (y) = 0.25356 -0.22526
# Poissons Ratio (z) = 0.67098 -0.72606
#
# Static dielectric constant tensor:
#      x y z
#    x 4.504450 0.127550 0.065440 
#    y 0.127550 4.668170 -0.261020 
#    z 0.065440 -0.261020 3.985670 
# 
# 
# High freq. dielectric constant tensor:
#      x y z
#    x 1.983440 0.008860 0.006980 
#    y 0.008860 1.985040 -0.014280 
#    z 0.006980 -0.014280 1.950520 
# 
# From -- ./inp_files/286113.got.cif
#   From: 2010.06.25/outbox.cif.g09.slc.cpg/sg2_144_cif.got.tgz:286113.got - 2010.06.27 13:26:56.
