data_PCOD8001950
_publ_section_title
;
Structure prediction by ZEFSAII (Michael W. Deem and Ramdas Pophale) SiO2 
 PCOD8001950
Probable space group: P -1
;
_chemical_formula_sum "Si O2"
_cell_formula_units_Z 12
_cell_length_a 8.901297
_cell_length_b 8.949970
_cell_length_c 13.539285
_cell_angle_alpha 108.401978
_cell_angle_beta 112.052650
_cell_angle_gamma 31.782594
_cell_volume 526.532657
_symmetry_space_group_name_H-M "P -1"
_symmetry_group_IT_number 2
_symmetry_cell_setting 'triclinic'
loop_
_space_group_symop_operation_xyz
x,y,z
-x,-y,-z
loop_
_atom_site_type_symbol
_atom_site_label
_atom_site_fract_x
_atom_site_fract_y
_atom_site_fract_z
Si Si1 0.157417 0.763680 0.213837
Si Si2 0.747578 0.006166 0.504143
Si Si3 0.816974 0.301470 0.007561
Si Si4 0.323683 0.278047 0.628474
Si Si5 0.729811 0.196188 0.345551
Si Si6 0.100040 0.174988 0.233996
O O1 0.458145 0.499208 0.290439
O O2 0.107912 0.983876 0.217467
O O3 0.164863 0.651825 0.091992
O O4 0.886100 0.943334 0.256944
O O5 0.834071 0.753938 0.453346
O O6 0.039249 0.856617 0.579425
O O7 0.497720 0.221329 0.570219
O O8 0.618162 0.193177 0.413304
O O9 0.947980 0.326958 0.120951
O O10 0.500000 0.500000 0.000000
O O11 0.000000 0.000000 0.000000
O O12 0.082036 0.590631 0.676748
O O13 0.565139 0.035503 0.721869
#
# Coordination Sequence:
#
# PCOD8001950 Si02
#       6
#     2   2   2   2   2   2
#     4  11  22  39  62  93 122 157 196 260 302 359
#     4  10  26  42  62  88 120 174 200 250 292 364
#     4  10  20  34  60  91 122 151 198 247 310 352
#     4  11  24  41  63  86 128 157 211 240 307 353
#     4  11  24  41  63  86 128 157 211 240 307 353
#     4  11  22  39  62  93 122 157 196 260 302 359
#
# _framework density 22.790609
#
# number of rings (size 3 to 8) (size 9 to 14) (size 15 to 20)
#    0.000    1.333    1.667    5.000    0.000    9.333 
#    0.000    0.000    0.000    6.000    0.000    0.000 
#    0.000    0.000    0.000    0.000    0.000    0.000 
#
# Total GULP energy -148726.589809 kJ/mol
# GULP energy per Si atom -12393.882484 kJ/mol
# Density = 2.273874 g / cm^3
# Si number density = 22.790609 Si / 1000 Ang^3
#
#
#
# Elastic Constant Matrix: (Units=GPa)
#
#
# Indices 1 2 3 4 5 6 
#
# 1 62.0619 11.8929 33.1587 -0.1059 -8.5404 1.6681
# 2 11.8929 118.2230 30.1989 5.3124 -15.1133 -13.4824
# 3 33.1587 30.1989 155.0682 -1.4914 -23.9677 8.4335
# 4 -0.1059 5.3124 -1.4914 36.1919 4.2688 -1.8464
# 5 -8.5404 -15.1133 -23.9677 4.2688 10.7181 -3.0967
# 6 1.6681 -13.4824 8.4335 -1.8464 -3.0967 21.2511
#
#
#
# Elastic Compliance Matrix: (Units=1/GPa)
#
#
# Indices 1 2 3 4 5 6 
#
# 1 0.018831 0.000298 -0.002514 -0.001290 0.010650 0.001148
# 2 0.000298 0.012883 0.000583 -0.004199 0.024598 0.011138
# 3 -0.002514 0.000583 0.010420 -0.002392 0.022949 -0.000432
# 4 -0.001290 -0.004199 -0.002392 0.031007 -0.025406 -0.002622
# 5 0.010650 0.024598 0.022949 -0.025406 0.207651 0.033714
# 6 0.001148 0.011138 -0.000432 -0.002622 0.033714 0.058889
#
#
# Mechanical properties :
#
#
# Convention : Reuss Voigt Hill
#
# Bulk Modulus (GPa) = 25.72670 53.98380 39.85525
# Shear Modulus (GPa) = 14.04876 30.97240 22.51058
#
# Velocity S-wave (km/s) = 2.48549 3.69046 3.14620
# Velocity P-wave (km/s) = 4.42150 6.47284 5.54289
#
# Compressibility (1/GPa) = 0.03887013
#
# Stress axis : x y z
#
# Youngs Moduli (GPa) = 53.10312 77.62074 95.96702
#
# Poissons Ratio (x) = -0.02314 0.24122
# Poissons Ratio (y) = -0.01583 -0.05596
# Poissons Ratio (z) = 0.13348 -0.04526
#
# Static dielectric constant tensor:
#      x y z
#    x 3.875710 -0.173630 -0.724340 
#    y -0.173630 4.188080 -0.382350 
#    z -0.724340 -0.382350 9.324090 
# 
# 
# High freq. dielectric constant tensor:
#      x y z
#    x 1.841410 -0.018220 -0.009690 
#    y -0.018220 1.916290 -0.004780 
#    z -0.009690 -0.004780 1.927090 
# 
# From -- ./inp_files/493448.got.cif
#   From: 2010.06.25/outbox.cif.g09.slc.cpg/sg2_247_cif.got.tgz:493448.got - 2010.06.27 13:26:56.
