data_PCOD8001680
_publ_section_title
;
Structure prediction by ZEFSAII (Michael W. Deem and Ramdas Pophale) SiO2 
 PCOD8001680
Probable space group: P -1
;
_chemical_formula_sum "Si O2"
_cell_formula_units_Z 14
_cell_length_a 15.048594
_cell_length_b 7.142608
_cell_length_c 15.249004
_cell_angle_alpha 80.798929
_cell_angle_beta 28.270277
_cell_angle_gamma 70.738483
_cell_volume 700.876937
_symmetry_space_group_name_H-M "P -1"
_symmetry_group_IT_number 2
_symmetry_cell_setting 'triclinic'
loop_
_space_group_symop_operation_xyz
x,y,z
-x,-y,-z
loop_
_atom_site_type_symbol
_atom_site_label
_atom_site_fract_x
_atom_site_fract_y
_atom_site_fract_z
Si Si1 0.114063 0.077066 0.544331
Si Si2 0.262100 0.003223 0.612708
Si Si3 0.840454 0.514213 0.710977
Si Si4 0.536609 0.896906 0.882229
Si Si5 0.290753 0.277458 0.720296
Si Si6 0.893186 0.800214 0.793341
Si Si7 0.029350 0.731851 0.869803
O O1 0.283809 0.057748 0.325606
O O2 0.895172 0.277065 0.708057
O O3 0.208874 0.092320 0.554670
O O4 0.057746 0.878272 0.601883
O O5 0.477458 0.804881 0.441737
O O6 0.093343 0.925506 0.801297
O O7 0.270962 0.187152 0.649776
O O8 0.617112 0.646902 0.849732
O O9 0.864061 0.637283 0.766333
O O10 0.000000 0.500000 0.500000
O O11 0.500000 0.000000 0.000000
O O12 0.319818 0.000130 0.013014
O O13 0.207887 0.525087 0.768401
O O14 0.169665 0.202267 0.901905
O O15 0.978461 0.685113 0.819053
#
# Coordination Sequence:
#
# PCOD8001680 Si02
#       7
#     2   2   2   2   2   2   2
#     4  10  20  35  54  75 103 136 169 210 255 298
#     4  10  20  34  53  77 103 135 172 207 252 304
#     4   9  19  34  52  75 101 130 170 210 249 303
#     4   9  19  34  52  75 101 130 170 210 249 303
#     4  10  20  34  54  76 106 136 166 212 254 294
#     4  10  20  35  54  75 103 136 169 210 255 298
#     4  10  20  34  53  77 103 135 172 207 252 304
#
# _framework density 19.974978
#
# number of rings (size 3 to 8) (size 9 to 14) (size 15 to 20)
#    0.000    2.286    0.000    2.571    0.000    5.714 
#    0.000    4.286    0.000   24.000    0.000    0.000 
#    0.000    0.000    0.000    0.000    0.000    0.000 
#
# Total GULP energy -173513.117635 kJ/mol
# GULP energy per Si atom -12393.794117 kJ/mol
# Density = 1.992951 g / cm^3
# Si number density = 19.974978 Si / 1000 Ang^3
#
#
#
# Elastic Constant Matrix: (Units=GPa)
#
#
# Indices 1 2 3 4 5 6 
#
# 1 41.4051 4.9342 16.3346 -1.1140 -0.7310 -22.2223
# 2 4.9342 36.4573 13.1407 0.7954 5.1576 -14.8513
# 3 16.3346 13.1407 88.3857 -5.7604 7.1045 -13.0944
# 4 -1.1140 0.7954 -5.7604 20.6491 -0.8824 1.9926
# 5 -0.7310 5.1576 7.1045 -0.8824 24.4533 -1.4279
# 6 -22.2223 -14.8513 -13.0944 1.9926 -1.4279 26.1162
#
#
#
# Elastic Compliance Matrix: (Units=1/GPa)
#
#
# Indices 1 2 3 4 5 6 
#
# 1 0.050928 0.014828 -0.004684 -0.003833 0.002528 0.049849
# 2 0.014828 0.041755 -0.003737 -0.005423 -0.005453 0.034604
# 3 -0.004684 -0.003737 0.013219 0.003439 -0.003063 0.000087
# 4 -0.003833 -0.005423 0.003439 0.050256 0.001354 -0.008381
# 5 0.002528 -0.005453 -0.003063 0.001354 0.043045 -0.000235
# 6 0.049849 0.034604 0.000087 -0.008381 -0.000235 0.101055
#
#
# Mechanical properties :
#
#
# Convention : Reuss Voigt Hill
#
# Bulk Modulus (GPa) = 8.42349 26.11857 17.27103
# Shear Modulus (GPa) = 15.28973 23.03297 19.16135
#
# Velocity S-wave (km/s) = 2.76967 3.39940 3.10056
# Velocity P-wave (km/s) = 3.80187 5.33966 4.63499
#
# Compressibility (1/GPa) = 0.11871565
#
# Stress axis : x y z
#
# Youngs Moduli (GPa) = 19.63550 23.94899 75.65104
#
# Poissons Ratio (x) = -0.35512 0.35439
# Poissons Ratio (y) = -0.29116 0.28270
# Poissons Ratio (z) = 0.09198 0.08949
#
# Static dielectric constant tensor:
#      x y z
#    x 4.203240 -0.515410 -0.423110 
#    y -0.515410 3.717440 0.345100 
#    z -0.423110 0.345100 3.978520 
# 
# 
# High freq. dielectric constant tensor:
#      x y z
#    x 1.784040 -0.023530 0.001040 
#    y -0.023530 1.768460 0.006540 
#    z 0.001040 0.006540 1.783870 
# 
# From -- ./inp_files/45672.got.cif
#   From: 2010.06.25/outbox.cif.g09.slc.cpg/sg2_23_cif.got.tgz:45672.got - 2010.06.27 13:26:56.
