data_PCOD8001669
_publ_section_title
;
Structure prediction by ZEFSAII (Michael W. Deem and Ramdas Pophale) SiO2 
 PCOD8001669
Probable space group: P -1
;
_chemical_formula_sum "Si O2"
_cell_formula_units_Z 16
_cell_length_a 9.928518
_cell_length_b 15.192073
_cell_length_c 15.493608
_cell_angle_alpha 142.276458
_cell_angle_beta 87.918757
_cell_angle_gamma 62.970721
_cell_volume 875.710587
_symmetry_space_group_name_H-M "P -1"
_symmetry_group_IT_number 2
_symmetry_cell_setting 'triclinic'
loop_
_space_group_symop_operation_xyz
x,y,z
-x,-y,-z
loop_
_atom_site_type_symbol
_atom_site_label
_atom_site_fract_x
_atom_site_fract_y
_atom_site_fract_z
Si Si1 0.138419 0.186062 0.694144
Si Si2 0.277109 0.392290 0.884038
Si Si3 0.241677 0.625111 0.731451
Si Si4 0.424267 0.287323 0.616063
Si Si5 0.142772 0.217075 0.348595
Si Si6 0.753009 0.045763 0.023491
Si Si7 0.327662 0.337393 0.361586
Si Si8 0.288963 0.078962 0.424033
O O1 0.187127 0.312327 0.800482
O O2 0.145303 0.144719 0.559864
O O3 0.312269 0.949092 0.562987
O O4 0.896676 0.358374 0.870322
O O5 0.335531 0.416386 0.810565
O O6 0.482118 0.199753 0.793645
O O7 0.363309 0.461095 0.684719
O O8 0.302429 0.740080 0.811789
O O9 0.340584 0.466941 0.521499
O O10 0.977669 0.824525 0.899721
O O11 0.320188 0.224249 0.540009
O O12 0.301424 0.220212 0.332227
O O13 0.174849 0.131071 0.377730
O O14 0.886128 0.476422 0.550414
O O15 0.211710 0.037538 0.139440
O O16 0.550069 0.135240 0.143409
#
# Coordination Sequence:
#
# PCOD8001669 Si02
#       8
#     2   2   2   2   2   2   2   2
#     4   8  15  27  44  70 101 128 159 202 249 298
#     4   8  15  27  44  72 101 123 161 206 247 294
#     4  10  20  36  54  74 102 136 173 210 249 299
#     4   9  16  29  48  71 100 130 162 205 249 292
#     4  10  20  34  52  76 104 133 169 210 254 302
#     4  10  22  36  51  75 104 135 173 211 251 298
#     4  10  20  36  53  73 102 134 172 215 251 295
#     4   9  16  29  47  71 103 131 156 203 256 294
#
# _framework density 18.270876999999999
#
# number of rings (size 3 to 8) (size 9 to 14) (size 15 to 20)
#    0.000    2.750    1.250    2.250    0.000    2.000 
#    4.500    0.000    0.000    3.000    0.000    5.250 
#    0.000    0.000    0.000    0.000    0.000    0.000 
#
# Total GULP energy -198344.549324 kJ/mol
# GULP energy per Si atom -12396.534333 kJ/mol
# Density = 1.822929 g / cm^3
# Si number density = 18.270877 Si / 1000 Ang^3
#
#
#
# Elastic Constant Matrix: (Units=GPa)
#
#
# Indices 1 2 3 4 5 6 
#
# 1 38.2079 16.5057 21.7699 -0.4855 -1.1701 -2.7442
# 2 16.5057 133.2138 43.0674 6.0987 -4.1602 -2.0747
# 3 21.7699 43.0674 106.2588 0.0686 -18.5020 -1.7042
# 4 -0.4855 6.0987 0.0686 18.7909 -0.1924 4.7373
# 5 -1.1701 -4.1602 -18.5020 -0.1924 31.0151 -0.3854
# 6 -2.7442 -2.0747 -1.7042 4.7373 -0.3854 13.4046
#
#
#
# Elastic Compliance Matrix: (Units=1/GPa)
#
#
# Indices 1 2 3 4 5 6 
#
# 1 0.030627 -0.001904 -0.005862 0.000115 -0.002533 0.005117
# 2 -0.001904 0.008990 -0.003376 -0.003405 -0.000880 0.001750
# 3 -0.005862 -0.003376 0.013235 0.001018 0.007225 -0.000192
# 4 0.000115 -0.003405 0.001018 0.059739 0.000259 -0.021479
# 5 -0.002533 -0.000880 0.007225 0.000259 0.036356 0.001218
# 6 0.005117 0.001750 -0.000192 -0.021479 0.001218 0.083521
#
#
# Mechanical properties :
#
#
# Convention : Reuss Voigt Hill
#
# Bulk Modulus (GPa) = 32.71598 48.92963 40.82281
# Shear Modulus (GPa) = 18.87213 25.73128 22.30170
#
# Velocity S-wave (km/s) = 3.21737 3.75683 3.49752
# Velocity P-wave (km/s) = 5.63444 6.75697 6.22108
#
# Compressibility (1/GPa) = 0.03056610
#
# Stress axis : x y z
#
# Youngs Moduli (GPa) = 32.65143 111.23559 75.55888
#
# Poissons Ratio (x) = 0.21183 0.44291
# Poissons Ratio (y) = 0.06218 0.25512
# Poissons Ratio (z) = 0.19140 0.37558
#
# Static dielectric constant tensor:
#      x y z
#    x 3.011260 -0.021750 -0.212230 
#    y -0.021750 3.302040 -0.095200 
#    z -0.212230 -0.095200 3.826010 
# 
# 
# High freq. dielectric constant tensor:
#      x y z
#    x 1.664190 -0.003930 -0.006160 
#    y -0.003930 1.707750 -0.000840 
#    z -0.006160 -0.000840 1.716360 
# 
# From -- ./inp_files/215090.got.cif
#   From: 2010.06.25/outbox.cif.g09.slc.cpg/sg2_108_cif.got.tgz:215090.got - 2010.06.27 13:26:56.
