data_PCOD8001325
_publ_section_title
;
Structure prediction by ZEFSAII (Michael W. Deem and Ramdas Pophale) SiO2 
 PCOD8001325
Probable space group: P -1
;
_chemical_formula_sum "Si O2"
_cell_formula_units_Z 16
_cell_length_a 9.124830
_cell_length_b 9.355440
_cell_length_c 20.015413
_cell_angle_alpha 45.152320
_cell_angle_beta 48.121624
_cell_angle_gamma 64.775967
_cell_volume 898.742264
_symmetry_space_group_name_H-M "P -1"
_symmetry_group_IT_number 2
_symmetry_cell_setting 'triclinic'
loop_
_space_group_symop_operation_xyz
x,y,z
-x,-y,-z
loop_
_atom_site_type_symbol
_atom_site_label
_atom_site_fract_x
_atom_site_fract_y
_atom_site_fract_z
Si Si1 0.264680 0.315725 0.075865
Si Si2 0.683070 0.041322 0.181224
Si Si3 0.073602 0.597956 0.219366
Si Si4 0.998314 0.352589 0.928406
Si Si5 0.645223 0.605603 0.367628
Si Si6 0.414519 0.262238 0.795714
Si Si7 0.589239 0.636991 0.835820
Si Si8 0.318201 0.908667 0.129153
O O1 0.061274 0.428029 0.100930
O O2 0.355509 0.308897 0.123440
O O3 0.217811 0.090915 0.136018
O O4 0.432317 0.441937 0.939493
O O5 0.697302 0.845571 0.288897
O O6 0.634908 0.962752 0.145880
O O7 0.510834 0.165863 0.224961
O O8 0.886503 0.182151 0.065830
O O9 0.068137 0.677138 0.118745
O O10 0.215086 0.415168 0.246397
O O11 0.148748 0.792492 0.175360
O O12 0.855157 0.508116 0.338052
O O13 0.231505 0.333601 0.871562
O O14 0.500000 0.500000 0.500000
O O15 0.452866 0.416536 0.669742
O O16 0.604656 0.252443 0.787997
O O17 0.500000 0.000000 0.000000
#
# Coordination Sequence:
#
# PCOD8001325 Si02
#       8
#     2   2   2   2   2   2   2   2
#     4   9  16  27  45  69 114 138 161 190 241 317
#     4   9  16  27  54  69  99 123 176 203 244 283
#     4  10  20  30  53  78 107 129 167 209 252 303
#     4   9  17  31  51  75  99 141 171 196 244 306
#     4   9  20  37  54  72  92 135 187 216 239 287
#     4   9  19  31  51  73 102 136 162 207 246 305
#     4   9  15  29  45  76  99 141 164 199 242 301
#     4  12  20  29  47  83 115 133 153 197 268 310
#
# _framework density 17.802658000000001
#
# number of rings (size 3 to 8) (size 9 to 14) (size 15 to 20)
#    0.750    1.750    2.500    1.875    1.750    0.000 
#    0.000    3.125    0.000    0.000    0.000    8.750 
#    0.000    0.000    0.000    0.000    0.000    0.000 
#
# Total GULP energy -198219.718555 kJ/mol
# GULP energy per Si atom -12388.732410 kJ/mol
# Density = 1.776214 g / cm^3
# Si number density = 17.802658 Si / 1000 Ang^3
#
#
#
# Elastic Constant Matrix: (Units=GPa)
#
#
# Indices 1 2 3 4 5 6 
#
# 1 51.5720 42.5460 26.9886 5.8536 -0.0651 -10.2904
# 2 42.5460 115.0994 35.2673 9.9468 -9.2655 -24.6594
# 3 26.9886 35.2673 101.8481 12.3401 -3.8668 -18.0868
# 4 5.8536 9.9468 12.3401 12.2398 -5.3963 -3.3128
# 5 -0.0651 -9.2655 -3.8668 -5.3963 12.4192 2.8700
# 6 -10.2904 -24.6594 -18.0868 -3.3128 2.8700 30.5404
#
#
#
# Elastic Compliance Matrix: (Units=1/GPa)
#
#
# Indices 1 2 3 4 5 6 
#
# 1 0.031119 -0.010610 -0.004163 -0.007531 -0.012272 -0.000210
# 2 -0.010610 0.015187 -0.000735 -0.000517 0.009125 0.007339
# 3 -0.004163 -0.000735 0.013220 -0.010327 -0.002075 0.004908
# 4 -0.007531 -0.000517 -0.010327 0.116752 0.047286 -0.000850
# 5 -0.012272 0.009125 -0.002075 0.047286 0.107858 -0.003003
# 6 -0.000210 0.007339 0.004908 -0.000850 -0.003003 0.041695
#
#
# Mechanical properties :
#
#
# Convention : Reuss Voigt Hill
#
# Bulk Modulus (GPa) = 35.07488 53.12480 44.09984
# Shear Modulus (GPa) = 13.64818 21.95438 17.80128
#
# Velocity S-wave (km/s) = 2.77182 3.51552 3.16559
# Velocity P-wave (km/s) = 5.47621 6.81059 6.17952
#
# Compressibility (1/GPa) = 0.02851044
#
# Stress axis : x y z
#
# Youngs Moduli (GPa) = 32.13467 65.84739 75.64140
#
# Poissons Ratio (x) = 0.69861 0.31491
# Poissons Ratio (y) = 0.34093 0.05559
# Poissons Ratio (z) = 0.13378 0.04840
#
# Static dielectric constant tensor:
#      x y z
#    x 3.206590 -0.276430 0.028910 
#    y -0.276430 3.547020 0.123460 
#    z 0.028910 0.123460 2.708330 
# 
# 
# High freq. dielectric constant tensor:
#      x y z
#    x 1.679830 -0.022950 0.002950 
#    y -0.022950 1.700800 0.010770 
#    z 0.002950 0.010770 1.619330 
# 
# From -- ./inp_files/528416.got.cif
#   From: 2010.06.25/outbox.cif.g09.slc.cpg/sg2_265_cif.got.tgz:528416.got - 2010.06.27 13:26:56.
