data_PCOD8001370
_publ_section_title
;
Structure prediction by ZEFSAII (Michael W. Deem and Ramdas Pophale) SiO2 
 PCOD8001370
Probable space group: P -1
;
_chemical_formula_sum "Si O2"
_cell_formula_units_Z 16
_cell_length_a 31.988540
_cell_length_b 10.176961
_cell_length_c 17.337708
_cell_angle_alpha 130.791346
_cell_angle_beta 163.484026
_cell_angle_gamma 40.192745
_cell_volume 934.452298
_symmetry_space_group_name_H-M "P -1"
_symmetry_group_IT_number 2
_symmetry_cell_setting 'triclinic'
loop_
_space_group_symop_operation_xyz
x,y,z
-x,-y,-z
loop_
_atom_site_type_symbol
_atom_site_label
_atom_site_fract_x
_atom_site_fract_y
_atom_site_fract_z
Si Si1 0.622542 0.224992 0.292815
Si Si2 0.124549 0.304492 0.481854
Si Si3 0.418880 0.231755 0.073045
Si Si4 0.268488 0.556838 0.186240
Si Si5 0.409335 0.809172 0.483826
Si Si6 0.140810 0.311396 0.237644
Si Si7 0.112473 0.755552 0.144130
Si Si8 0.671322 0.701703 0.298651
O O1 0.494474 0.315766 0.178161
O O2 0.759225 0.288744 0.571144
O O3 0.760290 0.958178 0.427425
O O4 0.476559 0.340941 0.005389
O O5 0.165165 0.397892 0.515598
O O6 0.200198 0.345089 0.708527
O O7 0.902912 0.426516 0.147549
O O8 0.436245 0.296609 0.213968
O O9 0.552105 0.966351 0.196174
O O10 0.265311 0.756878 0.224378
O O11 0.469283 0.314474 0.426489
O O12 0.247544 0.570224 0.246640
O O13 0.292389 0.076310 0.370284
O O14 0.238016 0.394061 0.492033
O O15 0.000000 0.500000 0.000000
O O16 0.038117 0.271702 0.104910
O O17 0.000000 0.000000 0.000000
#
# Coordination Sequence:
#
# PCOD8001370 Si02
#       8
#     2   2   2   2   2   2   2   2
#     4   9  14  24  46  72  94 121 163 202 231 279
#     4   9  14  24  44  71  94 127 156 194 239 290
#     4   8  14  25  43  68 100 122 153 196 245 281
#     4  11  19  28  49  74 104 126 159 199 247 285
#     4  10  20  32  44  74 107 126 153 207 250 281
#     4  11  21  35  53  73  97 128 166 208 244 284
#     4  12  17  31  54  76  95 131 172 195 232 297
#     4   8  15  27  45  68  94 122 160 203 239 278
#
# _framework density 17.122329000000001
#
# number of rings (size 3 to 8) (size 9 to 14) (size 15 to 20)
#    0.000    2.250    5.000    2.250    0.000    0.500 
#    0.000    1.250    0.000    0.000    0.000    0.875 
#    0.000    0.000    0.000    0.000    0.000    0.000 
#
# Total GULP energy -198211.015080 kJ/mol
# GULP energy per Si atom -12388.188442 kJ/mol
# Density = 1.708336 g / cm^3
# Si number density = 17.122329 Si / 1000 Ang^3
#
#
#
# Elastic Constant Matrix: (Units=GPa)
#
#
# Indices 1 2 3 4 5 6 
#
# 1 58.9487 22.6121 26.0376 -11.1457 -4.7095 -12.4840
# 2 22.6121 34.3742 22.9328 -4.7771 -7.0174 -9.0418
# 3 26.0376 22.9328 113.6214 11.5243 -17.4316 -4.4762
# 4 -11.1457 -4.7771 11.5243 21.0206 -1.3911 -2.7191
# 5 -4.7095 -7.0174 -17.4316 -1.3911 32.8145 -1.2553
# 6 -12.4840 -9.0418 -4.4762 -2.7191 -1.2553 18.1784
#
#
#
# Elastic Compliance Matrix: (Units=1/GPa)
#
#
# Indices 1 2 3 4 5 6 
#
# 1 0.030951 -0.007833 -0.006762 0.020829 0.000780 0.018864
# 2 -0.007833 0.047300 -0.007408 0.013507 0.006347 0.018782
# 3 -0.006762 -0.007408 0.013513 -0.013295 0.003803 -0.006727
# 4 0.020829 0.013507 -0.013295 0.072908 0.003010 0.028862
# 5 0.000780 0.006347 0.003803 0.003010 0.034376 0.007453
# 6 0.018864 0.018782 -0.006727 0.028862 0.007453 0.080482
#
#
# Mechanical properties :
#
#
# Convention : Reuss Voigt Hill
#
# Bulk Modulus (GPa) = 20.93910 38.90102 29.92006
# Shear Modulus (GPa) = 14.72953 23.42682 19.07818
#
# Velocity S-wave (km/s) = 2.93619 3.70294 3.34163
# Velocity P-wave (km/s) = 4.87346 6.40711 5.69217
#
# Compressibility (1/GPa) = 0.04775755
#
# Stress axis : x y z
#
# Youngs Moduli (GPa) = 32.30947 21.14171 74.00411
#
# Poissons Ratio (x) = 0.16561 0.50038
# Poissons Ratio (y) = 0.25309 0.54823
# Poissons Ratio (z) = 0.21846 0.15662
#
# Static dielectric constant tensor:
#      x y z
#    x 3.197420 -0.257790 -0.260680 
#    y -0.257790 2.806660 0.428500 
#    z -0.260680 0.428500 3.838270 
# 
# 
# High freq. dielectric constant tensor:
#      x y z
#    x 1.639470 -0.029480 -0.004640 
#    y -0.029480 1.600280 0.029750 
#    z -0.004640 0.029750 1.678490 
# 
# From -- ./inp_files/253512.got.cif
#   From: 2010.06.25/outbox.cif.g09.slc.cpg/sg2_127_cif.got.tgz:253512.got - 2010.06.27 13:26:56.
