data_PCOD8001499
_publ_section_title
;
Structure prediction by ZEFSAII (Michael W. Deem and Ramdas Pophale) SiO2 
 PCOD8001499
Probable space group: P -1
;
_chemical_formula_sum "Si O2"
_cell_formula_units_Z 14
_cell_length_a 23.412457
_cell_length_b 9.510043
_cell_length_c 9.987331
_cell_angle_alpha 137.831488
_cell_angle_beta 138.331782
_cell_angle_gamma 32.929461
_cell_volume 762.482343
_symmetry_space_group_name_H-M "P -1"
_symmetry_group_IT_number 2
_symmetry_cell_setting 'triclinic'
loop_
_space_group_symop_operation_xyz
x,y,z
-x,-y,-z
loop_
_atom_site_type_symbol
_atom_site_label
_atom_site_fract_x
_atom_site_fract_y
_atom_site_fract_z
Si Si1 0.225876 0.276544 0.969686
Si Si2 0.158241 0.662860 0.620581
Si Si3 0.506312 0.300518 0.268796
Si Si4 0.419192 0.652723 0.843321
Si Si5 0.310870 0.308930 0.876478
Si Si6 0.074919 0.147126 0.650176
Si Si7 0.243100 0.591814 0.446006
O O1 0.225194 0.355499 0.870753
O O2 0.110696 0.334908 0.845122
O O3 0.327799 0.960863 0.950022
O O4 0.238955 0.452842 0.212910
O O5 0.240804 0.537750 0.802273
O O6 0.225867 0.488049 0.481334
O O7 0.057762 0.656422 0.467787
O O8 0.107118 0.977336 0.727264
O O9 0.500000 0.500000 0.500000
O O10 0.508952 0.376194 0.174920
O O11 0.617797 0.991230 0.276738
O O12 0.395358 0.335281 0.117041
O O13 0.362430 0.521878 0.610631
O O14 0.500000 0.500000 0.000000
O O15 0.143234 0.920804 0.491319
#
# Coordination Sequence:
#
# PCOD8001499 Si02
#       7
#     2   2   2   2   2   2   2
#     4  10  20  34  54  75 107 136 170 218 263 304
#     4   9  18  38  56  75 108 136 176 215 257 309
#     4  10  21  36  53  75 110 138 171 213 263 307
#     4  10  20  33  52  76 103 137 173 216 258 304
#     4  10  21  36  53  80 106 137 172 219 258 307
#     4   8  19  37  55  75 108 138 170 219 259 303
#     4   9  18  34  54  75 103 136 175 211 257 309
#
# _framework density 18.361080999999999
#
# number of rings (size 3 to 8) (size 9 to 14) (size 15 to 20)
#    0.857    1.714    0.000    1.714    0.000    2.857 
#    0.000    0.714    0.000    0.000    0.000    0.000 
#    0.000    0.000    0.000    0.000    0.000    0.000 
#
# Total GULP energy -173537.463263 kJ/mol
# GULP energy per Si atom -12395.533090 kJ/mol
# Density = 1.831929 g / cm^3
# Si number density = 18.361081 Si / 1000 Ang^3
#
#
#
# Elastic Constant Matrix: (Units=GPa)
#
#
# Indices 1 2 3 4 5 6 
#
# 1 81.6697 17.6542 21.5122 -5.5857 22.7789 4.1455
# 2 17.6542 53.6136 31.8177 -8.9439 -3.5140 6.9704
# 3 21.5122 31.8177 98.9544 15.7092 8.3436 -1.7473
# 4 -5.5857 -8.9439 15.7092 23.7082 2.2835 -1.9964
# 5 22.7789 -3.5140 8.3436 2.2835 28.3261 -3.0835
# 6 4.1455 6.9704 -1.7473 -1.9964 -3.0835 15.8144
#
#
#
# Elastic Compliance Matrix: (Units=1/GPa)
#
#
# Indices 1 2 3 4 5 6 
#
# 1 0.018959 -0.004202 -0.002390 0.005529 -0.016145 -0.005832
# 2 -0.004202 0.033378 -0.013767 0.018944 0.008849 -0.011014
# 3 -0.002390 -0.013767 0.018111 -0.016957 -0.003106 0.005949
# 4 0.005529 0.018944 -0.016957 0.061742 -0.002555 -0.004377
# 5 -0.016145 0.008849 -0.003106 -0.002555 0.051563 0.009720
# 6 -0.005832 -0.011014 0.005949 -0.004377 0.009720 0.071617
#
#
# Mechanical properties :
#
#
# Convention : Reuss Voigt Hill
#
# Bulk Modulus (GPa) = 33.63597 41.80067 37.71832
# Shear Modulus (GPa) = 16.33997 24.45331 20.39664
#
# Velocity S-wave (km/s) = 2.98640 3.65334 3.33658
# Velocity P-wave (km/s) = 5.50003 6.37269 5.95238
#
# Compressibility (1/GPa) = 0.02973008
#
# Stress axis : x y z
#
# Youngs Moduli (GPa) = 52.74402 29.95974 55.21619
#
# Poissons Ratio (x) = 0.12590 0.13196
# Poissons Ratio (y) = 0.22165 0.76015
# Poissons Ratio (z) = 0.12606 0.41245
#
# Static dielectric constant tensor:
#      x y z
#    x 3.663890 0.003490 0.214110 
#    y 0.003490 3.111920 0.052790 
#    z 0.214110 0.052790 3.097580 
# 
# 
# High freq. dielectric constant tensor:
#      x y z
#    x 1.728610 0.000040 0.015280 
#    y 0.000040 1.684560 -0.001400 
#    z 0.015280 -0.001400 1.695970 
# 
# From -- ./inp_files/220691.got.cif
#   From: 2010.06.25/outbox.cif.g09.slc.cpg/sg2_111_cif.got.tgz:220691.got - 2010.06.27 13:26:56.
