data_PCOD8001412
_publ_section_title
;
Structure prediction by ZEFSAII (Michael W. Deem and Ramdas Pophale) SiO2 
 PCOD8001412
Probable space group: P -1
;
_chemical_formula_sum "Si O2"
_cell_formula_units_Z 16
_cell_length_a 10.004074
_cell_length_b 14.098131
_cell_length_c 13.790615
_cell_angle_alpha 47.934538
_cell_angle_beta 72.062305
_cell_angle_gamma 40.634042
_cell_volume 855.690476
_symmetry_space_group_name_H-M "P -1"
_symmetry_group_IT_number 2
_symmetry_cell_setting 'triclinic'
loop_
_space_group_symop_operation_xyz
x,y,z
-x,-y,-z
loop_
_atom_site_type_symbol
_atom_site_label
_atom_site_fract_x
_atom_site_fract_y
_atom_site_fract_z
Si Si1 0.122352 0.755346 0.568359
Si Si2 0.085524 0.526561 0.632667
Si Si3 0.962265 0.036944 0.733629
Si Si4 0.292848 0.792184 0.668150
Si Si5 0.188389 0.114854 0.044654
Si Si6 0.596819 0.933637 0.152715
Si Si7 0.804353 0.497159 0.753549
Si Si8 0.963730 0.768259 0.305717
O O1 0.287388 0.676385 0.674007
O O2 0.132401 0.596450 0.658815
O O3 0.195897 0.778252 0.437353
O O4 0.863452 0.982291 0.495879
O O5 0.858301 0.608902 0.651930
O O6 0.055423 0.616612 0.475346
O O7 0.293349 0.282067 0.749131
O O8 0.189148 0.824919 0.773431
O O9 0.032138 0.085699 0.768898
O O10 0.825141 0.019935 0.823171
O O11 0.542175 0.665946 0.715115
O O12 0.340482 0.010818 0.984598
O O13 0.940099 0.347720 0.919615
O O14 0.326250 0.102548 0.102392
O O15 0.703177 0.912987 0.242413
O O16 0.882263 0.363860 0.732398
#
# Coordination Sequence:
#
# PCOD8001412 Si02
#       8
#     2   2   2   2   2   2   2   2
#     4   8  18  35  52  74 103 127 168 204 257 297
#     4   9  17  33  53  79 102 127 165 211 252 301
#     4   9  18  34  53  73 104 131 167 204 249 298
#     4   9  19  36  51  76 101 134 164 209 253 296
#     4   9  19  34  49  72 103 139 168 200 244 298
#     4   9  18  32  52  75 107 130 162 209 253 290
#     4  10  20  32  53  74 104 135 168 203 249 293
#     4   9  18  33  51  82 101 126 167 210 252 299
#
# _framework density 18.698350999999999
#
# number of rings (size 3 to 8) (size 9 to 14) (size 15 to 20)
#    0.750    2.500    0.000    1.500    0.000    6.000 
#    0.000    5.000    0.000    3.750    0.000    0.000 
#    0.000    0.000    0.000    0.000    0.000    0.000 
#
# Total GULP energy -198223.187346 kJ/mol
# GULP energy per Si atom -12388.949209 kJ/mol
# Density = 1.865579 g / cm^3
# Si number density = 18.698351 Si / 1000 Ang^3
#
#
#
# Elastic Constant Matrix: (Units=GPa)
#
#
# Indices 1 2 3 4 5 6 
#
# 1 117.8966 49.1545 47.6741 5.3336 -15.3304 -9.3644
# 2 49.1545 45.5285 28.1238 3.8079 -3.3099 -7.2848
# 3 47.6741 28.1238 61.2865 6.6855 -6.6439 -9.2637
# 4 5.3336 3.8079 6.6855 14.4186 -8.7159 8.4326
# 5 -15.3304 -3.3099 -6.6439 -8.7159 23.1094 -2.4955
# 6 -9.3644 -7.2848 -9.2637 8.4326 -2.4955 31.8398
#
#
#
# Elastic Compliance Matrix: (Units=1/GPa)
#
#
# Indices 1 2 3 4 5 6 
#
# 1 0.019256 -0.016345 -0.007403 0.008364 0.011291 -0.001560
# 2 -0.016345 0.045080 -0.006827 -0.012510 -0.010418 0.006017
# 3 -0.007403 -0.006827 0.027720 -0.014499 -0.002527 0.007968
# 4 0.008364 -0.012510 -0.014499 0.120971 0.041607 -0.033398
# 5 0.011291 -0.010418 -0.002527 0.041607 0.063606 -0.005832
# 6 -0.001560 0.006017 0.007968 -0.033398 -0.005832 0.043032
#
#
# Mechanical properties :
#
#
# Convention : Reuss Voigt Hill
#
# Bulk Modulus (GPa) = 32.35578 52.73515 42.54546
# Shear Modulus (GPa) = 12.78385 20.52419 16.65402
#
# Velocity S-wave (km/s) = 2.61758 3.31667 2.98764
# Velocity P-wave (km/s) = 5.14561 6.55220 5.89104
#
# Compressibility (1/GPa) = 0.03090638
#
# Stress axis : x y z
#
# Youngs Moduli (GPa) = 51.93153 22.18258 36.07469
#
# Poissons Ratio (x) = 0.36258 0.26705
# Poissons Ratio (y) = 0.84884 0.24629
# Poissons Ratio (z) = 0.38443 0.15145
#
# Static dielectric constant tensor:
#      x y z
#    x 3.641070 0.021790 0.154100 
#    y 0.021790 3.041040 0.025940 
#    z 0.154100 0.025940 3.366200 
# 
# 
# High freq. dielectric constant tensor:
#      x y z
#    x 1.738230 -0.004030 0.008520 
#    y -0.004030 1.681280 0.004070 
#    z 0.008520 0.004070 1.715960 
# 
# From -- ./inp_files/503991.got.cif
#   From: 2010.06.25/outbox.cif.g09.slc.cpg/sg2_252_cif.got.tgz:503991.got - 2010.06.27 13:26:56.
