data_PCOD8001818
_publ_section_title
;
Structure prediction by ZEFSAII (Michael W. Deem and Ramdas Pophale) SiO2 
 PCOD8001818
Probable space group: P -1
;
_chemical_formula_sum "Si O2"
_cell_formula_units_Z 14
_cell_length_a 14.941760
_cell_length_b 8.798775
_cell_length_c 14.370499
_cell_angle_alpha 83.568777
_cell_angle_beta 138.212063
_cell_angle_gamma 129.726586
_cell_volume 680.624889
_symmetry_space_group_name_H-M "P -1"
_symmetry_group_IT_number 2
_symmetry_cell_setting 'triclinic'
loop_
_space_group_symop_operation_xyz
x,y,z
-x,-y,-z
loop_
_atom_site_type_symbol
_atom_site_label
_atom_site_fract_x
_atom_site_fract_y
_atom_site_fract_z
Si Si1 0.288383 0.632104 0.791164
Si Si2 0.685608 0.286294 0.845312
Si Si3 0.341596 0.689721 0.558864
Si Si4 0.657182 0.821822 0.928049
Si Si5 0.424608 0.607907 0.077686
Si Si6 0.899494 0.553809 0.799627
Si Si7 0.115688 0.791273 0.639251
O O1 0.523984 0.790471 0.908638
O O2 0.312605 0.839563 0.796709
O O3 0.032360 0.348660 0.561760
O O4 0.257047 0.530736 0.875821
O O5 0.606447 0.342817 0.850147
O O6 0.762995 0.442947 0.799331
O O7 0.452702 0.952676 0.668676
O O8 0.918469 0.417901 0.059138
O O9 0.521289 0.724869 0.730386
O O10 0.316647 0.673367 0.429347
O O11 0.066722 0.393599 0.402585
O O12 0.651852 0.639742 0.959562
O O13 0.942476 0.143163 0.120175
O O14 0.712093 0.893541 0.247874
#
# Coordination Sequence:
#
# PCOD8001818 Si02
#       7
#     2   2   2   2   2   2   2
#     4  10  20  36  55  79 111 147 181 219 267 321
#     4  10  22  36  59  85 103 138 192 227 267 319
#     4  10  20  39  59  80 108 142 183 229 268 316
#     4  10  23  36  54  83 113 146 182 212 270 337
#     4  12  22  35  54  84 118 143 173 223 272 327
#     4  10  20  40  60  77 106 145 184 231 268 308
#     4  10  20  34  57  82 107 140 185 224 264 318
#
# _framework density 20.569334000000001
#
# number of rings (size 3 to 8) (size 9 to 14) (size 15 to 20)
#    0.000    1.714    0.000    6.429    0.000    4.000 
#    0.000    0.714    0.000    0.000    0.000    0.000 
#    0.000    0.000    0.000    0.000    0.000    0.000 
#
# Total GULP energy -173608.333508 kJ/mol
# GULP energy per Si atom -12400.595251 kJ/mol
# Density = 2.052252 g / cm^3
# Si number density = 20.569334 Si / 1000 Ang^3
#
#
#
# Elastic Constant Matrix: (Units=GPa)
#
#
# Indices 1 2 3 4 5 6 
#
# 1 71.1411 42.5762 20.9147 -8.2021 -5.8349 19.1681
# 2 42.5762 114.0765 18.0779 1.2320 -3.1918 4.0003
# 3 20.9147 18.0779 67.5985 -13.8281 -13.6396 15.1749
# 4 -8.2021 1.2320 -13.8281 25.4734 12.2556 -2.3804
# 5 -5.8349 -3.1918 -13.6396 12.2556 25.1522 -4.8259
# 6 19.1681 4.0003 15.1749 -2.3804 -4.8259 24.9704
#
#
#
# Elastic Compliance Matrix: (Units=1/GPa)
#
#
# Indices 1 2 3 4 5 6 
#
# 1 0.024667 -0.008703 -0.000415 0.007844 -0.002703 -0.017064
# 2 -0.008703 0.012328 -0.002685 -0.005133 0.001778 0.006192
# 3 -0.000415 -0.002685 0.020477 0.007796 0.004951 -0.009996
# 4 0.007844 -0.005133 0.007796 0.057024 -0.024149 -0.009168
# 5 -0.002703 0.001778 0.004951 -0.024149 0.055179 0.007144
# 6 -0.017064 0.006192 -0.009996 -0.009168 0.007144 0.058735
#
#
# Mechanical properties :
#
#
# Convention : Reuss Voigt Hill
#
# Bulk Modulus (GPa) = 29.52770 46.21710 37.87240
# Shear Modulus (GPa) = 18.98936 26.53566 22.76251
#
# Velocity S-wave (km/s) = 3.04170 3.59564 3.33020
# Velocity P-wave (km/s) = 5.16936 6.30522 5.76533
#
# Compressibility (1/GPa) = 0.03386651
#
# Stress axis : x y z
#
# Youngs Moduli (GPa) = 40.53984 81.11791 48.83421
#
# Poissons Ratio (x) = 0.70594 0.02026
# Poissons Ratio (y) = 0.35280 0.13114
# Poissons Ratio (z) = 0.01682 0.21784
#
# Static dielectric constant tensor:
#      x y z
#    x 3.491270 0.187090 -0.161380 
#    y 0.187090 3.781800 -0.050650 
#    z -0.161380 -0.050650 3.776260 
# 
# 
# High freq. dielectric constant tensor:
#      x y z
#    x 1.780660 0.018640 -0.019470 
#    y 0.018640 1.805440 0.002250 
#    z -0.019470 0.002250 1.812470 
# 
# From -- ./inp_files/272541.got.cif
#   From: 2010.06.25/outbox.cif.g09.slc.cpg/sg2_137_cif.got.tgz:272541.got - 2010.06.27 13:26:56.
