data_PCOD8001629
_publ_section_title
;
Structure prediction by ZEFSAII (Michael W. Deem and Ramdas Pophale) SiO2 
 PCOD8001629
Probable space group: P -1
;
_chemical_formula_sum "Si O2"
_cell_formula_units_Z 16
_cell_length_a 11.583503
_cell_length_b 11.561260
_cell_length_c 13.307670
_cell_angle_alpha 63.942284
_cell_angle_beta 135.959077
_cell_angle_gamma 141.129731
_cell_volume 747.296934
_symmetry_space_group_name_H-M "P -1"
_symmetry_group_IT_number 2
_symmetry_cell_setting 'triclinic'
loop_
_space_group_symop_operation_xyz
x,y,z
-x,-y,-z
loop_
_atom_site_type_symbol
_atom_site_label
_atom_site_fract_x
_atom_site_fract_y
_atom_site_fract_z
Si Si1 0.896299 0.541491 0.496888
Si Si2 0.701174 0.289942 0.655043
Si Si3 0.630088 0.638090 0.239822
Si Si4 0.096864 0.965292 0.696302
Si Si5 0.445780 0.348984 0.588816
Si Si6 0.199526 0.790625 0.973301
Si Si7 0.358304 0.961844 0.702949
Si Si8 0.836467 0.502900 0.024964
O O1 0.699945 0.356404 0.519146
O O2 0.751997 0.567296 0.331524
O O3 0.000000 0.500000 0.500000
O O4 0.122982 0.732321 0.629848
O O5 0.656507 0.365255 0.688746
O O6 0.974037 0.389401 0.804011
O O7 0.480618 0.059836 0.630426
O O8 0.524843 0.591229 0.302881
O O9 0.824455 0.864092 0.255491
O O10 0.383500 0.527203 0.062662
O O11 0.117544 0.849702 0.819587
O O12 0.262405 0.037518 0.670336
O O13 0.828682 0.850484 0.536338
O O14 0.500000 0.500000 0.500000
O O15 0.271458 0.701251 0.991633
O O16 0.967798 0.635988 0.958731
O O17 0.433611 0.976225 0.115017
#
# Coordination Sequence:
#
# PCOD8001629 Si02
#       8
#     2   2   2   2   2   2   2   2
#     4  12  28  46  64  87 122 172 222 264 304 360
#     4  11  23  40  67  90 127 167 200 260 319 375
#     4  12  22  36  60  95 129 157 202 256 310 379
#     4  12  21  32  61 101 134 156 196 255 322 382
#     4  12  19  33  57  93 126 160 193 250 317 373
#     4  10  20  33  59  96 137 167 185 248 321 392
#     4  11  21  40  63  92 125 166 209 251 311 380
#     4  10  20  37  58  95 131 162 203 240 321 392
#
# _framework density 21.410498
#
# number of rings (size 3 to 8) (size 9 to 14) (size 15 to 20)
#    0.000    0.750    5.000    5.250    1.750    0.500 
#    0.000    0.625    0.000    1.500    0.000    0.000 
#    0.000    0.000    0.000    0.000    0.000    0.000 
#
# Total GULP energy -198251.193696 kJ/mol
# GULP energy per Si atom -12390.699606 kJ/mol
# Density = 2.136177 g / cm^3
# Si number density = 21.410498 Si / 1000 Ang^3
#
#
#
# Elastic Constant Matrix: (Units=GPa)
#
#
# Indices 1 2 3 4 5 6 
#
# 1 69.1190 18.6946 18.6282 -10.0784 21.3129 -6.0838
# 2 18.6946 59.7124 24.0250 -11.6552 1.7764 11.9644
# 3 18.6282 24.0250 108.5191 -5.1334 30.1798 -4.3301
# 4 -10.0784 -11.6552 -5.1334 36.0748 5.4405 3.4206
# 5 21.3129 1.7764 30.1798 5.4405 27.6989 -7.8549
# 6 -6.0838 11.9644 -4.3301 3.4206 -7.8549 24.3099
#
#
#
# Elastic Compliance Matrix: (Units=1/GPa)
#
#
# Indices 1 2 3 4 5 6 
#
# 1 0.024137 -0.007329 0.004798 0.008651 -0.024655 0.001319
# 2 -0.007329 0.025412 -0.006206 0.005820 0.005522 -0.014481
# 3 0.004798 -0.006206 0.016097 0.005012 -0.022014 -0.000696
# 4 0.008651 0.005820 0.005012 0.037465 -0.023437 -0.012651
# 5 -0.024655 0.005522 -0.022014 -0.023437 0.088744 0.019163
# 6 0.001319 -0.014481 -0.000696 -0.012651 0.019163 0.056441
#
#
# Mechanical properties :
#
#
# Convention : Reuss Voigt Hill
#
# Bulk Modulus (GPa) = 20.75930 40.00511 30.38221
# Shear Modulus (GPa) = 17.74144 29.35022 23.54583
#
# Velocity S-wave (km/s) = 2.88172 3.70649 3.31982
# Velocity P-wave (km/s) = 4.55953 6.08628 5.37737
#
# Compressibility (1/GPa) = 0.04817117
#
# Stress axis : x y z
#
# Youngs Moduli (GPa) = 41.43002 39.35199 62.12366
#
# Poissons Ratio (x) = 0.28842 -0.29807
# Poissons Ratio (y) = 0.30365 0.38554
# Poissons Ratio (z) = -0.19878 0.24422
#
# Static dielectric constant tensor:
#      x y z
#    x 3.361380 0.305920 0.239780 
#    y 0.305920 4.142490 -0.224070 
#    z 0.239780 -0.224070 4.012810 
# 
# 
# High freq. dielectric constant tensor:
#      x y z
#    x 1.776800 0.035810 0.027090 
#    y 0.035810 1.851750 -0.014110 
#    z 0.027090 -0.014110 1.859530 
# 
# From -- ./inp_files/519633.got.cif
#   From: 2010.06.25/outbox.cif.g09.slc.cpg/sg2_260_cif.got.tgz:519633.got - 2010.06.27 13:26:56.
