data_PCOD8001498
_publ_section_title
;
Structure prediction by ZEFSAII (Michael W. Deem and Ramdas Pophale) SiO2 
 PCOD8001498
Probable space group: P -1
;
_chemical_formula_sum "Si O2"
_cell_formula_units_Z 12
_cell_length_a 16.785329
_cell_length_b 13.969021
_cell_length_c 5.361948
_cell_angle_alpha 123.642990
_cell_angle_beta 83.487954
_cell_angle_gamma 135.929908
_cell_volume 633.959750
_symmetry_space_group_name_H-M "P -1"
_symmetry_group_IT_number 2
_symmetry_cell_setting 'triclinic'
loop_
_space_group_symop_operation_xyz
x,y,z
-x,-y,-z
loop_
_atom_site_type_symbol
_atom_site_label
_atom_site_fract_x
_atom_site_fract_y
_atom_site_fract_z
Si Si1 0.982352 0.843411 0.292294
Si Si2 0.562530 0.826163 0.239015
Si Si3 0.911809 0.013511 0.038928
Si Si4 0.518639 0.886318 0.835305
Si Si5 0.361355 0.326947 0.165034
Si Si6 0.680780 0.494780 0.862182
O O1 0.056318 0.878653 0.562857
O O2 0.000000 0.000000 0.500000
O O3 0.830843 0.634704 0.063813
O O4 0.048766 0.868745 0.051925
O O5 0.605200 0.944134 0.646073
O O6 0.405856 0.617301 0.015969
O O7 0.589279 0.931761 0.134237
O O8 0.644284 0.801543 0.159556
O O9 0.757481 0.804973 0.781832
O O10 0.000000 0.000000 0.000000
O O11 0.377171 0.660848 0.546717
O O12 0.500000 0.000000 0.000000
O O13 0.500000 0.500000 0.500000
O O14 0.336604 0.395220 0.067035
#
# Coordination Sequence:
#
# PCOD8001498 Si02
#       6
#     2   2   2   2   2   2
#     4  10  20  33  52  75 116 152 192 218 267 347
#     4  10  23  34  57  86 116 149 182 240 305 327
#     4  10  22  34  51  75 121 158 186 216 268 358
#     4  10  22  39  56  82 115 150 201 242 282 335
#     4  12  21  36  57  91 130 148 183 236 302 358
#     4  10  22  33  59  84 122 146 189 229 297 334
#
# _framework density 18.928647000000002
#
# number of rings (size 3 to 8) (size 9 to 14) (size 15 to 20)
#    1.000    0.667    5.000    1.000    7.000    2.667 
#    0.000    0.000    0.000    0.000    0.000    7.000 
#    0.000    0.000    0.000    0.000    0.000    0.000 
#
# Total GULP energy -148675.063374 kJ/mol
# GULP energy per Si atom -12389.588614 kJ/mol
# Density = 1.888556 g / cm^3
# Si number density = 18.928647 Si / 1000 Ang^3
#
#
#
# Elastic Constant Matrix: (Units=GPa)
#
#
# Indices 1 2 3 4 5 6 
#
# 1 75.7032 43.9124 39.7771 -0.6823 -12.5064 -1.7492
# 2 43.9124 93.4900 40.1768 -27.5198 4.9670 6.3694
# 3 39.7771 40.1768 79.5401 -28.2296 2.5463 -5.5995
# 4 -0.6823 -27.5198 -28.2296 39.9080 -2.7307 8.3613
# 5 -12.5064 4.9670 2.5463 -2.7307 37.7314 7.6941
# 6 -1.7492 6.3694 -5.5995 8.3613 7.6941 38.9229
#
#
#
# Elastic Compliance Matrix: (Units=1/GPa)
#
#
# Indices 1 2 3 4 5 6 
#
# 1 0.032615 -0.015653 -0.016213 -0.021770 0.011556 0.004087
# 2 -0.015653 0.023280 0.002327 0.018522 -0.005633 -0.007044
# 3 -0.016213 0.002327 0.026735 0.019906 -0.005971 -0.000359
# 4 -0.021770 0.018522 0.019906 0.053676 -0.004718 -0.011744
# 5 0.011556 -0.005633 -0.005971 -0.004718 0.032105 -0.004751
# 6 0.004087 -0.007044 -0.000359 -0.011744 -0.004751 0.030438
#
#
# Mechanical properties :
#
#
# Convention : Reuss Voigt Hill
#
# Bulk Modulus (GPa) = 42.45704 55.16289 48.80996
# Shear Modulus (GPa) = 18.81270 31.63692 25.22481
#
# Velocity S-wave (km/s) = 3.15600 4.09268 3.65448
# Velocity P-wave (km/s) = 5.97990 7.17908 6.60675
#
# Compressibility (1/GPa) = 0.02355322
#
# Stress axis : x y z
#
# Youngs Moduli (GPa) = 30.66070 42.95587 37.40361
#
# Poissons Ratio (x) = 0.67237 0.60641
# Poissons Ratio (y) = 0.47992 -0.08704
# Poissons Ratio (z) = 0.49709 -0.09996
#
# Static dielectric constant tensor:
#      x y z
#    x 3.255450 -0.043670 0.355550 
#    y -0.043670 4.018170 -0.857700 
#    z 0.355550 -0.857700 4.240440 
# 
# 
# High freq. dielectric constant tensor:
#      x y z
#    x 1.693340 0.013740 0.015550 
#    y 0.013740 1.734140 -0.029190 
#    z 0.015550 -0.029190 1.726320 
# 
# From -- ./inp_files/91971.got.cif
#   From: 2010.06.25/outbox.cif.g09.slc.cpg/sg2_46_cif.got.tgz:91971.got - 2010.06.27 13:26:56.
