data_PCOD8001515
_publ_section_title
;
Structure prediction by ZEFSAII (Michael W. Deem and Ramdas Pophale) SiO2 
 PCOD8001515
Probable space group: P -1
;
_chemical_formula_sum "Si O2"
_cell_formula_units_Z 14
_cell_length_a 20.624539
_cell_length_b 6.316525
_cell_length_c 6.079981
_cell_angle_alpha 80.469132
_cell_angle_beta 129.920056
_cell_angle_gamma 95.602666
_cell_volume 599.048014
_symmetry_space_group_name_H-M "P -1"
_symmetry_group_IT_number 2
_symmetry_cell_setting 'triclinic'
loop_
_space_group_symop_operation_xyz
x,y,z
-x,-y,-z
loop_
_atom_site_type_symbol
_atom_site_label
_atom_site_fract_x
_atom_site_fract_y
_atom_site_fract_z
Si Si1 0.228349 0.397976 0.967219
Si Si2 0.093254 0.461183 0.987563
Si Si3 0.617858 0.481994 0.954846
Si Si4 0.655369 0.777533 0.373707
Si Si5 0.519770 0.822389 0.394022
Si Si6 0.057093 0.795936 0.205404
Si Si7 0.190763 0.105123 0.555180
O O1 0.142664 0.506924 0.858562
O O2 0.283320 0.550354 0.898091
O O3 0.285075 0.341625 0.306009
O O4 0.200785 0.185096 0.812844
O O5 0.085999 0.686345 0.059160
O O6 0.141202 0.285385 0.274218
O O7 0.998466 0.372802 0.744793
O O8 0.572137 0.630387 0.649721
O O9 0.569096 0.256461 0.888809
O O10 0.613118 0.593781 0.162755
O O11 0.579279 0.908144 0.308504
O O12 0.714626 0.934922 0.331728
O O13 0.500000 0.000000 0.500000
O O14 0.141568 0.878982 0.496662
O O15 0.000000 0.000000 0.000000
#
# Coordination Sequence:
#
# PCOD8001515 Si02
#       7
#     2   2   2   2   2   2   2
#     4   9  18  34  54  74  99 133 170 206 247 295
#     4   9  18  34  53  74 100 131 167 206 250 298
#     4   9  19  36  53  73 104 133 163 208 252 292
#     4   9  18  35  53  72 104 136 163 206 253 292
#     4  10  20  33  53  79 101 130 171 205 245 300
#     4   9  18  34  53  74 103 133 163 205 253 297
#     4   9  18  34  53  74 100 131 168 208 249 294
#
# _framework density 23.370415999999999
#
# number of rings (size 3 to 8) (size 9 to 14) (size 15 to 20)
#    0.000    2.857    0.000    0.429    0.000    2.286 
#    0.000   23.571    0.000    0.000    0.000    0.000 
#    0.000    0.000    0.000    0.000    0.000    0.000 
#
# Total GULP energy -173474.877173 kJ/mol
# GULP energy per Si atom -12391.062655 kJ/mol
# Density = 2.331722 g / cm^3
# Si number density = 23.370416 Si / 1000 Ang^3
#
#
#
# Elastic Constant Matrix: (Units=GPa)
#
#
# Indices 1 2 3 4 5 6 
#
# 1 237.5103 70.9262 57.2843 56.3318 -5.2429 -20.6071
# 2 70.9262 67.0632 29.0388 41.3733 10.3427 -1.1182
# 3 57.2843 29.0388 95.2767 48.6798 10.0459 9.7858
# 4 56.3318 41.3733 48.6798 51.3187 4.6464 3.4690
# 5 -5.2429 10.3427 10.0459 4.6464 33.7704 14.6374
# 6 -20.6071 -1.1182 9.7858 3.4690 14.6374 27.3890
#
#
#
# Elastic Compliance Matrix: (Units=1/GPa)
#
#
# Indices 1 2 3 4 5 6 
#
# 1 0.007545 -0.006210 -0.002822 -0.001129 0.001586 0.005727
# 2 -0.006210 0.040677 0.009843 -0.034411 -0.013893 0.005254
# 3 -0.002822 0.009843 0.023762 -0.026640 -0.005066 -0.004130
# 4 -0.001129 -0.034411 -0.026640 0.073231 0.011823 -0.008330
# 5 0.001586 -0.013893 -0.005066 0.011823 0.043712 -0.022422
# 6 0.005727 0.005254 -0.004130 -0.008330 -0.022422 0.055548
#
#
# Mechanical properties :
#
#
# Convention : Reuss Voigt Hill
#
# Bulk Modulus (GPa) = 13.58600 79.37208 46.47904
# Shear Modulus (GPa) = 18.69934 38.66900 28.68417
#
# Velocity S-wave (km/s) = 2.83172 4.07211 3.50719
# Velocity P-wave (km/s) = 4.06417 7.49305 6.02757
#
# Compressibility (1/GPa) = 0.07360517
#
# Stress axis : x y z
#
# Youngs Moduli (GPa) = 132.53209 24.58414 42.08367
#
# Poissons Ratio (x) = 0.15268 0.11877
# Poissons Ratio (y) = 0.82307 -0.41424
# Poissons Ratio (z) = 0.37404 -0.24199
#
# Static dielectric constant tensor:
#      x y z
#    x 5.345170 0.153280 0.413530 
#    y 0.153280 3.744780 0.397980 
#    z 0.413530 0.397980 4.210250 
# 
# 
# High freq. dielectric constant tensor:
#      x y z
#    x 1.952510 -0.004300 0.014830 
#    y -0.004300 1.882910 0.022430 
#    z 0.014830 0.022430 1.924570 
# 
# From -- ./inp_files/7386.got.cif
#   From: 2010.06.25/outbox.cif.g09.slc.cpg/sg2_4_cif.got.tgz:7386.got - 2010.06.27 13:26:56.
