data_PCOD8002880
_publ_section_title
;
Structure prediction by ZEFSAII (Michael W. Deem and Ramdas Pophale) SiO2 
 PCOD8002880
Probable space group: P -1
;
_chemical_formula_sum "Si O2"
_cell_formula_units_Z 14
_cell_length_a 20.343028
_cell_length_b 7.975814
_cell_length_c 6.301444
_cell_angle_alpha 124.627966
_cell_angle_beta 44.172582
_cell_angle_gamma 116.911217
_cell_volume 584.432133
_symmetry_space_group_name_H-M "P -1"
_symmetry_group_IT_number 2
_symmetry_cell_setting 'triclinic'
loop_
_space_group_symop_operation_xyz
x,y,z
-x,-y,-z
loop_
_atom_site_type_symbol
_atom_site_label
_atom_site_fract_x
_atom_site_fract_y
_atom_site_fract_z
Si Si1 0.232865 0.640451 0.280262
Si Si2 0.935295 0.824394 0.910345
Si Si3 0.271479 0.240668 0.650670
Si Si4 0.338113 0.489957 0.300041
Si Si5 0.620584 0.168352 0.224736
Si Si6 0.974482 0.502793 0.299391
Si Si7 0.586576 0.823916 0.381505
O O1 0.264297 0.623379 0.441781
O O2 0.120050 0.648304 0.544349
O O3 0.258451 0.439606 0.958817
O O4 0.291719 0.823513 0.142482
O O5 0.967875 0.745970 0.546362
O O6 0.940006 0.602782 0.858009
O O7 0.828804 0.897842 0.204834
O O8 0.000000 0.000000 0.000000
O O9 0.290484 0.294710 0.399442
O O10 0.357523 0.138060 0.496658
O O11 0.390130 0.633598 0.460152
O O12 0.406690 0.402650 0.899771
O O13 0.522945 0.140159 0.296821
O O14 0.633770 0.980220 0.212275
O O15 0.000000 0.500000 0.000000
#
# Coordination Sequence:
#
# PCOD8002880 Si02
#       7
#     2   2   2   2   2   2   2
#     4   9  20  38  60  87 120 156 196 244 298 357
#     4  10  22  39  61  90 120 156 202 251 306 363
#     4   9  20  39  59  86 120 153 197 249 298 357
#     4  10  20  36  60  83 116 157 192 239 298 352
#     4  10  22  38  57  86 118 154 200 242 292 356
#     4  10  21  40  63  89 123 160 200 250 305 362
#     4  10  22  38  58  85 118 155 198 245 292 353
#
# _framework density 23.954878000000001
#
# number of rings (size 3 to 8) (size 9 to 14) (size 15 to 20)
#    0.000    2.286    0.000    1.286    0.000   11.429 
#    0.000    2.857    0.000    0.000    0.000    0.000 
#    0.000    0.000    0.000    0.000    0.000    0.000 
#
# Total GULP energy -173446.872104 kJ/mol
# GULP energy per Si atom -12389.062293 kJ/mol
# Density = 2.390036 g / cm^3
# Si number density = 23.954878 Si / 1000 Ang^3
#
#
#
# Elastic Constant Matrix: (Units=GPa)
#
#
# Indices 1 2 3 4 5 6 
#
# 1 138.7473 29.5246 34.0473 -24.0805 -0.9619 7.6222
# 2 29.5246 73.8788 23.1754 -15.1325 4.6102 15.9766
# 3 34.0473 23.1754 101.5084 -12.6077 7.0872 16.6650
# 4 -24.0805 -15.1325 -12.6077 30.4588 -2.5275 3.5196
# 5 -0.9619 4.6102 7.0872 -2.5275 27.6991 -2.6398
# 6 7.6222 15.9766 16.6650 3.5196 -2.6398 34.9023
#
#
#
# Elastic Compliance Matrix: (Units=1/GPa)
#
#
# Indices 1 2 3 4 5 6 
#
# 1 0.009106 -0.001812 -0.001926 0.005712 0.001565 -0.000697
# 2 -0.001812 0.018214 -0.000961 0.007959 -0.002933 -0.008508
# 3 -0.001926 -0.000961 0.012296 0.003466 -0.003271 -0.005608
# 4 0.005712 0.007959 0.003466 0.044078 0.000968 -0.010917
# 5 0.001565 -0.002933 -0.003271 0.000968 0.038080 0.005345
# 6 -0.000697 -0.008508 -0.005608 -0.010917 0.005345 0.036881
#
#
# Mechanical properties :
#
#
# Convention : Reuss Voigt Hill
#
# Bulk Modulus (GPa) = 33.09117 54.18101 43.63609
# Shear Modulus (GPa) = 28.07012 33.77118 30.92065
#
# Velocity S-wave (km/s) = 3.42686 3.75878 3.59665
# Velocity P-wave (km/s) = 5.43155 6.44243 5.95847
#
# Compressibility (1/GPa) = 0.03021954
#
# Stress axis : x y z
#
# Youngs Moduli (GPa) = 109.81686 54.90241 81.32509
#
# Poissons Ratio (x) = 0.09947 0.15663
# Poissons Ratio (y) = 0.19896 0.07813
# Poissons Ratio (z) = 0.21150 0.05275
#
# Static dielectric constant tensor:
#      x y z
#    x 3.707540 -0.544190 0.046820 
#    y -0.544190 3.868540 -0.080240 
#    z 0.046820 -0.080240 4.411090 
# 
# 
# High freq. dielectric constant tensor:
#      x y z
#    x 1.958810 0.005090 0.006230 
#    y 0.005090 1.931390 0.013610 
#    z 0.006230 0.013610 1.948850 
# 
# From -- ./inp_files/39619.got.cif
#   From: 2010.06.25/outbox.cif.g09.slc.cpg/sg2_20_cif.got.tgz:39619.got - 2010.06.27 13:26:56.
