data_PCOD8002522
_publ_section_title
;
Structure prediction by ZEFSAII (Michael W. Deem and Ramdas Pophale) SiO2 
 PCOD8002522
Probable space group: P -1
;
_chemical_formula_sum "Si O2"
_cell_formula_units_Z 16
_cell_length_a 15.101766
_cell_length_b 15.079188
_cell_length_c 5.307263
_cell_angle_alpha 94.762740
_cell_angle_beta 88.116006
_cell_angle_gamma 39.808549
_cell_volume 762.191755
_symmetry_space_group_name_H-M "P -1"
_symmetry_group_IT_number 2
_symmetry_cell_setting 'triclinic'
loop_
_space_group_symop_operation_xyz
x,y,z
-x,-y,-z
loop_
_atom_site_type_symbol
_atom_site_label
_atom_site_fract_x
_atom_site_fract_y
_atom_site_fract_z
Si Si1 0.701808 0.647844 0.840239
Si Si2 0.271769 0.874334 0.374099
Si Si3 0.170888 0.665549 0.709758
Si Si4 0.081099 0.381185 0.249199
Si Si5 0.589074 0.660249 0.374031
Si Si6 0.104074 0.175143 0.432148
Si Si7 0.956910 0.359929 0.895950
Si Si8 0.838057 0.128774 0.115280
O O1 0.767120 0.696316 0.846162
O O2 0.596107 0.719813 0.631338
O O3 0.831051 0.479035 0.738417
O O4 0.630034 0.682090 0.123163
O O5 0.434944 0.741505 0.383759
O O6 0.188646 0.909395 0.641223
O O7 0.229303 0.008851 0.343552
O O8 0.244717 0.837520 0.118142
O O9 0.311883 0.500600 0.612214
O O10 0.215442 0.731476 0.778183
O O11 0.048972 0.756446 0.530498
O O12 0.087037 0.690933 0.956606
O O13 0.113745 0.250129 0.258513
O O14 0.000000 0.500000 0.500000
O O15 0.972606 0.447018 0.043957
O O16 0.104299 0.221323 0.717506
O O17 0.000000 0.000000 0.000000
#
# Coordination Sequence:
#
# PCOD8002522 Si02
#       8
#     2   2   2   2   2   2   2   2
#     4  11  21  40  65  91 131 171 213 262 319 384
#     4  12  28  45  65  96 134 172 211 268 327 383
#     4  10  22  39  66  95 126 172 215 266 323 377
#     4  11  21  36  62 105 128 162 220 278 316 369
#     4  11  25  44  64  92 135 176 211 260 325 388
#     4  11  22  39  64  93 132 165 215 270 325 371
#     4  10  20  35  64  98 130 161 212 277 321 368
#     4  12  25  44  72  98 128 164 222 271 319 388
#
# _framework density 20.992093000000001
#
# number of rings (size 3 to 8) (size 9 to 14) (size 15 to 20)
#    0.000    1.000    3.750    3.750    5.250    1.000 
#    0.000    1.250    0.000    0.000    0.000    0.000 
#    0.000    0.000    0.000    0.000    0.000    0.000 
#
# Total GULP energy -198220.249452 kJ/mol
# GULP energy per Si atom -12388.765591 kJ/mol
# Density = 2.094431 g / cm^3
# Si number density = 20.992093 Si / 1000 Ang^3
#
#
#
# Elastic Constant Matrix: (Units=GPa)
#
#
# Indices 1 2 3 4 5 6 
#
# 1 115.4010 47.4841 41.5694 -5.8946 5.6932 2.9252
# 2 47.4841 83.7260 20.0483 5.7932 6.5813 -5.7486
# 3 41.5694 20.0483 105.6583 -10.4389 13.0846 -6.5135
# 4 -5.8946 5.7932 -10.4389 23.3349 -6.6433 6.6181
# 5 5.6932 6.5813 13.0846 -6.6433 32.1179 -1.9521
# 6 2.9252 -5.7486 -6.5135 6.6181 -1.9521 33.2570
#
#
#
# Elastic Compliance Matrix: (Units=1/GPa)
#
#
# Indices 1 2 3 4 5 6 
#
# 1 0.013385 -0.007442 -0.003788 0.005137 0.001507 -0.004140
# 2 -0.007442 0.017547 -0.000522 -0.008958 -0.003603 0.005156
# 3 -0.003788 -0.000522 0.011875 0.003037 -0.003323 0.001769
# 4 0.005137 -0.008958 0.003037 0.053891 0.010133 -0.011535
# 5 0.001507 -0.003603 -0.003323 0.010133 0.034973 -0.001370
# 6 -0.004140 0.005156 0.001769 -0.011535 -0.001370 0.033886
#
#
# Mechanical properties :
#
#
# Convention : Reuss Voigt Hill
#
# Bulk Modulus (GPa) = 51.81131 58.10989 54.96060
# Shear Modulus (GPa) = 25.57597 30.78753 28.18175
#
# Velocity S-wave (km/s) = 3.49429 3.83381 3.66798
# Velocity P-wave (km/s) = 6.40430 6.88036 6.64659
#
# Compressibility (1/GPa) = 0.01930080
#
# Stress axis : x y z
#
# Youngs Moduli (GPa) = 74.70850 56.99078 84.21260
#
# Poissons Ratio (x) = 0.42414 0.31902
# Poissons Ratio (y) = 0.55600 0.04399
# Poissons Ratio (z) = 0.28302 0.02977
#
# Static dielectric constant tensor:
#      x y z
#    x 3.939410 0.071970 0.145260 
#    y 0.071970 3.578220 -0.225940 
#    z 0.145260 -0.225940 4.048430 
# 
# 
# High freq. dielectric constant tensor:
#      x y z
#    x 1.824830 0.013160 0.010570 
#    y 0.013160 1.799640 -0.016060 
#    z 0.010570 -0.016060 1.838660 
# 
# From -- ./inp_files/90067.got.cif
#   From: 2010.06.25/outbox.cif.g09.slc.cpg/sg2_46_cif.got.tgz:90067.got - 2010.06.27 13:26:56.
