data_PCOD8002006
_publ_section_title
;
Structure prediction by ZEFSAII (Michael W. Deem and Ramdas Pophale) SiO2 
 PCOD8002006
Probable space group: P -1
;
_chemical_formula_sum "Si O2"
_cell_formula_units_Z 16
_cell_length_a 5.335832
_cell_length_b 16.310059
_cell_length_c 18.693895
_cell_angle_alpha 27.622868
_cell_angle_beta 74.666297
_cell_angle_gamma 67.206933
_cell_volume 683.481054
_symmetry_space_group_name_H-M "P -1"
_symmetry_group_IT_number 2
_symmetry_cell_setting 'triclinic'
loop_
_space_group_symop_operation_xyz
x,y,z
-x,-y,-z
loop_
_atom_site_type_symbol
_atom_site_label
_atom_site_fract_x
_atom_site_fract_y
_atom_site_fract_z
Si Si1 0.496772 0.328601 0.863057
Si Si2 0.620714 0.653806 0.436551
Si Si3 0.855870 0.561807 0.715657
Si Si4 0.307449 0.745150 0.248598
Si Si5 0.918085 0.159829 0.585671
Si Si6 0.970756 0.906319 0.649723
Si Si7 0.567837 0.794853 0.687624
Si Si8 0.168166 0.018660 0.813349
O O1 0.168423 0.429157 0.813043
O O2 0.578976 0.227768 0.858155
O O3 0.676530 0.462457 0.761296
O O4 0.574958 0.163966 0.044185
O O5 0.554771 0.700283 0.322033
O O6 0.805969 0.433163 0.603204
O O7 0.344772 0.679559 0.484498
O O8 0.761131 0.793201 0.349666
O O9 0.863689 0.740954 0.531598
O O10 0.702832 0.628690 0.750200
O O11 0.065902 0.938025 0.140413
O O12 0.047938 0.995452 0.762314
O O13 0.829961 0.065398 0.596419
O O14 0.279771 0.777670 0.751174
O O15 0.777229 0.779353 0.750424
O O16 0.000000 0.000000 0.500000
O O17 0.500000 0.000000 0.500000
#
# Coordination Sequence:
#
# PCOD8002006 Si02
#       8
#     2   2   2   2   2   2   2   2
#     4  12  28  43  68  95 140 180 219 266 332 402
#     4  10  22  40  67  97 132 167 227 280 325 375
#     4  12  25  43  69 102 130 172 225 276 326 387
#     4  10  22  41  65  98 124 176 227 279 319 382
#     4  11  23  39  68 101 131 170 224 276 327 388
#     4  10  20  34  64 102 127 159 211 276 328 376
#     4  10  20  36  64 100 130 157 214 282 324 378
#     4  11  26  42  64  94 139 180 217 270 336 395
#
# _framework density 23.409573999999999
#
# number of rings (size 3 to 8) (size 9 to 14) (size 15 to 20)
#    0.000    1.250    3.750    2.250    8.750    0.500 
#    0.000    0.000    0.000    4.500    0.000    0.000 
#    0.000    0.000    0.000    0.000    0.000    0.000 
#
# Total GULP energy -198362.434167 kJ/mol
# GULP energy per Si atom -12397.652135 kJ/mol
# Density = 2.335629 g / cm^3
# Si number density = 23.409574 Si / 1000 Ang^3
#
#
#
# Elastic Constant Matrix: (Units=GPa)
#
#
# Indices 1 2 3 4 5 6 
#
# 1 123.2550 30.1059 2.9236 -7.9989 11.6417 6.6671
# 2 30.1059 131.7678 24.1373 -5.4516 9.6636 19.1119
# 3 2.9236 24.1373 42.4510 3.5868 18.9925 -4.5836
# 4 -7.9989 -5.4516 3.5868 15.7234 -0.2589 6.5448
# 5 11.6417 9.6636 18.9925 -0.2589 29.3023 -5.8581
# 6 6.6671 19.1119 -4.5836 6.5448 -5.8581 30.3300
#
#
#
# Elastic Compliance Matrix: (Units=1/GPa)
#
#
# Indices 1 2 3 4 5 6 
#
# 1 0.009369 -0.001446 0.001590 0.005041 -0.004816 -0.002926
# 2 -0.001446 0.011233 -0.008287 0.009189 0.000337 -0.009931
# 3 0.001590 -0.008287 0.040581 -0.015905 -0.022318 0.010127
# 4 0.005041 0.009189 -0.015905 0.084396 0.000542 -0.027409
# 5 -0.004816 0.000337 -0.022318 0.000542 0.051874 0.007376
# 6 -0.002926 -0.009931 0.010127 -0.027409 0.007376 0.048741
#
#
# Mechanical properties :
#
#
# Convention : Reuss Voigt Hill
#
# Bulk Modulus (GPa) = 22.27291 45.75636 34.01463
# Shear Modulus (GPa) = 18.02146 31.09159 24.55652
#
# Velocity S-wave (km/s) = 2.77760 3.64834 3.24233
# Velocity P-wave (km/s) = 4.45217 6.11029 5.34591
#
# Compressibility (1/GPa) = 0.04489759
#
# Stress axis : x y z
#
# Youngs Moduli (GPa) = 106.73484 89.02133 24.64196
#
# Poissons Ratio (x) = 0.12868 -0.03917
# Poissons Ratio (y) = 0.15429 0.20421
# Poissons Ratio (z) = -0.16966 0.73772
#
# Static dielectric constant tensor:
#      x y z
#    x 6.084350 0.176000 0.100770 
#    y 0.176000 4.342170 -0.108250 
#    z 0.100770 -0.108250 3.777320 
# 
# 
# High freq. dielectric constant tensor:
#      x y z
#    x 1.937500 0.006480 0.012710 
#    y 0.006480 1.938240 -0.005380 
#    z 0.012710 -0.005380 1.875960 
# 
# From -- ./inp_files/124744.got.cif
#   From: 2010.06.25/outbox.cif.g09.slc.cpg/sg2_63_cif.got.tgz:124744.got - 2010.06.27 13:26:56.
