data_PCOD8002866
_publ_section_title
;
Structure prediction by ZEFSAII (Michael W. Deem and Ramdas Pophale) SiO2 
 PCOD8002866
Probable space group: P -1
;
_chemical_formula_sum "Si O2"
_cell_formula_units_Z 16
_cell_length_a 12.148517
_cell_length_b 9.285790
_cell_length_c 18.304558
_cell_angle_alpha 137.257768
_cell_angle_beta 51.510973
_cell_angle_gamma 94.904065
_cell_volume 783.952889
_symmetry_space_group_name_H-M "P -1"
_symmetry_group_IT_number 2
_symmetry_cell_setting 'triclinic'
loop_
_space_group_symop_operation_xyz
x,y,z
-x,-y,-z
loop_
_atom_site_type_symbol
_atom_site_label
_atom_site_fract_x
_atom_site_fract_y
_atom_site_fract_z
Si Si1 0.061507 0.127919 0.127147
Si Si2 0.983770 0.284932 0.058947
Si Si3 0.726489 0.648659 0.556935
Si Si4 0.129560 0.160322 0.340237
Si Si5 0.409516 0.866207 0.980354
Si Si6 0.406653 0.829940 0.660734
Si Si7 0.744993 0.326186 0.561352
Si Si8 0.311344 0.067680 0.627320
O O1 0.949985 0.338942 0.180363
O O2 0.921220 0.324044 0.326601
O O3 0.102108 0.836071 0.987969
O O4 0.271535 0.005578 0.016844
O O5 0.884014 0.585345 0.170814
O O6 0.217497 0.033673 0.865263
O O7 0.754988 0.868719 0.647546
O O8 0.560565 0.831849 0.631836
O O9 0.664045 0.569355 0.622185
O O10 0.000000 0.500000 0.500000
O O11 0.976102 0.132768 0.412080
O O12 0.284052 0.929667 0.127441
O O13 0.599060 0.513279 0.760414
O O14 0.500000 0.000000 0.000000
O O15 0.500000 0.500000 0.500000
O O16 0.340268 0.970706 0.661690
O O17 0.724401 0.102573 0.468435
O O18 0.500000 0.000000 0.500000
#
# Coordination Sequence:
#
# PCOD8002866 Si02
#       8
#     2   2   2   2   2   2   2   2
#     4  11  21  37  64  94 128 165 223 265 319 389
#     4  11  25  40  63  94 130 175 215 265 331 399
#     4  11  19  37  63  96 127 165 212 275 316 381
#     4  10  20  36  59  97 126 167 218 273 322 379
#     4  12  20  33  64  99 126 165 221 275 325 383
#     4  12  23  40  66  95 131 173 215 271 329 393
#     4  11  21  39  62  92 134 170 215 273 322 390
#     4  12  26  44  64  96 136 174 216 270 342 392
#
# _framework density 20.409389999999998
#
# number of rings (size 3 to 8) (size 9 to 14) (size 15 to 20)
#    0.000    0.750    7.500    2.625    1.750    0.000 
#    2.250    0.000    0.000    9.000    0.000    0.000 
#    0.000    0.000    0.000    0.000    0.000    0.000 
#
# Total GULP energy -198328.716427 kJ/mol
# GULP energy per Si atom -12395.544777 kJ/mol
# Density = 2.036294 g / cm^3
# Si number density = 20.409390 Si / 1000 Ang^3
#
#
#
# Elastic Constant Matrix: (Units=GPa)
#
#
# Indices 1 2 3 4 5 6 
#
# 1 182.7293 43.7253 62.5126 7.2444 5.3260 26.8858
# 2 43.7253 69.5646 43.6507 10.1699 4.3536 7.0175
# 3 62.5126 43.6507 133.8738 -9.8248 -1.1535 2.7528
# 4 7.2444 10.1699 -9.8248 32.8462 0.7704 -4.3324
# 5 5.3260 4.3536 -1.1535 0.7704 34.9470 -5.1763
# 6 26.8858 7.0175 2.7528 -4.3324 -5.1763 32.7263
#
#
#
# Elastic Compliance Matrix: (Units=1/GPa)
#
#
# Indices 1 2 3 4 5 6 
#
# 1 0.008249 -0.001786 -0.003376 -0.003131 -0.002092 -0.006855
# 2 -0.001786 0.021705 -0.006832 -0.008861 -0.003095 -0.004275
# 3 -0.003376 -0.006832 0.011707 0.006906 0.002270 0.004527
# 4 -0.003131 -0.008861 0.006906 0.037100 0.002350 0.009175
# 5 -0.002092 -0.003095 0.002270 0.002350 0.030426 0.007315
# 6 -0.006855 -0.004275 0.004527 0.009175 0.007315 0.039096
#
#
# Mechanical properties :
#
#
# Convention : Reuss Voigt Hill
#
# Bulk Modulus (GPa) = 56.58617 76.21609 66.40113
# Shear Modulus (GPa) = 28.06419 35.85582 31.96001
#
# Velocity S-wave (km/s) = 3.71221 4.19600 3.96150
# Velocity P-wave (km/s) = 6.79409 7.80384 7.31641
#
# Compressibility (1/GPa) = 0.01767216
#
# Stress axis : x y z
#
# Youngs Moduli (GPa) = 121.23037 46.07166 85.41670
#
# Poissons Ratio (x) = 0.08228 0.28839
# Poissons Ratio (y) = 0.21651 0.58360
# Poissons Ratio (z) = 0.40931 0.31478
#
# Static dielectric constant tensor:
#      x y z
#    x 4.639640 0.243130 0.040550 
#    y 0.243130 3.025940 -0.272350 
#    z 0.040550 -0.272350 4.045740 
# 
# 
# High freq. dielectric constant tensor:
#      x y z
#    x 1.824320 0.011790 0.002990 
#    y 0.011790 1.750090 -0.023780 
#    z 0.002990 -0.023780 1.809540 
# 
# From -- ./inp_files/246097.got.cif
#   From: 2010.06.25/outbox.cif.g09.slc.cpg/sg2_124_cif.got.tgz:246097.got - 2010.06.27 13:26:56.
