data_PCOD8002914
_publ_section_title
;
Structure prediction by ZEFSAII (Michael W. Deem and Ramdas Pophale) SiO2 
 PCOD8002914
Probable space group: P -1
;
_chemical_formula_sum "Si O2"
_cell_formula_units_Z 16
_cell_length_a 8.771256
_cell_length_b 12.431328
_cell_length_c 17.482657
_cell_angle_alpha 146.470335
_cell_angle_beta 55.438777
_cell_angle_gamma 131.254466
_cell_volume 790.898371
_symmetry_space_group_name_H-M "P -1"
_symmetry_group_IT_number 2
_symmetry_cell_setting 'triclinic'
loop_
_space_group_symop_operation_xyz
x,y,z
-x,-y,-z
loop_
_atom_site_type_symbol
_atom_site_label
_atom_site_fract_x
_atom_site_fract_y
_atom_site_fract_z
Si Si1 0.047547 0.901796 0.026965
Si Si2 0.325292 0.534691 0.112761
Si Si3 0.913470 0.994996 0.757407
Si Si4 0.486090 0.184525 0.504238
Si Si5 0.222761 0.870295 0.806788
Si Si6 0.637590 0.851634 0.318920
Si Si7 0.180343 0.491981 0.492167
Si Si8 0.333586 0.904771 0.243630
O O1 0.152350 0.948877 0.108133
O O2 0.217132 0.899319 0.917349
O O3 0.966425 0.087170 0.147364
O O4 0.858067 0.678318 0.936196
O O5 0.431066 0.668778 0.237484
O O6 0.237009 0.661867 0.156539
O O7 0.500000 0.500000 0.000000
O O8 0.855353 0.744799 0.612582
O O9 0.798588 0.069776 0.771713
O O10 0.154445 0.140139 0.770738
O O11 0.354139 0.195848 0.621165
O O12 0.622043 0.412624 0.562558
O O13 0.633802 0.078281 0.432169
O O14 0.332270 0.049401 0.401943
O O15 0.204478 0.636282 0.647220
O O16 0.435628 0.041764 0.816150
O O17 0.000000 0.500000 0.500000
#
# Coordination Sequence:
#
# PCOD8002914 Si02
#       8
#     2   2   2   2   2   2   2   2
#     4  11  22  38  63  91 114 157 202 245 290 349
#     4  11  20  39  62  82 114 156 198 240 288 347
#     4  12  23  38  62  88 123 158 193 240 302 348
#     4   9  20  37  59  85 117 150 198 242 287 342
#     4  10  22  39  61  88 121 151 201 247 290 343
#     4  10  20  36  60  88 114 152 197 244 287 343
#     4  11  20  37  62  87 114 157 199 240 285 354
#     4  10  23  41  58  87 125 153 188 249 296 350
#
# _framework density 20.230157999999999
#
# number of rings (size 3 to 8) (size 9 to 14) (size 15 to 20)
#    0.000    1.500    5.000    0.750    1.750    4.500 
#    0.000    1.250    0.000    0.000    0.000    0.000 
#    0.000    0.000    0.000    0.000    0.000    0.000 
#
# Total GULP energy -198348.041445 kJ/mol
# GULP energy per Si atom -12396.752590 kJ/mol
# Density = 2.018411 g / cm^3
# Si number density = 20.230158 Si / 1000 Ang^3
#
#
#
# Elastic Constant Matrix: (Units=GPa)
#
#
# Indices 1 2 3 4 5 6 
#
# 1 85.6901 16.0318 23.3918 -1.5954 12.3586 -30.6343
# 2 16.0318 71.8890 42.3639 -5.6793 14.5456 -15.3734
# 3 23.3918 42.3639 80.6185 -6.5104 19.9361 -13.8026
# 4 -1.5954 -5.6793 -6.5104 37.8920 -7.2419 9.4275
# 5 12.3586 14.5456 19.9361 -7.2419 23.4957 -5.3992
# 6 -30.6343 -15.3734 -13.8026 9.4275 -5.3992 29.6665
#
#
#
# Elastic Compliance Matrix: (Units=1/GPa)
#
#
# Indices 1 2 3 4 5 6 
#
# 1 0.020684 0.002398 -0.002142 -0.006059 -0.007313 0.022199
# 2 0.002398 0.021776 -0.009471 -0.001450 -0.005112 0.008885
# 3 -0.002142 -0.009471 0.020687 -0.000112 -0.010451 0.000639
# 4 -0.006059 -0.001450 -0.000112 0.031684 0.010446 -0.015227
# 5 -0.007313 -0.005112 -0.010451 0.010446 0.059942 -0.007473
# 6 0.022199 0.008885 0.000639 -0.015227 -0.007473 0.065012
#
#
# Mechanical properties :
#
#
# Convention : Reuss Voigt Hill
#
# Bulk Modulus (GPa) = 22.36227 44.64141 33.50184
# Shear Modulus (GPa) = 19.75337 28.63817 24.19577
#
# Velocity S-wave (km/s) = 3.12818 3.76655 3.46211
# Velocity P-wave (km/s) = 4.91175 6.40551 5.70771
#
# Compressibility (1/GPa) = 0.04471817
#
# Stress axis : x y z
#
# Youngs Moduli (GPa) = 48.34596 45.92120 48.33947
#
# Poissons Ratio (x) = -0.11011 0.10353
# Poissons Ratio (y) = -0.11592 0.45781
# Poissons Ratio (z) = 0.10354 0.43491
#
# Static dielectric constant tensor:
#      x y z
#    x 3.041870 -0.306950 -0.072510 
#    y -0.306950 2.248920 -0.513560 
#    z -0.072510 -0.513560 3.516270 
# 
# 
# High freq. dielectric constant tensor:
#      x y z
#    x 1.763120 -0.008280 0.020550 
#    y -0.008280 1.797030 -0.003650 
#    z 0.020550 -0.003650 1.786640 
# 
# From -- ./inp_files/222764.got.cif
#   From: 2010.06.25/outbox.cif.g09.slc.cpg/sg2_112_cif.got.tgz:222764.got - 2010.06.27 13:26:56.
