data_PCOD8002275
_publ_section_title
;
Structure prediction by ZEFSAII (Michael W. Deem and Ramdas Pophale) SiO2 
 PCOD8002275
Probable space group: P -1
;
_chemical_formula_sum "Si O2"
_cell_formula_units_Z 12
_cell_length_a 16.218924
_cell_length_b 9.653128
_cell_length_c 14.060440
_cell_angle_alpha 123.237085
_cell_angle_beta 26.817642
_cell_angle_gamma 139.601530
_cell_volume 574.839954
_symmetry_space_group_name_H-M "P -1"
_symmetry_group_IT_number 2
_symmetry_cell_setting 'triclinic'
loop_
_space_group_symop_operation_xyz
x,y,z
-x,-y,-z
loop_
_atom_site_type_symbol
_atom_site_label
_atom_site_fract_x
_atom_site_fract_y
_atom_site_fract_z
Si Si1 0.226511 0.629562 0.119665
Si Si2 0.939623 0.608572 0.989975
Si Si3 0.839461 0.048606 0.637456
Si Si4 0.165657 0.111147 0.775317
Si Si5 0.584892 0.154950 0.304101
Si Si6 0.937943 0.212315 0.386474
O O1 0.059982 0.414852 0.133215
O O2 0.151112 0.775017 0.244600
O O3 0.144196 0.495154 0.255842
O O4 0.534704 0.797305 0.846574
O O5 0.245193 0.840196 0.793965
O O6 0.777105 0.658634 0.215657
O O7 0.800404 0.357227 0.081927
O O8 0.961555 0.174219 0.456889
O O9 0.000000 0.000000 0.500000
O O10 0.452162 0.213008 0.526346
O O11 0.001812 0.915038 0.784816
O O12 0.000000 0.000000 0.000000
O O13 0.357484 0.912924 0.385741
#
# Coordination Sequence:
#
# PCOD8002275 Si02
#       6
#     2   2   2   2   2   2
#     4  11  23  43  68  89 129 163 215 264 315 370
#     4  11  19  39  63  96 126 169 198 255 322 387
#     4  11  26  46  65  89 122 174 220 262 314 367
#     4  10  20  35  58  91 131 158 198 251 310 382
#     4   9  22  35  62  95 130 163 204 248 326 380
#     4  10  22  44  64  96 132 160 210 270 307 380
#
# _framework density 20.875377
#
# number of rings (size 3 to 8) (size 9 to 14) (size 15 to 20)
#    1.000    0.667    3.333    1.000    0.000    7.333 
#    3.000    0.000    0.000    0.000    0.000    0.000 
#    0.000    0.000    0.000    0.000    0.000    0.000 
#
# Total GULP energy -148656.977768 kJ/mol
# GULP energy per Si atom -12388.081481 kJ/mol
# Density = 2.082786 g / cm^3
# Si number density = 20.875377 Si / 1000 Ang^3
#
#
#
# Elastic Constant Matrix: (Units=GPa)
#
#
# Indices 1 2 3 4 5 6 
#
# 1 97.0782 23.4383 44.1173 4.6071 -0.6018 -10.6176
# 2 23.4383 79.5971 15.9018 10.9738 -8.1696 -9.8038
# 3 44.1173 15.9018 82.0613 13.3626 2.6591 -12.5066
# 4 4.6071 10.9738 13.3626 33.9664 -6.6629 6.9722
# 5 -0.6018 -8.1696 2.6591 -6.6629 30.8080 -2.6152
# 6 -10.6176 -9.8038 -12.5066 6.9722 -2.6152 26.2907
#
#
#
# Elastic Compliance Matrix: (Units=1/GPa)
#
#
# Indices 1 2 3 4 5 6 
#
# 1 0.014332 -0.002839 -0.007347 0.001819 0.000624 0.000814
# 2 -0.002839 0.015202 0.000314 -0.005310 0.003344 0.006412
# 3 -0.007347 0.000314 0.018835 -0.008753 -0.002888 0.008144
# 4 0.001819 -0.005310 -0.008753 0.038709 0.006479 -0.015030
# 5 0.000624 0.003344 -0.002888 0.006479 0.035170 0.001906
# 6 0.000814 0.006412 0.008144 -0.015030 0.001906 0.048806
#
#
# Mechanical properties :
#
#
# Convention : Reuss Voigt Hill
#
# Bulk Modulus (GPa) = 34.93510 47.29460 41.11485
# Shear Modulus (GPa) = 24.95757 29.89831 27.42794
#
# Velocity S-wave (km/s) = 3.46142 3.78859 3.62869
# Velocity P-wave (km/s) = 5.72247 6.46859 6.10694
#
# Compressibility (1/GPa) = 0.02862451
#
# Stress axis : x y z
#
# Youngs Moduli (GPa) = 69.77422 65.78242 53.09210
#
# Poissons Ratio (x) = 0.18675 0.39008
# Poissons Ratio (y) = 0.19808 -0.01667
# Poissons Ratio (z) = 0.51265 -0.02066
#
# Static dielectric constant tensor:
#      x y z
#    x 3.733610 -0.129540 0.011320 
#    y -0.129540 3.914850 0.104140 
#    z 0.011320 0.104140 3.714670 
# 
# 
# High freq. dielectric constant tensor:
#      x y z
#    x 1.806790 -0.004400 0.018540 
#    y -0.004400 1.809770 -0.003970 
#    z 0.018540 -0.003970 1.816650 
# 
# From -- ./inp_files/57508.got.cif
#   From: 2010.06.25/outbox.cif.g09.slc.cpg/sg2_29_cif.got.tgz:57508.got - 2010.06.27 13:26:56.
