data_PCOD8002967
_publ_section_title
;
Structure prediction by ZEFSAII (Michael W. Deem and Ramdas Pophale) SiO2 
 PCOD8002967
Probable space group: P -1
;
_chemical_formula_sum "Si O2"
_cell_formula_units_Z 14
_cell_length_a 9.183267
_cell_length_b 12.719077
_cell_length_c 18.929276
_cell_angle_alpha 17.662800
_cell_angle_beta 65.537485
_cell_angle_gamma 64.402799
_cell_volume 604.981550
_symmetry_space_group_name_H-M "P -1"
_symmetry_group_IT_number 2
_symmetry_cell_setting 'triclinic'
loop_
_space_group_symop_operation_xyz
x,y,z
-x,-y,-z
loop_
_atom_site_type_symbol
_atom_site_label
_atom_site_fract_x
_atom_site_fract_y
_atom_site_fract_z
Si Si1 0.967570 0.262721 0.252278
Si Si2 0.953196 0.496714 0.257079
Si Si3 0.506388 0.892268 0.649530
Si Si4 0.259086 0.410640 0.025715
Si Si5 0.395054 0.125938 0.872222
Si Si6 0.481518 0.203171 0.600680
Si Si7 0.725967 0.222321 0.007537
O O1 0.146629 0.372405 0.140387
O O2 0.904293 0.326789 0.302746
O O3 0.972402 0.852523 0.489687
O O4 0.849279 0.538821 0.054474
O O5 0.788623 0.696716 0.192025
O O6 0.083270 0.772090 0.048258
O O7 0.657027 0.589447 0.822691
O O8 0.500000 0.000000 0.500000
O O9 0.517068 0.188128 0.517580
O O10 0.344411 0.753166 0.797250
O O11 0.388920 0.068945 0.209530
O O12 0.493186 0.404341 0.634328
O O13 0.500000 0.000000 0.000000
O O14 0.372908 0.809590 0.025920
O O15 0.306941 0.102223 0.726416
#
# Coordination Sequence:
#
# PCOD8002967 Si02
#       7
#     2   2   2   2   2   2   2
#     4  10  21  37  67  99 129 167 220 280 324 384
#     4  11  23  42  68  94 135 172 224 270 330 381
#     4  11  22  37  68  97 133 168 225 269 330 388
#     4  10  20  36  61 101 132 166 212 276 336 381
#     4  12  27  44  66  95 135 181 223 264 333 401
#     4  11  23  43  67  95 134 173 222 273 327 394
#     4  11  24  43  66  94 135 176 216 273 333 384
#
# _framework density 23.141200999999999
#
# number of rings (size 3 to 8) (size 9 to 14) (size 15 to 20)
#    0.000    1.143    1.429    6.000    8.000    0.000 
#    0.000    0.714    0.000    0.000    0.000    0.000 
#    0.000    0.000    0.000    0.000    0.000    0.000 
#
# Total GULP energy -173480.649996 kJ/mol
# GULP energy per Si atom -12391.475000 kJ/mol
# Density = 2.308853 g / cm^3
# Si number density = 23.141201 Si / 1000 Ang^3
#
#
#
# Elastic Constant Matrix: (Units=GPa)
#
#
# Indices 1 2 3 4 5 6 
#
# 1 89.1094 18.3351 41.0760 11.1703 -9.7902 -3.7023
# 2 18.3351 58.4479 9.7682 10.8590 -1.5165 2.8667
# 3 41.0760 9.7682 101.9384 18.7681 -11.6289 -10.5883
# 4 11.1703 10.8590 18.7681 35.0353 0.2932 -8.2574
# 5 -9.7902 -1.5165 -11.6289 0.2932 32.5369 13.1547
# 6 -3.7023 2.8667 -10.5883 -8.2574 13.1547 33.5931
#
#
#
# Elastic Compliance Matrix: (Units=1/GPa)
#
#
# Indices 1 2 3 4 5 6 
#
# 1 0.014728 -0.003409 -0.005184 -0.001154 0.002889 -0.001135
# 2 -0.003409 0.019501 0.000412 -0.006161 0.001747 -0.004109
# 3 -0.005184 0.000412 0.013281 -0.005334 0.002777 0.001181
# 4 -0.001154 -0.006161 -0.005334 0.036182 -0.007062 0.010377
# 5 0.002889 0.001747 0.002777 -0.007062 0.039232 -0.016054
# 6 -0.001135 -0.004109 0.001181 0.010377 -0.016054 0.039203
#
#
# Mechanical properties :
#
#
# Convention : Reuss Voigt Hill
#
# Bulk Modulus (GPa) = 32.10464 43.09493 37.59979
# Shear Modulus (GPa) = 26.47300 32.25415 29.36358
#
# Velocity S-wave (km/s) = 3.38594 3.73741 3.56601
# Velocity P-wave (km/s) = 5.40274 6.10634 5.76528
#
# Compressibility (1/GPa) = 0.03114815
#
# Stress axis : x y z
#
# Youngs Moduli (GPa) = 67.89778 51.27871 75.29727
#
# Poissons Ratio (x) = 0.17480 0.39033
# Poissons Ratio (y) = 0.23145 -0.03100
# Poissons Ratio (z) = 0.35197 -0.02111
#
# Static dielectric constant tensor:
#      x y z
#    x 4.259500 -0.032660 -0.217090 
#    y -0.032660 4.214990 0.308030 
#    z -0.217090 0.308030 4.349910 
# 
# 
# High freq. dielectric constant tensor:
#      x y z
#    x 1.912770 -0.000620 -0.017920 
#    y -0.000620 1.911120 0.018560 
#    z -0.017920 0.018560 1.912100 
# 
# From -- ./inp_files/243155.got.cif
#   From: 2010.06.25/outbox.cif.g09.slc.cpg/sg2_122_cif.got.tgz:243155.got - 2010.06.27 13:26:56.
