data_PCOD8002434
_publ_section_title
;
Structure prediction by ZEFSAII (Michael W. Deem and Ramdas Pophale) SiO2 
 PCOD8002434
Probable space group: P -1
;
_chemical_formula_sum "Si O2"
_cell_formula_units_Z 16
_cell_length_a 9.226769
_cell_length_b 16.442772
_cell_length_c 16.165882
_cell_angle_alpha 142.021706
_cell_angle_beta 132.585697
_cell_angle_gamma 77.824662
_cell_volume 780.486729
_symmetry_space_group_name_H-M "P -1"
_symmetry_group_IT_number 2
_symmetry_cell_setting 'triclinic'
loop_
_space_group_symop_operation_xyz
x,y,z
-x,-y,-z
loop_
_atom_site_type_symbol
_atom_site_label
_atom_site_fract_x
_atom_site_fract_y
_atom_site_fract_z
Si Si1 0.471081 0.231630 0.837454
Si Si2 0.198277 0.468560 0.053817
Si Si3 0.085342 0.979753 0.633989
Si Si4 0.828325 0.157425 0.941204
Si Si5 0.069071 0.384485 0.753674
Si Si6 0.676097 0.596425 0.563887
Si Si7 0.482330 0.744108 0.516360
Si Si8 0.206588 0.251951 0.013973
O O1 0.225183 0.116911 0.583430
O O2 0.655592 0.191009 0.859415
O O3 0.686555 0.457050 0.089185
O O4 0.326747 0.158615 0.812583
O O5 0.476534 0.662119 0.360193
O O6 0.222797 0.426974 0.935677
O O7 0.097496 0.297474 0.934973
O O8 0.000000 0.500000 0.000000
O O9 0.084553 0.820572 0.504164
O O10 0.165914 0.079352 0.834004
O O11 0.028603 0.188928 0.976549
O O12 0.606025 0.946557 0.717669
O O13 0.004884 0.289290 0.196566
O O14 0.835441 0.388039 0.676331
O O15 0.500000 0.500000 0.500000
O O16 0.663426 0.743792 0.649286
O O17 0.535463 0.436326 0.310569
#
# Coordination Sequence:
#
# PCOD8002434 Si02
#       8
#     2   2   2   2   2   2   2   2
#     4  11  23  39  63  86 121 166 197 242 300 353
#     4   9  18  32  53  86 119 150 192 241 288 344
#     4  11  24  40  57  89 127 159 202 238 295 370
#     4  11  21  38  64  90 114 157 204 250 298 351
#     4  11  21  40  59  86 128 165 193 242 299 359
#     4   9  19  39  62  86 116 153 197 256 303 339
#     4  10  20  35  61  94 119 149 204 250 292 358
#     4  10  22  38  59  87 121 154 200 250 299 351
#
# _framework density 20.500026999999999
#
# number of rings (size 3 to 8) (size 9 to 14) (size 15 to 20)
#    0.000    1.750    1.250    5.250    3.500    0.500 
#    2.250    0.625    0.000    3.750    0.000    0.000 
#    0.000    0.000    0.000    0.000    0.000    0.000 
#
# Total GULP energy -198241.818754 kJ/mol
# GULP energy per Si atom -12390.113672 kJ/mol
# Density = 2.045337 g / cm^3
# Si number density = 20.500027 Si / 1000 Ang^3
#
#
#
# Elastic Constant Matrix: (Units=GPa)
#
#
# Indices 1 2 3 4 5 6 
#
# 1 60.5059 9.4540 41.6825 5.5031 -8.4569 -2.7637
# 2 9.4540 64.5050 18.7353 18.7836 -5.2750 3.6200
# 3 41.6825 18.7353 99.1392 18.8349 -8.3281 1.5750
# 4 5.5031 18.7836 18.8349 28.9161 1.5636 4.7637
# 5 -8.4569 -5.2750 -8.3281 1.5636 36.2908 7.5988
# 6 -2.7637 3.6200 1.5750 4.7637 7.5988 20.0950
#
#
#
# Elastic Compliance Matrix: (Units=1/GPa)
#
#
# Indices 1 2 3 4 5 6 
#
# 1 0.023937 -0.001176 -0.010102 0.002186 0.002393 0.002873
# 2 -0.001176 0.019762 -0.000633 -0.012038 0.003413 -0.002109
# 3 -0.010102 -0.000633 0.016169 -0.008080 0.001894 -0.001344
# 4 0.002186 -0.012038 -0.008080 0.048606 -0.003720 -0.007013
# 5 0.002393 0.003413 0.001894 -0.003720 0.031613 -0.011507
# 6 0.002873 -0.002109 -0.001344 -0.007013 -0.011507 0.056658
#
#
# Mechanical properties :
#
#
# Convention : Reuss Voigt Hill
#
# Bulk Modulus (GPa) = 27.74198 40.43263 34.08730
# Shear Modulus (GPa) = 21.49779 27.34561 24.42170
#
# Velocity S-wave (km/s) = 3.24183 3.65626 3.45527
# Velocity P-wave (km/s) = 5.25116 6.13110 5.70811
#
# Compressibility (1/GPa) = 0.03604646
#
# Stress axis : x y z
#
# Youngs Moduli (GPa) = 41.77605 50.60271 61.84644
#
# Poissons Ratio (x) = 0.05952 0.62476
# Poissons Ratio (y) = 0.04914 0.03913
# Poissons Ratio (z) = 0.42201 0.03202
#
# Static dielectric constant tensor:
#      x y z
#    x 3.489900 -0.055720 0.023350 
#    y -0.055720 2.584540 0.724630 
#    z 0.023350 0.724630 3.560310 
# 
# 
# High freq. dielectric constant tensor:
#      x y z
#    x 1.772670 -0.002380 -0.002650 
#    y -0.002380 1.799250 0.009760 
#    z -0.002650 0.009760 1.807930 
# 
# From -- ./inp_files/402374.got.cif
#   From: 2010.06.25/outbox.cif.g09.slc.cpg/sg2_202_cif.got.tgz:402374.got - 2010.06.27 13:26:56.
