data_PCOD8002494
_publ_section_title
;
Structure prediction by ZEFSAII (Michael W. Deem and Ramdas Pophale) SiO2 
 PCOD8002494
Probable space group: P -1
;
_chemical_formula_sum "Si O2"
_cell_formula_units_Z 14
_cell_length_a 14.695754
_cell_length_b 12.701863
_cell_length_c 11.980188
_cell_angle_alpha 41.758669
_cell_angle_beta 151.185489
_cell_angle_gamma 126.660698
_cell_volume 706.609620
_symmetry_space_group_name_H-M "P -1"
_symmetry_group_IT_number 2
_symmetry_cell_setting 'triclinic'
loop_
_space_group_symop_operation_xyz
x,y,z
-x,-y,-z
loop_
_atom_site_type_symbol
_atom_site_label
_atom_site_fract_x
_atom_site_fract_y
_atom_site_fract_z
Si Si1 0.040244 0.573842 0.866539
Si Si2 0.370638 0.352312 0.701619
Si Si3 0.109306 0.823841 0.234912
Si Si4 0.799358 0.617194 0.013961
Si Si5 0.623262 0.371362 0.154266
Si Si6 0.401235 0.683325 0.229168
Si Si7 0.394503 0.726388 0.429947
O O1 0.141482 0.428073 0.013579
O O2 0.850628 0.669165 0.525097
O O3 0.182870 0.698491 0.940364
O O4 0.000000 0.500000 0.000000
O O5 0.479594 0.252447 0.793650
O O6 0.373193 0.541270 0.547448
O O7 0.478479 0.293826 0.979326
O O8 0.263572 0.774294 0.537240
O O9 0.217415 0.823488 0.232356
O O10 0.960495 0.700966 0.177165
O O11 0.000000 0.000000 0.000000
O O12 0.775030 0.456152 0.182018
O O13 0.595935 0.740093 0.695146
O O14 0.500000 0.500000 0.000000
O O15 0.500000 0.500000 0.500000
O O16 0.396924 0.788332 0.255152
#
# Coordination Sequence:
#
# PCOD8002494 Si02
#       7
#     2   2   2   2   2   2   2
#     4  12  16  26  54  90 118 138 181 239 295 334
#     4  10  18  29  51  83 113 141 184 233 288 326
#     4  12  25  39  57  84 116 157 198 236 284 345
#     4  11  20  35  60  83 113 154 193 231 293 329
#     4  11  20  40  58  80 121 151 192 247 278 336
#     4  10  16  28  48  84 117 138 174 243 288 331
#     4  10  18  34  52  81 118 142 188 235 286 331
#
# _framework density 19.812922
#
# number of rings (size 3 to 8) (size 9 to 14) (size 15 to 20)
#    0.000    1.143   11.429    0.429    0.000    0.571 
#    0.000    0.000    0.000    0.857    0.000    5.000 
#    0.000    0.000    0.000    0.000    0.000    0.000 
#
# Total GULP energy -173532.718117 kJ/mol
# GULP energy per Si atom -12395.194151 kJ/mol
# Density = 1.976783 g / cm^3
# Si number density = 19.812922 Si / 1000 Ang^3
#
#
#
# Elastic Constant Matrix: (Units=GPa)
#
#
# Indices 1 2 3 4 5 6 
#
# 1 131.4563 26.7806 52.3853 3.7094 12.3982 -20.8156
# 2 26.7806 27.3086 42.3615 16.5105 0.9983 -6.2866
# 3 52.3853 42.3615 128.0094 28.4884 5.6621 -11.0137
# 4 3.7094 16.5105 28.4884 37.1338 0.3202 5.4156
# 5 12.3982 0.9983 5.6621 0.3202 31.9418 11.1595
# 6 -20.8156 -6.2866 -11.0137 5.4156 11.1595 24.2772
#
#
#
# Elastic Compliance Matrix: (Units=1/GPa)
#
#
# Indices 1 2 3 4 5 6 
#
# 1 0.012326 -0.008136 -0.001471 0.001965 -0.008171 0.011111
# 2 -0.008136 0.099720 -0.021709 -0.029219 -0.001475 0.016194
# 3 -0.001471 -0.021709 0.016688 -0.003365 -0.002594 0.002630
# 4 0.001965 -0.029219 -0.003365 0.045307 0.007638 -0.021025
# 5 -0.008171 -0.001475 -0.002594 0.007638 0.045860 -0.031348
# 6 0.011111 0.016194 0.002630 -0.021025 -0.031348 0.075204
#
#
# Mechanical properties :
#
#
# Convention : Reuss Voigt Hill
#
# Bulk Modulus (GPa) = 15.12857 58.86989 36.99923
# Shear Modulus (GPa) = 13.16580 29.68702 21.42641
#
# Velocity S-wave (km/s) = 2.58060 3.87507 3.29209
# Velocity P-wave (km/s) = 4.06591 7.05684 5.75893
#
# Compressibility (1/GPa) = 0.06610009
#
# Stress axis : x y z
#
# Youngs Moduli (GPa) = 81.13215 10.02805 59.92340
#
# Poissons Ratio (x) = 0.08159 0.08817
# Poissons Ratio (y) = 0.66013 1.30088
# Poissons Ratio (z) = 0.11938 0.21770
#
# Static dielectric constant tensor:
#      x y z
#    x 4.343270 -0.215150 -0.145210 
#    y -0.215150 3.311010 0.804860 
#    z -0.145210 0.804860 3.987070 
# 
# 
# High freq. dielectric constant tensor:
#      x y z
#    x 1.797940 -0.013760 0.010610 
#    y -0.013760 1.714600 0.058430 
#    z 0.010610 0.058430 1.756100 
# 
# From -- ./inp_files/307285.got.cif
#   From: 2010.06.25/outbox.cif.g09.slc.cpg/sg2_154_cif.got.tgz:307285.got - 2010.06.27 13:26:56.
