data_PCOD8002987
_publ_section_title
;
Structure prediction by ZEFSAII (Michael W. Deem and Ramdas Pophale) SiO2 
 PCOD8002987
Probable space group: P -1
;
_chemical_formula_sum "Si O2"
_cell_formula_units_Z 12
_cell_length_a 12.630830
_cell_length_b 8.940339
_cell_length_c 17.132335
_cell_angle_alpha 144.971933
_cell_angle_beta 34.929123
_cell_angle_gamma 146.161687
_cell_volume 556.163498
_symmetry_space_group_name_H-M "P -1"
_symmetry_group_IT_number 2
_symmetry_cell_setting 'triclinic'
loop_
_space_group_symop_operation_xyz
x,y,z
-x,-y,-z
loop_
_atom_site_type_symbol
_atom_site_label
_atom_site_fract_x
_atom_site_fract_y
_atom_site_fract_z
Si Si1 0.973254 0.286267 0.713287
Si Si2 0.014271 0.729920 0.474783
Si Si3 0.080346 0.726091 0.976655
Si Si4 0.508296 0.098668 0.125551
Si Si5 0.696431 0.775085 0.265358
Si Si6 0.692294 0.264334 0.581691
O O1 0.046237 0.413101 0.636057
O O2 0.060505 0.562074 0.836938
O O3 0.719719 0.092212 0.780558
O O4 0.072200 0.075394 0.586369
O O5 0.213071 0.695276 0.371347
O O6 0.817922 0.558035 0.578235
O O7 0.324972 0.960804 0.949140
O O8 0.000000 0.500000 0.000000
O O9 0.926419 0.873132 0.130145
O O10 0.586194 0.448870 0.231022
O O11 0.500000 0.000000 0.000000
O O12 0.548767 0.799407 0.296947
O O13 0.720511 0.997378 0.414566
#
# Coordination Sequence:
#
# PCOD8002987 Si02
#       6
#     2   2   2   2   2   2
#     4  11  21  40  60  95 115 147 206 245 288 335
#     4  10  22  38  61  85 120 157 194 244 287 353
#     4  10  20  36  61  88 117 150 194 247 287 340
#     4  11  20  35  65  90 114 151 200 246 291 341
#     4  10  20  36  61  87 113 157 202 233 287 364
#     4  10  21  39  60  82 122 162 191 230 304 354
#
# _framework density 21.576388000000001
#
# number of rings (size 3 to 8) (size 9 to 14) (size 15 to 20)
#    0.000    1.667    5.000    2.000    0.000    0.000 
#    6.000    4.167    0.000    0.000    0.000    0.000 
#    0.000    0.000    0.000    0.000    0.000    0.000 
#
# Total GULP energy -148759.551938 kJ/mol
# GULP energy per Si atom -12396.629328 kJ/mol
# Density = 2.152728 g / cm^3
# Si number density = 21.576388 Si / 1000 Ang^3
#
#
#
# Elastic Constant Matrix: (Units=GPa)
#
#
# Indices 1 2 3 4 5 6 
#
# 1 169.5414 36.8093 61.4482 -16.3203 -10.1291 12.6958
# 2 36.8093 34.6193 1.0642 -2.4250 -7.1665 7.6776
# 3 61.4482 1.0642 93.2332 -5.8929 -7.8185 4.4483
# 4 -16.3203 -2.4250 -5.8929 28.7121 10.9707 -3.6648
# 5 -10.1291 -7.1665 -7.8185 10.9707 33.0205 -8.2691
# 6 12.6958 7.6776 4.4483 -3.6648 -8.2691 38.0541
#
#
#
# Elastic Compliance Matrix: (Units=1/GPa)
#
#
# Indices 1 2 3 4 5 6 
#
# 1 0.011569 -0.012130 -0.007363 0.004966 -0.002639 -0.000647
# 2 -0.012130 0.043880 0.008072 -0.005293 0.008360 -0.004443
# 3 -0.007363 0.008072 0.015704 -0.001740 0.003697 -0.000372
# 4 0.004966 -0.005293 -0.001740 0.042245 -0.013908 0.000661
# 5 -0.002639 0.008360 0.003697 -0.013908 0.038219 0.005727
# 6 -0.000647 -0.004443 -0.000372 0.000661 0.005727 0.028742
#
#
# Mechanical properties :
#
#
# Convention : Reuss Voigt Hill
#
# Bulk Modulus (GPa) = 20.69898 55.11526 37.90712
# Shear Modulus (GPa) = 22.79919 33.16215 27.98067
#
# Velocity S-wave (km/s) = 3.25418 3.92467 3.60504
# Velocity P-wave (km/s) = 4.87173 6.79243 5.91062
#
# Compressibility (1/GPa) = 0.04831156
#
# Stress axis : x y z
#
# Youngs Moduli (GPa) = 86.43543 22.78960 63.67658
#
# Poissons Ratio (x) = 0.27643 0.46886
# Poissons Ratio (y) = 1.04844 -0.51400
# Poissons Ratio (z) = 0.63644 -0.18396
#
# Static dielectric constant tensor:
#      x y z
#    x 4.358990 0.551960 -0.385420 
#    y 0.551960 3.964300 -0.247040 
#    z -0.385420 -0.247040 4.050890 
# 
# 
# High freq. dielectric constant tensor:
#      x y z
#    x 1.858980 0.025820 -0.011470 
#    y 0.025820 1.811880 -0.000350 
#    z -0.011470 -0.000350 1.845220 
# 
# From -- ./inp_files/185000.got.cif
#   From: 2010.06.25/outbox.cif.g09.slc.cpg/sg2_93_cif.got.tgz:185000.got - 2010.06.27 13:26:56.
