data_PCOD8002692
_publ_section_title
;
Structure prediction by ZEFSAII (Michael W. Deem and Ramdas Pophale) SiO2 
 PCOD8002692
Probable space group: P -1
;
_chemical_formula_sum "Si O2"
_cell_formula_units_Z 14
_cell_length_a 12.746868
_cell_length_b 9.145400
_cell_length_c 20.756147
_cell_angle_alpha 66.959175
_cell_angle_beta 153.965043
_cell_angle_gamma 126.560290
_cell_volume 778.830835
_symmetry_space_group_name_H-M "P -1"
_symmetry_group_IT_number 2
_symmetry_cell_setting 'triclinic'
loop_
_space_group_symop_operation_xyz
x,y,z
-x,-y,-z
loop_
_atom_site_type_symbol
_atom_site_label
_atom_site_fract_x
_atom_site_fract_y
_atom_site_fract_z
Si Si1 0.786491 0.797239 0.614424
Si Si2 0.663150 0.805939 0.407431
Si Si3 0.834723 0.474011 0.732133
Si Si4 0.000113 0.253088 0.498521
Si Si5 0.189141 0.482523 0.695420
Si Si6 0.724489 0.607880 0.046521
Si Si7 0.851249 0.129303 0.665524
O O1 0.869033 0.832730 0.577549
O O2 0.912205 0.691718 0.737302
O O3 0.418927 0.658993 0.440792
O O4 0.943175 0.007283 0.699631
O O5 0.311630 0.640009 0.260425
O O6 0.737642 0.727459 0.400639
O O7 0.725457 0.018101 0.393460
O O8 0.143977 0.507901 0.884183
O O9 0.882368 0.361419 0.378842
O O10 0.134120 0.356634 0.623181
O O11 0.978978 0.331976 0.662431
O O12 0.542750 0.613415 0.886356
O O13 0.005180 0.823455 0.191383
O O14 0.500000 0.500000 0.000000
O O15 0.500000 0.000000 0.500000
#
# Coordination Sequence:
#
# PCOD8002692 Si02
#       7
#     2   2   2   2   2   2   2
#     4   9  18  31  58  84 106 137 184 230 265 329
#     4   9  18  34  58  81 105 141 198 221 261 329
#     4   9  18  34  54  83 110 140 178 233 274 320
#     4  10  20  36  58  78 107 159 181 221 266 330
#     4  10  22  37  54  83 114 141 188 224 274 327
#     4  10  22  35  55  83 116 140 176 236 285 317
#     4  11  19  34  59  84 108 141 182 229 278 327
#
# _framework density 17.975662
#
# number of rings (size 3 to 8) (size 9 to 14) (size 15 to 20)
#    0.857    1.429    2.857    0.000    6.000    0.000 
#    0.000    7.143    0.000    0.000    0.000    0.000 
#    0.000    0.000    0.000    0.000    0.000    0.000 
#
# Total GULP energy -173472.799166 kJ/mol
# GULP energy per Si atom -12390.914226 kJ/mol
# Density = 1.793475 g / cm^3
# Si number density = 17.975662 Si / 1000 Ang^3
#
#
#
# Elastic Constant Matrix: (Units=GPa)
#
#
# Indices 1 2 3 4 5 6 
#
# 1 83.7548 43.4876 31.3263 -6.7124 9.6105 -1.3054
# 2 43.4876 121.1412 36.3316 -11.3179 -0.5435 1.4951
# 3 31.3263 36.3316 103.4145 -5.9339 -1.2024 -4.9065
# 4 -6.7124 -11.3179 -5.9339 18.2675 -3.4068 -0.2992
# 5 9.6105 -0.5435 -1.2024 -3.4068 27.3999 3.4971
# 6 -1.3054 1.4951 -4.9065 -0.2992 3.4971 25.8705
#
#
#
# Elastic Compliance Matrix: (Units=1/GPa)
#
#
# Indices 1 2 3 4 5 6 
#
# 1 0.016485 -0.004915 -0.003226 0.000852 -0.006086 0.001337
# 2 -0.004915 0.011166 -0.002200 0.004867 0.002660 -0.001614
# 3 -0.003226 -0.002200 0.011620 0.001545 0.001537 0.001978
# 4 0.000852 0.004867 0.001545 0.059939 0.007349 -0.000246
# 5 -0.006086 0.002660 0.001537 0.007349 0.040372 -0.005542
# 6 0.001337 -0.001614 0.001978 -0.000246 -0.005542 0.039936
#
#
# Mechanical properties :
#
#
# Convention : Reuss Voigt Hill
#
# Bulk Modulus (GPa) = 53.79244 58.95570 56.37407
# Shear Modulus (GPa) = 24.22518 27.45192 25.83855
#
# Velocity S-wave (km/s) = 3.67504 3.91214 3.79544
# Velocity P-wave (km/s) = 6.92806 7.29899 7.11594
#
# Compressibility (1/GPa) = 0.01858997
#
# Stress axis : x y z
#
# Youngs Moduli (GPa) = 60.65988 89.56083 86.05619
#
# Poissons Ratio (x) = 0.44017 0.27758
# Poissons Ratio (y) = 0.29813 0.18935
# Poissons Ratio (z) = 0.19566 0.19706
#
# Static dielectric constant tensor:
#      x y z
#    x 3.345090 -0.108030 -0.209400 
#    y -0.108030 3.420490 0.154690 
#    z -0.209400 0.154690 3.443000 
# 
# 
# High freq. dielectric constant tensor:
#      x y z
#    x 1.695040 -0.009390 0.000270 
#    y -0.009390 1.699110 -0.000190 
#    z 0.000270 -0.000190 1.662710 
# 
# From -- ./inp_files/611645.got.cif
#   From: 2010.06.25/outbox.cif.g09.slc.cpg/sg2_306_cif.got.tgz:611645.got - 2010.06.27 13:26:56.
