data_PCOD8002935
_publ_section_title
;
Structure prediction by ZEFSAII (Michael W. Deem and Ramdas Pophale) SiO2 
 PCOD8002935
Probable space group: P -1
;
_chemical_formula_sum "Si O2"
_cell_formula_units_Z 16
_cell_length_a 12.432882
_cell_length_b 11.795762
_cell_length_c 15.704110
_cell_angle_alpha 134.529554
_cell_angle_beta 152.275793
_cell_angle_gamma 57.766446
_cell_volume 736.815604
_symmetry_space_group_name_H-M "P -1"
_symmetry_group_IT_number 2
_symmetry_cell_setting 'triclinic'
loop_
_space_group_symop_operation_xyz
x,y,z
-x,-y,-z
loop_
_atom_site_type_symbol
_atom_site_label
_atom_site_fract_x
_atom_site_fract_y
_atom_site_fract_z
Si Si1 0.749742 0.700548 0.860872
Si Si2 0.013731 0.485190 0.196424
Si Si3 0.673892 0.156304 0.406717
Si Si4 0.427306 0.463886 0.171607
Si Si5 0.927386 0.057936 0.680052
Si Si6 0.961634 0.577643 0.631576
Si Si7 0.619640 0.878232 0.088608
Si Si8 0.092910 0.765189 0.663634
O O1 0.787578 0.574835 0.749255
O O2 0.584875 0.812094 0.767095
O O3 0.628317 0.597251 0.802647
O O4 0.009401 0.826006 0.131028
O O5 0.118273 0.681407 0.387763
O O6 0.970395 0.386955 0.203554
O O7 0.765815 0.443778 0.948471
O O8 0.710615 0.102021 0.500897
O O9 0.705706 0.003612 0.292133
O O10 0.691747 0.586552 0.425513
O O11 0.432748 0.318292 0.030628
O O12 0.174145 0.103413 0.825263
O O13 0.886320 0.863907 0.569022
O O14 0.996769 0.396887 0.541332
O O15 0.131535 0.715850 0.763158
O O16 0.350103 0.883505 0.869754
#
# Coordination Sequence:
#
# PCOD8002935 Si02
#       8
#     2   2   2   2   2   2   2   2
#     4  11  23  38  58  91 123 153 195 250 292 346
#     4  12  23  38  62  89 121 156 201 236 297 355
#     4  12  22  34  62  94 117 153 190 248 306 341
#     4  10  22  37  60  89 121 152 193 247 294 350
#     4  11  22  36  62  88 121 152 193 251 298 346
#     4  10  23  40  61  85 121 163 193 240 292 355
#     4  10  20  36  60  91 118 142 193 250 300 344
#     4  10  21  42  60  86 124 156 195 243 298 347
#
# _framework density 21.715067000000001
#
# number of rings (size 3 to 8) (size 9 to 14) (size 15 to 20)
#    0.000    1.250    5.000    2.250    3.500    0.000 
#    2.250    2.500    0.000    1.500    0.000    0.000 
#    0.000    0.000    0.000    0.000    0.000    0.000 
#
# Total GULP energy -198280.297507 kJ/mol
# GULP energy per Si atom -12392.518594 kJ/mol
# Density = 2.166564 g / cm^3
# Si number density = 21.715067 Si / 1000 Ang^3
#
#
#
# Elastic Constant Matrix: (Units=GPa)
#
#
# Indices 1 2 3 4 5 6 
#
# 1 80.5272 33.6480 20.1318 -6.2210 -16.5777 -4.2667
# 2 33.6480 74.6037 29.2584 -25.8357 -12.4710 -0.3986
# 3 20.1318 29.2584 59.5004 -21.4657 -13.6986 3.6467
# 4 -6.2210 -25.8357 -21.4657 35.2545 1.2546 -6.4930
# 5 -16.5777 -12.4710 -13.6986 1.2546 18.5746 -7.1229
# 6 -4.2667 -0.3986 3.6467 -6.4930 -7.1229 19.1579
#
#
#
# Elastic Compliance Matrix: (Units=1/GPa)
#
#
# Indices 1 2 3 4 5 6 
#
# 1 0.018825 -0.005209 -0.000244 0.000728 0.017207 0.010775
# 2 -0.005209 0.024962 -0.001463 0.018001 0.014015 0.010950
# 3 -0.000244 -0.001463 0.028113 0.016757 0.021570 0.008263
# 4 0.000728 0.018001 0.016757 0.055950 0.032154 0.028264
# 5 0.017207 0.014015 0.021570 0.032154 0.112576 0.052771
# 6 0.010775 0.010950 0.008263 0.028264 0.052771 0.082452
#
#
# Mechanical properties :
#
#
# Convention : Reuss Voigt Hill
#
# Bulk Modulus (GPa) = 17.22072 42.30087 29.76080
# Shear Modulus (GPa) = 14.04231 23.37028 18.70629
#
# Velocity S-wave (km/s) = 2.54571 3.28414 2.93822
# Velocity P-wave (km/s) = 4.07289 5.82263 5.02451
#
# Compressibility (1/GPa) = 0.05806958
#
# Stress axis : x y z
#
# Youngs Moduli (GPa) = 53.12064 40.06035 35.57026
#
# Poissons Ratio (x) = 0.20866 0.00869
# Poissons Ratio (y) = 0.27669 0.05202
# Poissons Ratio (z) = 0.01298 0.05859
#
# Static dielectric constant tensor:
#      x y z
#    x 3.693510 -0.088330 -0.161270 
#    y -0.088330 4.214090 0.042210 
#    z -0.161270 0.042210 3.927440 
# 
# 
# High freq. dielectric constant tensor:
#      x y z
#    x 1.821810 -0.010700 -0.013230 
#    y -0.010700 1.857620 -0.008590 
#    z -0.013230 -0.008590 1.840620 
# 
# From -- ./inp_files/464697.got.cif
#   From: 2010.06.25/outbox.cif.g09.slc.cpg/sg2_233_cif.got.tgz:464697.got - 2010.06.27 13:26:56.
