data_PCOD8002295
_publ_section_title
;
Structure prediction by ZEFSAII (Michael W. Deem and Ramdas Pophale) SiO2 
 PCOD8002295
Probable space group: P -1
;
_chemical_formula_sum "Si O2"
_cell_formula_units_Z 16
_cell_length_a 13.998601
_cell_length_b 11.426348
_cell_length_c 14.870545
_cell_angle_alpha 151.814767
_cell_angle_beta 56.623043
_cell_angle_gamma 133.310042
_cell_volume 807.160097
_symmetry_space_group_name_H-M "P -1"
_symmetry_group_IT_number 2
_symmetry_cell_setting 'triclinic'
loop_
_space_group_symop_operation_xyz
x,y,z
-x,-y,-z
loop_
_atom_site_type_symbol
_atom_site_label
_atom_site_fract_x
_atom_site_fract_y
_atom_site_fract_z
Si Si1 0.500068 0.635690 0.497318
Si Si2 0.067177 0.928333 0.336169
Si Si3 0.860684 0.345615 0.097541
Si Si4 0.055674 0.321587 0.301278
Si Si5 0.210805 0.260810 0.332271
Si Si6 0.715124 0.211546 0.831769
Si Si7 0.622700 0.315690 0.136558
Si Si8 0.926227 0.666525 0.902783
O O1 0.500000 0.500000 0.500000
O O2 0.350283 0.526305 0.470452
O O3 0.572882 0.542807 0.322744
O O4 0.575083 0.981339 0.702174
O O5 0.209834 0.966461 0.311359
O O6 0.963513 0.590369 0.139885
O O7 0.092154 0.157307 0.398419
O O8 0.000000 0.000000 0.500000
O O9 0.735470 0.394206 0.210067
O O10 0.942631 0.345933 0.142971
O O11 0.786498 0.033942 0.877887
O O12 0.177794 0.359086 0.322993
O O13 0.105417 0.443038 0.257688
O O14 0.000000 0.500000 0.500000
O O15 0.947053 0.983643 0.118985
O O16 0.797878 0.469443 0.894939
O O17 0.690537 0.344158 0.023981
O O18 0.500000 0.000000 0.000000
#
# Coordination Sequence:
#
# PCOD8002295 Si02
#       8
#     2   2   2   2   2   2   2   2
#     4  12  22  38  57  90 130 163 196 233 296 374
#     4  11  21  32  55  94 123 153 189 247 308 366
#     4  10  20  35  59  84 125 151 189 245 302 361
#     4  10  23  42  65  86 113 156 208 255 304 347
#     4  11  22  38  58  87 119 158 199 242 302 358
#     4  11  23  39  58  90 132 157 196 248 297 366
#     4  12  21  35  57  90 128 167 192 230 299 371
#     4   9  23  42  60  90 118 153 201 263 297 343
#
# _framework density 19.822586000000001
#
# number of rings (size 3 to 8) (size 9 to 14) (size 15 to 20)
#    0.000    1.250    5.000    1.125    7.000    1.000 
#    0.000    0.625    0.000    1.500    0.000    0.000 
#    0.000    0.000    0.000    0.000    0.000    0.000 
#
# Total GULP energy -198280.215585 kJ/mol
# GULP energy per Si atom -12392.513474 kJ/mol
# Density = 1.977747 g / cm^3
# Si number density = 19.822586 Si / 1000 Ang^3
#
#
#
# Elastic Constant Matrix: (Units=GPa)
#
#
# Indices 1 2 3 4 5 6 
#
# 1 100.0556 56.1220 28.5896 -2.5251 20.2771 0.3086
# 2 56.1220 114.6545 25.9346 -10.7596 9.8355 -12.0280
# 3 28.5896 25.9346 77.4917 -15.2607 0.1699 -9.0523
# 4 -2.5251 -10.7596 -15.2607 40.2497 4.5237 10.0134
# 5 20.2771 9.8355 0.1699 4.5237 26.8529 -0.5265
# 6 0.3086 -12.0280 -9.0523 10.0134 -0.5265 25.2349
#
#
#
# Elastic Compliance Matrix: (Units=1/GPa)
#
#
# Indices 1 2 3 4 5 6 
#
# 1 0.017559 -0.007198 -0.004698 -0.000022 -0.010698 -0.005546
# 2 -0.007198 0.013087 -0.000824 0.001299 0.000537 0.005526
# 3 -0.004698 -0.000824 0.016206 0.004331 0.003092 0.003824
# 4 -0.000022 0.001299 0.004331 0.029918 -0.005719 -0.009818
# 5 -0.010698 0.000537 0.003092 -0.005719 0.046158 0.004728
# 6 -0.005546 0.005526 0.003824 -0.009818 0.004728 0.047696
#
#
# Mechanical properties :
#
#
# Convention : Reuss Voigt Hill
#
# Bulk Modulus (GPa) = 46.70172 57.05490 51.87831
# Shear Modulus (GPa) = 24.60598 30.57121 27.58859
#
# Velocity S-wave (km/s) = 3.52705 3.93140 3.73470
# Velocity P-wave (km/s) = 6.34017 7.03229 6.69518
#
# Compressibility (1/GPa) = 0.02141249
#
# Stress axis : x y z
#
# Youngs Moduli (GPa) = 56.95095 76.40935 61.70418
#
# Poissons Ratio (x) = 0.55003 0.28987
# Poissons Ratio (y) = 0.40996 0.05085
# Poissons Ratio (z) = 0.26754 0.06296
#
# Static dielectric constant tensor:
#      x y z
#    x 3.617790 0.001670 0.142360 
#    y 0.001670 4.074560 0.113320 
#    z 0.142360 0.113320 3.950520 
# 
# 
# High freq. dielectric constant tensor:
#      x y z
#    x 1.749260 0.012640 0.014760 
#    y 0.012640 1.767930 -0.000870 
#    z 0.014760 -0.000870 1.784110 
# 
# From -- ./inp_files/452334.got.cif
#   From: 2010.06.25/outbox.cif.g09.slc.cpg/sg2_227_cif.got.tgz:452334.got - 2010.06.27 13:26:56.
