data_PCOD8002337
_publ_section_title
;
Structure prediction by ZEFSAII (Michael W. Deem and Ramdas Pophale) SiO2 
 PCOD8002337
Probable space group: P -1
;
_chemical_formula_sum "Si O2"
_cell_formula_units_Z 16
_cell_length_a 11.736285
_cell_length_b 11.136837
_cell_length_c 16.077827
_cell_angle_alpha 144.793524
_cell_angle_beta 50.821702
_cell_angle_gamma 141.496092
_cell_volume 754.093243
_symmetry_space_group_name_H-M "P -1"
_symmetry_group_IT_number 2
_symmetry_cell_setting 'triclinic'
loop_
_space_group_symop_operation_xyz
x,y,z
-x,-y,-z
loop_
_atom_site_type_symbol
_atom_site_label
_atom_site_fract_x
_atom_site_fract_y
_atom_site_fract_z
Si Si1 0.942555 0.676186 0.663294
Si Si2 0.416177 0.791239 0.675179
Si Si3 0.614984 0.557204 0.853353
Si Si4 0.479120 0.738288 0.876558
Si Si5 0.711801 0.893614 0.152359
Si Si6 0.186792 0.980107 0.376235
Si Si7 0.199682 0.389517 0.690718
Si Si8 0.742931 0.694919 0.625390
O O1 0.751347 0.522363 0.717671
O O2 0.912140 0.794934 0.664843
O O3 0.000000 0.500000 0.500000
O O4 0.094979 0.915401 0.783911
O O5 0.635344 0.014245 0.707266
O O6 0.348449 0.621021 0.692855
O O7 0.369261 0.611645 0.514858
O O8 0.324806 0.934692 0.788099
O O9 0.539654 0.695694 0.914253
O O10 0.441050 0.272624 0.800353
O O11 0.718178 0.715347 0.979914
O O12 0.267201 0.500520 0.816332
O O13 0.605303 0.744671 0.752763
O O14 0.500000 0.000000 0.000000
O O15 0.193343 0.131307 0.540877
O O16 0.171092 0.142984 0.405281
O O17 0.001819 0.686715 0.283743
#
# Coordination Sequence:
#
# PCOD8002337 Si02
#       8
#     2   2   2   2   2   2   2   2
#     4  11  23  43  67  99 129 171 217 271 324 380
#     4  11  19  39  64  91 131 164 208 263 325 385
#     4  10  26  44  65  96 131 175 222 263 321 392
#     4  11  21  40  65  88 129 171 210 262 327 379
#     4  11  24  45  68  91 132 180 215 265 324 389
#     4  10  20  35  61  93 126 157 205 266 325 375
#     4  10  20  35  59  92 122 165 201 263 324 374
#     4  10  20  39  60  94 131 160 208 273 319 377
#
# _framework density 21.217535000000002
#
# number of rings (size 3 to 8) (size 9 to 14) (size 15 to 20)
#    0.000    1.500    3.750    1.875    1.750    1.500 
#    2.250    5.625    0.000    0.000    0.000    0.000 
#    0.000    0.000    0.000    0.000    0.000    0.000 
#
# Total GULP energy -198252.552954 kJ/mol
# GULP energy per Si atom -12390.784560 kJ/mol
# Density = 2.116924 g / cm^3
# Si number density = 21.217535 Si / 1000 Ang^3
#
#
#
# Elastic Constant Matrix: (Units=GPa)
#
#
# Indices 1 2 3 4 5 6 
#
# 1 120.1776 27.1190 30.9087 7.4183 20.0588 22.1139
# 2 27.1190 68.0230 27.1983 -3.8913 8.5900 18.0689
# 3 30.9087 27.1983 79.8687 -0.9230 7.3043 3.9600
# 4 7.4183 -3.8913 -0.9230 25.1674 5.8793 4.0247
# 5 20.0588 8.5900 7.3043 5.8793 39.1407 5.6848
# 6 22.1139 18.0689 3.9600 4.0247 5.6848 35.6986
#
#
#
# Elastic Compliance Matrix: (Units=1/GPa)
#
#
# Indices 1 2 3 4 5 6 
#
# 1 0.011154 -0.001457 -0.003251 -0.001953 -0.003772 -0.004991
# 2 -0.001457 0.020583 -0.005731 0.005373 -0.002181 -0.009139
# 3 -0.003251 -0.005731 0.015618 0.000244 -0.000497 0.003234
# 4 -0.001953 0.005373 0.000244 0.043416 -0.005949 -0.005484
# 5 -0.003772 -0.002181 -0.000497 -0.005949 0.029013 -0.000454
# 6 -0.004991 -0.009139 0.003234 -0.005484 -0.000454 0.036061
#
#
# Mechanical properties :
#
#
# Convention : Reuss Voigt Hill
#
# Bulk Modulus (GPa) = 37.76621 48.72462 43.24542
# Shear Modulus (GPa) = 26.94706 32.19090 29.56898
#
# Velocity S-wave (km/s) = 3.56762 3.89933 3.73716
# Velocity P-wave (km/s) = 5.89990 6.57930 6.24884
#
# Compressibility (1/GPa) = 0.02647869
#
# Stress axis : x y z
#
# Youngs Moduli (GPa) = 89.65159 48.58276 64.02813
#
# Poissons Ratio (x) = 0.07078 0.20814
# Poissons Ratio (y) = 0.13061 0.36694
# Poissons Ratio (z) = 0.29143 0.27843
#
# Static dielectric constant tensor:
#      x y z
#    x 3.354130 0.031420 -0.339110 
#    y 0.031420 3.758150 -0.118800 
#    z -0.339110 -0.118800 3.240310 
# 
# 
# High freq. dielectric constant tensor:
#      x y z
#    x 1.844380 0.012260 0.017570 
#    y 0.012260 1.819270 -0.004710 
#    z 0.017570 -0.004710 1.821030 
# 
# From -- ./inp_files/568983.got.cif
#   From: 2010.06.25/outbox.cif.g09.slc.cpg/sg2_285_cif.got.tgz:568983.got - 2010.06.27 13:26:56.
