data_PCOD8002059
_publ_section_title
;
Structure prediction by ZEFSAII (Michael W. Deem and Ramdas Pophale) SiO2 
 PCOD8002059
Probable space group: P -1
;
_chemical_formula_sum "Si O2"
_cell_formula_units_Z 16
_cell_length_a 12.520848
_cell_length_b 9.108271
_cell_length_c 24.382837
_cell_angle_alpha 35.878942
_cell_angle_beta 152.479430
_cell_angle_gamma 132.076945
_cell_volume 740.882125
_symmetry_space_group_name_H-M "P -1"
_symmetry_group_IT_number 2
_symmetry_cell_setting 'triclinic'
loop_
_space_group_symop_operation_xyz
x,y,z
-x,-y,-z
loop_
_atom_site_type_symbol
_atom_site_label
_atom_site_fract_x
_atom_site_fract_y
_atom_site_fract_z
Si Si1 0.782518 0.337653 0.130693
Si Si2 0.765207 0.285828 0.913758
Si Si3 0.639511 0.364068 0.430598
Si Si4 0.137129 0.169012 0.436320
Si Si5 0.504154 0.086430 0.547343
Si Si6 0.866218 0.751203 0.466787
Si Si7 0.438769 0.115593 0.113181
Si Si8 0.004247 0.732630 0.865501
O O1 0.580428 0.184256 0.103403
O O2 0.897897 0.207930 0.167093
O O3 0.969870 0.333297 0.266239
O O4 0.671637 0.632616 0.979812
O O5 0.507617 0.452989 0.736349
O O6 0.962657 0.440596 0.935166
O O7 0.770260 0.025121 0.961008
O O8 0.802816 0.230510 0.012279
O O9 0.689110 0.077533 0.515556
O O10 0.867742 0.485675 0.514608
O O11 0.491767 0.338326 0.427764
O O12 0.101006 0.312140 0.434675
O O13 0.407713 0.156022 0.543578
O O14 0.077273 0.883782 0.500950
O O15 0.765255 0.923890 0.714754
O O16 0.614732 0.936078 0.288516
#
# Coordination Sequence:
#
# PCOD8002059 Si02
#       8
#     2   2   2   2   2   2   2   2
#     4  10  20  36  56  78 106 137 173 216 260 308
#     4   9  19  36  54  77 106 136 174 215 259 308
#     4   9  18  35  54  77 106 136 173 214 259 309
#     4  10  20  36  55  77 107 139 173 214 258 308
#     4  10  20  35  54  76 107 141 173 212 258 306
#     4   9  20  36  55  79 105 136 174 215 260 308
#     4   9  20  37  56  78 104 137 174 215 262 308
#     4  10  21  36  54  78 107 139 174 213 258 309
#
# _framework density 21.595877000000002
#
# number of rings (size 3 to 8) (size 9 to 14) (size 15 to 20)
#    0.000    2.500    0.000    2.250    0.000    6.000 
#    0.000    5.000    0.000    0.000    0.000    0.000 
#    0.000    0.000    0.000    0.000    0.000    0.000 
#
# Total GULP energy -198289.355140 kJ/mol
# GULP energy per Si atom -12393.084696 kJ/mol
# Density = 2.154672 g / cm^3
# Si number density = 21.595877 Si / 1000 Ang^3
#
#
#
# Elastic Constant Matrix: (Units=GPa)
#
#
# Indices 1 2 3 4 5 6 
#
# 1 91.7119 -16.2047 40.7097 11.7956 -6.7824 0.8405
# 2 -16.2047 65.3704 16.0875 10.9187 -7.0316 -1.3815
# 3 40.7097 16.0875 80.0942 5.7090 -14.7078 -3.8797
# 4 11.7956 10.9187 5.7090 27.0142 -3.9994 -6.7983
# 5 -6.7824 -7.0316 -14.7078 -3.9994 33.3455 6.2873
# 6 0.8405 -1.3815 -3.8797 -6.7983 6.2873 11.9665
#
#
#
# Elastic Compliance Matrix: (Units=1/GPa)
#
#
# Indices 1 2 3 4 5 6 
#
# 1 0.019461 0.009653 -0.011171 -0.012818 0.001813 -0.012108
# 2 0.009653 0.022118 -0.008279 -0.013485 0.003280 -0.010193
# 3 -0.011171 -0.008279 0.020540 0.006516 0.004331 0.007914
# 4 -0.012818 -0.013485 0.006516 0.054859 -0.002384 0.033875
# 5 0.001813 0.003280 0.004331 -0.002384 0.036204 -0.018721
# 6 -0.012108 -0.010193 0.007914 0.033875 -0.018721 0.114888
#
#
# Mechanical properties :
#
#
# Convention : Reuss Voigt Hill
#
# Bulk Modulus (GPa) = 23.51493 35.37351 29.44422
# Shear Modulus (GPa) = 16.56514 27.57083 22.06798
#
# Velocity S-wave (km/s) = 2.77257 3.57693 3.20012
# Velocity P-wave (km/s) = 4.60020 5.78572 5.22668
#
# Compressibility (1/GPa) = 0.04252617
#
# Stress axis : x y z
#
# Youngs Moduli (GPa) = 51.38361 45.21271 48.68492
#
# Poissons Ratio (x) = -0.43646 0.54385
# Poissons Ratio (y) = -0.49603 0.40308
# Poissons Ratio (z) = 0.57399 0.37433
#
# Static dielectric constant tensor:
#      x y z
#    x 3.766290 0.150950 -0.277140 
#    y 0.150950 4.038550 0.040030 
#    z -0.277140 0.040030 3.701340 
# 
# 
# High freq. dielectric constant tensor:
#      x y z
#    x 1.831890 0.008980 -0.024070 
#    y 0.008980 1.843340 0.003070 
#    z -0.024070 0.003070 1.831710 
# 
# From -- ./inp_files/560149.got.cif
#   From: 2010.06.25/outbox.cif.g09.slc.cpg/sg2_281_cif.got.tgz:560149.got - 2010.06.27 13:26:56.
