data_PCOD8002091
_publ_section_title
;
Structure prediction by ZEFSAII (Michael W. Deem and Ramdas Pophale) SiO2 
 PCOD8002091
Probable space group: P -1
;
_chemical_formula_sum "Si O2"
_cell_formula_units_Z 16
_cell_length_a 14.910668
_cell_length_b 8.184860
_cell_length_c 8.564412
_cell_angle_alpha 124.425098
_cell_angle_beta 114.482473
_cell_angle_gamma 67.495735
_cell_volume 769.144960
_symmetry_space_group_name_H-M "P -1"
_symmetry_group_IT_number 2
_symmetry_cell_setting 'triclinic'
loop_
_space_group_symop_operation_xyz
x,y,z
-x,-y,-z
loop_
_atom_site_type_symbol
_atom_site_label
_atom_site_fract_x
_atom_site_fract_y
_atom_site_fract_z
Si Si1 0.652992 0.444119 0.531597
Si Si2 0.955927 0.735772 0.226450
Si Si3 0.143588 0.019148 0.224658
Si Si4 0.521071 0.807034 0.225462
Si Si5 0.152197 0.888496 0.504691
Si Si6 0.463759 0.457402 0.198467
Si Si7 0.020874 0.691663 0.903105
Si Si8 0.346716 0.133645 0.375071
O O1 0.743225 0.258238 0.467464
O O2 0.560233 0.385200 0.339101
O O3 0.631219 0.477154 0.719212
O O4 0.684706 0.642334 0.593664
O O5 0.929916 0.546118 0.203764
O O6 0.063058 0.765160 0.385518
O O7 0.867227 0.931461 0.286340
O O8 0.960500 0.705864 0.029259
O O9 0.251825 0.026889 0.235516
O O10 0.061889 0.223099 0.240808
O O11 0.151519 0.005810 0.406756
O O12 0.108982 0.819854 0.024929
O O13 0.473043 0.650080 0.207037
O O14 0.618037 0.855997 0.412657
O O15 0.436836 0.012095 0.267124
O O16 0.550556 0.723515 0.027194
#
# Coordination Sequence:
#
# PCOD8002091 Si02
#       8
#     2   2   2   2   2   2   2   2
#     4  10  20  35  57  84 116 150 186 232 283 338
#     4   9  19  37  58  81 111 145 183 231 282 333
#     4  10  20  35  55  80 112 148 185 228 279 333
#     4   9  19  37  58  81 112 149 189 236 285 333
#     4  10  20  35  56  81 113 147 182 228 281 339
#     4   9  19  37  58  80 113 151 187 235 286 333
#     4   9  19  37  58  80 110 146 185 233 282 331
#     4  10  20  35  56  82 115 151 189 233 280 337
#
# _framework density 20.802320000000002
#
# number of rings (size 3 to 8) (size 9 to 14) (size 15 to 20)
#    0.000    2.500    0.000    1.500    0.000    3.000 
#    0.000   12.500    0.000    0.000    0.000    0.000 
#    0.000    0.000    0.000    0.000    0.000    0.000 
#
# Total GULP energy -198372.862458 kJ/mol
# GULP energy per Si atom -12398.303904 kJ/mol
# Density = 2.075497 g / cm^3
# Si number density = 20.802320 Si / 1000 Ang^3
#
#
#
# Elastic Constant Matrix: (Units=GPa)
#
#
# Indices 1 2 3 4 5 6 
#
# 1 91.3438 45.2588 26.7091 5.8458 9.4200 -7.7107
# 2 45.2588 136.0469 36.7495 5.3856 -0.6358 -13.5210
# 3 26.7091 36.7495 74.9837 9.6236 -6.8803 -9.0110
# 4 5.8458 5.3856 9.6236 26.8442 -1.9412 -3.3582
# 5 9.4200 -0.6358 -6.8803 -1.9412 26.0618 6.1539
# 6 -7.7107 -13.5210 -9.0110 -3.3582 6.1539 30.9562
#
#
#
# Elastic Compliance Matrix: (Units=1/GPa)
#
#
# Indices 1 2 3 4 5 6 
#
# 1 0.014870 -0.003706 -0.003677 -0.001404 -0.007076 0.002269
# 2 -0.003706 0.009658 -0.003149 0.000310 0.000207 0.002371
# 3 -0.003677 -0.003149 0.017367 -0.004258 0.005221 0.001264
# 4 -0.001404 0.000310 -0.004258 0.039458 0.001745 0.002480
# 5 -0.007076 0.000207 0.005221 0.001745 0.044523 -0.008814
# 6 0.002269 0.002371 0.001264 0.002480 -0.008814 0.036294
#
#
# Mechanical properties :
#
#
# Convention : Reuss Voigt Hill
#
# Bulk Modulus (GPa) = 48.00449 57.75659 52.88054
# Shear Modulus (GPa) = 26.29119 29.68291 27.98705
#
# Velocity S-wave (km/s) = 3.55894 3.78154 3.67192
# Velocity P-wave (km/s) = 6.32571 6.84773 6.59189
#
# Compressibility (1/GPa) = 0.02083138
#
# Stress axis : x y z
#
# Youngs Moduli (GPa) = 67.24943 103.53871 57.58064
#
# Poissons Ratio (x) = 0.38366 0.21172
# Poissons Ratio (y) = 0.24919 0.18135
# Poissons Ratio (z) = 0.24727 0.32609
#
# Static dielectric constant tensor:
#      x y z
#    x 3.599030 0.078750 0.000030 
#    y 0.078750 3.867920 0.065340 
#    z 0.000030 0.065340 3.795690 
# 
# 
# High freq. dielectric constant tensor:
#      x y z
#    x 1.795880 0.006290 0.002490 
#    y 0.006290 1.825840 0.001990 
#    z 0.002490 0.001990 1.803340 
# 
# From -- ./inp_files/202159.got.cif
#   From: 2010.06.25/outbox.cif.g09.slc.cpg/sg2_102_cif.got.tgz:202159.got - 2010.06.27 13:26:56.
