data_PCOD8002555
_publ_section_title
;
Structure prediction by ZEFSAII (Michael W. Deem and Ramdas Pophale) SiO2 
 PCOD8002555
Probable space group: P -1
;
_chemical_formula_sum "Si O2"
_cell_formula_units_Z 14
_cell_length_a 17.259852
_cell_length_b 20.434518
_cell_length_c 22.689282
_cell_angle_alpha 17.487188
_cell_angle_beta 158.372701
_cell_angle_gamma 160.660966
_cell_volume 760.195696
_symmetry_space_group_name_H-M "P -1"
_symmetry_group_IT_number 2
_symmetry_cell_setting 'triclinic'
loop_
_space_group_symop_operation_xyz
x,y,z
-x,-y,-z
loop_
_atom_site_type_symbol
_atom_site_label
_atom_site_fract_x
_atom_site_fract_y
_atom_site_fract_z
Si Si1 0.322703 0.315511 0.609251
Si Si2 0.266717 0.167423 0.569002
Si Si3 0.462388 0.142188 0.438412
Si Si4 0.378012 0.630856 0.766822
Si Si5 0.712510 0.240226 0.766486
Si Si6 0.913443 0.935282 0.228788
Si Si7 0.818840 0.416610 0.562547
O O1 0.244702 0.139376 0.648081
O O2 0.612767 0.534253 0.620984
O O3 0.174516 0.467993 0.380738
O O4 0.263678 0.136438 0.777976
O O5 0.439556 0.067899 0.749850
O O6 0.000000 0.000000 0.500000
O O7 0.532976 0.328381 0.272676
O O8 0.656166 0.279023 0.509397
O O9 0.469210 0.895171 0.636978
O O10 0.193562 0.068591 0.333945
O O11 0.085242 0.452113 0.713280
O O12 0.500000 0.500000 0.000000
O O13 0.691266 0.240794 0.680328
O O14 0.884697 0.134105 0.998005
O O15 0.839939 0.688710 0.349340
#
# Coordination Sequence:
#
# PCOD8002555 Si02
#       7
#     2   2   2   2   2   2   2
#     4   8  19  35  53  74 108 140 173 225 266 305
#     4   9  18  36  55  75 108 139 178 224 266 308
#     4  10  22  36  56  81 109 142 174 222 264 310
#     4  10  21  38  58  80 108 142 179 215 264 317
#     4   9  19  36  54  78 107 143 178 218 266 317
#     4  10  20  36  54  79 111 140 180 216 266 319
#     4  10  21  37  54  81 114 137 176 225 260 311
#
# _framework density 18.416308999999998
#
# number of rings (size 3 to 8) (size 9 to 14) (size 15 to 20)
#    0.857    1.714    0.000    1.286    2.000    2.286 
#    2.571    0.714    0.000    0.000    0.000    0.000 
#    0.000    0.000    0.000    0.000    0.000    0.000 
#
# Total GULP energy -173520.112880 kJ/mol
# GULP energy per Si atom -12394.293777 kJ/mol
# Density = 1.837439 g / cm^3
# Si number density = 18.416309 Si / 1000 Ang^3
#
#
#
# Elastic Constant Matrix: (Units=GPa)
#
#
# Indices 1 2 3 4 5 6 
#
# 1 111.8287 53.7559 44.4708 11.4170 -23.0229 0.0886
# 2 53.7559 108.3380 44.5154 28.9420 -10.6509 -12.9391
# 3 44.4708 44.5154 119.8177 3.8198 -14.6718 -4.6417
# 4 11.4170 28.9420 3.8198 23.9284 1.1261 -5.0467
# 5 -23.0229 -10.6509 -14.6718 1.1261 23.6967 4.4959
# 6 0.0886 -12.9391 -4.6417 -5.0467 4.4959 21.0674
#
#
#
# Elastic Compliance Matrix: (Units=1/GPa)
#
#
# Indices 1 2 3 4 5 6 
#
# 1 0.015414 -0.005810 -0.002253 -0.002090 0.012451 -0.007288
# 2 -0.005810 0.019799 -0.004305 -0.019106 0.000243 0.006607
# 3 -0.002253 -0.004305 0.010942 0.004497 0.002371 0.000348
# 4 -0.002090 -0.019106 0.004497 0.067484 -0.012581 0.008115
# 5 0.012451 0.000243 0.002371 -0.012581 0.059329 -0.015055
# 6 -0.007288 0.006607 0.000348 0.008115 -0.015055 0.056789
#
#
# Mechanical properties :
#
#
# Convention : Reuss Voigt Hill
#
# Bulk Modulus (GPa) = 46.68785 69.49653 58.09219
# Shear Modulus (GPa) = 19.11078 26.88797 22.99938
#
# Velocity S-wave (km/s) = 3.22484 3.82515 3.53775
# Velocity P-wave (km/s) = 6.26678 7.57148 6.94982
#
# Compressibility (1/GPa) = 0.02141885
#
# Stress axis : x y z
#
# Youngs Moduli (GPa) = 64.87706 50.50696 91.39043
#
# Poissons Ratio (x) = 0.29346 0.20593
# Poissons Ratio (y) = 0.37695 0.39340
# Poissons Ratio (z) = 0.14619 0.21741
#
# Static dielectric constant tensor:
#      x y z
#    x 3.664540 0.145080 -0.034060 
#    y 0.145080 3.235660 -0.075080 
#    z -0.034060 -0.075080 3.097850 
# 
# 
# High freq. dielectric constant tensor:
#      x y z
#    x 1.731690 0.011590 -0.007240 
#    y 0.011590 1.698240 -0.001170 
#    z -0.007240 -0.001170 1.694430 
# 
# From -- ./inp_files/12251.got.cif
#   From: 2010.06.25/outbox.cif.g09.slc.cpg/sg2_7_cif.got.tgz:12251.got - 2010.06.27 13:26:56.
