data_PCOD8002504
_publ_section_title
;
Structure prediction by ZEFSAII (Michael W. Deem and Ramdas Pophale) SiO2 
 PCOD8002504
Probable space group: P -1
;
_chemical_formula_sum "Si O2"
_cell_formula_units_Z 16
_cell_length_a 5.135626
_cell_length_b 8.488608
_cell_length_c 19.877473
_cell_angle_alpha 123.978832
_cell_angle_beta 90.279326
_cell_angle_gamma 102.640917
_cell_volume 692.443885
_symmetry_space_group_name_H-M "P -1"
_symmetry_group_IT_number 2
_symmetry_cell_setting 'triclinic'
loop_
_space_group_symop_operation_xyz
x,y,z
-x,-y,-z
loop_
_atom_site_type_symbol
_atom_site_label
_atom_site_fract_x
_atom_site_fract_y
_atom_site_fract_z
Si Si1 0.614168 0.124903 0.392905
Si Si2 0.776247 0.210634 0.265928
Si Si3 0.779482 0.424384 0.037358
Si Si4 0.634446 0.566058 0.724539
Si Si5 0.984782 0.132296 0.648416
Si Si6 0.485708 0.224820 0.874510
Si Si7 0.323229 0.776777 0.443754
Si Si8 0.123958 0.570787 0.184589
O O1 0.708606 0.234744 0.349675
O O2 0.291868 0.029031 0.368915
O O3 0.711082 0.285460 0.492161
O O4 0.757450 0.950764 0.364876
O O5 0.595121 0.318619 0.247861
O O6 0.090852 0.304249 0.277409
O O7 0.720967 0.984559 0.189343
O O8 0.639463 0.594682 0.095252
O O9 0.922857 0.389263 0.099211
O O10 0.579373 0.232126 0.955703
O O11 0.000000 0.500000 0.000000
O O12 0.537236 0.365897 0.632442
O O13 0.678257 0.519146 0.791337
O O14 0.954485 0.214798 0.592474
O O15 0.046132 0.322056 0.742224
O O16 0.724436 0.261012 0.828262
O O17 0.500000 0.000000 0.500000
#
# Coordination Sequence:
#
# PCOD8002504 Si02
#       8
#     2   2   2   2   2   2   2   2
#     4  11  21  37  63  88 124 172 211 261 323 385
#     4  12  26  43  63  97 137 175 210 266 337 387
#     4   9  20  37  69 103 122 158 228 268 309 374
#     4  11  28  43  63  97 136 171 218 269 328 389
#     4  10  20  35  63  98 117 161 222 265 315 369
#     4  10  21  40  70  95 129 168 218 267 317 389
#     4   9  22  42  66  94 128 168 223 277 318 377
#     4  10  21  39  66  91 128 172 219 268 311 386
#
# _framework density 23.106563000000001
#
# number of rings (size 3 to 8) (size 9 to 14) (size 15 to 20)
#    0.000    1.750    1.250    1.875    5.250    8.000 
#    0.000    1.250    0.000    0.000    0.000    0.000 
#    0.000    0.000    0.000    0.000    0.000    0.000 
#
# Total GULP energy -198270.123673 kJ/mol
# GULP energy per Si atom -12391.882730 kJ/mol
# Density = 2.305397 g / cm^3
# Si number density = 23.106563 Si / 1000 Ang^3
#
#
#
# Elastic Constant Matrix: (Units=GPa)
#
#
# Indices 1 2 3 4 5 6 
#
# 1 47.9433 -3.7296 8.0139 4.2958 9.0364 1.5178
# 2 -3.7296 52.9002 38.0193 -6.5008 13.5915 -2.7650
# 3 8.0139 38.0193 156.9975 -25.9553 18.0951 -0.0567
# 4 4.2958 -6.5008 -25.9553 34.3736 -6.5581 5.9711
# 5 9.0364 13.5915 18.0951 -6.5581 26.2220 7.0556
# 6 1.5178 -2.7650 -0.0567 5.9711 7.0556 34.0971
#
#
#
# Elastic Compliance Matrix: (Units=1/GPa)
#
#
# Indices 1 2 3 4 5 6 
#
# 1 0.024555 0.005969 -0.002363 -0.006637 -0.012425 0.003120
# 2 0.005969 0.027054 -0.005801 -0.003748 -0.014515 0.005578
# 3 -0.002363 -0.005801 0.008958 0.006100 -0.000480 -0.001319
# 4 -0.006637 -0.003748 0.006100 0.037656 0.011873 -0.009050
# 5 -0.012425 -0.014515 -0.000480 0.011873 0.057152 -0.014530
# 6 0.003120 0.005578 -0.001319 -0.009050 -0.014530 0.034231
#
#
# Mechanical properties :
#
#
# Convention : Reuss Voigt Hill
#
# Bulk Modulus (GPa) = 17.80061 38.04980 27.92521
# Shear Modulus (GPa) = 23.50504 33.30769 28.40636
#
# Velocity S-wave (km/s) = 3.19289 3.80080 3.51003
# Velocity P-wave (km/s) = 4.61662 5.98033 5.34217
#
# Compressibility (1/GPa) = 0.05617784
#
# Stress axis : x y z
#
# Youngs Moduli (GPa) = 40.72487 36.96352 111.62869
#
# Poissons Ratio (x) = -0.22064 0.26377
# Poissons Ratio (y) = -0.24310 0.64754
# Poissons Ratio (z) = 0.09623 0.21442
#
# Static dielectric constant tensor:
#      x y z
#    x 3.984320 -0.154020 0.322820 
#    y -0.154020 3.990160 -0.498590 
#    z 0.322820 -0.498590 5.240460 
# 
# 
# High freq. dielectric constant tensor:
#      x y z
#    x 1.915710 -0.007030 0.006800 
#    y -0.007030 1.873620 -0.022410 
#    z 0.006800 -0.022410 1.936570 
# 
# From -- ./inp_files/137515.got.cif
#   From: 2010.06.25/outbox.cif.g09.slc.cpg/sg2_69_cif.got.tgz:137515.got - 2010.06.27 13:26:56.
