data_PCOD8002584
_publ_section_title
;
Structure prediction by ZEFSAII (Michael W. Deem and Ramdas Pophale) SiO2 
 PCOD8002584
Probable space group: P -1
;
_chemical_formula_sum "Si O2"
_cell_formula_units_Z 16
_cell_length_a 24.530872
_cell_length_b 10.974869
_cell_length_c 12.074024
_cell_angle_alpha 24.654239
_cell_angle_beta 142.441265
_cell_angle_gamma 141.005955
_cell_volume 805.714376
_symmetry_space_group_name_H-M "P -1"
_symmetry_group_IT_number 2
_symmetry_cell_setting 'triclinic'
loop_
_space_group_symop_operation_xyz
x,y,z
-x,-y,-z
loop_
_atom_site_type_symbol
_atom_site_label
_atom_site_fract_x
_atom_site_fract_y
_atom_site_fract_z
Si Si1 0.822573 0.650827 0.642121
Si Si2 0.487600 0.228227 0.117504
Si Si3 0.935647 0.696765 0.184168
Si Si4 0.625594 0.416419 0.461929
Si Si5 0.315453 0.705101 0.581421
Si Si6 0.095621 0.659839 0.780281
Si Si7 0.924556 0.783920 0.482833
Si Si8 0.192987 0.163749 0.948144
O O1 0.713001 0.556646 0.562956
O O2 0.849520 0.598683 0.600127
O O3 0.862017 0.990570 0.463736
O O4 0.863908 0.426540 0.968743
O O5 0.586174 0.143369 0.327878
O O6 0.417616 0.927184 0.293568
O O7 0.500000 0.500000 0.000000
O O8 0.446572 0.363038 0.830879
O O9 0.880286 0.529855 0.127062
O O10 0.000000 0.500000 0.500000
O O11 0.862763 0.756503 0.104487
O O12 0.000000 0.000000 0.000000
O O13 0.664120 0.437543 0.382668
O O14 0.247017 0.920859 0.274948
O O15 0.267885 0.454840 0.796413
O O16 0.983738 0.585709 0.674351
O O17 0.873018 0.946152 0.174022
O O18 0.000000 0.000000 0.500000
#
# Coordination Sequence:
#
# PCOD8002584 Si02
#       8
#     2   2   2   2   2   2   2   2
#     4  11  23  37  60  89 118 156 197 241 294 361
#     4  10  20  36  55  87 125 163 182 233 299 371
#     4  12  25  43  62  82 115 161 215 251 292 337
#     4  11  20  35  60  87 125 158 190 230 304 369
#     4  11  22  36  57  88 124 150 197 238 295 360
#     4  11  24  41  57  82 119 160 203 250 286 338
#     4  10  23  37  58  84 124 157 197 235 300 345
#     4  12  24  38  60  88 115 165 199 246 292 342
#
# _framework density 19.858153999999999
#
# number of rings (size 3 to 8) (size 9 to 14) (size 15 to 20)
#    0.000    1.000    2.500    6.375    5.250    0.000 
#    0.000    0.000    0.000    0.000    0.000   17.500 
#    0.000    0.000    0.000    0.000    0.000    0.000 
#
# Total GULP energy -198302.115325 kJ/mol
# GULP energy per Si atom -12393.882208 kJ/mol
# Density = 1.981296 g / cm^3
# Si number density = 19.858154 Si / 1000 Ang^3
#
#
#
# Elastic Constant Matrix: (Units=GPa)
#
#
# Indices 1 2 3 4 5 6 
#
# 1 99.3192 47.6994 51.8514 13.3334 -1.1645 8.8342
# 2 47.6994 112.1412 51.7146 12.5397 2.4699 29.4956
# 3 51.8514 51.7146 166.8106 35.0394 2.8877 30.5655
# 4 13.3334 12.5397 35.0394 40.5716 15.1285 6.4166
# 5 -1.1645 2.4699 2.8877 15.1285 29.6568 0.0441
# 6 8.8342 29.4956 30.5655 6.4166 0.0441 32.7617
#
#
#
# Elastic Compliance Matrix: (Units=1/GPa)
#
#
# Indices 1 2 3 4 5 6 
#
# 1 0.014317 -0.005669 -0.003203 -0.001739 0.002227 0.004569
# 2 -0.005669 0.014559 -0.000801 0.000343 -0.001516 -0.010897
# 3 -0.003203 -0.000801 0.009843 -0.007219 0.002674 -0.006188
# 4 -0.001739 0.000343 -0.007219 0.038555 -0.019061 -0.000631
# 5 0.002227 -0.001516 0.002674 -0.019061 0.043393 0.001944
# 6 0.004569 -0.010897 -0.006188 -0.000631 0.001944 0.044996
#
#
# Mechanical properties :
#
#
# Convention : Reuss Voigt Hill
#
# Bulk Modulus (GPa) = 51.61800 75.64466 63.63133
# Shear Modulus (GPa) = 26.11445 35.73172 30.92308
#
# Velocity S-wave (km/s) = 3.63029 4.24647 3.95042
# Velocity P-wave (km/s) = 6.60468 7.88787 7.27463
#
# Compressibility (1/GPa) = 0.01937309
#
# Stress axis : x y z
#
# Youngs Moduli (GPa) = 69.84944 68.68630 101.59878
#
# Poissons Ratio (x) = 0.38937 0.32543
# Poissons Ratio (y) = 0.39596 0.08134
# Poissons Ratio (z) = 0.22374 0.05499
#
# Static dielectric constant tensor:
#      x y z
#    x 3.900180 0.407710 0.344960 
#    y 0.407710 4.051330 0.229730 
#    z 0.344960 0.229730 4.261240 
# 
# 
# High freq. dielectric constant tensor:
#      x y z
#    x 1.739340 0.028320 0.001460 
#    y 0.028320 1.775300 0.007090 
#    z 0.001460 0.007090 1.797740 
# 
# From -- ./inp_files/474817.got.cif
#   From: 2010.06.25/outbox.cif.g09.slc.cpg/sg2_238_cif.got.tgz:474817.got - 2010.06.27 13:26:56.
