data_PCOD8002073
_publ_section_title
;
Structure prediction by ZEFSAII (Michael W. Deem and Ramdas Pophale) SiO2 
 PCOD8002073
Probable space group: P -1
;
_chemical_formula_sum "Si O2"
_cell_formula_units_Z 14
_cell_length_a 15.587665
_cell_length_b 11.657820
_cell_length_c 8.216203
_cell_angle_alpha 56.776045
_cell_angle_beta 110.001644
_cell_angle_gamma 143.238363
_cell_volume 733.360520
_symmetry_space_group_name_H-M "P -1"
_symmetry_group_IT_number 2
_symmetry_cell_setting 'triclinic'
loop_
_space_group_symop_operation_xyz
x,y,z
-x,-y,-z
loop_
_atom_site_type_symbol
_atom_site_label
_atom_site_fract_x
_atom_site_fract_y
_atom_site_fract_z
Si Si1 0.873490 0.158147 0.723995
Si Si2 0.347786 0.085955 0.960158
Si Si3 0.061316 0.572806 0.729681
Si Si4 0.675649 0.502881 0.779154
Si Si5 0.215678 0.667844 0.069866
Si Si6 0.811882 0.873112 0.372296
Si Si7 0.076541 0.042664 0.285383
O O1 0.857589 0.236597 0.496026
O O2 0.996726 0.360929 0.767335
O O3 0.916720 0.054739 0.783332
O O4 0.716945 0.970065 0.857849
O O5 0.515897 0.325604 0.890773
O O6 0.259010 0.072750 0.783134
O O7 0.332351 0.911233 0.029047
O O8 0.181946 0.665338 0.863474
O O9 0.931757 0.505314 0.784636
O O10 0.686912 0.615810 0.540270
O O11 0.791817 0.690822 0.845178
O O12 0.710482 0.392656 0.824692
O O13 0.908430 0.021607 0.481376
O O14 0.920811 0.937116 0.257928
#
# Coordination Sequence:
#
# PCOD8002073 Si02
#       7
#     2   2   2   2   2   2   2
#     4  10  20  35  54  85 117 141 178 230 282 326
#     4  11  22  35  57  83 115 149 180 219 284 332
#     4   9  20  35  60  84 107 143 189 234 271 314
#     4  10  21  36  57  83 114 143 185 228 272 324
#     4  10  20  36  62  79 106 145 196 226 266 320
#     4   9  20  37  58  84 106 145 190 228 264 321
#     4   9  20  35  60  78 114 137 189 230 269 314
#
# _framework density 19.090201
#
# number of rings (size 3 to 8) (size 9 to 14) (size 15 to 20)
#    0.857    1.429    0.000    2.571    6.000    1.143 
#    0.000    0.714    0.000    0.000    0.000    0.000 
#    0.000    0.000    0.000    0.000    0.000    0.000 
#
# Total GULP energy -173578.495319 kJ/mol
# GULP energy per Si atom -12398.463951 kJ/mol
# Density = 1.904675 g / cm^3
# Si number density = 19.090201 Si / 1000 Ang^3
#
#
#
# Elastic Constant Matrix: (Units=GPa)
#
#
# Indices 1 2 3 4 5 6 
#
# 1 107.9779 35.3942 25.7434 -14.8504 -5.3954 -19.0510
# 2 35.3942 50.2927 17.0001 -19.1773 -17.6139 -5.5733
# 3 25.7434 17.0001 74.1059 -13.9276 -12.1706 4.4364
# 4 -14.8504 -19.1773 -13.9276 31.7158 0.7179 -4.3698
# 5 -5.3954 -17.6139 -12.1706 0.7179 28.3922 -3.8904
# 6 -19.0510 -5.5733 4.4364 -4.3698 -3.8904 31.0769
#
#
#
# Elastic Compliance Matrix: (Units=1/GPa)
#
#
# Indices 1 2 3 4 5 6 
#
# 1 0.014318 -0.008876 -0.003798 0.000767 -0.003418 0.007407
# 2 -0.008876 0.046217 0.001238 0.025034 0.028215 0.009722
# 3 -0.003798 0.001238 0.016909 0.005850 0.006756 -0.002852
# 4 0.000767 0.025034 0.005850 0.051051 0.018763 0.013652
# 5 -0.003418 0.028215 0.006756 0.018763 0.056094 0.011660
# 6 0.007407 0.009722 -0.002852 0.013652 0.011660 0.042249
#
#
# Mechanical properties :
#
#
# Convention : Reuss Voigt Hill
#
# Bulk Modulus (GPa) = 18.32499 43.18356 30.75428
# Shear Modulus (GPa) = 18.66351 28.51958 23.59155
#
# Velocity S-wave (km/s) = 3.13013 3.86934 3.51920
# Velocity P-wave (km/s) = 4.76273 6.52934 5.71472
#
# Compressibility (1/GPa) = 0.05457028
#
# Stress axis : x y z
#
# Youngs Moduli (GPa) = 69.84244 21.63718 59.13881
#
# Poissons Ratio (x) = 0.19206 0.22463
# Poissons Ratio (y) = 0.61996 -0.07321
# Poissons Ratio (z) = 0.26528 -0.02678
#
# Static dielectric constant tensor:
#      x y z
#    x 3.374900 -0.129200 -0.088800 
#    y -0.129200 3.259510 -0.154760 
#    z -0.088800 -0.154760 3.482410 
# 
# 
# High freq. dielectric constant tensor:
#      x y z
#    x 1.740140 -0.014120 0.000950 
#    y -0.014120 1.720270 -0.014960 
#    z 0.000950 -0.014960 1.741320 
# 
# From -- ./inp_files/306532.got.cif
#   From: 2010.06.25/outbox.cif.g09.slc.cpg/sg2_154_cif.got.tgz:306532.got - 2010.06.27 13:26:56.
