data_PCOD8002056
_publ_section_title
;
Structure prediction by ZEFSAII (Michael W. Deem and Ramdas Pophale) SiO2 
 PCOD8002056
Probable space group: P -1
;
_chemical_formula_sum "Si O2"
_cell_formula_units_Z 12
_cell_length_a 7.462213
_cell_length_b 10.181599
_cell_length_c 11.418441
_cell_angle_alpha 138.163963
_cell_angle_beta 72.071452
_cell_angle_gamma 121.326664
_cell_volume 489.454063
_symmetry_space_group_name_H-M "P -1"
_symmetry_group_IT_number 2
_symmetry_cell_setting 'triclinic'
loop_
_space_group_symop_operation_xyz
x,y,z
-x,-y,-z
loop_
_atom_site_type_symbol
_atom_site_label
_atom_site_fract_x
_atom_site_fract_y
_atom_site_fract_z
Si Si1 0.282686 0.560859 0.513234
Si Si2 0.382384 0.713828 0.245086
Si Si3 0.182441 0.999714 0.542277
Si Si4 0.612274 0.708223 0.969510
Si Si5 0.311581 0.404659 0.637274
Si Si6 0.924782 0.135087 0.270882
O O1 0.211580 0.503411 0.626396
O O2 0.532346 0.663564 0.512349
O O3 0.213409 0.735101 0.592602
O O4 0.160054 0.322254 0.309366
O O5 0.567556 0.825953 0.379721
O O6 0.483180 0.769176 0.133516
O O7 0.193046 0.783014 0.342081
O O8 0.290790 0.451442 0.111292
O O9 0.126093 0.167778 0.574473
O O10 0.067812 0.966606 0.669703
O O11 0.819192 0.947309 0.066610
O O12 0.442669 0.604321 0.831392
#
# Coordination Sequence:
#
# PCOD8002056 Si02
#       6
#     2   2   2   2   2   2
#     4  10  22  36  50  74 108 138 164 202 258 308
#     4   8  14  26  49  80 100 124 168 212 246 292
#     4   9  16  31  55  73  96 135 174 202 242 305
#     4   9  16  28  52  78 100 127 170 214 246 287
#     4  10  20  35  54  76 102 134 170 208 250 299
#     4  10  20  35  54  76 102 134 170 208 250 299
#
# _framework density 24.517109000000001
#
# number of rings (size 3 to 8) (size 9 to 14) (size 15 to 20)
#    0.000    2.667    0.000    5.000    0.000    2.000 
#    0.000    0.000    0.000    2.000    0.000    0.000 
#    0.000    1.333    0.000    0.000    0.000    0.000 
#
# Total GULP energy -148715.722925 kJ/mol
# GULP energy per Si atom -12392.976910 kJ/mol
# Density = 2.446131 g / cm^3
# Si number density = 24.517109 Si / 1000 Ang^3
#
#
#
# Elastic Constant Matrix: (Units=GPa)
#
#
# Indices 1 2 3 4 5 6 
#
# 1 73.1457 26.3085 25.6868 11.9376 3.6005 -7.0088
# 2 26.3085 100.2209 23.8627 16.8201 18.7965 -8.0354
# 3 25.6868 23.8627 120.4158 23.2482 25.3835 -2.0066
# 4 11.9376 16.8201 23.2482 36.2421 5.0147 13.6274
# 5 3.6005 18.7965 25.3835 5.0147 36.6755 -0.3622
# 6 -7.0088 -8.0354 -2.0066 13.6274 -0.3622 40.2340
#
#
#
# Elastic Compliance Matrix: (Units=1/GPa)
#
#
# Indices 1 2 3 4 5 6 
#
# 1 0.016607 -0.003255 -0.002585 -0.003937 0.002400 0.003469
# 2 -0.003255 0.013171 0.000597 -0.006148 -0.005962 0.004122
# 3 -0.002585 0.000597 0.011596 -0.006816 -0.007122 0.002492
# 4 -0.003937 -0.006148 -0.006816 0.041974 0.002353 -0.016449
# 5 0.002400 -0.005962 -0.007122 0.002353 0.034678 -0.001613
# 6 0.003469 0.004122 0.002492 -0.016449 -0.001613 0.031963
#
#
# Mechanical properties :
#
#
# Convention : Reuss Voigt Hill
#
# Bulk Modulus (GPa) = 32.37592 49.49982 40.93787
# Shear Modulus (GPa) = 29.27883 37.15859 33.21871
#
# Velocity S-wave (km/s) = 3.45950 3.89732 3.68492
# Velocity P-wave (km/s) = 5.40293 6.36285 5.90243
#
# Compressibility (1/GPa) = 0.03088715
#
# Stress axis : x y z
#
# Youngs Moduli (GPa) = 60.21607 75.92501 86.23388
#
# Poissons Ratio (x) = 0.24713 0.22295
# Poissons Ratio (y) = 0.19600 -0.05147
# Poissons Ratio (z) = 0.15568 -0.04531
#
# Static dielectric constant tensor:
#      x y z
#    x 4.692280 -0.063980 0.345540 
#    y -0.063980 4.619960 0.228000 
#    z 0.345540 0.228000 4.411670 
# 
# 
# High freq. dielectric constant tensor:
#      x y z
#    x 1.977050 0.007750 0.024500 
#    y 0.007750 1.990230 0.014990 
#    z 0.024500 0.014990 1.961060 
# 
# From -- ./inp_files/162488.got.cif
#   From: 2010.06.25/outbox.cif.g09.slc.cpg/sg2_82_cif.got.tgz:162488.got - 2010.06.27 13:26:56.
