data_PCOD8002483
_publ_section_title
;
Structure prediction by ZEFSAII (Michael W. Deem and Ramdas Pophale) SiO2 
 PCOD8002483
Probable space group: P -1
;
_chemical_formula_sum "Si O2"
_cell_formula_units_Z 16
_cell_length_a 12.727890
_cell_length_b 9.050097
_cell_length_c 10.233464
_cell_angle_alpha 74.116525
_cell_angle_beta 43.235126
_cell_angle_gamma 72.262779
_cell_volume 766.651785
_symmetry_space_group_name_H-M "P -1"
_symmetry_group_IT_number 2
_symmetry_cell_setting 'triclinic'
loop_
_space_group_symop_operation_xyz
x,y,z
-x,-y,-z
loop_
_atom_site_type_symbol
_atom_site_label
_atom_site_fract_x
_atom_site_fract_y
_atom_site_fract_z
Si Si1 0.109459 0.290242 0.687360
Si Si2 0.286484 0.491693 0.638898
Si Si3 0.501148 0.718559 0.320081
Si Si4 0.966045 0.897374 0.726630
Si Si5 0.121372 0.766438 0.874352
Si Si6 0.353329 0.124179 0.067728
Si Si7 0.911127 0.801506 0.535383
Si Si8 0.348546 0.986031 0.559255
O O1 0.154584 0.443256 0.676346
O O2 0.047250 0.329063 0.584602
O O3 0.259435 0.156931 0.565366
O O4 0.975970 0.230479 0.906333
O O5 0.390644 0.588307 0.432164
O O6 0.383802 0.335690 0.649865
O O7 0.215910 0.595514 0.800876
O O8 0.593940 0.736476 0.098480
O O9 0.399423 0.885954 0.406298
O O10 0.012778 0.784907 0.582127
O O11 0.008127 0.804884 0.843487
O O12 0.777881 0.951626 0.877538
O O13 0.062735 0.038379 0.598901
O O14 0.235453 0.890993 0.766365
O O15 0.270222 0.193110 0.260201
O O16 0.500000 0.000000 0.000000
O O17 0.500000 0.000000 0.500000
#
# Coordination Sequence:
#
# PCOD8002483 Si02
#       8
#     2   2   2   2   2   2   2   2
#     4  12  21  39  60  95 122 159 209 265 304 361
#     4  10  23  38  62  88 129 169 201 254 311 379
#     4  10  21  40  60  91 124 164 208 250 318 377
#     4   9  20  38  58  89 123 161 200 256 309 375
#     4  11  23  39  65  89 128 167 209 247 319 372
#     4  10  20  35  63  88 116 163 208 252 306 374
#     4   9  21  36  59  87 126 150 205 261 310 355
#     4  11  22  34  61  95 123 152 203 273 308 347
#
# _framework density 20.869971
#
# number of rings (size 3 to 8) (size 9 to 14) (size 15 to 20)
#    0.750    1.000    2.500    2.250    1.750    0.000 
#    0.000    1.250    0.000    0.000    0.000    0.000 
#    0.000    0.000    0.000    0.000    0.000    0.000 
#
# Total GULP energy -198250.834601 kJ/mol
# GULP energy per Si atom -12390.677163 kJ/mol
# Density = 2.082247 g / cm^3
# Si number density = 20.869971 Si / 1000 Ang^3
#
#
#
# Elastic Constant Matrix: (Units=GPa)
#
#
# Indices 1 2 3 4 5 6 
#
# 1 86.6847 10.4197 45.2672 -6.4922 -4.0504 15.8456
# 2 10.4197 50.3429 21.7957 -4.9803 -0.4090 2.1223
# 3 45.2672 21.7957 154.6992 -12.4073 7.4254 3.3888
# 4 -6.4922 -4.9803 -12.4073 25.6217 3.2968 -3.2123
# 5 -4.0504 -0.4090 7.4254 3.2968 31.4880 3.5187
# 6 15.8456 2.1223 3.3888 -3.2123 3.5187 28.0003
#
#
#
# Elastic Compliance Matrix: (Units=1/GPa)
#
#
# Indices 1 2 3 4 5 6 
#
# 1 0.015800 -0.000917 -0.004494 0.000018 0.004066 -0.008837
# 2 -0.000917 0.021444 -0.002563 0.002551 0.000562 -0.000574
# 3 -0.004494 -0.002563 0.008498 0.003205 -0.003228 0.002482
# 4 0.000018 0.002551 0.003205 0.042444 -0.005723 0.004997
# 5 0.004066 0.000562 -0.003228 -0.005723 0.034424 -0.006935
# 6 -0.008837 -0.000574 0.002482 0.004997 -0.006935 0.041903
#
#
# Mechanical properties :
#
#
# Convention : Reuss Voigt Hill
#
# Bulk Modulus (GPa) = 33.56402 49.63243 41.59823
# Shear Modulus (GPa) = 26.26158 31.30497 28.78328
#
# Velocity S-wave (km/s) = 3.55116 3.87719 3.71775
# Velocity P-wave (km/s) = 5.73861 6.62396 6.19712
#
# Compressibility (1/GPa) = 0.02979381
#
# Stress axis : x y z
#
# Youngs Moduli (GPa) = 63.29195 46.63261 117.67603
#
# Poissons Ratio (x) = 0.04277 0.52886
# Poissons Ratio (y) = 0.05804 0.30158
# Poissons Ratio (z) = 0.28445 0.11951
#
# Static dielectric constant tensor:
#      x y z
#    x 3.741010 0.090120 -0.066300 
#    y 0.090120 3.532000 0.005090 
#    z -0.066300 0.005090 3.943190 
# 
# 
# High freq. dielectric constant tensor:
#      x y z
#    x 1.811870 0.006340 -0.007860 
#    y 0.006340 1.786190 -0.005500 
#    z -0.007860 -0.005500 1.824650 
# 
# From -- ./inp_files/445730.got.cif
#   From: 2010.06.25/outbox.cif.g09.slc.cpg/sg2_223_cif.got.tgz:445730.got - 2010.06.27 13:26:56.
