data_PCOD8002323
_publ_section_title
;
Structure prediction by ZEFSAII (Michael W. Deem and Ramdas Pophale) SiO2 
 PCOD8002323
Probable space group: P -1
;
_chemical_formula_sum "Si O2"
_cell_formula_units_Z 16
_cell_length_a 11.828803
_cell_length_b 13.859697
_cell_length_c 8.683768
_cell_angle_alpha 51.331286
_cell_angle_beta 54.935456
_cell_angle_gamma 41.836833
_cell_volume 724.997554
_symmetry_space_group_name_H-M "P -1"
_symmetry_group_IT_number 2
_symmetry_cell_setting 'triclinic'
loop_
_space_group_symop_operation_xyz
x,y,z
-x,-y,-z
loop_
_atom_site_type_symbol
_atom_site_label
_atom_site_fract_x
_atom_site_fract_y
_atom_site_fract_z
Si Si1 0.684767 0.356410 0.560615
Si Si2 0.311957 0.142834 0.660646
Si Si3 0.975060 0.691260 0.711221
Si Si4 0.229775 0.777392 0.674708
Si Si5 0.693375 0.006695 0.483239
Si Si6 0.025800 0.265625 0.987977
Si Si7 0.523966 0.561690 0.076180
Si Si8 0.793076 0.593305 0.741870
O O1 0.500000 0.500000 0.500000
O O2 0.762914 0.205799 0.534887
O O3 0.650465 0.328813 0.791674
O O4 0.829468 0.387271 0.423205
O O5 0.512941 0.047260 0.643073
O O6 0.217470 0.155639 0.878328
O O7 0.235728 0.314043 0.484389
O O8 0.280766 0.049099 0.657294
O O9 0.893155 0.620133 0.761054
O O10 0.852542 0.876482 0.593174
O O11 0.973000 0.662552 0.922625
O O12 0.310338 0.842924 0.647951
O O13 0.336548 0.592271 0.784854
O O14 0.041314 0.839157 0.826442
O O15 0.906118 0.406945 0.817334
O O16 0.500000 0.500000 0.000000
O O17 0.601652 0.656563 0.888628
#
# Coordination Sequence:
#
# PCOD8002323 Si02
#       8
#     2   2   2   2   2   2   2   2
#     4   9  20  38  58  84 114 147 187 238 294 338
#     4  10  22  39  58  82 119 156 193 237 285 345
#     4  10  22  39  60  86 119 152 193 241 286 348
#     4   9  20  38  57  81 115 149 188 234 285 345
#     4  10  22  40  56  80 119 160 193 230 285 346
#     4  10  21  36  59  88 111 147 197 246 292 332
#     4  10  20  35  59  89 115 145 191 240 288 338
#     4  10  21  38  59  87 119 150 191 243 293 340
#
# _framework density 22.069037999999999
#
# number of rings (size 3 to 8) (size 9 to 14) (size 15 to 20)
#    0.000    2.250    0.000    2.250    0.000   11.000 
#    0.000    7.500    0.000    0.000    0.000    0.000 
#    0.000    0.000    0.000    0.000    0.000    0.000 
#
# Total GULP energy -198252.357054 kJ/mol
# GULP energy per Si atom -12390.772316 kJ/mol
# Density = 2.201881 g / cm^3
# Si number density = 22.069038 Si / 1000 Ang^3
#
#
#
# Elastic Constant Matrix: (Units=GPa)
#
#
# Indices 1 2 3 4 5 6 
#
# 1 131.0788 30.2432 57.8664 19.6471 -26.3552 -0.0752
# 2 30.2432 60.3284 45.3287 24.2768 -12.4448 -7.7806
# 3 57.8664 45.3287 125.7812 52.6994 -17.7114 2.4691
# 4 19.6471 24.2768 52.6994 45.6885 -5.6046 -4.5063
# 5 -26.3552 -12.4448 -17.7114 -5.6046 29.5266 -6.2683
# 6 -0.0752 -7.7806 2.4691 -4.5063 -6.2683 33.3561
#
#
#
# Elastic Compliance Matrix: (Units=1/GPa)
#
#
# Indices 1 2 3 4 5 6 
#
# 1 0.011104 -0.001272 -0.004599 0.002292 0.007428 0.001774
# 2 -0.001272 0.025936 -0.005879 -0.004913 0.006846 0.007105
# 3 -0.004599 -0.005879 0.020216 -0.018622 0.000900 -0.005225
# 4 0.002292 -0.004913 -0.018622 0.045442 -0.001266 0.006139
# 5 0.007428 0.006846 0.000900 -0.001266 0.045802 0.009983
# 6 0.001774 0.007105 -0.005225 0.006139 0.009983 0.034733
#
#
# Mechanical properties :
#
#
# Convention : Reuss Voigt Hill
#
# Bulk Modulus (GPa) = 29.62414 64.89610 47.26012
# Shear Modulus (GPa) = 22.93738 33.96425 28.45081
#
# Velocity S-wave (km/s) = 3.22739 3.92726 3.59440
# Velocity P-wave (km/s) = 5.22882 7.07349 6.21992
#
# Compressibility (1/GPa) = 0.03375625
#
# Stress axis : x y z
#
# Youngs Moduli (GPa) = 90.05908 38.55612 49.46540
#
# Poissons Ratio (x) = 0.04904 0.22750
# Poissons Ratio (y) = 0.11456 0.29079
# Poissons Ratio (z) = 0.41420 0.22666
#
# Static dielectric constant tensor:
#      x y z
#    x 3.920590 -0.200810 -0.014460 
#    y -0.200810 3.932730 0.208320 
#    z -0.014460 0.208320 4.324500 
# 
# 
# High freq. dielectric constant tensor:
#      x y z
#    x 1.874600 -0.010030 -0.005970 
#    y -0.010030 1.846410 0.014960 
#    z -0.005970 0.014960 1.864340 
# 
# From -- ./inp_files/215532.got.cif
#   From: 2010.06.25/outbox.cif.g09.slc.cpg/sg2_108_cif.got.tgz:215532.got - 2010.06.27 13:26:56.
