data_PCOD8002285
_publ_section_title
;
Structure prediction by ZEFSAII (Michael W. Deem and Ramdas Pophale) SiO2 
 PCOD8002285
Probable space group: P -1
;
_chemical_formula_sum "Si O2"
_cell_formula_units_Z 14
_cell_length_a 8.630101
_cell_length_b 12.491131
_cell_length_c 9.246603
_cell_angle_alpha 61.912931
_cell_angle_beta 116.585464
_cell_angle_gamma 78.999232
_cell_volume 676.948177
_symmetry_space_group_name_H-M "P -1"
_symmetry_group_IT_number 2
_symmetry_cell_setting 'triclinic'
loop_
_space_group_symop_operation_xyz
x,y,z
-x,-y,-z
loop_
_atom_site_type_symbol
_atom_site_label
_atom_site_fract_x
_atom_site_fract_y
_atom_site_fract_z
Si Si1 0.282923 0.822460 0.515472
Si Si2 0.113246 0.824956 0.742368
Si Si3 0.705946 0.649095 0.681256
Si Si4 0.700884 0.910389 0.381346
Si Si5 0.859531 0.969554 0.157273
Si Si6 0.983236 0.347742 0.993114
Si Si7 0.731046 0.945515 0.817860
O O1 0.273862 0.793996 0.701348
O O2 0.481721 0.693769 0.609519
O O3 0.087788 0.836312 0.344320
O O4 0.278309 0.969982 0.385403
O O5 0.886116 0.922900 0.519456
O O6 0.126207 0.683416 0.899245
O O7 0.151135 0.897901 0.848924
O O8 0.708523 0.763373 0.503609
O O9 0.834409 0.633670 0.887079
O O10 0.813981 0.492608 0.752818
O O11 0.714472 0.924573 0.205530
O O12 0.488078 0.039304 0.267983
O O13 0.781697 0.013090 0.933557
O O14 0.090392 0.216145 0.012410
#
# Coordination Sequence:
#
# PCOD8002285 Si02
#       7
#     2   2   2   2   2   2   2
#     4  10  20  35  59  82 107 145 183 225 269 328
#     4  10  21  34  60  84 114 135 186 230 276 314
#     4   9  21  37  56  81 108 148 190 222 263 326
#     4   9  20  37  59  81 108 148 184 224 265 333
#     4  11  21  35  55  90 114 136 176 242 275 318
#     4  10  21  36  55  81 115 143 183 229 269 323
#     4  11  22  34  59  84 113 143 184 222 283 319
#
# _framework density 20.681052000000001
#
# number of rings (size 3 to 8) (size 9 to 14) (size 15 to 20)
#    0.000    2.000    1.429    2.571    6.000    2.286 
#    0.000    1.429    0.000    0.000    0.000    0.000 
#    0.000    0.000    0.000    0.000    0.000    0.000 
#
# Total GULP energy -173464.021681 kJ/mol
# GULP energy per Si atom -12390.287263 kJ/mol
# Density = 2.063398 g / cm^3
# Si number density = 20.681052 Si / 1000 Ang^3
#
#
#
# Elastic Constant Matrix: (Units=GPa)
#
#
# Indices 1 2 3 4 5 6 
#
# 1 146.3843 40.5929 35.7142 -10.9663 -0.8338 -20.7247
# 2 40.5929 83.3709 41.2449 -17.3568 1.6815 -12.5923
# 3 35.7142 41.2449 56.4239 -7.6870 0.4638 -9.8936
# 4 -10.9663 -17.3568 -7.6870 40.4403 -2.9855 9.8559
# 5 -0.8338 1.6815 0.4638 -2.9855 23.1667 -1.2767
# 6 -20.7247 -12.5923 -9.8936 9.8559 -1.2767 19.7755
#
#
#
# Elastic Compliance Matrix: (Units=1/GPa)
#
#
# Indices 1 2 3 4 5 6 
#
# 1 0.009109 -0.001926 -0.003208 -0.000631 0.000841 0.007083
# 2 -0.001926 0.020722 -0.012832 0.005399 -0.000509 0.002033
# 3 -0.003208 -0.012832 0.029626 -0.001746 0.000228 0.004174
# 4 -0.000631 0.005399 -0.001746 0.029867 0.002764 -0.012803
# 5 0.000841 -0.000509 0.000228 0.002764 0.043701 0.002115
# 6 0.007083 0.002033 0.004174 -0.012803 0.002115 0.067890
#
#
# Mechanical properties :
#
#
# Convention : Reuss Voigt Hill
#
# Bulk Modulus (GPa) = 42.51112 57.92033 50.21572
# Shear Modulus (GPa) = 20.43417 27.91828 24.17623
#
# Velocity S-wave (km/s) = 3.14676 3.67815 3.42278
# Velocity P-wave (km/s) = 5.81403 6.79011 6.32094
#
# Compressibility (1/GPa) = 0.02352326
#
# Stress axis : x y z
#
# Youngs Moduli (GPa) = 109.78753 48.25783 33.75447
#
# Poissons Ratio (x) = 0.09296 0.10829
# Poissons Ratio (y) = 0.21147 0.43314
# Poissons Ratio (z) = 0.35222 0.61925
#
# Static dielectric constant tensor:
#      x y z
#    x 4.238690 -0.157660 -0.077410 
#    y -0.157660 3.458430 -0.191970 
#    z -0.077410 -0.191970 3.687770 
# 
# 
# High freq. dielectric constant tensor:
#      x y z
#    x 1.837150 -0.006830 -0.002960 
#    y -0.006830 1.767990 -0.000440 
#    z -0.002960 -0.000440 1.786980 
# 
# From -- ./inp_files/186029.got.cif
#   From: 2010.06.25/outbox.cif.g09.slc.cpg/sg2_94_cif.got.tgz:186029.got - 2010.06.27 13:26:56.
