data_PCOD8002713
_publ_section_title
;
Structure prediction by ZEFSAII (Michael W. Deem and Ramdas Pophale) SiO2 
 PCOD8002713
Probable space group: P -1
;
_chemical_formula_sum "Si O2"
_cell_formula_units_Z 16
_cell_length_a 9.110281
_cell_length_b 8.361725
_cell_length_c 14.214968
_cell_angle_alpha 125.983283
_cell_angle_beta 63.449079
_cell_angle_gamma 96.846976
_cell_volume 768.291787
_symmetry_space_group_name_H-M "P -1"
_symmetry_group_IT_number 2
_symmetry_cell_setting 'triclinic'
loop_
_space_group_symop_operation_xyz
x,y,z
-x,-y,-z
loop_
_atom_site_type_symbol
_atom_site_label
_atom_site_fract_x
_atom_site_fract_y
_atom_site_fract_z
Si Si1 0.270890 0.583248 0.235221
Si Si2 0.422847 0.552459 0.775425
Si Si3 0.050359 0.867648 0.272895
Si Si4 0.086728 0.680788 0.510274
Si Si5 0.905897 0.160702 0.960375
Si Si6 0.369145 0.440468 0.447925
Si Si7 0.794026 0.643493 0.360670
Si Si8 0.923134 0.729154 0.874797
O O1 0.460026 0.551943 0.208277
O O2 0.133254 0.659060 0.380519
O O3 0.237761 0.374703 0.126679
O O4 0.228290 0.759962 0.230232
O O5 0.534546 0.663206 0.709315
O O6 0.354891 0.377099 0.676989
O O7 0.276090 0.717584 0.917087
O O8 0.891585 0.811222 0.353267
O O9 0.048398 0.784475 0.138822
O O10 0.034393 0.106696 0.362149
O O11 0.252122 0.648654 0.516817
O O12 0.000000 0.500000 0.500000
O O13 0.899288 0.925357 0.884501
O O14 0.052033 0.211846 0.003143
O O15 0.500000 0.500000 0.500000
O O16 0.270782 0.301831 0.493596
O O17 0.911054 0.423249 0.258796
#
# Coordination Sequence:
#
# PCOD8002713 Si02
#       8
#     2   2   2   2   2   2   2   2
#     4  10  21  36  54  82 116 147 183 233 287 328
#     4   9  20  35  55  82 117 154 187 227 278 337
#     4  11  22  36  59  85 113 147 187 232 280 336
#     4  11  21  37  60  84 112 145 189 236 280 331
#     4  10  20  36  58  84 111 150 195 227 273 334
#     4   9  18  36  58  79 109 148 187 230 275 325
#     4   9  18  36  59  82 111 147 191 237 278 323
#     4   9  19  36  59  82 108 146 194 236 268 325
#
# _framework density 20.825422
#
# number of rings (size 3 to 8) (size 9 to 14) (size 15 to 20)
#    0.000    2.250    0.000    3.375    0.000    6.500 
#    0.000    6.875    0.000    6.000    0.000    0.000 
#    0.000    0.000    0.000    0.000    0.000    0.000 
#
# Total GULP energy -198276.084409 kJ/mol
# GULP energy per Si atom -12392.255276 kJ/mol
# Density = 2.077802 g / cm^3
# Si number density = 20.825422 Si / 1000 Ang^3
#
#
#
# Elastic Constant Matrix: (Units=GPa)
#
#
# Indices 1 2 3 4 5 6 
#
# 1 109.5671 45.8120 23.5335 9.1501 7.2758 -24.0097
# 2 45.8120 106.3783 46.6885 -6.8466 3.3510 -12.4059
# 3 23.5335 46.6885 75.2431 -5.4398 5.5028 -0.6158
# 4 9.1501 -6.8466 -5.4398 37.1120 0.6243 4.1051
# 5 7.2758 3.3510 5.5028 0.6243 24.0425 -7.5061
# 6 -24.0097 -12.4059 -0.6158 4.1051 -7.5061 29.6532
#
#
#
# Elastic Compliance Matrix: (Units=1/GPa)
#
#
# Indices 1 2 3 4 5 6 
#
# 1 0.014140 -0.004337 -0.002077 -0.005749 0.000210 0.010441
# 2 -0.004337 0.015214 -0.008026 0.002356 0.001851 0.002829
# 3 -0.002077 -0.008026 0.019403 0.002639 -0.004695 -0.006190
# 4 -0.005749 0.002356 0.002639 0.030163 -0.002615 -0.008452
# 5 0.000210 0.001851 -0.004695 -0.002615 0.046463 0.012970
# 6 0.010441 0.002829 -0.006190 -0.008452 0.012970 0.047685
#
#
# Mechanical properties :
#
#
# Convention : Reuss Voigt Hill
#
# Bulk Modulus (GPa) = 50.30657 58.13963 54.22310
# Shear Modulus (GPa) = 23.97228 29.83852 26.90540
#
# Velocity S-wave (km/s) = 3.39648 3.78933 3.59827
# Velocity P-wave (km/s) = 6.29207 6.86466 6.58460
#
# Compressibility (1/GPa) = 0.01987812
#
# Stress axis : x y z
#
# Youngs Moduli (GPa) = 70.71904 65.72986 51.53763
#
# Poissons Ratio (x) = 0.28508 0.10704
# Poissons Ratio (y) = 0.30671 0.41362
# Poissons Ratio (z) = 0.14688 0.52752
#
# Static dielectric constant tensor:
#      x y z
#    x 3.251250 -0.223710 1.012240 
#    y -0.223710 3.870390 -0.386890 
#    z 1.012240 -0.386890 2.767680 
# 
# 
# High freq. dielectric constant tensor:
#      x y z
#    x 1.825700 -0.023220 0.009840 
#    y -0.023220 1.801670 -0.018920 
#    z 0.009840 -0.018920 1.800070 
# 
# From -- ./inp_files/333498.got.cif
#   From: 2010.06.25/outbox.cif.g09.slc.cpg/sg2_167_cif.got.tgz:333498.got - 2010.06.27 13:26:56.
