data_PCOD8002870
_publ_section_title
;
Structure prediction by ZEFSAII (Michael W. Deem and Ramdas Pophale) SiO2 
 PCOD8002870
Probable space group: P -1
;
_chemical_formula_sum "Si O2"
_cell_formula_units_Z 16
_cell_length_a 18.792601
_cell_length_b 12.563585
_cell_length_c 12.489707
_cell_angle_alpha 53.431952
_cell_angle_beta 32.176802
_cell_angle_gamma 32.360853
_cell_volume 763.537337
_symmetry_space_group_name_H-M "P -1"
_symmetry_group_IT_number 2
_symmetry_cell_setting 'triclinic'
loop_
_space_group_symop_operation_xyz
x,y,z
-x,-y,-z
loop_
_atom_site_type_symbol
_atom_site_label
_atom_site_fract_x
_atom_site_fract_y
_atom_site_fract_z
Si Si1 0.668133 0.745142 0.731946
Si Si2 0.687929 0.895064 0.402533
Si Si3 0.903069 0.511565 0.010933
Si Si4 0.198074 0.645784 0.635020
Si Si5 0.077768 0.967922 0.749354
Si Si6 0.067698 0.252031 0.485466
Si Si7 0.812365 0.856327 0.842421
Si Si8 0.327588 0.782979 0.753583
O O1 0.662043 0.831668 0.579463
O O2 0.766409 0.758916 0.692792
O O3 0.816100 0.497840 0.675788
O O4 0.422989 0.888343 0.989486
O O5 0.920791 0.682975 0.179793
O O6 0.500000 0.000000 0.500000
O O7 0.660184 0.069577 0.358802
O O8 0.767482 0.733608 0.989817
O O9 0.761121 0.496998 0.238019
O O10 0.000000 0.500000 0.000000
O O11 0.141790 0.830817 0.647301
O O12 0.430108 0.470435 0.381761
O O13 0.998158 0.764019 0.741189
O O14 0.229669 0.805309 0.753390
O O15 0.112004 0.094285 0.601770
O O16 0.822593 0.143409 0.999675
O O17 0.104548 0.178020 0.361325
#
# Coordination Sequence:
#
# PCOD8002870 Si02
#       8
#     2   2   2   2   2   2   2   2
#     4  11  24  43  66  96 130 168 210 270 327 382
#     4  12  20  38  72  99 128 161 210 278 326 373
#     4  10  20  36  60 101 127 152 199 267 329 373
#     4  11  23  42  67  95 128 163 214 271 328 379
#     4  11  25  44  63  92 131 176 217 255 320 395
#     4  11  25  44  63  92 131 176 217 255 320 395
#     4  11  23  42  67  95 128 163 214 271 328 379
#     4  11  24  43  66  96 130 168 210 270 327 382
#
# _framework density 20.955099000000001
#
# number of rings (size 3 to 8) (size 9 to 14) (size 15 to 20)
#    0.000    1.000    3.750    4.500    0.000    1.500 
#    0.000    1.250    0.000    0.000    0.000    0.000 
#    0.000    0.000    0.000    0.000    0.000    0.000 
#
# Total GULP energy -198438.742024 kJ/mol
# GULP energy per Si atom -12402.421377 kJ/mol
# Density = 2.090740 g / cm^3
# Si number density = 20.955099 Si / 1000 Ang^3
#
#
#
# Elastic Constant Matrix: (Units=GPa)
#
#
# Indices 1 2 3 4 5 6 
#
# 1 84.3773 22.7541 29.8138 19.2455 2.4516 3.3609
# 2 22.7541 67.8707 49.6704 11.3225 5.4672 3.2088
# 3 29.8138 49.6704 98.4016 44.0014 -7.8043 4.0825
# 4 19.2455 11.3225 44.0014 41.6849 -1.7996 0.1804
# 5 2.4516 5.4672 -7.8043 -1.7996 33.8899 4.7307
# 6 3.3609 3.2088 4.0825 0.1804 4.7307 27.3052
#
#
#
# Elastic Compliance Matrix: (Units=1/GPa)
#
#
# Indices 1 2 3 4 5 6 
#
# 1 0.014189 -0.003891 0.000267 -0.005791 -0.000476 -0.001208
# 2 -0.003891 0.030319 -0.022469 0.016877 -0.009132 0.001746
# 3 0.000267 -0.022469 0.037116 -0.032701 0.011064 -0.004643
# 4 -0.005791 0.016877 -0.032701 0.056255 -0.007481 0.004543
# 5 -0.000476 -0.009132 0.011064 -0.007481 0.034055 -0.006373
# 6 -0.001208 0.001746 -0.004643 0.004543 -0.006373 0.038335
#
#
# Mechanical properties :
#
#
# Convention : Reuss Voigt Hill
#
# Bulk Modulus (GPa) = 33.96808 50.56958 42.26883
# Shear Modulus (GPa) = 18.36422 30.47008 24.41715
#
# Velocity S-wave (km/s) = 2.96355 3.81736 3.41722
# Velocity P-wave (km/s) = 5.28728 6.60412 5.98204
#
# Compressibility (1/GPa) = 0.02943941
#
# Stress axis : x y z
#
# Youngs Moduli (GPa) = 70.47535 32.98215 26.94255
#
# Poissons Ratio (x) = 0.12833 -0.00719
# Poissons Ratio (y) = 0.27420 0.60537
# Poissons Ratio (z) = -0.01881 0.74107
#
# Static dielectric constant tensor:
#      x y z
#    x 3.760810 0.006370 0.041910 
#    y 0.006370 3.894380 0.102170 
#    z 0.041910 0.102170 3.952790 
# 
# 
# High freq. dielectric constant tensor:
#      x y z
#    x 1.817970 0.003960 0.008370 
#    y 0.003960 1.814180 0.013030 
#    z 0.008370 0.013030 1.829140 
# 
# From -- ./inp_files/426715.got.cif
#   From: 2010.06.25/outbox.cif.g09.slc.cpg/sg2_214_cif.got.tgz:426715.got - 2010.06.27 13:26:56.
