data_PCOD8002022
_publ_section_title
;
Structure prediction by ZEFSAII (Michael W. Deem and Ramdas Pophale) SiO2 
 PCOD8002022
Probable space group: P -1
;
_chemical_formula_sum "Si O2"
_cell_formula_units_Z 14
_cell_length_a 14.669326
_cell_length_b 24.441723
_cell_length_c 24.968734
_cell_angle_alpha 167.981120
_cell_angle_beta 28.125086
_cell_angle_gamma 153.199045
_cell_volume 836.757075
_symmetry_space_group_name_H-M "P -1"
_symmetry_group_IT_number 2
_symmetry_cell_setting 'triclinic'
loop_
_space_group_symop_operation_xyz
x,y,z
-x,-y,-z
loop_
_atom_site_type_symbol
_atom_site_label
_atom_site_fract_x
_atom_site_fract_y
_atom_site_fract_z
Si Si1 0.215377 0.812226 0.561174
Si Si2 0.024850 0.717295 0.274404
Si Si3 0.865206 0.494056 0.512550
Si Si4 0.607171 0.878833 0.046009
Si Si5 0.539730 0.161752 0.797443
Si Si6 0.821318 0.150508 0.798143
Si Si7 0.626428 0.587206 0.964643
O O1 0.255111 0.630621 0.317936
O O2 0.000973 0.655247 0.548005
O O3 0.396804 0.871730 0.568895
O O4 0.211945 0.105656 0.819049
O O5 0.226705 0.829607 0.313205
O O6 0.075367 0.776428 0.242871
O O7 0.865068 0.868787 0.523567
O O8 0.922922 0.387643 0.016201
O O9 0.000000 0.500000 0.500000
O O10 0.772691 0.176188 0.239491
O O11 0.691755 0.637074 0.749787
O O12 0.542299 0.800787 0.065745
O O13 0.416899 0.886084 0.115552
O O14 0.523302 0.409757 0.004862
O O15 0.500000 0.500000 0.000000
#
# Coordination Sequence:
#
# PCOD8002022 Si02
#       7
#     2   2   2   2   2   2   2
#     4  10  21  32  48  72  97 129 160 193 236 282
#     4   9  17  29  45  63  94 125 163 191 234 275
#     4  12  20  32  47  70  99 135 166 192 224 281
#     4  11  21  31  48  69 104 135 167 189 227 276
#     4   9  21  29  51  71 100 131 161 193 239 285
#     4   9  18  30  42  65  92 131 160 196 225 269
#     4  10  20  35  50  69  99 127 156 202 248 283
#
# _framework density 16.731259999999999
#
# number of rings (size 3 to 8) (size 9 to 14) (size 15 to 20)
#    0.857    1.143    1.429    3.429    2.000    2.286 
#    0.000    0.000    0.000    0.000    0.000    0.000 
#    0.000   22.857    0.000    0.000    0.000    0.000 
#
# Total GULP energy -173512.711445 kJ/mol
# GULP energy per Si atom -12393.765103 kJ/mol
# Density = 1.669318 g / cm^3
# Si number density = 16.731260 Si / 1000 Ang^3
#
#
#
# Elastic Constant Matrix: (Units=GPa)
#
#
# Indices 1 2 3 4 5 6 
#
# 1 32.9709 32.3092 13.9495 -1.8320 -1.3580 -1.1775
# 2 32.3092 74.4972 18.7508 -3.3960 1.4284 -1.2754
# 3 13.9495 18.7508 104.7406 -5.1933 -0.7818 4.0822
# 4 -1.8320 -3.3960 -5.1933 31.1295 1.9439 -0.3763
# 5 -1.3580 1.4284 -0.7818 1.9439 15.7786 -2.9398
# 6 -1.1775 -1.2754 4.0822 -0.3763 -2.9398 29.7225
#
#
#
# Elastic Compliance Matrix: (Units=1/GPa)
#
#
# Indices 1 2 3 4 5 6 
#
# 1 0.054539 -0.022954 -0.003204 -0.000243 0.007074 0.002312
# 2 -0.022954 0.023814 -0.001168 0.001324 -0.004379 -0.000144
# 3 -0.003204 -0.001168 0.010313 0.001393 -0.000127 -0.001588
# 4 -0.000243 0.001324 0.001393 0.032743 -0.004131 -0.000138
# 5 0.007074 -0.004379 -0.000127 -0.004131 0.066114 0.006597
# 6 0.002312 -0.000144 -0.001588 -0.000138 0.006597 0.034599
#
#
# Mechanical properties :
#
#
# Convention : Reuss Voigt Hill
#
# Bulk Modulus (GPa) = 29.39835 38.02531 33.71183
# Shear Modulus (GPa) = 17.35438 25.13940 21.24689
#
# Velocity S-wave (km/s) = 3.22412 3.88047 3.56742
# Velocity P-wave (km/s) = 5.60972 6.54628 6.09601
#
# Compressibility (1/GPa) = 0.03401552
#
# Stress axis : x y z
#
# Youngs Moduli (GPa) = 18.33547 41.99175 96.96371
#
# Poissons Ratio (x) = 0.96389 0.31064
# Poissons Ratio (y) = 0.42088 0.11322
# Poissons Ratio (z) = 0.05874 0.04903
#
# Static dielectric constant tensor:
#      x y z
#    x 2.774180 0.176100 -0.036890 
#    y 0.176100 3.076000 0.080340 
#    z -0.036890 0.080340 3.368730 
# 
# 
# High freq. dielectric constant tensor:
#      x y z
#    x 1.595830 0.017890 -0.002900 
#    y 0.017890 1.630690 0.006620 
#    z -0.002900 0.006620 1.662760 
# 
# From -- ./inp_files/79698.got.cif
#   From: 2010.06.25/outbox.cif.g09.slc.cpg/sg2_40_cif.got.tgz:79698.got - 2010.06.27 13:26:56.
