data_PCOD8002480
_publ_section_title
;
Structure prediction by ZEFSAII (Michael W. Deem and Ramdas Pophale) SiO2 
 PCOD8002480
Probable space group: P -1
;
_chemical_formula_sum "Si O2"
_cell_formula_units_Z 16
_cell_length_a 16.268417
_cell_length_b 8.685997
_cell_length_c 8.914046
_cell_angle_alpha 85.486218
_cell_angle_beta 41.523161
_cell_angle_gamma 76.064620
_cell_volume 800.285365
_symmetry_space_group_name_H-M "P -1"
_symmetry_group_IT_number 2
_symmetry_cell_setting 'triclinic'
loop_
_space_group_symop_operation_xyz
x,y,z
-x,-y,-z
loop_
_atom_site_type_symbol
_atom_site_label
_atom_site_fract_x
_atom_site_fract_y
_atom_site_fract_z
Si Si1 0.097304 0.511355 0.671365
Si Si2 0.483992 0.095648 0.361022
Si Si3 0.979867 0.790253 0.630459
Si Si4 0.125383 0.629539 0.937360
Si Si5 0.987456 0.911975 0.286432
Si Si6 0.729692 0.825820 0.588683
Si Si7 0.400617 0.396486 0.638583
Si Si8 0.685022 0.823832 0.989511
O O1 0.098130 0.630777 0.798170
O O2 0.219849 0.358215 0.521257
O O3 0.084124 0.619713 0.532552
O O4 0.969116 0.453957 0.843198
O O5 0.371871 0.075065 0.401983
O O6 0.449903 0.282823 0.435293
O O7 0.500000 0.000000 0.500000
O O8 0.620066 0.013812 0.099499
O O9 0.021093 0.832218 0.408877
O O10 0.833831 0.777902 0.837399
O O11 0.996889 0.910424 0.730930
O O12 0.268387 0.528967 0.782623
O O13 0.092166 0.813121 0.030211
O O14 0.842270 0.915220 0.437475
O O15 0.666881 0.810925 0.837065
O O16 0.500000 0.500000 0.500000
O O17 0.387773 0.290700 0.812396
#
# Coordination Sequence:
#
# PCOD8002480 Si02
#       8
#     2   2   2   2   2   2   2   2
#     4  10  20  35  63  85 119 149 192 240 292 354
#     4  10  22  41  61  82 120 159 198 243 289 346
#     4  10  20  39  57  94 120 153 189 233 300 346
#     4  10  20  36  57  85 116 155 189 243 288 347
#     4   9  22  35  61  91 124 148 189 239 288 359
#     4  10  20  40  61  91 116 153 201 238 293 353
#     4  11  23  40  57  85 115 154 205 243 292 343
#     4  10  22  38  64  83 116 164 192 244 290 351
#
# _framework density 19.99287
#
# number of rings (size 3 to 8) (size 9 to 14) (size 15 to 20)
#    0.000    2.000    2.500    0.375    3.500    2.000 
#    4.500    0.625    0.000    0.000    0.000    0.000 
#    0.000    0.000    0.000    0.000    0.000    0.000 
#
# Total GULP energy -198235.459622 kJ/mol
# GULP energy per Si atom -12389.716226 kJ/mol
# Density = 1.994737 g / cm^3
# Si number density = 19.992870 Si / 1000 Ang^3
#
#
#
# Elastic Constant Matrix: (Units=GPa)
#
#
# Indices 1 2 3 4 5 6 
#
# 1 203.8273 -3.4912 91.0975 16.9414 21.7181 -33.0882
# 2 -3.4912 74.2683 -8.8300 -7.7137 -13.6041 14.2349
# 3 91.0975 -8.8300 127.3038 20.4396 15.1411 -17.6504
# 4 16.9414 -7.7137 20.4396 31.2103 0.1791 -2.0944
# 5 21.7181 -13.6041 15.1411 0.1791 27.6776 5.1741
# 6 -33.0882 14.2349 -17.6504 -2.0944 5.1741 44.8828
#
#
#
# Elastic Compliance Matrix: (Units=1/GPa)
#
#
# Indices 1 2 3 4 5 6 
#
# 1 0.008798 -0.002842 -0.004435 -0.002107 -0.007049 0.006358
# 2 -0.002842 0.018009 -0.000440 0.005589 0.013010 -0.009219
# 3 -0.004435 -0.000440 0.012704 -0.005860 -0.004033 0.002058
# 4 -0.002107 0.005589 -0.005860 0.038033 0.008259 -0.004807
# 5 -0.007049 0.013010 -0.004033 0.008259 0.053326 -0.016671
# 6 0.006358 -0.009219 0.002058 -0.004807 -0.016671 0.032398
#
#
# Mechanical properties :
#
#
# Convention : Reuss Voigt Hill
#
# Bulk Modulus (GPa) = 41.53234 62.55024 52.04129
# Shear Modulus (GPa) = 26.77698 42.52901 34.65299
#
# Velocity S-wave (km/s) = 3.66365 4.61717 4.16777
# Velocity P-wave (km/s) = 6.22215 7.73166 7.01761
#
# Compressibility (1/GPa) = 0.02407762
#
# Stress axis : x y z
#
# Youngs Moduli (GPa) = 113.66642 55.52638 78.71616
#
# Poissons Ratio (x) = 0.15782 0.34907
# Poissons Ratio (y) = 0.32308 0.03462
# Poissons Ratio (z) = 0.50406 0.02442
#
# Static dielectric constant tensor:
#      x y z
#    x 3.701610 0.116960 0.118170 
#    y 0.116960 3.842930 0.574730 
#    z 0.118170 0.574730 4.250820 
# 
# 
# High freq. dielectric constant tensor:
#      x y z
#    x 1.786620 -0.004660 0.011160 
#    y -0.004660 1.775060 0.025650 
#    z 0.011160 0.025650 1.770180 
# 
# From -- ./inp_files/179206.got.cif
#   From: 2010.06.25/outbox.cif.g09.slc.cpg/sg2_90_cif.got.tgz:179206.got - 2010.06.27 13:26:56.
