data_PCOD8002850
_publ_section_title
;
Structure prediction by ZEFSAII (Michael W. Deem and Ramdas Pophale) SiO2 
 PCOD8002850
Probable space group: P -1
;
_chemical_formula_sum "Si O2"
_cell_formula_units_Z 12
_cell_length_a 9.808137
_cell_length_b 14.441186
_cell_length_c 9.948794
_cell_angle_alpha 111.866163
_cell_angle_beta 151.513538
_cell_angle_gamma 57.450471
_cell_volume 548.562547
_symmetry_space_group_name_H-M "P -1"
_symmetry_group_IT_number 2
_symmetry_cell_setting 'triclinic'
loop_
_space_group_symop_operation_xyz
x,y,z
-x,-y,-z
loop_
_atom_site_type_symbol
_atom_site_label
_atom_site_fract_x
_atom_site_fract_y
_atom_site_fract_z
Si Si1 0.463113 0.045860 0.642380
Si Si2 0.809598 0.191424 0.056771
Si Si3 0.820044 0.803615 0.884241
Si Si4 0.442728 0.549418 0.689358
Si Si5 0.190688 0.414632 0.738495
Si Si6 0.565987 0.332329 0.517982
O O1 0.091085 0.145622 0.391382
O O2 0.500000 0.000000 0.500000
O O3 0.563073 0.935502 0.763857
O O4 0.711746 0.093290 0.905218
O O5 0.946941 0.210554 0.046940
O O6 0.508456 0.307247 0.903149
O O7 0.637571 0.731323 0.655923
O O8 0.049377 0.755056 0.187383
O O9 0.488260 0.429441 0.612928
O O10 0.525783 0.616236 0.682839
O O11 0.063758 0.623020 0.441652
O O12 0.691506 0.525561 0.014898
O O13 0.000000 0.500000 0.500000
#
# Coordination Sequence:
#
# PCOD8002850 Si02
#       6
#     2   2   2   2   2   2
#     4  10  20  36  59  90 124 156 197 253 306 350
#     4  11  22  38  60  92 127 156 193 254 312 357
#     4  11  20  37  64  94 120 156 209 251 304 358
#     4  11  25  43  61  90 125 163 204 249 306 354
#     4  12  25  42  64  90 124 163 202 244 307 379
#     4  11  23  40  65  90 122 161 207 257 292 356
#
# _framework density 21.875353
#
# number of rings (size 3 to 8) (size 9 to 14) (size 15 to 20)
#    0.000    1.000    0.000    9.500    0.000    6.667 
#    0.000    0.000    0.000   20.000    0.000    0.000 
#    0.000    0.000    0.000    0.000    0.000    0.000 
#
# Total GULP energy -148786.414456 kJ/mol
# GULP energy per Si atom -12398.867871 kJ/mol
# Density = 2.182556 g / cm^3
# Si number density = 21.875353 Si / 1000 Ang^3
#
#
#
# Elastic Constant Matrix: (Units=GPa)
#
#
# Indices 1 2 3 4 5 6 
#
# 1 71.2124 52.0696 45.1328 1.0428 1.2307 5.2037
# 2 52.0696 130.6745 61.0622 -10.0755 0.1158 23.4607
# 3 45.1328 61.0622 164.1833 -7.2256 1.3369 9.6412
# 4 1.0428 -10.0755 -7.2256 54.8555 1.0512 11.9424
# 5 1.2307 0.1158 1.3369 1.0512 36.5953 1.9577
# 6 5.2037 23.4607 9.6412 11.9424 1.9577 29.9759
#
#
#
# Elastic Compliance Matrix: (Units=1/GPa)
#
#
# Indices 1 2 3 4 5 6 
#
# 1 0.022023 -0.008424 -0.003384 -0.003556 -0.000773 0.005325
# 2 -0.008424 0.014402 -0.002177 0.004925 0.000771 -0.011122
# 3 -0.003384 -0.002177 0.007902 0.000833 -0.000161 -0.000571
# 4 -0.003556 0.004925 0.000833 0.021981 0.000099 -0.012269
# 5 -0.000773 0.000771 -0.000161 0.000099 0.027473 -0.002251
# 6 0.005325 -0.011122 -0.000571 -0.012269 -0.002251 0.046359
#
#
# Mechanical properties :
#
#
# Convention : Reuss Voigt Hill
#
# Bulk Modulus (GPa) = 61.13347 75.84436 68.48891
# Shear Modulus (GPa) = 28.80807 38.13906 33.47356
#
# Velocity S-wave (km/s) = 3.63287 4.18002 3.91601
# Velocity P-wave (km/s) = 6.75307 7.61861 7.19886
#
# Compressibility (1/GPa) = 0.01635765
#
# Stress axis : x y z
#
# Youngs Moduli (GPa) = 45.40769 69.43259 126.54631
#
# Poissons Ratio (x) = 0.58488 0.42822
# Poissons Ratio (y) = 0.38250 0.27553
# Poissons Ratio (z) = 0.15366 0.15117
#
# Static dielectric constant tensor:
#      x y z
#    x 3.921330 1.151000 -0.406690 
#    y 1.151000 10.778490 -3.958560 
#    z -0.406690 -3.958560 6.664330 
# 
# 
# High freq. dielectric constant tensor:
#      x y z
#    x 1.825410 0.016450 0.014290 
#    y 0.016450 1.867430 -0.007680 
#    z 0.014290 -0.007680 1.891120 
# 
# From -- ./inp_files/197711.got.cif
#   From: 2010.06.25/outbox.cif.g09.slc.cpg/sg2_99_cif.got.tgz:197711.got - 2010.06.27 13:26:56.
