data_PCOD8002838
_publ_section_title
;
Structure prediction by ZEFSAII (Michael W. Deem and Ramdas Pophale) SiO2 
 PCOD8002838
Probable space group: P -1
;
_chemical_formula_sum "Si O2"
_cell_formula_units_Z 14
_cell_length_a 8.380280
_cell_length_b 13.820701
_cell_length_c 14.218551
_cell_angle_alpha 29.925029
_cell_angle_beta 67.275008
_cell_angle_gamma 84.153691
_cell_volume 653.484972
_symmetry_space_group_name_H-M "P -1"
_symmetry_group_IT_number 2
_symmetry_cell_setting 'triclinic'
loop_
_space_group_symop_operation_xyz
x,y,z
-x,-y,-z
loop_
_atom_site_type_symbol
_atom_site_label
_atom_site_fract_x
_atom_site_fract_y
_atom_site_fract_z
Si Si1 0.804161 0.851811 0.374411
Si Si2 0.222211 0.432153 0.202591
Si Si3 0.200594 0.690795 0.572851
Si Si4 0.343793 0.354141 0.050540
Si Si5 0.771433 0.920597 0.871289
Si Si6 0.517405 0.496386 0.388627
Si Si7 0.469244 0.855654 0.537175
O O1 0.823133 0.725756 0.565900
O O2 0.697975 0.688152 0.447830
O O3 0.676851 0.969269 0.334329
O O4 0.036617 0.028675 0.149684
O O5 0.213901 0.298569 0.221605
O O6 0.036641 0.479666 0.206788
O O7 0.447826 0.651586 0.973488
O O8 0.305313 0.547703 0.645723
O O9 0.296231 0.838798 0.521740
O O10 0.241221 0.857248 0.334933
O O11 0.209912 0.177881 0.150427
O O12 0.414291 0.605394 0.788606
O O13 0.575523 0.738551 0.126761
O O14 0.500000 0.500000 0.500000
O O15 0.500000 0.000000 0.500000
#
# Coordination Sequence:
#
# PCOD8002838 Si02
#       7
#     2   2   2   2   2   2   2
#     4   9  21  40  59  92 126 158 210 254 306 371
#     4   9  19  35  57  87 129 157 213 232 291 377
#     4  10  23  39  60  95 121 160 217 248 304 378
#     4  10  20  36  59  88 131 181 189 239 322 348
#     4  11  22  41  66  87 129 163 201 259 313 367
#     4  11  24  48  66  87 124 158 208 275 316 359
#     4  10  21  34  52  89 132 163 208 250 286 369
#
# _framework density 21.423598999999999
#
# number of rings (size 3 to 8) (size 9 to 14) (size 15 to 20)
#    0.000    2.000    4.286    0.000    8.000    4.000 
#    2.571    2.857    0.000    0.000    0.000    0.000 
#    0.000    0.000    0.000    0.000    0.000    0.000 
#
# Total GULP energy -173489.134216 kJ/mol
# GULP energy per Si atom -12392.081015 kJ/mol
# Density = 2.137484 g / cm^3
# Si number density = 21.423599 Si / 1000 Ang^3
#
#
#
# Elastic Constant Matrix: (Units=GPa)
#
#
# Indices 1 2 3 4 5 6 
#
# 1 123.4036 32.3927 26.8588 0.6907 -25.3144 15.2577
# 2 32.3927 76.2145 30.5545 15.8301 -11.1379 27.4884
# 3 26.8588 30.5545 35.3249 0.8516 -6.5986 15.3830
# 4 0.6907 15.8301 0.8516 25.6387 7.8288 4.6221
# 5 -25.3144 -11.1379 -6.5986 7.8288 32.0294 -2.1245
# 6 15.2577 27.4884 15.3830 4.6221 -2.1245 31.3514
#
#
#
# Elastic Compliance Matrix: (Units=1/GPa)
#
#
# Indices 1 2 3 4 5 6 
#
# 1 0.011365 -0.000128 -0.006345 -0.002226 0.008080 -0.001430
# 2 -0.000128 0.031482 -0.018070 -0.019438 0.010875 -0.015072
# 3 -0.006345 -0.018070 0.051298 0.012454 -0.004329 -0.008368
# 4 -0.002226 -0.019438 0.012454 0.056178 -0.019524 0.002410
# 5 0.008080 0.010875 -0.004329 -0.019524 0.044909 -0.005421
# 6 -0.001430 -0.015072 -0.008368 0.002410 -0.005421 0.049190
#
#
# Mechanical properties :
#
#
# Convention : Reuss Voigt Hill
#
# Bulk Modulus (GPa) = 22.19304 46.06166 34.12735
# Shear Modulus (GPa) = 16.20600 27.47973 21.84286
#
# Velocity S-wave (km/s) = 2.75336 3.58534 3.19654
# Velocity P-wave (km/s) = 4.52655 6.21986 5.43950
#
# Compressibility (1/GPa) = 0.04505917
#
# Stress axis : x y z
#
# Youngs Moduli (GPa) = 87.99206 31.76418 19.49402
#
# Poissons Ratio (x) = 0.00406 0.12369
# Poissons Ratio (y) = 0.01124 0.35226
# Poissons Ratio (z) = 0.55830 0.57398
#
# Static dielectric constant tensor:
#      x y z
#    x 4.440820 0.083270 -0.216570 
#    y 0.083270 3.695520 -0.022950 
#    z -0.216570 -0.022950 3.902810 
# 
# 
# High freq. dielectric constant tensor:
#      x y z
#    x 1.855980 0.016810 -0.005240 
#    y 0.016810 1.805040 -0.001780 
#    z -0.005240 -0.001780 1.829610 
# 
# From -- ./inp_files/197683.got.cif
#   From: 2010.06.25/outbox.cif.g09.slc.cpg/sg2_99_cif.got.tgz:197683.got - 2010.06.27 13:26:56.
