data_PCOD8002913
_publ_section_title
;
Structure prediction by ZEFSAII (Michael W. Deem and Ramdas Pophale) SiO2 
 PCOD8002913
Probable space group: P -1
;
_chemical_formula_sum "Si O2"
_cell_formula_units_Z 16
_cell_length_a 22.932712
_cell_length_b 9.500522
_cell_length_c 11.189539
_cell_angle_alpha 112.480412
_cell_angle_beta 142.491400
_cell_angle_gamma 39.290294
_cell_volume 751.566618
_symmetry_space_group_name_H-M "P -1"
_symmetry_group_IT_number 2
_symmetry_cell_setting 'triclinic'
loop_
_space_group_symop_operation_xyz
x,y,z
-x,-y,-z
loop_
_atom_site_type_symbol
_atom_site_label
_atom_site_fract_x
_atom_site_fract_y
_atom_site_fract_z
Si Si1 0.666361 0.744012 0.814987
Si Si2 0.360444 0.356974 0.509074
Si Si3 0.546346 0.420270 0.215441
Si Si4 0.032892 0.177708 0.913308
Si Si5 0.077416 0.337453 0.819155
Si Si6 0.057129 0.809101 0.804731
Si Si7 0.167299 0.085904 0.350099
Si Si8 0.214792 0.928429 0.728368
O O1 0.633544 0.661963 0.631715
O O2 0.488541 0.056834 0.675029
O O3 0.782056 0.722350 0.933618
O O4 0.770413 0.527576 0.024232
O O5 0.422609 0.440211 0.677516
O O6 0.172835 0.570475 0.326570
O O7 0.650779 0.209642 0.204145
O O8 0.624719 0.222769 0.392389
O O9 0.336193 0.674641 0.940383
O O10 0.073721 0.212022 0.870642
O O11 0.121489 0.894332 0.958732
O O12 0.120606 0.151785 0.156186
O O13 0.891076 0.672765 0.611940
O O14 0.134014 0.189408 0.737119
O O15 0.932801 0.920031 0.747898
O O16 0.950198 0.946644 0.550344
#
# Coordination Sequence:
#
# PCOD8002913 Si02
#       8
#     2   2   2   2   2   2   2   2
#     4  10  22  36  63  89 115 146 192 250 279 338
#     4  11  19  37  61  87 115 146 195 237 288 330
#     4  10  20  37  62  86 109 154 199 243 270 333
#     4  12  21  37  62  87 119 152 184 240 297 342
#     4  11  23  37  55  91 122 152 182 233 304 340
#     4  10  20  37  60  87 108 156 201 234 269 345
#     4  10  20  36  60  88 112 149 197 237 284 343
#     4  10  21  38  57  85 117 155 193 236 280 339
#
# _framework density 21.288862999999999
#
# number of rings (size 3 to 8) (size 9 to 14) (size 15 to 20)
#    0.000    1.500    6.250    1.500    0.000    5.000 
#    0.000    1.875    0.000    1.500    0.000    0.000 
#    0.000    0.000    0.000    0.000    0.000    0.000 
#
# Total GULP energy -198309.787693 kJ/mol
# GULP energy per Si atom -12394.361731 kJ/mol
# Density = 2.124041 g / cm^3
# Si number density = 21.288863 Si / 1000 Ang^3
#
#
#
# Elastic Constant Matrix: (Units=GPa)
#
#
# Indices 1 2 3 4 5 6 
#
# 1 47.1884 36.3243 12.8022 -1.4870 -9.1671 8.9750
# 2 36.3243 145.7992 56.4848 -11.3853 -12.4017 -4.4569
# 3 12.8022 56.4848 136.3757 -29.9548 -16.4885 -5.5854
# 4 -1.4870 -11.3853 -29.9548 37.9975 -0.1626 -10.3264
# 5 -9.1671 -12.4017 -16.4885 -0.1626 11.1714 -0.9882
# 6 8.9750 -4.4569 -5.5854 -10.3264 -0.9882 22.9071
#
#
#
# Elastic Compliance Matrix: (Units=1/GPa)
#
#
# Indices 1 2 3 4 5 6 
#
# 1 0.033510 -0.007905 0.000612 -0.004820 0.018149 -0.015908
# 2 -0.007905 0.010326 -0.002620 0.002233 0.001633 0.005545
# 3 0.000612 -0.002620 0.013824 0.012711 0.018994 0.009170
# 4 -0.004820 0.002233 0.012711 0.044007 0.020236 0.026133
# 5 0.018149 0.001633 0.018994 0.020236 0.135682 0.012814
# 6 -0.015908 0.005545 0.009170 0.026133 0.012814 0.065535
#
#
# Mechanical properties :
#
#
# Convention : Reuss Voigt Hill
#
# Bulk Modulus (GPa) = 26.43008 60.06511 43.24760
# Shear Modulus (GPa) = 14.91109 29.33201 22.12155
#
# Velocity S-wave (km/s) = 2.64941 3.71591 3.22703
# Velocity P-wave (km/s) = 4.66917 6.83274 5.85181
#
# Compressibility (1/GPa) = 0.03783568
#
# Stress axis : x y z
#
# Youngs Moduli (GPa) = 29.84202 96.84454 72.33666
#
# Poissons Ratio (x) = 0.76554 -0.04430
# Poissons Ratio (y) = 0.23589 0.18950
# Poissons Ratio (z) = -0.01828 0.25371
#
# Static dielectric constant tensor:
#      x y z
#    x 3.221530 -0.052150 -0.153680 
#    y -0.052150 4.167440 -0.298610 
#    z -0.153680 -0.298610 4.409950 
# 
# 
# High freq. dielectric constant tensor:
#      x y z
#    x 1.769420 -0.006420 -0.015510 
#    y -0.006420 1.852890 -0.015380 
#    z -0.015510 -0.015380 1.845490 
# 
# From -- ./inp_files/354588.got.cif
#   From: 2010.06.25/outbox.cif.g09.slc.cpg/sg2_178_cif.got.tgz:354588.got - 2010.06.27 13:26:56.
