data_PCOD8002472
_publ_section_title
;
Structure prediction by ZEFSAII (Michael W. Deem and Ramdas Pophale) SiO2 
 PCOD8002472
Probable space group: P -1
;
_chemical_formula_sum "Si O2"
_cell_formula_units_Z 16
_cell_length_a 11.680488
_cell_length_b 13.965896
_cell_length_c 15.603031
_cell_angle_alpha 140.804203
_cell_angle_beta 25.790199
_cell_angle_gamma 126.473410
_cell_volume 648.530118
_symmetry_space_group_name_H-M "P -1"
_symmetry_group_IT_number 2
_symmetry_cell_setting 'triclinic'
loop_
_space_group_symop_operation_xyz
x,y,z
-x,-y,-z
loop_
_atom_site_type_symbol
_atom_site_label
_atom_site_fract_x
_atom_site_fract_y
_atom_site_fract_z
Si Si1 0.733918 0.740178 0.025696
Si Si2 0.113945 0.955582 0.629986
Si Si3 0.712968 0.493595 0.151021
Si Si4 0.031204 0.554250 0.224746
Si Si5 0.247297 0.077126 0.289753
Si Si6 0.331463 0.090485 0.974848
Si Si7 0.787204 0.313145 0.133199
Si Si8 0.704841 0.206939 0.281974
O O1 0.811187 0.551559 0.871775
O O2 0.706882 0.748772 0.945081
O O3 0.970916 0.808260 0.944392
O O4 0.443241 0.848107 0.344407
O O5 0.027296 0.945226 0.581336
O O6 0.929202 0.885041 0.767820
O O7 0.056706 0.144378 0.819492
O O8 0.472448 0.675631 0.441540
O O9 0.747845 0.428198 0.984376
O O10 0.000000 0.500000 0.000000
O O11 0.627074 0.375043 0.192335
O O12 0.820643 0.730753 0.519412
O O13 0.870650 0.454436 0.215611
O O14 0.500000 0.000000 0.000000
O O15 0.361131 0.977133 0.232112
O O16 0.325548 0.967141 0.815315
O O17 0.583321 0.277101 0.316361
#
# Coordination Sequence:
#
# PCOD8002472 Si02
#       8
#     2   2   2   2   2   2   2   2
#     4  11  25  40  66  99 141 179 217 269 343 406
#     4  10  24  42  69  98 136 176 227 272 331 398
#     4  10  20  35  62  98 134 170 216 277 327 384
#     4  10  23  40  67  99 133 172 221 276 334 395
#     4  10  23  47  71  94 130 178 228 283 325 393
#     4  10  22  42  68  96 134 179 224 276 331 394
#     4   9  20  39  66 100 130 172 223 278 324 391
#     4  10  21  37  63 100 140 172 218 277 339 395
#
# _framework density 24.671174000000001
#
# number of rings (size 3 to 8) (size 9 to 14) (size 15 to 20)
#    0.000    2.000    0.000    2.250    7.000   10.500 
#    0.000    2.500    0.000    0.000    0.000    0.000 
#    0.000    0.000    0.000    0.000    0.000    0.000 
#
# Total GULP energy -198218.004983 kJ/mol
# GULP energy per Si atom -12388.625311 kJ/mol
# Density = 2.461502 g / cm^3
# Si number density = 24.671174 Si / 1000 Ang^3
#
#
#
# Elastic Constant Matrix: (Units=GPa)
#
#
# Indices 1 2 3 4 5 6 
#
# 1 113.2120 46.4018 51.1720 17.5207 -3.6513 -31.5965
# 2 46.4018 55.5047 34.1435 16.8040 10.9151 -36.2643
# 3 51.1720 34.1435 158.7704 12.8061 2.2867 -6.4539
# 4 17.5207 16.8040 12.8061 23.6363 -1.0328 0.4596
# 5 -3.6513 10.9151 2.2867 -1.0328 33.8102 -0.8345
# 6 -31.5965 -36.2643 -6.4539 0.4596 -0.8345 51.7425
#
#
#
# Elastic Compliance Matrix: (Units=1/GPa)
#
#
# Indices 1 2 3 4 5 6 
#
# 1 0.015226 -0.010023 -0.002530 -0.002611 0.005022 0.002062
# 2 -0.010023 0.093193 -0.009479 -0.056164 -0.030811 0.058015
# 3 -0.002530 -0.009479 0.008488 0.004249 0.002166 -0.007132
# 4 -0.002611 -0.056164 0.004249 0.083500 0.019105 -0.040861
# 5 0.005022 -0.030811 0.002166 0.019105 0.040064 -0.017781
# 6 0.002062 0.058015 -0.007132 -0.040861 -0.017781 0.060432
#
#
# Mechanical properties :
#
#
# Convention : Reuss Voigt Hill
#
# Bulk Modulus (GPa) = 13.72777 65.65799 39.69288
# Shear Modulus (GPa) = 13.54100 34.88911 24.21505
#
# Velocity S-wave (km/s) = 2.34532 3.76462 3.13631
# Velocity P-wave (km/s) = 3.59310 6.75037 5.40730
#
# Compressibility (1/GPa) = 0.07284505
#
# Stress axis : x y z
#
# Youngs Moduli (GPa) = 65.67733 10.73037 117.80773
#
# Poissons Ratio (x) = 0.10755 0.29804
# Poissons Ratio (y) = 0.65826 1.11667
# Poissons Ratio (z) = 0.16616 0.10171
#
# Static dielectric constant tensor:
#      x y z
#    x 7.951780 -3.829410 0.576300 
#    y -3.829410 8.323190 -0.722340 
#    z 0.576300 -0.722340 4.519970 
# 
# 
# High freq. dielectric constant tensor:
#      x y z
#    x 1.972040 -0.032210 -0.000960 
#    y -0.032210 1.964920 -0.002970 
#    z -0.000960 -0.002970 1.981000 
# 
# From -- ./inp_files/393006.got.cif
#   From: 2010.06.25/outbox.cif.g09.slc.cpg/sg2_197_cif.got.tgz:393006.got - 2010.06.27 13:26:56.
