data_PCOD8002666
_publ_section_title
;
Structure prediction by ZEFSAII (Michael W. Deem and Ramdas Pophale) SiO2 
 PCOD8002666
Probable space group: P -1
;
_chemical_formula_sum "Si O2"
_cell_formula_units_Z 16
_cell_length_a 23.091845
_cell_length_b 6.708867
_cell_length_c 19.338711
_cell_angle_alpha 78.705785
_cell_angle_beta 16.765662
_cell_angle_gamma 79.602179
_cell_volume 847.208940
_symmetry_space_group_name_H-M "P -1"
_symmetry_group_IT_number 2
_symmetry_cell_setting 'triclinic'
loop_
_space_group_symop_operation_xyz
x,y,z
-x,-y,-z
loop_
_atom_site_type_symbol
_atom_site_label
_atom_site_fract_x
_atom_site_fract_y
_atom_site_fract_z
Si Si1 0.773076 0.118701 0.176976
Si Si2 0.439089 0.548622 0.143743
Si Si3 0.809519 0.985204 0.347658
Si Si4 0.292195 0.121631 0.120001
Si Si5 0.204562 0.611415 0.738688
Si Si6 0.585992 0.783667 0.502047
Si Si7 0.861000 0.106142 0.555431
Si Si8 0.327756 0.107576 0.340374
O O1 0.715260 0.275267 0.292428
O O2 0.646336 0.177713 0.250709
O O3 0.722134 0.893038 0.279395
O O4 0.003601 0.130875 0.891173
O O5 0.242217 0.684644 0.360631
O O6 0.384231 0.345212 0.261793
O O7 0.500000 0.500000 0.000000
O O8 0.628526 0.660083 0.957345
O O9 0.620230 0.879781 0.532293
O O10 0.799621 0.950428 0.442643
O O11 0.826566 0.226330 0.298123
O O12 0.099417 0.147228 0.289209
O O13 0.238094 0.974842 0.255447
O O14 0.468409 0.018193 0.882842
O O15 0.368824 0.454907 0.534814
O O16 0.000000 0.500000 0.000000
O O17 0.813839 0.942740 0.560243
#
# Coordination Sequence:
#
# PCOD8002666 Si02
#       8
#     2   2   2   2   2   2   2   2
#     4  10  20  36  57  86 111 143 190 235 275 332
#     4  11  19  37  61  85 111 151 193 231 282 344
#     4  11  23  37  56  83 117 151 181 234 288 335
#     4  10  21  38  61  87 115 147 196 242 280 336
#     4  11  18  37  63  80 107 149 191 228 278 332
#     4  10  20  36  59  84 111 144 192 233 274 336
#     4  10  21  38  61  88 112 149 197 240 280 339
#     4  11  23  39  57  83 124 153 185 238 294 336
#
# _framework density 18.885541
#
# number of rings (size 3 to 8) (size 9 to 14) (size 15 to 20)
#    0.000    1.500    5.000    1.875    0.000    4.500 
#    0.000    1.250    0.000    0.000    0.000    0.000 
#    0.000    0.000    0.000    0.000    0.000    0.000 
#
# Total GULP energy -198440.838397 kJ/mol
# GULP energy per Si atom -12402.552400 kJ/mol
# Density = 1.884256 g / cm^3
# Si number density = 18.885541 Si / 1000 Ang^3
#
#
#
# Elastic Constant Matrix: (Units=GPa)
#
#
# Indices 1 2 3 4 5 6 
#
# 1 65.1673 21.8792 33.1403 -4.2486 -11.5751 -1.2757
# 2 21.8792 117.8883 29.9531 -6.0114 -4.2958 3.2481
# 3 33.1403 29.9531 58.8465 -3.7807 -17.3704 -2.7456
# 4 -4.2486 -6.0114 -3.7807 23.8746 0.6702 -0.2175
# 5 -11.5751 -4.2958 -17.3704 0.6702 39.5224 -6.7444
# 6 -1.2757 3.2481 -2.7456 -0.2175 -6.7444 20.8869
#
#
#
# Elastic Compliance Matrix: (Units=1/GPa)
#
#
# Indices 1 2 3 4 5 6 
#
# 1 0.021753 -0.001076 -0.011148 0.001800 0.001410 0.000505
# 2 -0.001076 0.010080 -0.005157 0.001560 -0.002015 -0.002945
# 3 -0.011148 -0.005157 0.029353 0.001143 0.010305 0.007319
# 4 0.001800 0.001560 0.001143 0.042769 0.000585 0.000652
# 5 0.001410 -0.002015 0.010305 0.000585 0.032084 0.012120
# 6 0.000505 -0.002945 0.007319 0.000652 0.012120 0.053248
#
#
# Mechanical properties :
#
#
# Convention : Reuss Voigt Hill
#
# Bulk Modulus (GPa) = 37.84218 45.76080 41.80149
# Shear Modulus (GPa) = 21.47257 27.31875 24.39566
#
# Velocity S-wave (km/s) = 3.37558 3.80747 3.59801
# Velocity P-wave (km/s) = 5.93918 6.60396 6.28037
#
# Compressibility (1/GPa) = 0.02642554
#
# Stress axis : x y z
#
# Youngs Moduli (GPa) = 45.97083 99.20873 34.06807
#
# Poissons Ratio (x) = 0.10670 0.37978
# Poissons Ratio (y) = 0.04944 0.17569
# Poissons Ratio (z) = 0.51246 0.51161
#
# Static dielectric constant tensor:
#      x y z
#    x 3.411700 0.093310 -0.214020 
#    y 0.093310 3.810250 -0.011200 
#    z -0.214020 -0.011200 3.313800 
# 
# 
# High freq. dielectric constant tensor:
#      x y z
#    x 1.726630 0.006490 -0.016620 
#    y 0.006490 1.742690 0.002530 
#    z -0.016620 0.002530 1.718890 
# 
# From -- ./inp_files/104573.got.cif
#   From: 2010.06.25/outbox.cif.g09.slc.cpg/sg2_53_cif.got.tgz:104573.got - 2010.06.27 13:26:56.
