data_PCOD8002239
_publ_section_title
;
Structure prediction by ZEFSAII (Michael W. Deem and Ramdas Pophale) SiO2 
 PCOD8002239
Probable space group: P -1
;
_chemical_formula_sum "Si O2"
_cell_formula_units_Z 16
_cell_length_a 15.627971
_cell_length_b 9.048223
_cell_length_c 10.194755
_cell_angle_alpha 108.414776
_cell_angle_beta 60.255294
_cell_angle_gamma 141.916209
_cell_volume 764.506715
_symmetry_space_group_name_H-M "P -1"
_symmetry_group_IT_number 2
_symmetry_cell_setting 'triclinic'
loop_
_space_group_symop_operation_xyz
x,y,z
-x,-y,-z
loop_
_atom_site_type_symbol
_atom_site_label
_atom_site_fract_x
_atom_site_fract_y
_atom_site_fract_z
Si Si1 0.510611 0.310544 0.306353
Si Si2 0.782381 0.242237 0.039974
Si Si3 0.712105 0.695055 0.474668
Si Si4 0.255679 0.505162 0.001377
Si Si5 0.810582 0.554721 0.544162
Si Si6 0.559891 0.134294 0.804059
Si Si7 0.060255 0.555888 0.756224
Si Si8 0.014040 0.812230 0.709893
O O1 0.588571 0.436419 0.423476
O O2 0.368091 0.253519 0.381485
O O3 0.453495 0.064516 0.272755
O O4 0.632907 0.490344 0.145114
O O5 0.844087 0.267750 0.142203
O O6 0.604617 0.978794 0.090411
O O7 0.799122 0.450042 0.064050
O O8 0.890425 0.295032 0.860169
O O9 0.796344 0.704736 0.528670
O O10 0.833314 0.900166 0.330391
O O11 0.349597 0.732098 0.091976
O O12 0.110132 0.255149 0.117402
O O13 0.649524 0.321656 0.669152
O O14 0.847821 0.474662 0.382768
O O15 0.949123 0.724111 0.588175
O O16 0.049063 0.680442 0.694265
#
# Coordination Sequence:
#
# PCOD8002239 Si02
#       8
#     2   2   2   2   2   2   2   2
#     4  10  21  38  59  84 114 150 186 230 284 338
#     4   9  18  32  55  88 112 135 181 238 285 326
#     4  11  24  38  55  83 120 156 186 222 280 346
#     4   9  19  38  62  87 111 143 191 238 282 327
#     4  11  22  37  57  84 113 149 194 234 276 330
#     4  10  20  37  63  87 111 144 189 241 282 324
#     4  10  20  35  58  84 112 147 191 237 279 327
#     4  10  22  39  56  81 114 150 190 231 281 335
#
# _framework density 20.928528
#
# number of rings (size 3 to 8) (size 9 to 14) (size 15 to 20)
#    0.000    2.000    0.000    4.500    0.000    7.500 
#    0.000    3.750    0.000    1.500    0.000    0.000 
#    0.000    0.000    0.000    0.000    0.000    0.000 
#
# Total GULP energy -198378.022512 kJ/mol
# GULP energy per Si atom -12398.626407 kJ/mol
# Density = 2.088089 g / cm^3
# Si number density = 20.928528 Si / 1000 Ang^3
#
#
#
# Elastic Constant Matrix: (Units=GPa)
#
#
# Indices 1 2 3 4 5 6 
#
# 1 118.3490 37.1372 45.7388 -11.8742 8.0014 10.0020
# 2 37.1372 63.0252 28.8723 -13.2064 -6.4327 3.6637
# 3 45.7388 28.8723 99.8613 -21.8275 -6.1399 -1.1099
# 4 -11.8742 -13.2064 -21.8275 31.9483 12.4861 -3.0710
# 5 8.0014 -6.4327 -6.1399 12.4861 32.0788 -3.7249
# 6 10.0020 3.6637 -1.1099 -3.0710 -3.7249 21.0746
#
#
#
# Elastic Compliance Matrix: (Units=1/GPa)
#
#
# Indices 1 2 3 4 5 6 
#
# 1 0.013101 -0.005646 -0.004542 0.001374 -0.006551 -0.006433
# 2 -0.005646 0.021528 -0.002639 0.003488 0.003861 -0.000011
# 3 -0.004542 -0.002639 0.014543 0.007156 0.001139 0.004625
# 4 0.001374 0.003488 0.007156 0.044363 -0.015205 0.002895
# 5 -0.006551 0.003861 0.001139 -0.015205 0.040584 0.007455
# 6 -0.006433 -0.000011 0.004625 0.002895 0.007455 0.052489
#
#
# Mechanical properties :
#
#
# Convention : Reuss Voigt Hill
#
# Bulk Modulus (GPa) = 42.51983 56.08134 49.30058
# Shear Modulus (GPa) = 22.71692 28.31947 25.51820
#
# Velocity S-wave (km/s) = 3.29819 3.68251 3.49564
# Velocity P-wave (km/s) = 5.90465 6.70343 6.31668
#
# Compressibility (1/GPa) = 0.02351844
#
# Stress axis : x y z
#
# Youngs Moduli (GPa) = 76.32949 46.45182 68.76187
#
# Poissons Ratio (x) = 0.26225 0.31233
# Poissons Ratio (y) = 0.43093 0.18145
# Poissons Ratio (z) = 0.34671 0.12258
#
# Static dielectric constant tensor:
#      x y z
#    x 3.778350 0.284220 -0.166080 
#    y 0.284220 3.551820 -0.304550 
#    z -0.166080 -0.304550 4.025530 
# 
# 
# High freq. dielectric constant tensor:
#      x y z
#    x 1.818390 0.024460 -0.003220 
#    y 0.024460 1.794990 -0.018330 
#    z -0.003220 -0.018330 1.834010 
# 
# From -- ./inp_files/298794.got.cif
#   From: 2010.06.25/outbox.cif.g09.slc.cpg/sg2_150_cif.got.tgz:298794.got - 2010.06.27 13:26:56.
