data_PCOD8002421
_publ_section_title
;
Structure prediction by ZEFSAII (Michael W. Deem and Ramdas Pophale) SiO2 
 PCOD8002421
Probable space group: P -1
;
_chemical_formula_sum "Si O2"
_cell_formula_units_Z 14
_cell_length_a 5.182770
_cell_length_b 14.587777
_cell_length_c 10.513707
_cell_angle_alpha 63.472862
_cell_angle_beta 113.265305
_cell_angle_gamma 117.668566
_cell_volume 611.972611
_symmetry_space_group_name_H-M "P -1"
_symmetry_group_IT_number 2
_symmetry_cell_setting 'triclinic'
loop_
_space_group_symop_operation_xyz
x,y,z
-x,-y,-z
loop_
_atom_site_type_symbol
_atom_site_label
_atom_site_fract_x
_atom_site_fract_y
_atom_site_fract_z
Si Si1 0.359722 0.375318 0.007556
Si Si2 0.173536 0.441665 0.428383
Si Si3 0.350044 0.027471 0.075650
Si Si4 0.000547 0.212545 0.449249
Si Si5 0.985400 0.362373 0.716046
Si Si6 0.421079 0.841313 0.358709
Si Si7 0.767561 0.243900 0.132064
O O1 0.614550 0.324094 0.115580
O O2 0.052332 0.311583 0.061097
O O3 0.500000 0.500000 0.000000
O O4 0.280018 0.360710 0.849070
O O5 0.500000 0.500000 0.500000
O O6 0.157411 0.345276 0.386921
O O7 0.995586 0.388637 0.552883
O O8 0.078855 0.537611 0.286374
O O9 0.512016 0.155799 0.054541
O O10 0.410195 0.958672 0.246837
O O11 0.500000 0.000000 0.000000
O O12 0.000000 0.000000 0.000000
O O13 0.238593 0.154271 0.562403
O O14 0.743683 0.185041 0.521847
O O15 0.863955 0.178250 0.304147
O O16 0.727008 0.242364 0.736094
#
# Coordination Sequence:
#
# PCOD8002421 Si02
#       7
#     2   2   2   2   2   2   2
#     4  12  27  44  69 100 140 183 224 274 343 418
#     4  10  20  35  61  89 129 170 213 276 327 389
#     4  12  26  47  73 101 136 178 232 284 343 400
#     4  11  24  41  65  98 134 171 227 272 343 399
#     4  10  22  37  60  94 127 171 224 271 332 395
#     4  11  23  41  67  97 128 176 224 279 327 401
#     4  12  27  46  69  99 140 181 223 290 338 401
#
# _framework density 22.876842
#
# number of rings (size 3 to 8) (size 9 to 14) (size 15 to 20)
#    0.000    0.857    1.429    5.571    4.000    2.286 
#    0.000    0.000    0.000    0.000    0.000    0.000 
#    0.000    0.000    0.000    0.000    0.000    0.000 
#
# Total GULP energy -173531.455517 kJ/mol
# GULP energy per Si atom -12395.103966 kJ/mol
# Density = 2.282477 g / cm^3
# Si number density = 22.876842 Si / 1000 Ang^3
#
#
#
# Elastic Constant Matrix: (Units=GPa)
#
#
# Indices 1 2 3 4 5 6 
#
# 1 125.1842 42.5088 25.6448 -0.7283 18.1773 2.5946
# 2 42.5088 116.3895 29.0444 -2.2446 0.7530 4.9059
# 3 25.6448 29.0444 104.1865 4.1191 18.5123 -0.9659
# 4 -0.7283 -2.2446 4.1191 38.2606 -3.1044 5.6863
# 5 18.1773 0.7530 18.5123 -3.1044 39.1741 -4.1807
# 6 2.5946 4.9059 -0.9659 5.6863 -4.1807 29.3431
#
#
#
# Elastic Compliance Matrix: (Units=1/GPa)
#
#
# Indices 1 2 3 4 5 6 
#
# 1 0.009930 -0.003378 -0.000741 -0.000141 -0.004302 -0.000923
# 2 -0.003378 0.010549 -0.002626 0.001257 0.002552 -0.001431
# 3 -0.000741 -0.002626 0.011505 -0.001901 -0.005138 0.000520
# 4 -0.000141 0.001257 -0.001901 0.027393 0.002555 -0.005205
# 5 -0.004302 0.002552 -0.005138 0.002555 0.030493 0.003634
# 6 -0.000923 -0.001431 0.000520 -0.005205 0.003634 0.035944
#
#
# Mechanical properties :
#
#
# Convention : Reuss Voigt Hill
#
# Bulk Modulus (GPa) = 54.06859 60.01736 57.04298
# Shear Modulus (GPa) = 34.37174 37.92637 36.14906
#
# Velocity S-wave (km/s) = 3.88037 4.07609 3.97943
# Velocity P-wave (km/s) = 6.61531 6.96022 6.78995
#
# Compressibility (1/GPa) = 0.01849503
#
# Stress axis : x y z
#
# Youngs Moduli (GPa) = 100.70429 94.79743 86.91507
#
# Poissons Ratio (x) = 0.32020 0.06441
# Poissons Ratio (y) = 0.34016 0.22822
# Poissons Ratio (z) = 0.07463 0.24892
#
# Static dielectric constant tensor:
#      x y z
#    x 3.918450 0.011790 0.100270 
#    y 0.011790 4.489630 0.005100 
#    z 0.100270 0.005100 3.877840 
# 
# 
# High freq. dielectric constant tensor:
#      x y z
#    x 1.897120 0.001510 0.008870 
#    y 0.001510 1.912440 -0.003600 
#    z 0.008870 -0.003600 1.911030 
# 
# From -- ./inp_files/366843.got.cif
#   From: 2010.06.25/outbox.cif.g09.slc.cpg/sg2_184_cif.got.tgz:366843.got - 2010.06.27 13:26:56.
