data_PCOD8002380
_publ_section_title
;
Structure prediction by ZEFSAII (Michael W. Deem and Ramdas Pophale) SiO2 
 PCOD8002380
Probable space group: P -1
;
_chemical_formula_sum "Si O2"
_cell_formula_units_Z 14
_cell_length_a 12.522570
_cell_length_b 10.498065
_cell_length_c 10.021050
_cell_angle_alpha 83.523015
_cell_angle_beta 36.633393
_cell_angle_gamma 101.788574
_cell_volume 677.647140
_symmetry_space_group_name_H-M "P -1"
_symmetry_group_IT_number 2
_symmetry_cell_setting 'triclinic'
loop_
_space_group_symop_operation_xyz
x,y,z
-x,-y,-z
loop_
_atom_site_type_symbol
_atom_site_label
_atom_site_fract_x
_atom_site_fract_y
_atom_site_fract_z
Si Si1 0.171601 0.635384 0.226342
Si Si2 0.412776 0.336685 0.154719
Si Si3 0.695804 0.786018 0.448104
Si Si4 0.055236 0.934823 0.666529
Si Si5 0.928284 0.690562 0.027876
Si Si6 0.949627 0.132887 0.603931
Si Si7 0.748950 0.370057 0.157014
O O1 0.126057 0.769048 0.257402
O O2 0.000000 0.500000 0.500000
O O3 0.401246 0.698833 0.049406
O O4 0.161723 0.587521 0.088006
O O5 0.363936 0.333992 0.360904
O O6 0.198486 0.223049 0.311235
O O7 0.500000 0.500000 0.000000
O O8 0.490818 0.751957 0.578030
O O9 0.781799 0.948782 0.405672
O O10 0.858007 0.771177 0.195236
O O11 0.160052 0.923329 0.423711
O O12 0.947497 0.774025 0.859732
O O13 0.902089 0.997110 0.767919
O O14 0.141405 0.702873 0.860592
O O15 0.769801 0.517197 0.187277
#
# Coordination Sequence:
#
# PCOD8002380 Si02
#       7
#     2   2   2   2   2   2   2
#     4  11  20  35  62  89 118 155 192 245 303 341
#     4  10  20  35  60  91 115 151 195 242 297 349
#     4  10  22  40  59  85 120 156 196 244 291 352
#     4  10  22  40  63  84 121 163 196 240 293 358
#     4  11  22  40  61  86 119 158 198 243 299 342
#     4  10  21  41  58  88 124 152 196 248 292 351
#     4  10  23  39  59  90 119 148 203 252 283 357
#
# _framework density 20.65972
#
# number of rings (size 3 to 8) (size 9 to 14) (size 15 to 20)
#    0.000    1.714    1.429    3.429    2.000    0.571 
#    0.000   15.714    0.000    0.000    0.000    0.000 
#    0.000    0.000    0.000    0.000    0.000    0.000 
#
# Total GULP energy -173498.670772 kJ/mol
# GULP energy per Si atom -12392.762198 kJ/mol
# Density = 2.061270 g / cm^3
# Si number density = 20.659720 Si / 1000 Ang^3
#
#
#
# Elastic Constant Matrix: (Units=GPa)
#
#
# Indices 1 2 3 4 5 6 
#
# 1 93.1787 47.6086 33.8813 0.2859 -5.9717 -4.3863
# 2 47.6086 93.6483 21.3190 5.8667 -5.6972 -3.4042
# 3 33.8813 21.3190 57.4940 0.7162 -2.1969 -12.2832
# 4 0.2859 5.8667 0.7162 23.9862 -5.6114 9.8464
# 5 -5.9717 -5.6972 -2.1969 -5.6114 33.7280 -7.4205
# 6 -4.3863 -3.4042 -12.2832 9.8464 -7.4205 42.1549
#
#
#
# Elastic Compliance Matrix: (Units=1/GPa)
#
#
# Indices 1 2 3 4 5 6 
#
# 1 0.017217 -0.007110 -0.007791 0.002696 0.001475 -0.001423
# 2 -0.007110 0.014849 -0.000979 -0.003824 0.000816 0.001211
# 3 -0.007791 -0.000979 0.023912 -0.002995 0.001046 0.006961
# 4 0.002696 -0.003824 -0.002995 0.048553 0.005223 -0.011322
# 5 0.001475 0.000816 0.001046 0.005223 0.032074 0.004950
# 6 -0.001423 0.001211 0.006961 -0.011322 0.004950 0.029216
#
#
# Mechanical properties :
#
#
# Convention : Reuss Voigt Hill
#
# Bulk Modulus (GPa) = 41.29014 49.99318 45.64166
# Shear Modulus (GPa) = 24.31290 29.40797 26.86043
#
# Velocity S-wave (km/s) = 3.43421 3.77695 3.60965
# Velocity P-wave (km/s) = 5.97949 6.57810 6.28592
#
# Compressibility (1/GPa) = 0.02421886
#
# Stress axis : x y z
#
# Youngs Moduli (GPa) = 58.08222 67.34567 41.82070
#
# Poissons Ratio (x) = 0.47883 0.32581
# Poissons Ratio (y) = 0.41296 0.04092
# Poissons Ratio (z) = 0.45250 0.06590
#
# Static dielectric constant tensor:
#      x y z
#    x 4.040010 0.043870 -0.027840 
#    y 0.043870 3.859750 0.036740 
#    z -0.027840 0.036740 3.854430 
# 
# 
# High freq. dielectric constant tensor:
#      x y z
#    x 1.817510 -0.001200 0.006120 
#    y -0.001200 1.815710 0.001890 
#    z 0.006120 0.001890 1.784470 
# 
# From -- ./inp_files/257846.got.cif
#   From: 2010.06.25/outbox.cif.g09.slc.cpg/sg2_129_cif.got.tgz:257846.got - 2010.06.27 13:26:56.
