data_PCOD8002578
_publ_section_title
;
Structure prediction by ZEFSAII (Michael W. Deem and Ramdas Pophale) SiO2 
 PCOD8002578
Probable space group: P -1
;
_chemical_formula_sum "Si O2"
_cell_formula_units_Z 14
_cell_length_a 14.639477
_cell_length_b 8.790422
_cell_length_c 15.186782
_cell_angle_alpha 124.493243
_cell_angle_beta 29.230068
_cell_angle_gamma 107.889388
_cell_volume 696.483609
_symmetry_space_group_name_H-M "P -1"
_symmetry_group_IT_number 2
_symmetry_cell_setting 'triclinic'
loop_
_space_group_symop_operation_xyz
x,y,z
-x,-y,-z
loop_
_atom_site_type_symbol
_atom_site_label
_atom_site_fract_x
_atom_site_fract_y
_atom_site_fract_z
Si Si1 0.213780 0.060957 0.250342
Si Si2 0.485535 0.240964 0.498930
Si Si3 0.431931 0.424987 0.905851
Si Si4 0.391654 0.322442 0.258926
Si Si5 0.255459 0.509888 0.618140
Si Si6 0.236278 0.234588 0.876581
Si Si7 0.241885 0.814239 0.313178
O O1 0.255808 0.261836 0.283728
O O2 0.983419 0.113157 0.425822
O O3 0.240405 0.987925 0.306218
O O4 0.379264 0.880524 0.988831
O O5 0.342970 0.337752 0.564642
O O6 0.605318 0.370893 0.468404
O O7 0.327563 0.252905 0.712270
O O8 0.659324 0.003809 0.256936
O O9 0.581132 0.487296 0.741985
O O10 0.281977 0.369564 0.954464
O O11 0.586300 0.226128 0.769170
O O12 0.284397 0.609387 0.154950
O O13 0.273875 0.388592 0.472405
O O14 0.013985 0.675920 0.893756
#
# Coordination Sequence:
#
# PCOD8002578 Si02
#       7
#     2   2   2   2   2   2   2
#     4   9  19  36  57  83 117 156 194 239 286 351
#     4  10  24  42  63  90 118 154 208 248 293 365
#     4  10  20  36  56  85 120 152 195 241 290 358
#     4  10  20  36  55  85 122 148 194 244 288 356
#     4  11  22  42  64  89 121 159 195 251 304 347
#     4  11  22  42  64  88 121 159 196 251 300 352
#     4   9  19  36  57  83 116 158 195 234 292 350
#
# _framework density 20.100977
#
# number of rings (size 3 to 8) (size 9 to 14) (size 15 to 20)
#    0.000    2.000    1.429    1.714    2.000    0.571 
#    2.571    1.429    0.000    0.000    0.000    0.000 
#    0.000    0.000    0.000    0.000    0.000    0.000 
#
# Total GULP energy -173619.578658 kJ/mol
# GULP energy per Si atom -12401.398476 kJ/mol
# Density = 2.005523 g / cm^3
# Si number density = 20.100977 Si / 1000 Ang^3
#
#
#
# Elastic Constant Matrix: (Units=GPa)
#
#
# Indices 1 2 3 4 5 6 
#
# 1 50.1384 12.5349 21.8483 5.7158 -4.6921 -12.7827
# 2 12.5349 58.9864 17.1983 8.6985 -4.3784 -6.3775
# 3 21.8483 17.1983 117.9532 -7.8806 -9.6314 -9.3688
# 4 5.7158 8.6985 -7.8806 26.1325 2.9422 -2.9080
# 5 -4.6921 -4.3784 -9.6314 2.9422 30.8452 2.8436
# 6 -12.7827 -6.3775 -9.3688 -2.9080 2.8436 22.8474
#
#
#
# Elastic Compliance Matrix: (Units=1/GPa)
#
#
# Indices 1 2 3 4 5 6 
#
# 1 0.025780 -0.002298 -0.003713 -0.004934 0.001856 0.011401
# 2 -0.002298 0.019558 -0.002550 -0.006789 0.002093 0.002003
# 3 -0.003713 -0.002550 0.010126 0.004728 0.001622 0.001763
# 4 -0.004934 -0.006789 0.004728 0.043952 -0.004750 0.003469
# 5 0.001856 0.002093 0.001622 -0.004750 0.034196 -0.002573
# 6 0.011401 0.002003 0.001763 0.003469 -0.002573 0.052191
#
#
# Mechanical properties :
#
#
# Convention : Reuss Voigt Hill
#
# Bulk Modulus (GPa) = 26.08036 36.69346 31.38691
# Shear Modulus (GPa) = 23.17994 27.66479 25.42237
#
# Velocity S-wave (km/s) = 3.39953 3.71386 3.56017
# Velocity P-wave (km/s) = 5.33028 6.05678 5.70511
#
# Compressibility (1/GPa) = 0.03834303
#
# Stress axis : x y z
#
# Youngs Moduli (GPa) = 38.79011 51.13021 98.75858
#
# Poissons Ratio (x) = 0.11750 0.36666
# Poissons Ratio (y) = 0.08914 0.25179
# Poissons Ratio (z) = 0.14402 0.13036
#
# Static dielectric constant tensor:
#      x y z
#    x 3.449200 -0.068430 -0.081520 
#    y -0.068430 3.676920 -0.002580 
#    z -0.081520 -0.002580 3.688480 
# 
# 
# High freq. dielectric constant tensor:
#      x y z
#    x 1.768470 0.002360 -0.004730 
#    y 0.002360 1.790020 -0.003340 
#    z -0.004730 -0.003340 1.790300 
# 
# From -- ./inp_files/197313.got.cif
#   From: 2010.06.25/outbox.cif.g09.slc.cpg/sg2_99_cif.got.tgz:197313.got - 2010.06.27 13:26:56.
