data_PCOD8002661
_publ_section_title
;
Structure prediction by ZEFSAII (Michael W. Deem and Ramdas Pophale) SiO2 
 PCOD8002661
Probable space group: P -1
;
_chemical_formula_sum "Si O2"
_cell_formula_units_Z 8
_cell_length_a 9.989296
_cell_length_b 7.875735
_cell_length_c 11.602815
_cell_angle_alpha 37.675565
_cell_angle_beta 139.933189
_cell_angle_gamma 137.210196
_cell_volume 339.535680
_symmetry_space_group_name_H-M "P -1"
_symmetry_group_IT_number 2
_symmetry_cell_setting 'triclinic'
loop_
_space_group_symop_operation_xyz
x,y,z
-x,-y,-z
loop_
_atom_site_type_symbol
_atom_site_label
_atom_site_fract_x
_atom_site_fract_y
_atom_site_fract_z
Si Si1 0.914373 0.340693 0.647916
Si Si2 0.311120 0.675943 0.155435
Si Si3 0.109784 0.282573 0.037793
Si Si4 0.762300 0.759753 0.465082
O O1 0.000000 0.500000 0.500000
O O2 0.750891 0.496730 0.509633
O O3 0.107186 0.369211 0.854857
O O4 0.797291 0.990259 0.738861
O O5 0.255143 0.578037 0.038833
O O6 0.567560 0.884416 0.225702
O O7 0.289181 0.371601 0.370857
O O8 0.140299 0.824543 0.015539
O O9 0.000000 0.000000 0.500000
#
# Coordination Sequence:
#
# PCOD8002661 Si02
#       4
#     2   2   2   2
#     4  10  20  36  57  85 118 149 189 235 285 346
#     4   9  19  38  60  82 115 152 190 240 285 333
#     4   9  19  38  60  83 115 151 188 238 289 333
#     4  10  20  36  60  85 113 153 194 234 285 342
#
# _framework density 23.561589999999999
#
# number of rings (size 3 to 8) (size 9 to 14) (size 15 to 20)
#    0.000    2.500    0.000    1.500    0.000    1.000 
#    0.000   27.500    0.000    0.000    0.000    0.000 
#    0.000    0.000    0.000    0.000    0.000    0.000 
#
# Total GULP energy -99110.574289 kJ/mol
# GULP energy per Si atom -12388.821786 kJ/mol
# Density = 2.350796 g / cm^3
# Si number density = 23.561590 Si / 1000 Ang^3
#
#
#
# Elastic Constant Matrix: (Units=GPa)
#
#
# Indices 1 2 3 4 5 6 
#
# 1 98.4088 43.5916 38.2593 3.9522 -12.0657 -16.7738
# 2 43.5916 95.8834 32.3898 23.1297 8.7966 8.0959
# 3 38.2593 32.3898 83.7709 4.0533 -3.8526 1.0316
# 4 3.9522 23.1297 4.0533 34.6996 6.2471 8.2269
# 5 -12.0657 8.7966 -3.8526 6.2471 56.1196 6.7595
# 6 -16.7738 8.0959 1.0316 8.2269 6.7595 31.5735
#
#
#
# Elastic Compliance Matrix: (Units=1/GPa)
#
#
# Indices 1 2 3 4 5 6 
#
# 1 0.017787 -0.007691 -0.005157 0.000560 0.003321 0.010733
# 2 -0.007691 0.017811 -0.003018 -0.008770 -0.002999 -0.005627
# 3 -0.005157 -0.003018 0.015458 0.001384 0.000629 -0.002966
# 4 0.000560 -0.008770 0.001384 0.036303 -0.001656 -0.006604
# 5 0.003321 -0.002999 0.000629 -0.001656 0.019376 -0.001204
# 6 0.010733 -0.005627 -0.002966 -0.006604 -0.001204 0.040893
#
#
# Mechanical properties :
#
#
# Convention : Reuss Voigt Hill
#
# Bulk Modulus (GPa) = 51.74709 56.28272 54.01491
# Shear Modulus (GPa) = 26.91050 35.40004 31.15527
#
# Velocity S-wave (km/s) = 3.38321 3.88035 3.64028
# Velocity P-wave (km/s) = 6.10505 6.63442 6.37523
#
# Compressibility (1/GPa) = 0.01932476
#
# Stress axis : x y z
#
# Youngs Moduli (GPa) = 56.21952 56.14432 64.69146
#
# Poissons Ratio (x) = 0.43180 0.33359
# Poissons Ratio (y) = 0.43238 0.19527
# Poissons Ratio (z) = 0.28991 0.16947
#
# Static dielectric constant tensor:
#      x y z
#    x 4.385070 -0.245830 0.043030 
#    y -0.245830 3.934500 0.086520 
#    z 0.043030 0.086520 4.578870 
# 
# 
# High freq. dielectric constant tensor:
#      x y z
#    x 1.929800 -0.021160 -0.011570 
#    y -0.021160 1.896530 0.000920 
#    z -0.011570 0.000920 1.944490 
# 
# From -- ./inp_files/16247.got.cif
#   From: 2010.06.25/outbox.cif.g09.slc.cpg/sg2_9_cif.got.tgz:16247.got - 2010.06.27 13:26:56.
