data_PCOD8002024
_publ_section_title
;
Structure prediction by ZEFSAII (Michael W. Deem and Ramdas Pophale) SiO2 
 PCOD8002024
Probable space group: P -1
;
_chemical_formula_sum "Si O2"
_cell_formula_units_Z 16
_cell_length_a 12.015290
_cell_length_b 16.400424
_cell_length_c 11.604604
_cell_angle_alpha 110.714855
_cell_angle_beta 155.615154
_cell_angle_gamma 71.205411
_cell_volume 883.082840
_symmetry_space_group_name_H-M "P -1"
_symmetry_group_IT_number 2
_symmetry_cell_setting 'triclinic'
loop_
_space_group_symop_operation_xyz
x,y,z
-x,-y,-z
loop_
_atom_site_type_symbol
_atom_site_label
_atom_site_fract_x
_atom_site_fract_y
_atom_site_fract_z
Si Si1 0.021932 0.773167 0.331256
Si Si2 0.250249 0.614329 0.790323
Si Si3 0.707558 0.571290 0.363354
Si Si4 0.343831 0.045479 0.731353
Si Si5 0.843840 0.954535 0.185888
Si Si6 0.750343 0.385661 0.676084
Si Si7 0.207575 0.428702 0.292071
Si Si8 0.478083 0.773161 0.941926
O O1 0.155813 0.699476 0.343954
O O2 0.249987 0.805185 0.652588
O O3 0.937877 0.854430 0.211615
O O4 0.750003 0.737370 0.118682
O O5 0.285676 0.532763 0.697575
O O6 0.344268 0.699464 0.855615
O O7 0.936511 0.620646 0.530120
O O8 0.419600 0.604297 0.062829
O O9 0.749922 0.595605 0.547732
O O10 0.250004 0.026338 0.763174
O O11 0.437850 0.145585 0.857171
O O12 0.079024 0.020105 0.395703
O O13 0.579030 0.979917 0.875612
O O14 0.436588 0.379402 0.409545
O O15 0.785995 0.467244 0.665152
O O16 0.919701 0.395611 0.958598
#
# Coordination Sequence:
#
# PCOD8002024 Si02
#       8
#     2   2   2   2   2   2   2   2
#     4  11  20  30  47  70 100 130 157 193 229 274
#     4  10  21  33  49  72  93 122 162 193 229 283
#     4  10  20  35  51  67  94 125 155 197 239 273
#     4   9  16  27  42  63  93 128 156 180 224 280
#     4   9  16  27  42  63  93 128 156 180 224 280
#     4  10  21  33  49  72  93 122 162 193 229 283
#     4  10  20  35  51  67  94 125 155 197 239 273
#     4  11  20  30  47  70 100 130 157 193 229 274
#
# _framework density 18.118347
#
# number of rings (size 3 to 8) (size 9 to 14) (size 15 to 20)
#    0.000    2.000    0.000    6.750    0.000    4.000 
#    0.000    0.000    0.000    0.000    0.000    0.000 
#    0.000   20.000    0.000    0.000    0.000    0.000 
#
# Total GULP energy -198320.520793 kJ/mol
# GULP energy per Si atom -12395.032550 kJ/mol
# Density = 1.807711 g / cm^3
# Si number density = 18.118347 Si / 1000 Ang^3
#
#
#
# Elastic Constant Matrix: (Units=GPa)
#
#
# Indices 1 2 3 4 5 6 
#
# 1 34.0550 35.2088 8.7454 3.1723 -1.4503 0.8380
# 2 35.2088 115.9234 23.8620 2.9321 20.6390 -4.2605
# 3 8.7454 23.8620 78.2248 -0.4190 19.0239 1.3530
# 4 3.1723 2.9321 -0.4190 26.9572 1.7462 14.8851
# 5 -1.4503 20.6390 19.0239 1.7462 22.5257 0.3502
# 6 0.8380 -4.2605 1.3530 14.8851 0.3502 19.3496
#
#
#
# Elastic Compliance Matrix: (Units=1/GPa)
#
#
# Indices 1 2 3 4 5 6 
#
# 1 0.052949 -0.019624 -0.006523 -0.003983 0.027263 -0.003588
# 2 -0.019624 0.017971 0.001110 -0.002121 -0.018606 0.006698
# 3 -0.006523 0.001110 0.017191 0.003780 -0.016197 -0.003290
# 4 -0.003983 -0.002121 0.003780 0.066904 -0.005884 -0.051920
# 5 0.027263 -0.018606 -0.016197 -0.005884 0.077348 -0.001018
# 6 -0.003588 0.006698 -0.003290 -0.051920 -0.001018 0.093499
#
#
# Mechanical properties :
#
#
# Convention : Reuss Voigt Hill
#
# Bulk Modulus (GPa) = 26.29126 40.42617 33.35871
# Shear Modulus (GPa) = 12.86626 24.45898 18.66262
#
# Velocity S-wave (km/s) = 2.66770 3.67816 3.21291
# Velocity P-wave (km/s) = 4.90216 6.35604 5.67585
#
# Compressibility (1/GPa) = 0.03803546
#
# Stress axis : x y z
#
# Youngs Moduli (GPa) = 18.88626 55.64621 58.17163
#
# Poissons Ratio (x) = 1.09201 0.37944
# Poissons Ratio (y) = 0.37063 -0.06456
# Poissons Ratio (z) = 0.12319 -0.06175
#
# Static dielectric constant tensor:
#      x y z
#    x 2.809670 -0.017970 0.249760 
#    y -0.017970 3.189840 -0.075820 
#    z 0.249760 -0.075820 3.918050 
# 
# 
# High freq. dielectric constant tensor:
#      x y z
#    x 1.639960 -0.001620 0.025850 
#    y -0.001620 1.692870 -0.004310 
#    z 0.025850 -0.004310 1.732220 
# 
# From -- ./inp_files/436819.got.cif
#   From: 2010.06.25/outbox.cif.g09.slc.cpg/sg2_219_cif.got.tgz:436819.got - 2010.06.27 13:26:56.
