data_PCOD8002966
_publ_section_title
;
Structure prediction by ZEFSAII (Michael W. Deem and Ramdas Pophale) SiO2 
 PCOD8002966
Probable space group: P -1
;
_chemical_formula_sum "Si O2"
_cell_formula_units_Z 16
_cell_length_a 9.848597
_cell_length_b 7.947289
_cell_length_c 9.769365
_cell_angle_alpha 69.901169
_cell_angle_beta 74.643251
_cell_angle_gamma 79.395271
_cell_volume 688.776961
_symmetry_space_group_name_H-M "P -1"
_symmetry_group_IT_number 2
_symmetry_cell_setting 'triclinic'
loop_
_space_group_symop_operation_xyz
x,y,z
-x,-y,-z
loop_
_atom_site_type_symbol
_atom_site_label
_atom_site_fract_x
_atom_site_fract_y
_atom_site_fract_z
Si Si1 0.849257 0.878966 0.202295
Si Si2 0.447813 0.310886 0.106159
Si Si3 0.552305 0.204103 0.827502
Si Si4 0.862698 0.653245 0.870467
Si Si5 0.157713 0.506542 0.798375
Si Si6 0.147535 0.954126 0.123275
Si Si7 0.432215 0.114510 0.609201
Si Si8 0.452612 0.611711 0.667983
O O1 0.802841 0.695236 0.205123
O O2 0.733000 0.920499 0.340651
O O3 0.008788 0.853779 0.224827
O O4 0.832896 0.038455 0.048550
O O5 0.280822 0.332783 0.182864
O O6 0.526259 0.252614 0.244461
O O7 0.500000 0.500000 0.000000
O O8 0.476156 0.174394 0.004853
O O9 0.720198 0.156269 0.808904
O O10 0.495136 0.078525 0.757424
O O11 0.522076 0.413102 0.740254
O O12 0.003948 0.592416 0.760164
O O13 0.885965 0.844295 0.873085
O O14 0.847003 0.500624 0.032872
O O15 0.283648 0.621083 0.684207
O O16 0.466305 0.318971 0.505201
O O17 0.500000 0.000000 0.500000
#
# Coordination Sequence:
#
# PCOD8002966 Si02
#       8
#     2   2   2   2   2   2   2   2
#     4  10  23  45  63 104 133 186 222 277 342 406
#     4  10  21  38  67 103 130 166 231 284 325 392
#     4  11  23  45  68  98 134 180 228 285 332 398
#     4  10  20  36  61 101 131 170 215 285 335 390
#     4  10  20  38  67  93 137 173 224 269 341 400
#     4  10  24  40  72  99 140 171 230 286 341 386
#     4  12  28  45  68  98 141 185 228 272 349 411
#     4  11  24  44  68  99 133 182 223 281 339 408
#
# _framework density 23.229583000000002
#
# number of rings (size 3 to 8) (size 9 to 14) (size 15 to 20)
#    0.000    1.500    3.750    1.125    8.750    2.000 
#    0.000    2.500    0.000    0.000    0.000    0.000 
#    0.000    0.000    0.000    0.000    0.000    0.000 
#
# Total GULP energy -198338.498023 kJ/mol
# GULP energy per Si atom -12396.156126 kJ/mol
# Density = 2.317671 g / cm^3
# Si number density = 23.229583 Si / 1000 Ang^3
#
#
#
# Elastic Constant Matrix: (Units=GPa)
#
#
# Indices 1 2 3 4 5 6 
#
# 1 192.4063 31.8530 66.3811 10.8898 -39.1680 -8.1009
# 2 31.8530 52.4959 23.5896 22.7152 -4.4557 -4.3803
# 3 66.3811 23.5896 107.6734 8.7617 -25.0129 -5.0412
# 4 10.8898 22.7152 8.7617 27.2119 4.0335 -2.9415
# 5 -39.1680 -4.4557 -25.0129 4.0335 44.8255 6.5294
# 6 -8.1009 -4.3803 -5.0412 -2.9415 6.5294 38.2088
#
#
#
# Elastic Compliance Matrix: (Units=1/GPa)
#
#
# Indices 1 2 3 4 5 6 
#
# 1 0.007686 -0.002637 -0.002983 -0.000624 0.004836 0.000059
# 2 -0.002637 0.033560 -0.003231 -0.026074 0.001487 0.000600
# 3 -0.002983 -0.003231 0.012923 -0.000933 0.004385 -0.000119
# 4 -0.000624 -0.026074 -0.000933 0.060816 -0.009578 0.003074
# 5 0.004836 0.001487 0.004385 -0.009578 0.030601 -0.004192
# 6 0.000059 0.000600 -0.000119 0.003074 -0.004192 0.027191
#
#
# Mechanical properties :
#
#
# Convention : Reuss Voigt Hill
#
# Bulk Modulus (GPa) = 27.42354 66.24701 46.83527
# Shear Modulus (GPa) = 24.67478 37.43270 31.05374
#
# Velocity S-wave (km/s) = 3.26270 4.01861 3.66022
# Velocity P-wave (km/s) = 5.10144 7.07902 6.16998
#
# Compressibility (1/GPa) = 0.03646503
#
# Stress axis : x y z
#
# Youngs Moduli (GPa) = 130.11485 29.79733 77.37910
#
# Poissons Ratio (x) = 0.07859 0.23085
# Poissons Ratio (y) = 0.34316 0.25003
# Poissons Ratio (z) = 0.38818 0.09628
#
# Static dielectric constant tensor:
#      x y z
#    x 4.385150 0.161420 -0.109040 
#    y 0.161420 4.370600 -0.146940 
#    z -0.109040 -0.146940 5.053160 
# 
# 
# High freq. dielectric constant tensor:
#      x y z
#    x 1.922930 0.005890 -0.019880 
#    y 0.005890 1.927080 -0.001070 
#    z -0.019880 -0.001070 1.886910 
# 
# From -- ./inp_files/381648.got.cif
#   From: 2010.06.25/outbox.cif.g09.slc.cpg/sg2_191_cif.got.tgz:381648.got - 2010.06.27 13:26:56.
