data_PCOD8002717
_publ_section_title
;
Structure prediction by ZEFSAII (Michael W. Deem and Ramdas Pophale) SiO2 
 PCOD8002717
Probable space group: P -1
;
_chemical_formula_sum "Si O2"
_cell_formula_units_Z 14
_cell_length_a 11.869953
_cell_length_b 8.245180
_cell_length_c 10.321052
_cell_angle_alpha 110.088633
_cell_angle_beta 53.946525
_cell_angle_gamma 77.749767
_cell_volume 642.710796
_symmetry_space_group_name_H-M "P -1"
_symmetry_group_IT_number 2
_symmetry_cell_setting 'triclinic'
loop_
_space_group_symop_operation_xyz
x,y,z
-x,-y,-z
loop_
_atom_site_type_symbol
_atom_site_label
_atom_site_fract_x
_atom_site_fract_y
_atom_site_fract_z
Si Si1 0.827587 0.198034 0.312146
Si Si2 0.160655 0.749345 0.968854
Si Si3 0.653211 0.093882 0.976899
Si Si4 0.024746 0.345565 0.329464
Si Si5 0.189748 0.368327 0.972149
Si Si6 0.473139 0.932556 0.203297
Si Si7 0.326772 0.035769 0.585884
O O1 0.859282 0.336772 0.427303
O O2 0.679451 0.167667 0.442823
O O3 0.782774 0.308942 0.233776
O O4 0.995347 0.973444 0.142347
O O5 0.307797 0.745742 0.946841
O O6 0.130285 0.587171 0.011660
O O7 0.818212 0.869770 0.791782
O O8 0.578573 0.162930 0.902404
O O9 0.521558 0.087428 0.157496
O O10 0.000000 0.500000 0.500000
O O11 0.058008 0.404680 0.181380
O O12 0.373413 0.259873 0.878491
O O13 0.185529 0.226947 0.820366
O O14 0.317844 0.067311 0.444561
O O15 0.500000 0.000000 0.500000
#
# Coordination Sequence:
#
# PCOD8002717 Si02
#       7
#     2   2   2   2   2   2   2
#     4  10  21  37  58  81 114 153 184 231 291 334
#     4  10  20  36  58  84 113 148 190 234 283 335
#     4   9  19  38  59  80 116 154 186 230 285 337
#     4  10  22  39  58  86 115 146 191 235 281 339
#     4  10  21  36  58  85 112 145 192 238 273 332
#     4   9  19  37  58  80 112 156 189 229 284 330
#     4  10  20  38  59  83 115 150 190 230 278 338
#
# _framework density 21.782737000000001
#
# number of rings (size 3 to 8) (size 9 to 14) (size 15 to 20)
#    0.000    2.286    0.000    4.286    0.000    6.286 
#    0.000   16.429    0.000    0.000    0.000    0.000 
#    0.000    0.000    0.000    0.000    0.000    0.000 
#
# Total GULP energy -173519.622698 kJ/mol
# GULP energy per Si atom -12394.258764 kJ/mol
# Density = 2.173316 g / cm^3
# Si number density = 21.782737 Si / 1000 Ang^3
#
#
#
# Elastic Constant Matrix: (Units=GPa)
#
#
# Indices 1 2 3 4 5 6 
#
# 1 134.8583 48.6554 42.4509 -12.5640 25.7977 28.3882
# 2 48.6554 91.0790 35.0736 -14.1151 16.0455 15.7561
# 3 42.4509 35.0736 121.0101 -19.4115 27.1110 15.5774
# 4 -12.5640 -14.1151 -19.4115 27.7392 4.7606 4.5531
# 5 25.7977 16.0455 27.1110 4.7606 31.7128 -2.4229
# 6 28.3882 15.7561 15.5774 4.5531 -2.4229 42.7404
#
#
#
# Elastic Compliance Matrix: (Units=1/GPa)
#
#
# Indices 1 2 3 4 5 6 
#
# 1 0.013527 -0.001917 0.002244 0.011022 -0.014454 -0.011089
# 2 -0.001917 0.016125 0.000528 0.010331 -0.009096 -0.006480
# 3 0.002244 0.000528 0.015593 0.017102 -0.018774 -0.010255
# 4 0.011022 0.010331 0.017102 0.069823 -0.041370 -0.027146
# 5 -0.014454 -0.009096 -0.018774 -0.041370 0.072316 0.028303
# 6 -0.011089 -0.006480 -0.010255 -0.027146 0.028303 0.041385
#
#
# Mechanical properties :
#
#
# Convention : Reuss Voigt Hill
#
# Bulk Modulus (GPa) = 21.29696 66.58968 43.94332
# Shear Modulus (GPa) = 20.60073 35.15631 27.87852
#
# Velocity S-wave (km/s) = 3.07862 4.02176 3.58137
# Velocity P-wave (km/s) = 4.73660 7.22512 6.10892
#
# Compressibility (1/GPa) = 0.04695506
#
# Stress axis : x y z
#
# Youngs Moduli (GPa) = 73.92803 62.01602 64.13149
#
# Poissons Ratio (x) = 0.11891 -0.14394
# Poissons Ratio (y) = 0.14175 -0.03388
# Poissons Ratio (z) = -0.16593 -0.03276
#
# Static dielectric constant tensor:
#      x y z
#    x 4.265730 0.194170 0.211050 
#    y 0.194170 3.761000 -0.280080 
#    z 0.211050 -0.280080 4.094070 
# 
# 
# High freq. dielectric constant tensor:
#      x y z
#    x 1.873530 0.010390 0.013320 
#    y 0.010390 1.837180 -0.020400 
#    z 0.013320 -0.020400 1.840360 
# 
# From -- ./inp_files/237633.got.cif
#   From: 2010.06.25/outbox.cif.g09.slc.cpg/sg2_119_cif.got.tgz:237633.got - 2010.06.27 13:26:56.
