data_PCOD8002484
_publ_section_title
;
Structure prediction by ZEFSAII (Michael W. Deem and Ramdas Pophale) SiO2 
 PCOD8002484
Probable space group: P -1
;
_chemical_formula_sum "Si O2"
_cell_formula_units_Z 12
_cell_length_a 24.971013
_cell_length_b 8.468878
_cell_length_c 9.563992
_cell_angle_alpha 116.606503
_cell_angle_beta 145.223703
_cell_angle_gamma 37.849730
_cell_volume 579.857317
_symmetry_space_group_name_H-M "P -1"
_symmetry_group_IT_number 2
_symmetry_cell_setting 'triclinic'
loop_
_space_group_symop_operation_xyz
x,y,z
-x,-y,-z
loop_
_atom_site_type_symbol
_atom_site_label
_atom_site_fract_x
_atom_site_fract_y
_atom_site_fract_z
Si Si1 0.180927 0.861650 0.710584
Si Si2 0.767269 0.369980 0.777869
Si Si3 0.344375 0.113113 0.730740
Si Si4 0.489230 0.513321 0.816525
Si Si5 0.119625 0.679633 0.285638
Si Si6 0.809845 0.471411 0.191214
O O1 0.188226 0.750160 0.533421
O O2 0.208625 0.681174 0.823202
O O3 0.329544 0.772986 0.984315
O O4 0.002653 0.233058 0.496014
O O5 0.602645 0.516723 0.447911
O O6 0.817729 0.419641 0.778378
O O7 0.730097 0.557541 0.902818
O O8 0.917856 0.998098 0.987291
O O9 0.191762 0.399261 0.412617
O O10 0.285861 0.223358 0.811323
O O11 0.392101 0.839998 0.689351
O O12 0.500000 0.000000 0.000000
O O13 0.500000 0.500000 0.000000
#
# Coordination Sequence:
#
# PCOD8002484 Si02
#       6
#     2   2   2   2   2   2
#     4   9  17  36  60  81 116 153 194 220 295 352
#     4  10  20  35  63  88 117 146 197 241 284 337
#     4  11  20  39  62  83 116 158 196 229 288 354
#     4  12  22  37  62  88 116 153 196 240 289 338
#     4   9  18  37  60  83 116 161 189 222 295 356
#     4   9  19  36  62  85 109 156 195 233 281 351
#
# _framework density 20.694745999999999
#
# number of rings (size 3 to 8) (size 9 to 14) (size 15 to 20)
#    0.000    2.000    5.000    1.000    0.000    1.333 
#    0.000    4.167    0.000    0.000    0.000    0.000 
#    0.000    0.000    0.000    0.000    0.000    0.000 
#
# Total GULP energy -148784.673058 kJ/mol
# GULP energy per Si atom -12398.722755 kJ/mol
# Density = 2.064764 g / cm^3
# Si number density = 20.694746 Si / 1000 Ang^3
#
#
#
# Elastic Constant Matrix: (Units=GPa)
#
#
# Indices 1 2 3 4 5 6 
#
# 1 85.3662 23.8277 43.2980 1.0465 -0.4445 -28.1478
# 2 23.8277 56.4920 17.8382 -0.3688 2.3927 -22.0911
# 3 43.2980 17.8382 107.3052 2.3479 7.0278 -14.8753
# 4 1.0465 -0.3688 2.3479 23.9284 -6.7735 -5.3108
# 5 -0.4445 2.3927 7.0278 -6.7735 43.2732 -0.2323
# 6 -28.1478 -22.0911 -14.8753 -5.3108 -0.2323 34.9744
#
#
#
# Elastic Compliance Matrix: (Units=1/GPa)
#
#
# Indices 1 2 3 4 5 6 
#
# 1 0.019238 -0.001380 -0.005978 0.003011 0.001783 0.012538
# 2 -0.001380 0.024357 -0.001580 0.003599 -0.000465 0.014146
# 3 -0.005978 -0.001580 0.012043 -0.001787 -0.002215 -0.000973
# 4 0.003011 0.003599 -0.001787 0.046450 0.007452 0.011039
# 5 0.001783 -0.000465 -0.002215 0.007452 0.024687 0.001495
# 6 0.012538 0.014146 -0.000973 0.011039 0.001495 0.048891
#
#
# Mechanical properties :
#
#
# Convention : Reuss Voigt Hill
#
# Bulk Modulus (GPa) = 26.48004 46.56569 36.52286
# Shear Modulus (GPa) = 24.25666 31.38183 27.81924
#
# Velocity S-wave (km/s) = 3.42733 3.89834 3.67040
# Velocity P-wave (km/s) = 5.33718 6.54315 5.97069
#
# Compressibility (1/GPa) = 0.03776430
#
# Stress axis : x y z
#
# Youngs Moduli (GPa) = 51.98105 41.05530 83.03436
#
# Poissons Ratio (x) = 0.05664 0.49636
# Poissons Ratio (y) = 0.07171 0.13117
# Poissons Ratio (z) = 0.31073 0.06486
#
# Static dielectric constant tensor:
#      x y z
#    x 3.802620 -0.278560 -0.140020 
#    y -0.278560 3.592540 -0.234200 
#    z -0.140020 -0.234200 3.939810 
# 
# 
# High freq. dielectric constant tensor:
#      x y z
#    x 1.810300 -0.025980 -0.006010 
#    y -0.025980 1.775180 -0.016620 
#    z -0.006010 -0.016620 1.810920 
# 
# From -- ./inp_files/144378.got.cif
#   From: 2010.06.25/outbox.cif.g09.slc.cpg/sg2_73_cif.got.tgz:144378.got - 2010.06.27 13:26:56.
