data_PCOD8002765
_publ_section_title
;
Structure prediction by ZEFSAII (Michael W. Deem and Ramdas Pophale) SiO2 
 PCOD8002765
Probable space group: P -1
;
_chemical_formula_sum "Si O2"
_cell_formula_units_Z 14
_cell_length_a 9.895625
_cell_length_b 6.647660
_cell_length_c 10.993052
_cell_angle_alpha 57.299927
_cell_angle_beta 87.273939
_cell_angle_gamma 85.677989
_cell_volume 606.789977
_symmetry_space_group_name_H-M "P -1"
_symmetry_group_IT_number 2
_symmetry_cell_setting 'triclinic'
loop_
_space_group_symop_operation_xyz
x,y,z
-x,-y,-z
loop_
_atom_site_type_symbol
_atom_site_label
_atom_site_fract_x
_atom_site_fract_y
_atom_site_fract_z
Si Si1 0.219846 0.003140 0.963872
Si Si2 0.859864 0.072242 0.610172
Si Si3 0.995280 0.780388 0.910155
Si Si4 0.294080 0.667516 0.272804
Si Si5 0.118164 0.297689 0.469468
Si Si6 0.510420 0.259119 0.470980
Si Si7 0.323743 0.336447 0.662140
O O1 0.313587 0.194940 0.834813
O O2 0.111786 0.137112 0.010600
O O3 0.144944 0.860970 0.908970
O O4 0.315495 0.819789 0.100654
O O5 0.952965 0.885188 0.747196
O O6 0.822146 0.933257 0.534854
O O7 0.723281 0.162570 0.660316
O O8 0.956548 0.290704 0.501650
O O9 0.000000 0.500000 0.000000
O O10 0.148068 0.541584 0.315042
O O11 0.405850 0.450269 0.346044
O O12 0.197379 0.295406 0.595000
O O13 0.465868 0.246051 0.619494
O O14 0.658285 0.375287 0.409690
O O15 0.500000 0.000000 0.500000
#
# Coordination Sequence:
#
# PCOD8002765 Si02
#       7
#     2   2   2   2   2   2   2
#     4  10  21  39  61  92 129 164 211 252 316 377
#     4  10  20  37  58  92 129 169 211 250 306 382
#     4  10  20  36  58  91 135 173 202 245 308 383
#     4  10  22  39  62  88 127 164 208 267 315 367
#     4  10  20  36  60  92 127 167 208 253 310 376
#     4  10  24  45  65  90 122 164 219 269 321 372
#     4  10  22  42  65  92 122 167 210 268 316 371
#
# _framework density 23.072232
#
# number of rings (size 3 to 8) (size 9 to 14) (size 15 to 20)
#    0.000    2.000    1.429    1.286    0.000    8.571 
#   10.286    0.714    0.000    0.000    0.000    6.000 
#    0.000    0.000    0.000    0.000    0.000    0.000 
#
# Total GULP energy -173520.962368 kJ/mol
# GULP energy per Si atom -12394.354455 kJ/mol
# Density = 2.301972 g / cm^3
# Si number density = 23.072232 Si / 1000 Ang^3
#
#
#
# Elastic Constant Matrix: (Units=GPa)
#
#
# Indices 1 2 3 4 5 6 
#
# 1 55.9320 26.3865 24.0279 4.2583 -0.9707 3.4395
# 2 26.3865 127.7790 36.4740 -13.7328 5.7399 13.4810
# 3 24.0279 36.4740 171.1387 -13.9020 -5.7571 9.5944
# 4 4.2583 -13.7328 -13.9020 27.2723 0.4585 -0.0193
# 5 -0.9707 5.7399 -5.7571 0.4585 35.3472 -11.7688
# 6 3.4395 13.4810 9.5944 -0.0193 -11.7688 27.4805
#
#
#
# Elastic Compliance Matrix: (Units=1/GPa)
#
#
# Indices 1 2 3 4 5 6 
#
# 1 0.021718 -0.004670 -0.002646 -0.007114 0.001376 0.001081
# 2 -0.004670 0.010463 -0.000922 0.005591 -0.004031 -0.005949
# 3 -0.002646 -0.000922 0.006782 0.003393 0.000713 -0.001277
# 4 -0.007114 0.005591 0.003393 0.042361 -0.002451 -0.004057
# 5 0.001376 -0.004031 0.000713 -0.002451 0.034579 0.016363
# 6 0.001081 -0.005949 -0.001277 -0.004057 0.016363 0.046623
#
#
# Mechanical properties :
#
#
# Convention : Reuss Voigt Hill
#
# Bulk Modulus (GPa) = 44.46990 58.73629 51.60309
# Shear Modulus (GPa) = 26.80985 35.88408 31.34697
#
# Velocity S-wave (km/s) = 3.41251 3.94800 3.68998
# Velocity P-wave (km/s) = 5.90279 6.80405 6.36938
#
# Compressibility (1/GPa) = 0.02248712
#
# Stress axis : x y z
#
# Youngs Moduli (GPa) = 46.04563 95.57384 147.43890
#
# Poissons Ratio (x) = 0.44630 0.39013
# Poissons Ratio (y) = 0.21502 0.13597
# Poissons Ratio (z) = 0.12184 0.08814
#
# Static dielectric constant tensor:
#      x y z
#    x 4.240180 0.308310 -0.131280 
#    y 0.308310 4.342020 -0.146510 
#    z -0.131280 -0.146510 4.288020 
# 
# 
# High freq. dielectric constant tensor:
#      x y z
#    x 1.906590 0.010620 0.000570 
#    y 0.010620 1.917960 -0.011150 
#    z 0.000570 -0.011150 1.907580 
# 
# From -- ./inp_files/409836.got.cif
#   From: 2010.06.25/outbox.cif.g09.slc.cpg/sg2_205_cif.got.tgz:409836.got - 2010.06.27 13:26:56.
