data_PCOD8002249
_publ_section_title
;
Structure prediction by ZEFSAII (Michael W. Deem and Ramdas Pophale) SiO2 
 PCOD8002249
Probable space group: P -1
;
_chemical_formula_sum "Si O2"
_cell_formula_units_Z 16
_cell_length_a 16.394752
_cell_length_b 8.982581
_cell_length_c 13.014882
_cell_angle_alpha 129.932684
_cell_angle_beta 142.920648
_cell_angle_gamma 71.061155
_cell_volume 809.930315
_symmetry_space_group_name_H-M "P -1"
_symmetry_group_IT_number 2
_symmetry_cell_setting 'triclinic'
loop_
_space_group_symop_operation_xyz
x,y,z
-x,-y,-z
loop_
_atom_site_type_symbol
_atom_site_label
_atom_site_fract_x
_atom_site_fract_y
_atom_site_fract_z
Si Si1 0.390799 0.174588 0.710122
Si Si2 0.774339 0.575699 0.593441
Si Si3 0.902916 0.968944 0.749521
Si Si4 0.516860 0.593370 0.894592
Si Si5 0.496254 0.095099 0.427085
Si Si6 0.036860 0.561332 0.945669
Si Si7 0.699379 0.564120 0.881958
Si Si8 0.234134 0.157215 0.117066
O O1 0.216956 0.122596 0.502745
O O2 0.487847 0.377352 0.829594
O O3 0.419234 0.977849 0.606873
O O4 0.437124 0.212417 0.892709
O O5 0.860696 0.801187 0.724638
O O6 0.630556 0.418647 0.318050
O O7 0.726514 0.633742 0.680792
O O8 0.887868 0.464843 0.682415
O O9 0.897046 0.183450 0.883916
O O10 0.060950 0.003173 0.876987
O O11 0.654328 0.631377 0.975028
O O12 0.569260 0.348949 0.616624
O O13 0.326492 0.024074 0.189125
O O14 0.500000 0.000000 0.500000
O O15 0.149068 0.470058 0.971541
O O16 0.000000 0.500000 0.000000
O O17 0.720010 0.758603 0.914244
#
# Coordination Sequence:
#
# PCOD8002249 Si02
#       8
#     2   2   2   2   2   2   2   2
#     4  10  21  40  61  85 118 153 199 241 287 353
#     4  10  20  35  58  86 118 154 194 239 296 343
#     4  10  20  36  58  84 117 153 193 242 295 339
#     4  10  22  39  59  85 120 158 189 240 303 347
#     4  12  22  36  62  93 112 149 203 247 282 346
#     4  11  20  33  57  89 118 149 189 245 292 340
#     4  12  22  36  60  89 120 153 192 244 298 340
#     4  11  22  35  57  89 123 145 192 254 297 337
#
# _framework density 19.754785999999999
#
# number of rings (size 3 to 8) (size 9 to 14) (size 15 to 20)
#    0.000    1.250    6.250    2.625    1.750    0.000 
#    0.000    2.500    0.000    4.500    0.000    0.000 
#    0.000    0.000    0.000    0.000    0.000    0.000 
#
# Total GULP energy -198404.109279 kJ/mol
# GULP energy per Si atom -12400.256830 kJ/mol
# Density = 1.970982 g / cm^3
# Si number density = 19.754786 Si / 1000 Ang^3
#
#
#
# Elastic Constant Matrix: (Units=GPa)
#
#
# Indices 1 2 3 4 5 6 
#
# 1 137.5147 41.3266 67.8279 -19.6496 5.9358 3.6711
# 2 41.3266 79.2308 37.3476 -30.1558 11.9942 0.7043
# 3 67.8279 37.3476 102.9075 -37.7305 2.3012 -1.7744
# 4 -19.6496 -30.1558 -37.7305 33.1444 -6.4160 4.3364
# 5 5.9358 11.9942 2.3012 -6.4160 33.5803 -3.3531
# 6 3.6711 0.7043 -1.7744 4.3364 -3.3531 23.0020
#
#
#
# Elastic Compliance Matrix: (Units=1/GPa)
#
#
# Indices 1 2 3 4 5 6 
#
# 1 0.012175 -0.004701 -0.009044 -0.007457 -0.001407 -0.001296
# 2 -0.004701 0.022120 0.002342 0.019787 -0.003853 -0.004038
# 3 -0.009044 0.002342 0.023779 0.024684 0.003759 -0.000900
# 4 -0.007457 0.019787 0.024684 0.074355 0.005697 -0.010698
# 5 -0.001407 -0.003853 0.003759 0.005697 0.032667 0.004320
# 6 -0.001296 -0.004038 -0.000900 -0.010698 0.004320 0.046382
#
#
# Mechanical properties :
#
#
# Convention : Reuss Voigt Hill
#
# Bulk Modulus (GPa) = 28.35412 68.07304 48.21358
# Shear Modulus (GPa) = 20.32192 29.48873 24.90533
#
# Velocity S-wave (km/s) = 3.21083 3.86779 3.55452
# Velocity P-wave (km/s) = 5.30378 7.38107 6.42691
#
# Compressibility (1/GPa) = 0.03526824
#
# Stress axis : x y z
#
# Youngs Moduli (GPa) = 82.13303 45.20872 42.05383
#
# Poissons Ratio (x) = 0.21254 0.38033
# Poissons Ratio (y) = 0.38613 -0.09850
# Poissons Ratio (z) = 0.74280 -0.10589
#
# Static dielectric constant tensor:
#      x y z
#    x 3.600810 0.031010 0.230920 
#    y 0.031010 3.593320 -0.309990 
#    z 0.230920 -0.309990 3.765460 
# 
# 
# High freq. dielectric constant tensor:
#      x y z
#    x 1.759570 0.013070 0.024320 
#    y 0.013070 1.762770 -0.026070 
#    z 0.024320 -0.026070 1.762500 
# 
# From -- ./inp_files/260137.got.cif
#   From: 2010.06.25/outbox.cif.g09.slc.cpg/sg2_131_cif.got.tgz:260137.got - 2010.06.27 13:26:56.
