data_PCOD8002004
_publ_section_title
;
Structure prediction by ZEFSAII (Michael W. Deem and Ramdas Pophale) SiO2 
 PCOD8002004
Probable space group: P -1
;
_chemical_formula_sum "Si O2"
_cell_formula_units_Z 14
_cell_length_a 9.968853
_cell_length_b 11.700520
_cell_length_c 14.479701
_cell_angle_alpha 149.513085
_cell_angle_beta 114.705463
_cell_angle_gamma 51.247984
_cell_volume 635.969982
_symmetry_space_group_name_H-M "P -1"
_symmetry_group_IT_number 2
_symmetry_cell_setting 'triclinic'
loop_
_space_group_symop_operation_xyz
x,y,z
-x,-y,-z
loop_
_atom_site_type_symbol
_atom_site_label
_atom_site_fract_x
_atom_site_fract_y
_atom_site_fract_z
Si Si1 0.470519 0.945152 0.168964
Si Si2 0.030244 0.812467 0.584210
Si Si3 0.111868 0.263278 0.192217
Si Si4 0.372958 0.801062 0.217807
Si Si5 0.635829 0.261793 0.445898
Si Si6 0.500883 0.454466 0.744571
Si Si7 0.875521 0.191323 0.199747
O O1 0.314490 0.161173 0.203559
O O2 0.621775 0.005076 0.252671
O O3 0.394312 0.991928 0.285922
O O4 0.554299 0.641305 0.941318
O O5 0.997511 0.593758 0.376706
O O6 0.151093 0.864822 0.590412
O O7 0.157969 0.675591 0.616678
O O8 0.838956 0.084328 0.751518
O O9 0.050974 0.158789 0.187054
O O10 0.100636 0.104389 0.990166
O O11 0.438611 0.792371 0.336403
O O12 0.500000 0.500000 0.000000
O O13 0.500000 0.500000 0.500000
O O14 0.595280 0.367996 0.612960
O O15 0.287520 0.613857 0.781087
#
# Coordination Sequence:
#
# PCOD8002004 Si02
#       7
#     2   2   2   2   2   2   2
#     4  10  21  42  66  94 127 165 207 267 316 368
#     4  12  23  40  64  93 131 164 209 263 312 376
#     4  10  20  34  63  99 123 158 214 266 316 359
#     4  10  24  45  67  90 129 168 212 269 317 366
#     4  12  24  39  63  99 130 166 210 253 320 380
#     4  10  23  42  63  92 133 164 209 261 314 376
#     4  10  20  36  64  95 125 159 215 265 311 365
#
# _framework density 22.013618000000001
#
# number of rings (size 3 to 8) (size 9 to 14) (size 15 to 20)
#    0.000    1.429    4.286    0.429    4.000    2.857 
#    0.000    2.857    0.000    0.000    0.000    0.000 
#    0.000    0.000    0.000    0.000    0.000    0.000 
#
# Total GULP energy -173445.065902 kJ/mol
# GULP energy per Si atom -12388.933279 kJ/mol
# Density = 2.196351 g / cm^3
# Si number density = 22.013618 Si / 1000 Ang^3
#
#
#
# Elastic Constant Matrix: (Units=GPa)
#
#
# Indices 1 2 3 4 5 6 
#
# 1 119.5705 22.6362 42.4618 1.4482 4.0501 -15.7221
# 2 22.6362 71.9341 14.8907 -9.6097 -1.2995 5.1701
# 3 42.4618 14.8907 70.6509 -6.0266 13.1509 -14.2659
# 4 1.4482 -9.6097 -6.0266 29.0189 -0.5217 -10.3523
# 5 4.0501 -1.2995 13.1509 -0.5217 33.8574 -4.8002
# 6 -15.7221 5.1701 -14.2659 -10.3523 -4.8002 26.9630
#
#
#
# Elastic Compliance Matrix: (Units=1/GPa)
#
#
# Indices 1 2 3 4 5 6 
#
# 1 0.011461 -0.002819 -0.005880 -0.001334 0.001328 0.003836
# 2 -0.002819 0.016127 -0.002603 0.003327 0.001367 -0.004592
# 3 -0.005880 -0.002603 0.022244 0.007743 -0.006404 0.010673
# 4 -0.001334 0.003327 0.007743 0.044328 0.000775 0.019839
# 5 0.001328 0.001367 -0.006404 0.000775 0.032380 0.003186
# 6 0.003836 -0.004592 0.010673 0.019839 0.003186 0.054036
#
#
# Mechanical properties :
#
#
# Convention : Reuss Voigt Hill
#
# Bulk Modulus (GPa) = 36.72730 46.90366 41.81548
# Shear Modulus (GPa) = 23.55641 30.11233 26.83437
#
# Velocity S-wave (km/s) = 3.27476 3.70252 3.49519
# Velocity P-wave (km/s) = 5.56946 6.29532 5.94348
#
# Compressibility (1/GPa) = 0.02722771
#
# Stress axis : x y z
#
# Youngs Moduli (GPa) = 87.25412 62.00889 44.95533
#
# Poissons Ratio (x) = 0.17482 0.26435
# Poissons Ratio (y) = 0.24599 0.11700
# Poissons Ratio (z) = 0.51308 0.16138
#
# Static dielectric constant tensor:
#      x y z
#    x 3.957620 0.082070 -0.048730 
#    y 0.082070 4.005850 -0.136630 
#    z -0.048730 -0.136630 4.019310 
# 
# 
# High freq. dielectric constant tensor:
#      x y z
#    x 1.859560 -0.003880 -0.003890 
#    y -0.003880 1.842090 -0.012290 
#    z -0.003890 -0.012290 1.867090 
# 
# From -- ./inp_files/388716.got.cif
#   From: 2010.06.25/outbox.cif.g09.slc.cpg/sg2_195_cif.got.tgz:388716.got - 2010.06.27 13:26:56.
