data_PCOD8002313
_publ_section_title
;
Structure prediction by ZEFSAII (Michael W. Deem and Ramdas Pophale) SiO2 
 PCOD8002313
Probable space group: P -1
;
_chemical_formula_sum "Si O2"
_cell_formula_units_Z 16
_cell_length_a 22.247688
_cell_length_b 11.936746
_cell_length_c 9.264961
_cell_angle_alpha 95.865570
_cell_angle_beta 116.167908
_cell_angle_gamma 30.018890
_cell_volume 864.327404
_symmetry_space_group_name_H-M "P -1"
_symmetry_group_IT_number 2
_symmetry_cell_setting 'triclinic'
loop_
_space_group_symop_operation_xyz
x,y,z
-x,-y,-z
loop_
_atom_site_type_symbol
_atom_site_label
_atom_site_fract_x
_atom_site_fract_y
_atom_site_fract_z
Si Si1 0.779031 0.291461 0.600706
Si Si2 0.664026 0.521647 0.822449
Si Si3 0.688758 0.290368 0.027714
Si Si4 0.077785 0.719577 0.420966
Si Si5 0.094902 0.689743 0.773662
Si Si6 0.645852 0.894241 0.024919
Si Si7 0.602117 0.905632 0.305279
Si Si8 0.512808 0.327712 0.856730
O O1 0.761303 0.357883 0.754375
O O2 0.868255 0.251528 0.599555
O O3 0.596650 0.536283 0.380802
O O4 0.908683 0.984743 0.687811
O O5 0.488521 0.862839 0.655898
O O6 0.627889 0.456490 0.847220
O O7 0.779924 0.411083 0.041724
O O8 0.615525 0.457312 0.117978
O O9 0.619773 0.272341 0.927199
O O10 0.892045 0.968497 0.208393
O O11 0.086239 0.730824 0.600958
O O12 0.208796 0.415522 0.479977
O O13 0.169928 0.448755 0.850175
O O14 0.599849 0.964699 0.153357
O O15 0.501071 0.052448 0.802258
O O16 0.648339 0.019223 0.992084
#
# Coordination Sequence:
#
# PCOD8002313 Si02
#       8
#     2   2   2   2   2   2   2   2
#     4  12  22  35  60  88 116 148 194 231 280 341
#     4  11  22  36  56  89 121 149 180 236 292 335
#     4  11  23  38  60  81 119 149 191 238 274 341
#     4  11  20  36  61  88 109 146 193 245 270 326
#     4  10  20  35  59  88 114 141 187 243 282 319
#     4   9  17  34  59  83 112 143 186 239 283 322
#     4   9  18  33  58  87 114 144 182 240 287 324
#     4  11  22  40  58  85 111 156 194 225 284 338
#
# _framework density 18.511503000000001
#
# number of rings (size 3 to 8) (size 9 to 14) (size 15 to 20)
#    0.000    1.500    5.000    2.250    0.000    1.000 
#    0.000    3.750    0.000    1.500    0.000    0.000 
#    0.000    0.000    0.000    0.000    0.000    0.000 
#
# Total GULP energy -198419.212618 kJ/mol
# GULP energy per Si atom -12401.200789 kJ/mol
# Density = 1.846937 g / cm^3
# Si number density = 18.511503 Si / 1000 Ang^3
#
#
#
# Elastic Constant Matrix: (Units=GPa)
#
#
# Indices 1 2 3 4 5 6 
#
# 1 91.5416 45.6235 38.3904 -10.7991 5.1234 22.2610
# 2 45.6235 129.1090 39.1049 -20.5401 -10.0156 5.4023
# 3 38.3904 39.1049 64.3533 -19.3931 8.4974 2.1178
# 4 -10.7991 -20.5401 -19.3931 25.0600 2.8161 -5.8636
# 5 5.1234 -10.0156 8.4974 2.8161 16.7281 -6.9613
# 6 22.2610 5.4023 2.1178 -5.8636 -6.9613 20.4318
#
#
#
# Elastic Compliance Matrix: (Units=1/GPa)
#
#
# Indices 1 2 3 4 5 6 
#
# 1 0.029855 -0.009024 -0.010653 -0.009412 -0.024188 -0.039980
# 2 -0.009024 0.013947 -0.004341 0.005494 0.018404 0.014441
# 3 -0.010653 -0.004341 0.032578 0.021173 -0.015168 0.010287
# 4 -0.009412 0.005494 0.021173 0.062677 -0.005710 0.022649
# 5 -0.024188 0.018404 -0.015168 -0.005710 0.111612 0.059448
# 6 -0.039980 0.014441 0.010287 0.022649 0.059448 0.114372
#
#
# Mechanical properties :
#
#
# Convention : Reuss Voigt Hill
#
# Bulk Modulus (GPa) = 35.28372 59.02684 47.15528
# Shear Modulus (GPa) = 11.83363 23.23632 17.53497
#
# Velocity S-wave (km/s) = 2.53110 3.54678 3.08108
# Velocity P-wave (km/s) = 5.25773 6.98059 6.17950
#
# Compressibility (1/GPa) = 0.02834168
#
# Stress axis : x y z
#
# Youngs Moduli (GPa) = 33.49532 71.70247 30.69602
#
# Poissons Ratio (x) = 0.64704 0.32702
# Poissons Ratio (y) = 0.30226 0.13326
# Poissons Ratio (z) = 0.35684 0.31127
#
# Static dielectric constant tensor:
#      x y z
#    x 3.164170 0.149740 -0.132860 
#    y 0.149740 3.676790 -0.302900 
#    z -0.132860 -0.302900 3.355980 
# 
# 
# High freq. dielectric constant tensor:
#      x y z
#    x 1.692530 0.011030 -0.015880 
#    y 0.011030 1.727060 -0.018930 
#    z -0.015880 -0.018930 1.707780 
# 
# From -- ./inp_files/199707.got.cif
#   From: 2010.06.25/outbox.cif.g09.slc.cpg/sg2_100_cif.got.tgz:199707.got - 2010.06.27 13:26:56.
