data_PCOD8002405
_publ_section_title
;
Structure prediction by ZEFSAII (Michael W. Deem and Ramdas Pophale) SiO2 
 PCOD8002405
Probable space group: P -1
;
_chemical_formula_sum "Si O2"
_cell_formula_units_Z 12
_cell_length_a 11.951176
_cell_length_b 12.073353
_cell_length_c 9.162683
_cell_angle_alpha 140.634916
_cell_angle_beta 60.558194
_cell_angle_gamma 132.642062
_cell_volume 615.366838
_symmetry_space_group_name_H-M "P -1"
_symmetry_group_IT_number 2
_symmetry_cell_setting 'triclinic'
loop_
_space_group_symop_operation_xyz
x,y,z
-x,-y,-z
loop_
_atom_site_type_symbol
_atom_site_label
_atom_site_fract_x
_atom_site_fract_y
_atom_site_fract_z
Si Si1 0.070395 0.929541 0.173895
Si Si2 0.710486 0.793575 0.927962
Si Si3 0.412455 0.455562 0.857480
Si Si4 0.812162 0.999153 0.516204
Si Si5 0.319233 0.893569 0.533040
Si Si6 0.818724 0.560687 0.821935
O O1 0.944767 0.987749 0.338894
O O2 0.207639 0.113602 0.182301
O O3 0.136727 0.906462 0.259488
O O4 0.995902 0.712857 0.910721
O O5 0.532511 0.620228 0.831421
O O6 0.787360 0.684784 0.847361
O O7 0.716053 0.965373 0.202562
O O8 0.344718 0.226497 0.605848
O O9 0.500000 0.500000 0.000000
O O10 0.274406 0.485108 0.012261
O O11 0.768927 0.141179 0.599140
O O12 0.234143 0.667261 0.435218
O O13 0.500000 0.000000 0.500000
#
# Coordination Sequence:
#
# PCOD8002405 Si02
#       6
#     2   2   2   2   2   2
#     4  10  22  39  58  85 124 153 185 244 291 343
#     4  11  20  38  61  89 114 148 202 242 278 337
#     4   9  15  34  58  81 108 147 192 228 274 338
#     4  10  21  39  61  85 116 159 191 229 303 345
#     4  12  21  36  66  86 111 154 201 238 283 343
#     4  10  20  35  61  86 116 153 193 234 289 345
#
# _framework density 19.500563
#
# number of rings (size 3 to 8) (size 9 to 14) (size 15 to 20)
#    0.000    1.667    6.667    1.500    0.000    2.000 
#    0.000    0.833    0.000    0.000    0.000    0.000 
#    0.000    0.000    0.000    0.000    0.000    0.000 
#
# Total GULP energy -148697.322779 kJ/mol
# GULP energy per Si atom -12391.443565 kJ/mol
# Density = 1.945618 g / cm^3
# Si number density = 19.500563 Si / 1000 Ang^3
#
#
#
# Elastic Constant Matrix: (Units=GPa)
#
#
# Indices 1 2 3 4 5 6 
#
# 1 79.6704 18.4239 17.0565 -7.2680 -3.2710 -9.6614
# 2 18.4239 116.4531 22.0282 -4.2471 -7.4167 9.0761
# 3 17.0565 22.0282 44.0724 13.2295 -8.8849 -13.7855
# 4 -7.2680 -4.2471 13.2295 31.4845 -5.1742 -0.9601
# 5 -3.2710 -7.4167 -8.8849 -5.1742 17.4226 8.5954
# 6 -9.6614 9.0761 -13.7855 -0.9601 8.5954 27.8049
#
#
#
# Elastic Compliance Matrix: (Units=1/GPa)
#
#
# Indices 1 2 3 4 5 6 
#
# 1 0.015031 -0.001274 -0.006124 0.005868 -0.000572 0.002982
# 2 -0.001274 0.012145 -0.009424 0.006192 0.007478 -0.011178
# 3 -0.006124 -0.009424 0.042389 -0.019836 0.000078 0.021256
# 4 0.005868 0.006192 -0.019836 0.044005 0.012725 -0.012231
# 5 -0.000572 0.007478 0.000078 0.012725 0.077119 -0.026002
# 6 0.002982 -0.011178 0.021256 -0.012231 -0.026002 0.058804
#
#
# Mechanical properties :
#
#
# Convention : Reuss Voigt Hill
#
# Bulk Modulus (GPa) = 27.84074 39.46814 33.65444
# Shear Modulus (GPa) = 16.94273 27.52155 22.23214
#
# Velocity S-wave (km/s) = 2.95079 3.76083 3.38017
# Velocity P-wave (km/s) = 5.09092 6.25635 5.70348
#
# Compressibility (1/GPa) = 0.03591859
#
# Stress axis : x y z
#
# Youngs Moduli (GPa) = 66.52915 82.34022 23.59093
#
# Poissons Ratio (x) = 0.10493 0.14448
# Poissons Ratio (y) = 0.08478 0.22233
# Poissons Ratio (z) = 0.40745 0.77601
#
# Static dielectric constant tensor:
#      x y z
#    x 3.599010 0.366060 0.055560 
#    y 0.366060 4.048360 0.216030 
#    z 0.055560 0.216030 3.369430 
# 
# 
# High freq. dielectric constant tensor:
#      x y z
#    x 1.746040 0.020500 0.003540 
#    y 0.020500 1.764720 0.018150 
#    z 0.003540 0.018150 1.734270 
# 
# From -- ./inp_files/184768.got.cif
#   From: 2010.06.25/outbox.cif.g09.slc.cpg/sg2_93_cif.got.tgz:184768.got - 2010.06.27 13:26:56.
