data_PCOD8002314
_publ_section_title
;
Structure prediction by ZEFSAII (Michael W. Deem and Ramdas Pophale) SiO2 
 PCOD8002314
Probable space group: P -1
;
_chemical_formula_sum "Si O2"
_cell_formula_units_Z 12
_cell_length_a 9.939478
_cell_length_b 8.796294
_cell_length_c 13.519155
_cell_angle_alpha 85.408692
_cell_angle_beta 147.232606
_cell_angle_gamma 94.058663
_cell_volume 637.660755
_symmetry_space_group_name_H-M "P -1"
_symmetry_group_IT_number 2
_symmetry_cell_setting 'triclinic'
loop_
_space_group_symop_operation_xyz
x,y,z
-x,-y,-z
loop_
_atom_site_type_symbol
_atom_site_label
_atom_site_fract_x
_atom_site_fract_y
_atom_site_fract_z
Si Si1 0.142720 0.356656 0.480127
Si Si2 0.773971 0.537864 0.133520
Si Si3 0.893865 0.310252 0.523520
Si Si4 0.441299 0.801445 0.375444
Si Si5 0.939636 0.638062 0.026258
Si Si6 0.428487 0.153868 0.327186
O O1 0.236413 0.521618 0.572551
O O2 0.372041 0.260023 0.588631
O O3 0.945738 0.388751 0.268073
O O4 0.008267 0.264061 0.490545
O O5 0.884793 0.680788 0.258311
O O6 0.768147 0.578342 0.012571
O O7 0.500000 0.500000 0.000000
O O8 0.691241 0.184491 0.434540
O O9 0.192063 0.702773 0.225386
O O10 0.563151 0.782220 0.559462
O O11 0.376150 0.974803 0.302381
O O12 0.000000 0.500000 0.000000
O O13 0.798343 0.768578 0.872810
#
# Coordination Sequence:
#
# PCOD8002314 Si02
#       6
#     2   2   2   2   2   2
#     4   9  19  36  61  83 115 150 196 239 292 333
#     4  10  20  35  59  88 116 144 193 249 287 337
#     4   9  19  37  60  85 115 149 197 240 291 335
#     4  11  23  41  58  86 124 155 195 237 291 357
#     4  12  24  36  64  90 116 151 200 243 292 342
#     4  11  23  40  60  84 122 162 189 237 296 348
#
# _framework density 18.818784999999998
#
# number of rings (size 3 to 8) (size 9 to 14) (size 15 to 20)
#    1.000    0.667    1.667    3.500    2.333    2.667 
#    0.000    0.000    0.000    2.000    0.000    0.000 
#    0.000    0.000    0.000    0.000    0.000    0.000 
#
# Total GULP energy -148787.207524 kJ/mol
# GULP energy per Si atom -12398.933960 kJ/mol
# Density = 1.877595 g / cm^3
# Si number density = 18.818785 Si / 1000 Ang^3
#
#
#
# Elastic Constant Matrix: (Units=GPa)
#
#
# Indices 1 2 3 4 5 6 
#
# 1 145.7252 42.1240 34.5783 -6.0168 -7.3184 1.2790
# 2 42.1240 56.1701 26.9863 5.9599 -3.4594 0.9845
# 3 34.5783 26.9863 81.8666 -11.4162 -3.0639 -11.5894
# 4 -6.0168 5.9599 -11.4162 29.8797 8.7967 1.4450
# 5 -7.3184 -3.4594 -3.0639 8.7967 33.0961 -3.0590
# 6 1.2790 0.9845 -11.5894 1.4450 -3.0590 22.0435
#
#
#
# Elastic Compliance Matrix: (Units=1/GPa)
#
#
# Indices 1 2 3 4 5 6 
#
# 1 0.009212 -0.006340 -0.001615 0.002422 0.000471 -0.001194
# 2 -0.006340 0.028119 -0.008592 -0.010921 0.003253 -0.004238
# 3 -0.001615 -0.008592 0.018157 0.008129 -0.000869 0.009370
# 4 0.002422 -0.010921 0.008129 0.042500 -0.011123 0.000291
# 5 0.000471 0.003253 -0.000869 -0.011123 0.033980 0.004815
# 6 -0.001194 -0.004238 0.009370 0.000291 0.004815 0.051199
#
#
# Mechanical properties :
#
#
# Convention : Reuss Voigt Hill
#
# Bulk Modulus (GPa) = 44.65482 54.57101 49.61291
# Shear Modulus (GPa) = 22.34882 29.00874 25.67878
#
# Velocity S-wave (km/s) = 3.44987 3.93043 3.69796
# Velocity P-wave (km/s) = 6.29676 7.04690 6.68236
#
# Compressibility (1/GPa) = 0.02239400
#
# Stress axis : x y z
#
# Youngs Moduli (GPa) = 108.55295 35.56316 55.07546
#
# Poissons Ratio (x) = 0.22546 0.08894
# Poissons Ratio (y) = 0.68819 0.47323
# Poissons Ratio (z) = 0.17529 0.30558
#
# Static dielectric constant tensor:
#      x y z
#    x 3.437700 0.146100 -0.149140 
#    y 0.146100 3.199730 -0.003690 
#    z -0.149140 -0.003690 3.437470 
# 
# 
# High freq. dielectric constant tensor:
#      x y z
#    x 1.743570 0.015660 -0.005470 
#    y 0.015660 1.704750 0.001790 
#    z -0.005470 0.001790 1.732320 
# 
# From -- ./inp_files/190860.got.cif
#   From: 2010.06.25/outbox.cif.g09.slc.cpg/sg2_96_cif.got.tgz:190860.got - 2010.06.27 13:26:56.
