data_PCOD8002018
_publ_section_title
;
Structure prediction by ZEFSAII (Michael W. Deem and Ramdas Pophale) SiO2 
 PCOD8002018
Probable space group: P -1
;
_chemical_formula_sum "Si O2"
_cell_formula_units_Z 14
_cell_length_a 10.035410
_cell_length_b 10.642764
_cell_length_c 12.740167
_cell_angle_alpha 102.172113
_cell_angle_beta 121.470272
_cell_angle_gamma 124.841041
_cell_volume 653.766334
_symmetry_space_group_name_H-M "P -1"
_symmetry_group_IT_number 2
_symmetry_cell_setting 'triclinic'
loop_
_space_group_symop_operation_xyz
x,y,z
-x,-y,-z
loop_
_atom_site_type_symbol
_atom_site_label
_atom_site_fract_x
_atom_site_fract_y
_atom_site_fract_z
Si Si1 0.513938 0.304280 0.117823
Si Si2 0.815697 0.521111 0.729110
Si Si3 0.966090 0.609060 0.199039
Si Si4 0.260414 0.921039 0.836904
Si Si5 0.170199 0.314656 0.023726
Si Si6 0.370237 0.068591 0.369120
Si Si7 0.288643 0.755286 0.649874
O O1 0.816702 0.525762 0.234616
O O2 0.404401 0.367162 0.120343
O O3 0.507219 0.200338 0.193551
O O4 0.324539 0.115090 0.914361
O O5 0.818753 0.620709 0.844309
O O6 0.504872 0.277752 0.525047
O O7 0.976505 0.500364 0.823108
O O8 0.967119 0.689402 0.723445
O O9 0.777519 0.537618 0.014439
O O10 0.250838 0.879887 0.366098
O O11 0.270230 0.887966 0.712289
O O12 0.500000 0.000000 0.000000
O O13 0.875224 0.051506 0.830520
O O14 0.614366 0.172004 0.417663
O O15 0.000000 0.500000 0.500000
#
# Coordination Sequence:
#
# PCOD8002018 Si02
#       7
#     2   2   2   2   2   2   2
#     4  11  22  43  64  90 130 165 209 262 312 375
#     4  12  20  43  64  97 124 165 211 267 305 375
#     4  10  22  41  66  89 128 167 213 258 309 374
#     4  10  20  34  66  86 123 157 210 249 315 358
#     4  10  25  39  65  93 129 170 204 256 325 370
#     4  10  24  38  65  95 128 157 217 254 320 367
#     4  11  20  39  62  96 121 161 212 260 309 372
#
# _framework density 21.414379
#
# number of rings (size 3 to 8) (size 9 to 14) (size 15 to 20)
#    0.857    0.571    4.286    3.000    0.000    2.286 
#    2.571    2.143    0.000    0.000    0.000    0.000 
#    0.000    0.000    0.000    0.000    0.000    0.000 
#
# Total GULP energy -173497.544456 kJ/mol
# GULP energy per Si atom -12392.681747 kJ/mol
# Density = 2.136564 g / cm^3
# Si number density = 21.414379 Si / 1000 Ang^3
#
#
#
# Elastic Constant Matrix: (Units=GPa)
#
#
# Indices 1 2 3 4 5 6 
#
# 1 138.8656 27.3482 48.8372 6.8212 -4.5069 -1.0764
# 2 27.3482 74.2450 20.3975 20.4751 4.3286 16.2036
# 3 48.8372 20.3975 90.8482 19.0318 -15.4399 -2.0539
# 4 6.8212 20.4751 19.0318 33.3387 7.8882 5.1113
# 5 -4.5069 4.3286 -15.4399 7.8882 26.7827 3.2902
# 6 -1.0764 16.2036 -2.0539 5.1113 3.2902 25.5215
#
#
#
# Elastic Compliance Matrix: (Units=1/GPa)
#
#
# Indices 1 2 3 4 5 6 
#
# 1 0.009516 -0.003154 -0.005462 0.003395 -0.002231 0.001572
# 2 -0.003154 0.019887 -0.001171 -0.009126 -0.000384 -0.010976
# 3 -0.005462 -0.001171 0.019336 -0.012924 0.013871 0.002869
# 4 0.003395 -0.009126 -0.012924 0.047103 -0.019021 -0.002084
# 5 -0.002231 -0.000384 0.013871 -0.019021 0.050804 -0.001474
# 6 0.001572 -0.010976 0.002869 -0.002084 -0.001474 0.047056
#
#
# Mechanical properties :
#
#
# Convention : Reuss Voigt Hill
#
# Bulk Modulus (GPa) = 34.28778 55.23605 44.76192
# Shear Modulus (GPa) = 22.42148 30.95363 26.68755
#
# Velocity S-wave (km/s) = 3.23929 3.80605 3.53405
# Velocity P-wave (km/s) = 5.48060 6.72046 6.13195
#
# Compressibility (1/GPa) = 0.02916491
#
# Stress axis : x y z
#
# Youngs Moduli (GPa) = 105.08136 50.28358 51.71576
#
# Poissons Ratio (x) = 0.15859 0.28250
# Poissons Ratio (y) = 0.33142 0.06057
# Poissons Ratio (z) = 0.57401 0.05889
#
# Static dielectric constant tensor:
#      x y z
#    x 3.845270 0.210960 -0.271310 
#    y 0.210960 3.810860 0.088980 
#    z -0.271310 0.088980 4.077910 
# 
# 
# High freq. dielectric constant tensor:
#      x y z
#    x 1.828710 0.019790 -0.006860 
#    y 0.019790 1.824210 0.014240 
#    z -0.006860 0.014240 1.839010 
# 
# From -- ./inp_files/290168.got.cif
#   From: 2010.06.25/outbox.cif.g09.slc.cpg/sg2_146_cif.got.tgz:290168.got - 2010.06.27 13:26:56.
