data_PCOD8002890
_publ_section_title
;
Structure prediction by ZEFSAII (Michael W. Deem and Ramdas Pophale) SiO2 
 PCOD8002890
Probable space group: P -1
;
_chemical_formula_sum "Si O2"
_cell_formula_units_Z 12
_cell_length_a 10.803957
_cell_length_b 10.326602
_cell_length_c 6.958785
_cell_angle_alpha 136.119040
_cell_angle_beta 73.814146
_cell_angle_gamma 115.411051
_cell_volume 485.512686
_symmetry_space_group_name_H-M "P -1"
_symmetry_group_IT_number 2
_symmetry_cell_setting 'triclinic'
loop_
_space_group_symop_operation_xyz
x,y,z
-x,-y,-z
loop_
_atom_site_type_symbol
_atom_site_label
_atom_site_fract_x
_atom_site_fract_y
_atom_site_fract_z
Si Si1 0.891188 0.058633 0.973346
Si Si2 0.859150 0.350583 0.979888
Si Si3 0.243674 0.752068 0.475820
Si Si4 0.255349 0.322930 0.605781
Si Si5 0.179630 0.320196 0.075850
Si Si6 0.453810 0.574099 0.292531
O O1 0.890794 0.220164 0.989825
O O2 0.836241 0.843755 0.674673
O O3 0.797960 0.082842 0.215298
O O4 0.059303 0.132311 0.027241
O O5 0.770339 0.201858 0.693602
O O6 0.766821 0.474394 0.234491
O O7 0.000000 0.500000 0.000000
O O8 0.139864 0.522241 0.306742
O O9 0.398109 0.757967 0.469199
O O10 0.417836 0.356365 0.543580
O O11 0.206583 0.268050 0.788741
O O12 0.321103 0.380137 0.207440
O O13 0.500000 0.500000 0.000000
#
# Coordination Sequence:
#
# PCOD8002890 Si02
#       6
#     2   2   2   2   2   2
#     4  12  21  36  62  92 109 145 200 238 274 338
#     4  11  21  37  60  84 118 151 187 232 292 337
#     4   9  20  36  61  81 118 153 184 236 288 328
#     4  10  20  36  60  84 117 151 188 236 285 332
#     4   8  17  33  60  78 113 157 182 222 298 328
#     4   8  15  35  60  77 112 165 175 223 300 332
#
# _framework density 24.716142000000001
#
# number of rings (size 3 to 8) (size 9 to 14) (size 15 to 20)
#    1.000    1.333    5.000    1.000    0.000    0.667 
#    0.000    5.833    0.000    0.000    0.000    0.000 
#    0.000    0.000    0.000    0.000    0.000    0.000 
#
# Total GULP energy -148681.434908 kJ/mol
# GULP energy per Si atom -12390.119576 kJ/mol
# Density = 2.465989 g / cm^3
# Si number density = 24.716142 Si / 1000 Ang^3
#
#
#
# Elastic Constant Matrix: (Units=GPa)
#
#
# Indices 1 2 3 4 5 6 
#
# 1 166.1079 15.0414 55.6392 -3.6121 8.9560 22.6705
# 2 15.0414 46.5914 14.3244 5.2370 8.7213 7.3757
# 3 55.6392 14.3244 153.2091 -8.3537 2.1500 4.0086
# 4 -3.6121 5.2370 -8.3537 15.3368 9.1023 1.1103
# 5 8.9560 8.7213 2.1500 9.1023 46.0212 2.4300
# 6 22.6705 7.3757 4.0086 1.1103 2.4300 27.8689
#
#
#
# Elastic Compliance Matrix: (Units=1/GPa)
#
#
# Indices 1 2 3 4 5 6 
#
# 1 0.007829 -0.000823 -0.002489 0.001981 -0.001339 -0.005755
# 2 -0.000823 0.024585 -0.002267 -0.007945 -0.002559 -0.004971
# 3 -0.002489 -0.002267 0.007867 0.004637 -0.000442 0.001347
# 4 0.001981 -0.007945 0.004637 0.079827 -0.014776 -0.002068
# 5 -0.001339 -0.002559 -0.000442 -0.014776 0.025407 0.000204
# 6 -0.005755 -0.004971 0.001347 -0.002068 0.000204 0.041750
#
#
# Mechanical properties :
#
#
# Convention : Reuss Voigt Hill
#
# Bulk Modulus (GPa) = 34.33741 59.54650 46.94195
# Shear Modulus (GPa) = 24.02339 36.57228 30.29784
#
# Velocity S-wave (km/s) = 3.12103 3.85085 3.50499
# Velocity P-wave (km/s) = 5.18754 6.62695 5.95093
#
# Compressibility (1/GPa) = 0.02912275
#
# Stress axis : x y z
#
# Youngs Moduli (GPa) = 127.72815 40.67538 127.11906
#
# Poissons Ratio (x) = 0.03349 0.31638
# Poissons Ratio (y) = 0.10515 0.28816
# Poissons Ratio (z) = 0.31790 0.09220
#
# Static dielectric constant tensor:
#      x y z
#    x 5.564360 -0.102070 0.257860 
#    y -0.102070 4.362520 -0.173200 
#    z 0.257860 -0.173200 4.367050 
# 
# 
# High freq. dielectric constant tensor:
#      x y z
#    x 2.009180 -0.014440 0.005760 
#    y -0.014440 1.963790 -0.011360 
#    z 0.005760 -0.011360 1.978630 
# 
# From -- ./inp_files/269372.got.cif
#   From: 2010.06.25/outbox.cif.g09.slc.cpg/sg2_135_cif.got.tgz:269372.got - 2010.06.27 13:26:56.
