data_PCOD8002852
_publ_section_title
;
Structure prediction by ZEFSAII (Michael W. Deem and Ramdas Pophale) SiO2 
 PCOD8002852
Probable space group: P -1
;
_chemical_formula_sum "Si O2"
_cell_formula_units_Z 14
_cell_length_a 9.230949
_cell_length_b 13.510550
_cell_length_c 15.364165
_cell_angle_alpha 143.180222
_cell_angle_beta 134.385663
_cell_angle_gamma 70.617990
_cell_volume 694.602028
_symmetry_space_group_name_H-M "P -1"
_symmetry_group_IT_number 2
_symmetry_cell_setting 'triclinic'
loop_
_space_group_symop_operation_xyz
x,y,z
-x,-y,-z
loop_
_atom_site_type_symbol
_atom_site_label
_atom_site_fract_x
_atom_site_fract_y
_atom_site_fract_z
Si Si1 0.305802 0.595749 0.292754
Si Si2 0.359890 0.936844 0.667487
Si Si3 0.201558 0.748513 0.186479
Si Si4 0.235498 0.417357 0.533678
Si Si5 0.677064 0.906109 0.407591
Si Si6 0.816099 0.323234 0.185029
Si Si7 0.078857 0.292371 0.560947
O O1 0.295225 0.658708 0.234381
O O2 0.505136 0.542509 0.349142
O O3 0.371821 0.762515 0.507513
O O4 0.047092 0.407077 0.072797
O O5 0.255827 0.021150 0.612395
O O6 0.188003 0.861454 0.625909
O O7 0.626101 0.103658 0.923881
O O8 0.397856 0.831903 0.251320
O O9 0.170198 0.914787 0.334786
O O10 0.068982 0.341395 0.324077
O O11 0.270737 0.623341 0.724534
O O12 0.102638 0.258432 0.444310
O O13 0.733231 0.738105 0.327793
O O14 0.851851 0.482857 0.238684
#
# Coordination Sequence:
#
# PCOD8002852 Si02
#       7
#     2   2   2   2   2   2   2
#     4  10  20  38  61  89 118 156 196 243 296 349
#     4  11  24  36  59  94 125 149 195 243 304 349
#     4   9  19  35  60  88 121 153 198 240 284 366
#     4   9  20  43  64  81 116 161 205 238 286 350
#     4  10  20  36  59  91 121 156 192 238 305 351
#     4   9  22  42  62  83 123 152 206 246 280 351
#     4  10  21  40  60  87 120 157 192 247 293 348
#
# _framework density 20.155427
#
# number of rings (size 3 to 8) (size 9 to 14) (size 15 to 20)
#    0.857    1.429    1.429    0.429    4.000    1.714 
#    5.143    0.714    0.000    0.000    0.000    0.000 
#    0.000    0.000    0.000    0.000    0.000    0.000 
#
# Total GULP energy -173525.874107 kJ/mol
# GULP energy per Si atom -12394.705293 kJ/mol
# Density = 2.010955 g / cm^3
# Si number density = 20.155427 Si / 1000 Ang^3
#
#
#
# Elastic Constant Matrix: (Units=GPa)
#
#
# Indices 1 2 3 4 5 6 
#
# 1 42.8493 29.1350 43.2120 -2.5264 10.9706 -3.2809
# 2 29.1350 70.8869 53.2367 -1.9881 12.8343 -9.4527
# 3 43.2120 53.2367 163.5174 12.3852 11.2005 -14.9660
# 4 -2.5264 -1.9881 12.3852 27.3015 -0.0930 12.8395
# 5 10.9706 12.8343 11.2005 -0.0930 22.3055 -3.0313
# 6 -3.2809 -9.4527 -14.9660 12.8395 -3.0313 28.2240
#
#
#
# Elastic Compliance Matrix: (Units=1/GPa)
#
#
# Indices 1 2 3 4 5 6 
#
# 1 0.041626 -0.009162 -0.008966 0.011727 -0.011955 -0.009603
# 2 -0.009162 0.022675 -0.004393 0.001400 -0.005931 0.002926
# 3 -0.008966 -0.004393 0.011292 -0.010199 0.002362 0.008367
# 4 0.011727 0.001400 -0.010199 0.056448 -0.005269 -0.029821
# 5 -0.011955 -0.005931 0.002362 -0.005269 0.053738 0.006045
# 6 -0.009603 0.002926 0.008367 -0.029821 0.006045 0.053946
#
#
# Mechanical properties :
#
#
# Convention : Reuss Voigt Hill
#
# Bulk Modulus (GPa) = 32.73232 58.71344 45.72288
# Shear Modulus (GPa) = 16.95190 25.67751 21.31471
#
# Velocity S-wave (km/s) = 2.90325 3.57315 3.25548
# Velocity P-wave (km/s) = 5.24535 6.79829 6.07167
#
# Compressibility (1/GPa) = 0.03055084
#
# Stress axis : x y z
#
# Youngs Moduli (GPa) = 24.02340 44.10063 88.56101
#
# Poissons Ratio (x) = 0.40407 0.79400
# Poissons Ratio (y) = 0.22011 0.38906
# Poissons Ratio (z) = 0.21538 0.19374
#
# Static dielectric constant tensor:
#      x y z
#    x 3.429860 0.055180 0.047500 
#    y 0.055180 3.608830 0.093720 
#    z 0.047500 0.093720 3.443290 
# 
# 
# High freq. dielectric constant tensor:
#      x y z
#    x 1.773070 0.000160 0.009570 
#    y 0.000160 1.777970 0.004410 
#    z 0.009570 0.004410 1.771670 
# 
# From -- ./inp_files/503336.got.cif
#   From: 2010.06.25/outbox.cif.g09.slc.cpg/sg2_252_cif.got.tgz:503336.got - 2010.06.27 13:26:56.
