data_PCOD8002144
_publ_section_title
;
Structure prediction by ZEFSAII (Michael W. Deem and Ramdas Pophale) SiO2 
 PCOD8002144
Probable space group: P -1
;
_chemical_formula_sum "Si O2"
_cell_formula_units_Z 14
_cell_length_a 6.981828
_cell_length_b 16.006697
_cell_length_c 8.749646
_cell_angle_alpha 58.290991
_cell_angle_beta 89.978777
_cell_angle_gamma 116.032022
_cell_volume 712.510807
_symmetry_space_group_name_H-M "P -1"
_symmetry_group_IT_number 2
_symmetry_cell_setting 'triclinic'
loop_
_space_group_symop_operation_xyz
x,y,z
-x,-y,-z
loop_
_atom_site_type_symbol
_atom_site_label
_atom_site_fract_x
_atom_site_fract_y
_atom_site_fract_z
Si Si1 0.733189 0.740748 0.794096
Si Si2 0.514230 0.241508 0.499260
Si Si3 0.283085 0.572899 0.096098
Si Si4 0.152710 0.153827 0.996305
Si Si5 0.680802 0.972748 0.083442
Si Si6 0.061663 0.665209 0.793576
Si Si7 0.499077 0.617125 0.365509
O O1 0.680169 0.778595 0.598087
O O2 0.962290 0.740837 0.779302
O O3 0.517999 0.619582 0.962605
O O4 0.781285 0.832069 0.839240
O O5 0.424532 0.121811 0.695342
O O6 0.737172 0.267320 0.388471
O O7 0.570072 0.346994 0.511903
O O8 0.318980 0.597104 0.253889
O O9 0.140713 0.438454 0.197230
O O10 0.145280 0.629006 0.977565
O O11 0.243439 0.074840 0.010721
O O12 0.260045 0.276673 0.790806
O O13 0.887146 0.090191 0.035750
O O14 0.500000 0.000000 0.000000
O O15 0.500000 0.500000 0.500000
#
# Coordination Sequence:
#
# PCOD8002144 Si02
#       7
#     2   2   2   2   2   2   2
#     4  10  20  38  58  81 115 148 188 236 284 335
#     4  10  23  37  56  90 115 144 198 235 276 345
#     4   9  20  35  54  82 115 155 199 223 271 349
#     4   9  22  40  61  84 110 152 194 228 282 342
#     4  10  22  42  62  82 113 149 190 239 282 332
#     4  10  20  35  56  82 117 155 185 235 285 326
#     4  10  20  37  60  86 119 152 186 236 285 334
#
# _framework density 19.648823
#
# number of rings (size 3 to 8) (size 9 to 14) (size 15 to 20)
#    0.000    2.286    0.000    1.286    0.000   16.000 
#    0.000    2.857    0.000    0.000    0.000    0.000 
#    0.000    0.000    0.000    0.000    0.000    0.000 
#
# Total GULP energy -173600.002947 kJ/mol
# GULP energy per Si atom -12400.000210 kJ/mol
# Density = 1.960410 g / cm^3
# Si number density = 19.648823 Si / 1000 Ang^3
#
#
#
# Elastic Constant Matrix: (Units=GPa)
#
#
# Indices 1 2 3 4 5 6 
#
# 1 121.2225 44.3164 45.5858 3.1930 4.7792 5.6007
# 2 44.3164 109.9011 56.9883 6.6078 6.0853 18.2793
# 3 45.5858 56.9883 96.5080 11.5568 14.5340 2.0865
# 4 3.1930 6.6078 11.5568 39.5795 3.7137 0.7267
# 5 4.7792 6.0853 14.5340 3.7137 23.9504 1.1236
# 6 5.6007 18.2793 2.0865 0.7267 1.1236 29.6095
#
#
#
# Elastic Compliance Matrix: (Units=1/GPa)
#
#
# Indices 1 2 3 4 5 6 
#
# 1 0.010474 -0.002288 -0.003764 0.000576 0.000702 -0.000344
# 2 -0.002288 0.015648 -0.008253 -0.000037 0.001904 -0.008717
# 3 -0.003764 -0.008253 0.018497 -0.003046 -0.008134 0.004887
# 4 0.000576 -0.000037 -0.003046 0.026340 -0.002321 -0.000430
# 5 0.000702 0.001904 -0.008134 -0.002321 0.046540 -0.002444
# 6 -0.000344 -0.008717 0.004887 -0.000430 -0.002444 0.038979
#
#
# Mechanical properties :
#
#
# Convention : Reuss Voigt Hill
#
# Bulk Modulus (GPa) = 62.46382 69.04582 65.75482
# Shear Modulus (GPa) = 26.25712 30.67730 28.46721
#
# Velocity S-wave (km/s) = 3.65954 3.95559 3.81044
# Velocity P-wave (km/s) = 7.05092 7.48856 7.27303
#
# Compressibility (1/GPa) = 0.01600927
#
# Stress axis : x y z
#
# Youngs Moduli (GPa) = 95.47283 63.90523 54.06241
#
# Poissons Ratio (x) = 0.14624 0.20347
# Poissons Ratio (y) = 0.21848 0.44619
# Poissons Ratio (z) = 0.35931 0.52742
#
# Static dielectric constant tensor:
#      x y z
#    x 3.588220 0.145620 -0.019270 
#    y 0.145620 3.735660 0.034260 
#    z -0.019270 0.034260 3.723160 
# 
# 
# High freq. dielectric constant tensor:
#      x y z
#    x 1.762800 0.012630 -0.003400 
#    y 0.012630 1.770690 0.010360 
#    z -0.003400 0.010360 1.765560 
# 
# From -- ./inp_files/27022.got.cif
#   From: 2010.06.25/outbox.cif.g09.slc.cpg/sg2_14_cif.got.tgz:27022.got - 2010.06.27 13:26:56.
