data_PCOD8002672
_publ_section_title
;
Structure prediction by ZEFSAII (Michael W. Deem and Ramdas Pophale) SiO2 
 PCOD8002672
Probable space group: P -1
;
_chemical_formula_sum "Si O2"
_cell_formula_units_Z 16
_cell_length_a 13.664953
_cell_length_b 11.328923
_cell_length_c 9.394021
_cell_angle_alpha 87.703167
_cell_angle_beta 85.674494
_cell_angle_gamma 149.601988
_cell_volume 717.670843
_symmetry_space_group_name_H-M "P -1"
_symmetry_group_IT_number 2
_symmetry_cell_setting 'triclinic'
loop_
_space_group_symop_operation_xyz
x,y,z
-x,-y,-z
loop_
_atom_site_type_symbol
_atom_site_label
_atom_site_fract_x
_atom_site_fract_y
_atom_site_fract_z
Si Si1 0.631199 0.371350 0.225239
Si Si2 0.947522 0.893886 0.166228
Si Si3 0.837909 0.424322 0.398531
Si Si4 0.819915 0.043256 0.682932
Si Si5 0.734614 0.105845 0.232489
Si Si6 0.067565 0.898962 0.647024
Si Si7 0.735403 0.380935 0.706599
Si Si8 0.279609 0.734628 0.999869
O O1 0.737412 0.608666 0.191328
O O2 0.674118 0.349937 0.370602
O O3 0.719653 0.379521 0.093910
O O4 0.400259 0.149889 0.244694
O O5 0.115277 0.979755 0.199426
O O6 0.924738 0.965527 0.290395
O O7 0.000000 0.000000 0.000000
O O8 0.797202 0.253157 0.349672
O O9 0.808477 0.373655 0.571931
O O10 0.053014 0.704064 0.329088
O O11 0.833176 0.998588 0.525775
O O12 0.817572 0.063743 0.254452
O O13 0.821340 0.258700 0.070899
O O14 0.498647 0.848862 0.253009
O O15 0.839182 0.617807 0.670192
O O16 0.828246 0.413176 0.834491
O O17 0.500000 0.000000 0.000000
#
# Coordination Sequence:
#
# PCOD8002672 Si02
#       8
#     2   2   2   2   2   2   2   2
#     4  10  21  41  64  85 116 156 192 237 292 343
#     4  11  25  43  61  86 117 150 198 247 287 343
#     4   9  20  37  59  90 120 149 192 240 285 347
#     4  10  23  41  63  86 113 153 198 242 292 342
#     4  10  21  36  57  88 122 156 191 233 291 349
#     4  11  24  39  60  87 115 155 199 241 288 341
#     4  10  20  36  57  86 123 154 191 238 286 343
#     4   9  20  36  58  88 120 153 188 231 288 350
#
# _framework density 22.294342
#
# number of rings (size 3 to 8) (size 9 to 14) (size 15 to 20)
#    0.000    2.000    0.000    2.250    0.000   11.500 
#    0.000    0.000    0.000    0.000    0.000    0.000 
#    0.000    0.000    0.000    0.000    0.000    0.000 
#
# Total GULP energy -198385.257072 kJ/mol
# GULP energy per Si atom -12399.078567 kJ/mol
# Density = 2.224360 g / cm^3
# Si number density = 22.294342 Si / 1000 Ang^3
#
#
#
# Elastic Constant Matrix: (Units=GPa)
#
#
# Indices 1 2 3 4 5 6 
#
# 1 79.2212 39.4354 28.8710 -1.0139 15.1464 6.0891
# 2 39.4354 93.9818 14.8021 6.3701 2.6183 2.1051
# 3 28.8710 14.8021 128.6654 5.2440 22.4213 6.0008
# 4 -1.0139 6.3701 5.2440 31.6190 0.1854 -3.0576
# 5 15.1464 2.6183 22.4213 0.1854 27.1336 7.7199
# 6 6.0891 2.1051 6.0008 -3.0576 7.7199 36.8101
#
#
#
# Elastic Compliance Matrix: (Units=1/GPa)
#
#
# Indices 1 2 3 4 5 6 
#
# 1 0.018641 -0.007437 -0.002029 0.002433 -0.007894 -0.000470
# 2 -0.007437 0.013943 -0.000356 -0.003050 0.003247 -0.000444
# 3 -0.002029 -0.000356 0.009492 -0.001520 -0.006691 0.000085
# 4 0.002433 -0.003050 -0.001520 0.032860 -0.000866 0.002931
# 5 -0.007894 0.003247 -0.006691 -0.000866 0.048785 -0.008092
# 6 -0.000470 -0.000444 0.000085 0.002931 -0.008092 0.029196
#
#
# Mechanical properties :
#
#
# Convention : Reuss Voigt Hill
#
# Bulk Modulus (GPa) = 44.57777 52.00950 48.29363
# Shear Modulus (GPa) = 27.77185 33.69652 30.73419
#
# Velocity S-wave (km/s) = 3.53326 3.89194 3.71693
# Velocity P-wave (km/s) = 6.05671 6.60117 6.33479
#
# Compressibility (1/GPa) = 0.02243271
#
# Stress axis : x y z
#
# Youngs Moduli (GPa) = 53.64583 71.71957 105.34949
#
# Poissons Ratio (x) = 0.53336 0.21373
# Poissons Ratio (y) = 0.39895 0.03753
# Poissons Ratio (z) = 0.10884 0.02555
#
# Static dielectric constant tensor:
#      x y z
#    x 3.795940 0.028180 0.352470 
#    y 0.028180 4.177700 0.193950 
#    z 0.352470 0.193950 4.936730 
# 
# 
# High freq. dielectric constant tensor:
#      x y z
#    x 1.863820 0.007090 0.017200 
#    y 0.007090 1.893880 0.009500 
#    z 0.017200 0.009500 1.890600 
# 
# From -- ./inp_files/242097.got.cif
#   From: 2010.06.25/outbox.cif.g09.slc.cpg/sg2_122_cif.got.tgz:242097.got - 2010.06.27 13:26:56.
