data_PCOD8002639
_publ_section_title
;
Structure prediction by ZEFSAII (Michael W. Deem and Ramdas Pophale) SiO2 
 PCOD8002639
Probable space group: P -1
;
_chemical_formula_sum "Si O2"
_cell_formula_units_Z 16
_cell_length_a 8.412875
_cell_length_b 7.688564
_cell_length_c 15.231640
_cell_angle_alpha 100.017059
_cell_angle_beta 69.002582
_cell_angle_gamma 127.119142
_cell_volume 732.251043
_symmetry_space_group_name_H-M "P -1"
_symmetry_group_IT_number 2
_symmetry_cell_setting 'triclinic'
loop_
_space_group_symop_operation_xyz
x,y,z
-x,-y,-z
loop_
_atom_site_type_symbol
_atom_site_label
_atom_site_fract_x
_atom_site_fract_y
_atom_site_fract_z
Si Si1 0.267801 0.306871 0.625139
Si Si2 0.459308 0.578876 0.927362
Si Si3 0.094854 0.794718 0.427696
Si Si4 0.053532 0.672121 0.613306
Si Si5 0.104783 0.208627 0.842200
Si Si6 0.146521 0.615109 0.063549
Si Si7 0.102028 0.264473 0.175543
Si Si8 0.495938 0.784467 0.555587
O O1 0.400712 0.566808 0.611859
O O2 0.401864 0.222930 0.555983
O O3 0.052247 0.172038 0.599731
O O4 0.221028 0.256398 0.731458
O O5 0.673271 0.689789 0.839952
O O6 0.267439 0.374331 0.896054
O O7 0.500000 0.500000 0.000000
O O8 0.384606 0.730704 0.987491
O O9 0.992286 0.731945 0.540185
O O10 0.084454 0.590033 0.372612
O O11 0.334056 0.011509 0.398860
O O12 0.305608 0.796382 0.567433
O O13 0.006456 0.766418 0.712881
O O14 0.905244 0.223058 0.872630
O O15 0.026650 0.968895 0.868740
O O16 0.103400 0.440082 0.131292
O O17 0.000000 0.500000 0.000000
#
# Coordination Sequence:
#
# PCOD8002639 Si02
#       8
#     2   2   2   2   2   2   2   2
#     4  10  22  36  55  90 120 157 215 254 293 364
#     4   9  22  41  63  92 120 152 200 249 305 382
#     4  10  20  36  57  81 122 170 207 252 304 352
#     4  10  22  36  55  88 121 161 214 254 293 361
#     4  11  23  41  66  90 124 162 200 258 311 360
#     4   9  20  41  63  90 122 150 196 251 304 377
#     4  11  23  41  64  91 124 161 205 254 307 363
#     4  10  20  36  57  80 123 170 205 251 306 351
#
# _framework density 21.850428000000001
#
# number of rings (size 3 to 8) (size 9 to 14) (size 15 to 20)
#    0.000    2.000    0.000    3.000    0.000   11.000 
#    0.000    3.750    0.000    0.000    0.000    0.000 
#    0.000    0.000    0.000    0.000    0.000    0.000 
#
# Total GULP energy -198287.934793 kJ/mol
# GULP energy per Si atom -12392.995925 kJ/mol
# Density = 2.180070 g / cm^3
# Si number density = 21.850428 Si / 1000 Ang^3
#
#
#
# Elastic Constant Matrix: (Units=GPa)
#
#
# Indices 1 2 3 4 5 6 
#
# 1 95.1788 33.7529 50.7162 6.2193 -12.6242 10.4977
# 2 33.7529 101.6498 14.8622 21.2620 -7.8365 9.5584
# 3 50.7162 14.8622 91.6546 17.0502 -16.0729 2.3137
# 4 6.2193 21.2620 17.0502 14.1515 -1.0785 -0.0374
# 5 -12.6242 -7.8365 -16.0729 -1.0785 39.2913 -0.1634
# 6 10.4977 9.5584 2.3137 -0.0374 -0.1634 36.0318
#
#
#
# Elastic Compliance Matrix: (Units=1/GPa)
#
#
# Indices 1 2 3 4 5 6 
#
# 1 0.019417 -0.008485 -0.013054 0.019916 -0.000258 -0.002548
# 2 -0.008485 0.019507 0.009016 -0.036158 0.003846 -0.003302
# 3 -0.013054 0.009016 0.024761 -0.037131 0.006713 -0.000187
# 4 0.019916 -0.036158 -0.037131 0.160107 -0.011581 0.006287
# 5 -0.000258 0.003846 0.006713 -0.011581 0.028558 -0.001259
# 6 -0.002548 -0.003302 -0.000187 0.006287 -0.001259 0.029384
#
#
# Mechanical properties :
#
#
# Convention : Reuss Voigt Hill
#
# Bulk Modulus (GPa) = 25.88045 54.12731 40.00388
# Shear Modulus (GPa) = 15.64159 30.50506 23.07332
#
# Velocity S-wave (km/s) = 2.67844 3.74048 3.25309
# Velocity P-wave (km/s) = 4.62984 6.59397 5.69719
#
# Compressibility (1/GPa) = 0.03863921
#
# Stress axis : x y z
#
# Youngs Moduli (GPa) = 51.50150 51.26374 40.38571
#
# Poissons Ratio (x) = 0.43497 0.52720
# Poissons Ratio (y) = 0.43698 -0.36412
# Poissons Ratio (z) = 0.67231 -0.46220
#
# Static dielectric constant tensor:
#      x y z
#    x 4.386620 -0.106950 -0.483990 
#    y -0.106950 3.894710 0.066800 
#    z -0.483990 0.066800 4.140130 
# 
# 
# High freq. dielectric constant tensor:
#      x y z
#    x 1.866650 -0.003600 -0.009830 
#    y -0.003600 1.854340 0.006730 
#    z -0.009830 0.006730 1.856640 
# 
# From -- ./inp_files/495190.got.cif
#   From: 2010.06.25/outbox.cif.g09.slc.cpg/sg2_248_cif.got.tgz:495190.got - 2010.06.27 13:26:56.
