data_PCOD8002054
_publ_section_title
;
Structure prediction by ZEFSAII (Michael W. Deem and Ramdas Pophale) SiO2 
 PCOD8002054
Probable space group: P -1
;
_chemical_formula_sum "Si O2"
_cell_formula_units_Z 14
_cell_length_a 15.156911
_cell_length_b 9.591788
_cell_length_c 9.063822
_cell_angle_alpha 102.402627
_cell_angle_beta 143.095362
_cell_angle_gamma 94.003808
_cell_volume 704.198921
_symmetry_space_group_name_H-M "P -1"
_symmetry_group_IT_number 2
_symmetry_cell_setting 'triclinic'
loop_
_space_group_symop_operation_xyz
x,y,z
-x,-y,-z
loop_
_atom_site_type_symbol
_atom_site_label
_atom_site_fract_x
_atom_site_fract_y
_atom_site_fract_z
Si Si1 0.580617 0.195204 0.933307
Si Si2 0.606722 0.891703 0.807749
Si Si3 0.419764 0.619170 0.282014
Si Si4 0.670927 0.260967 0.395327
Si Si5 0.274319 0.440447 0.316138
Si Si6 0.222997 0.991919 0.401358
Si Si7 0.886612 0.912197 0.015684
O O1 0.645775 0.352596 0.957205
O O2 0.612865 0.064437 0.855404
O O3 0.389366 0.138627 0.695792
O O4 0.676980 0.231568 0.223438
O O5 0.508769 0.791150 0.514053
O O6 0.516450 0.802037 0.815245
O O7 0.790636 0.905692 0.038696
O O8 0.273731 0.503361 0.162043
O O9 0.545191 0.541724 0.405118
O O10 0.764077 0.446233 0.595821
O O11 0.757611 0.169009 0.580021
O O12 0.145409 0.263282 0.122319
O O13 0.174691 0.998646 0.167883
O O14 0.079771 0.999786 0.314543
#
# Coordination Sequence:
#
# PCOD8002054 Si02
#       7
#     2   2   2   2   2   2   2
#     4  11  19  34  55  86 108 137 174 224 267 315
#     4   9  17  32  54  81 101 137 182 221 252 305
#     4   9  17  30  55  78 108 131 185 223 257 302
#     4  10  22  33  55  82 114 136 175 217 272 315
#     4   9  18  34  52  83 103 140 176 221 263 312
#     4  10  20  35  53  84 108 137 175 230 261 310
#     4  10  20  35  58  79 108 137 183 221 265 306
#
# _framework density 19.880745999999998
#
# number of rings (size 3 to 8) (size 9 to 14) (size 15 to 20)
#    0.000    2.286    2.857    3.000    4.000    1.143 
#    0.000    2.857    0.000    0.857    0.000    0.000 
#    0.000    0.000    0.000    0.000    0.000    0.000 
#
# Total GULP energy -173497.096349 kJ/mol
# GULP energy per Si atom -12392.649739 kJ/mol
# Density = 1.983550 g / cm^3
# Si number density = 19.880746 Si / 1000 Ang^3
#
#
#
# Elastic Constant Matrix: (Units=GPa)
#
#
# Indices 1 2 3 4 5 6 
#
# 1 82.9037 33.4197 26.6084 -9.4623 4.8823 -3.7750
# 2 33.4197 119.0052 37.5396 -17.8747 -18.9073 2.7559
# 3 26.6084 37.5396 44.1231 -7.1878 -1.0703 -4.4014
# 4 -9.4623 -17.8747 -7.1878 11.3507 6.6910 -0.1250
# 5 4.8823 -18.9073 -1.0703 6.6910 27.3774 -3.7295
# 6 -3.7750 2.7559 -4.4014 -0.1250 -3.7295 18.9486
#
#
#
# Elastic Compliance Matrix: (Units=1/GPa)
#
#
# Indices 1 2 3 4 5 6 
#
# 1 0.016736 -0.002196 -0.006598 0.010594 -0.007244 0.000765
# 2 -0.002196 0.015027 -0.009771 0.011402 0.007136 -0.003413
# 3 -0.006598 -0.009771 0.036401 0.004758 -0.004254 0.007756
# 4 0.010594 0.011402 0.004758 0.133726 -0.026900 -0.002855
# 5 -0.007244 0.007136 -0.004254 -0.026900 0.049998 0.006194
# 6 0.000765 -0.003413 0.007756 -0.002855 0.006194 0.056425
#
#
# Mechanical properties :
#
#
# Convention : Reuss Voigt Hill
#
# Bulk Modulus (GPa) = 32.22163 49.01860 40.62012
# Shear Modulus (GPa) = 14.05336 21.43294 17.74315
#
# Velocity S-wave (km/s) = 2.66161 3.28697 2.99068
# Velocity P-wave (km/s) = 5.06835 6.25423 5.69226
#
# Compressibility (1/GPa) = 0.03103505
#
# Stress axis : x y z
#
# Youngs Moduli (GPa) = 59.75304 66.54587 27.47186
#
# Poissons Ratio (x) = 0.14613 0.18125
# Poissons Ratio (y) = 0.13122 0.26842
# Poissons Ratio (z) = 0.39423 0.65020
#
# Static dielectric constant tensor:
#      x y z
#    x 3.779920 0.035310 0.120750 
#    y 0.035310 3.722270 -0.091580 
#    z 0.120750 -0.091580 3.092920 
# 
# 
# High freq. dielectric constant tensor:
#      x y z
#    x 1.770880 0.003450 0.004570 
#    y 0.003450 1.786090 -0.012210 
#    z 0.004570 -0.012210 1.711710 
# 
# From -- ./inp_files/172939.got.cif
#   From: 2010.06.25/outbox.cif.g09.slc.cpg/sg2_87_cif.got.tgz:172939.got - 2010.06.27 13:26:56.
