data_PCOD8002081
_publ_section_title
;
Structure prediction by ZEFSAII (Michael W. Deem and Ramdas Pophale) SiO2 
 PCOD8002081
Probable space group: P -1
;
_chemical_formula_sum "Si O2"
_cell_formula_units_Z 16
_cell_length_a 26.416796
_cell_length_b 11.402232
_cell_length_c 8.475676
_cell_angle_alpha 139.523454
_cell_angle_beta 131.010587
_cell_angle_gamma 30.296203
_cell_volume 836.017820
_symmetry_space_group_name_H-M "P -1"
_symmetry_group_IT_number 2
_symmetry_cell_setting 'triclinic'
loop_
_space_group_symop_operation_xyz
x,y,z
-x,-y,-z
loop_
_atom_site_type_symbol
_atom_site_label
_atom_site_fract_x
_atom_site_fract_y
_atom_site_fract_z
Si Si1 0.742354 0.063584 0.226474
Si Si2 0.289698 0.629889 0.084840
Si Si3 0.889232 0.912464 0.620309
Si Si4 0.384175 0.388292 0.351390
Si Si5 0.615001 0.921321 0.351117
Si Si6 0.257386 0.043066 0.232040
Si Si7 0.287635 0.221085 0.917179
Si Si8 0.890415 0.526663 0.384909
O O1 0.650097 0.390003 0.367862
O O2 0.836494 0.974749 0.409390
O O3 0.704758 0.963274 0.140465
O O4 0.775301 0.946456 0.998577
O O5 0.369741 0.494339 0.252426
O O6 0.290484 0.801473 0.150889
O O7 0.180560 0.819687 0.138773
O O8 0.319572 0.391370 0.804458
O O9 0.903680 0.699442 0.524132
O O10 0.998818 0.783277 0.683348
O O11 0.499015 0.107932 0.330091
O O12 0.315488 0.347730 0.196868
O O13 0.634185 0.958765 0.251747
O O14 0.648088 0.009019 0.632822
O O15 0.165847 0.338558 0.424734
O O16 0.175367 0.460319 0.858585
#
# Coordination Sequence:
#
# PCOD8002081 Si02
#       8
#     2   2   2   2   2   2   2   2
#     4  10  21  34  49  75 109 137 162 200 251 304
#     4   9  18  34  54  76 100 128 168 215 250 288
#     4   8  15  31  55  77  98 130 169 207 247 292
#     4  10  20  35  55  75  96 130 175 214 249 289
#     4  10  20  35  55  75  96 130 175 214 249 289
#     4  10  21  34  49  75 109 137 162 200 251 304
#     4   9  18  34  54  76 100 128 168 215 250 288
#     4   8  15  31  55  77  98 130 169 207 247 292
#
# _framework density 19.138349000000002
#
# number of rings (size 3 to 8) (size 9 to 14) (size 15 to 20)
#    0.000    2.750    0.000    3.750    0.000    5.000 
#    0.000   11.250    0.000    0.000    0.000   22.750 
#    0.000    0.000    0.000    0.000    0.000    0.000 
#
# Total GULP energy -198291.425350 kJ/mol
# GULP energy per Si atom -12393.214084 kJ/mol
# Density = 1.909479 g / cm^3
# Si number density = 19.138349 Si / 1000 Ang^3
#
#
#
# Elastic Constant Matrix: (Units=GPa)
#
#
# Indices 1 2 3 4 5 6 
#
# 1 54.5498 40.6766 43.6351 -1.0634 15.6422 -16.7277
# 2 40.6766 107.6330 53.2127 8.4296 9.3383 -29.9733
# 3 43.6351 53.2127 102.2499 0.3493 6.1192 -6.7157
# 4 -1.0634 8.4296 0.3493 20.9858 2.1996 3.0065
# 5 15.6422 9.3383 6.1192 2.1996 23.5697 -2.0515
# 6 -16.7277 -29.9733 -6.7157 3.0065 -2.0515 26.9355
#
#
#
# Elastic Compliance Matrix: (Units=1/GPa)
#
#
# Indices 1 2 3 4 5 6 
#
# 1 0.045196 -0.002127 -0.015479 0.003065 -0.023705 0.019695
# 2 -0.002127 0.021438 -0.008684 -0.011457 -0.001887 0.021504
# 3 -0.015479 -0.008684 0.019532 0.003685 0.007056 -0.014281
# 4 0.003065 -0.011457 0.003685 0.055236 -0.005040 -0.016476
# 5 -0.023705 -0.001887 0.007056 -0.005040 0.056659 -0.010184
# 6 0.019695 0.021504 -0.014281 -0.016476 -0.010184 0.070789
#
#
# Mechanical properties :
#
#
# Convention : Reuss Voigt Hill
#
# Bulk Modulus (GPa) = 29.77454 59.94240 44.85847
# Shear Modulus (GPa) = 15.03188 22.75874 18.89531
#
# Velocity S-wave (km/s) = 2.80560 3.45217 3.14554
# Velocity P-wave (km/s) = 5.10749 6.87594 6.05661
#
# Compressibility (1/GPa) = 0.03358574
#
# Stress axis : x y z
#
# Youngs Moduli (GPa) = 22.12578 46.64704 51.19709
#
# Poissons Ratio (x) = 0.09921 0.79248
# Poissons Ratio (y) = 0.04706 0.44462
# Poissons Ratio (z) = 0.34248 0.40511
#
# Static dielectric constant tensor:
#      x y z
#    x 3.378110 -0.243360 0.123150 
#    y -0.243360 3.703480 0.105620 
#    z 0.123150 0.105620 3.505330 
# 
# 
# High freq. dielectric constant tensor:
#      x y z
#    x 1.721700 -0.010650 0.017250 
#    y -0.010650 1.734000 0.009530 
#    z 0.017250 0.009530 1.739910 
# 
# From -- ./inp_files/277526.got.cif
#   From: 2010.06.25/outbox.cif.g09.slc.cpg/sg2_139_cif.got.tgz:277526.got - 2010.06.27 13:26:56.
