data_PCOD8002671
_publ_section_title
;
Structure prediction by ZEFSAII (Michael W. Deem and Ramdas Pophale) SiO2 
 PCOD8002671
Probable space group: P -1
;
_chemical_formula_sum "Si O2"
_cell_formula_units_Z 16
_cell_length_a 14.773119
_cell_length_b 8.738671
_cell_length_c 11.873730
_cell_angle_alpha 105.301337
_cell_angle_beta 124.955144
_cell_angle_gamma 110.044897
_cell_volume 946.136778
_symmetry_space_group_name_H-M "P -1"
_symmetry_group_IT_number 2
_symmetry_cell_setting 'triclinic'
loop_
_space_group_symop_operation_xyz
x,y,z
-x,-y,-z
loop_
_atom_site_type_symbol
_atom_site_label
_atom_site_fract_x
_atom_site_fract_y
_atom_site_fract_z
Si Si1 0.797871 0.218644 0.339378
Si Si2 0.163627 0.166884 0.511879
Si Si3 0.842192 0.313567 0.138132
Si Si4 0.140492 0.436867 0.397450
Si Si5 0.951238 0.733499 0.362384
Si Si6 0.620036 0.143096 0.763940
Si Si7 0.631796 0.915941 0.345124
Si Si8 0.666509 0.236955 0.568888
O O1 0.770299 0.204300 0.184324
O O2 0.807768 0.404202 0.433055
O O3 0.945947 0.261216 0.473568
O O4 0.669263 0.004615 0.261573
O O5 0.143958 0.258965 0.406858
O O6 0.159077 0.260911 0.643652
O O7 0.315993 0.216444 0.622394
O O8 0.039540 0.923497 0.377015
O O9 0.870843 0.528273 0.192965
O O10 0.984583 0.342233 0.225339
O O11 0.734154 0.170886 0.934626
O O12 0.247888 0.546326 0.389602
O O13 0.536522 0.216626 0.778127
O O14 0.697466 0.272873 0.731118
O O15 0.503882 0.902594 0.602481
O O16 0.717755 0.113386 0.528861
#
# Coordination Sequence:
#
# PCOD8002671 Si02
#       8
#     2   2   2   2   2   2   2   2
#     4   9  15  29  47  76 102 123 159 195 236 289
#     4  10  16  28  50  73  99 136 156 185 242 299
#     4  11  18  29  52  79 102 119 162 209 235 281
#     4  10  17  30  53  77  95 125 166 202 235 283
#     4   9  17  27  46  74 106 133 151 186 241 300
#     4   9  19  35  55  68  94 130 168 205 242 275
#     4   8  17  31  51  70  94 133 162 188 237 298
#     4   8  18  38  54  68  88 131 178 198 235 288
#
# _framework density 16.910874
#
# number of rings (size 3 to 8) (size 9 to 14) (size 15 to 20)
#    0.750    2.000    2.500    1.500    0.000    1.000 
#    0.000    1.250    2.750    1.500    0.000    0.000 
#    0.000    0.000    0.000    0.000    0.000    0.000 
#
# Total GULP energy -198303.737830 kJ/mol
# GULP energy per Si atom -12393.983614 kJ/mol
# Density = 1.687238 g / cm^3
# Si number density = 16.910874 Si / 1000 Ang^3
#
#
#
# Elastic Constant Matrix: (Units=GPa)
#
#
# Indices 1 2 3 4 5 6 
#
# 1 49.0921 49.2128 21.2979 -10.3263 5.2539 19.3086
# 2 49.2128 114.1068 38.4194 -19.3835 2.3538 9.4928
# 3 21.2979 38.4194 84.7948 -20.8776 -2.4729 13.6490
# 4 -10.3263 -19.3835 -20.8776 14.0341 1.5640 -4.2859
# 5 5.2539 2.3538 -2.4729 1.5640 17.0719 -6.2503
# 6 19.3086 9.4928 13.6490 -4.2859 -6.2503 32.4834
#
#
#
# Elastic Compliance Matrix: (Units=1/GPa)
#
#
# Indices 1 2 3 4 5 6 
#
# 1 0.059090 -0.020985 0.001722 0.009872 -0.028345 -0.033866
# 2 -0.020985 0.019373 -0.002529 0.010031 0.006314 0.010414
# 3 0.001722 -0.002529 0.019609 0.025455 -0.001682 -0.005489
# 4 0.009872 0.010031 0.025455 0.130304 -0.014539 -0.005100
# 5 -0.028345 0.006314 -0.001682 -0.014539 0.078066 0.028813
# 6 -0.033866 0.010414 -0.005489 -0.005100 0.028813 0.055050
#
#
# Mechanical properties :
#
#
# Convention : Reuss Voigt Hill
#
# Bulk Modulus (GPa) = 18.35330 51.76154 35.05742
# Shear Modulus (GPa) = 11.81366 21.98879 16.90122
#
# Velocity S-wave (km/s) = 2.64594 3.60984 3.16480
# Velocity P-wave (km/s) = 4.49569 6.93178 5.84212
#
# Compressibility (1/GPa) = 0.05448613
#
# Stress axis : x y z
#
# Youngs Moduli (GPa) = 16.92339 51.61724 50.99818
#
# Poissons Ratio (x) = 1.08320 -0.08781
# Poissons Ratio (y) = 0.35514 0.12899
# Poissons Ratio (z) = -0.02914 0.13055
#
# Static dielectric constant tensor:
#      x y z
#    x 3.164590 0.109850 0.080340 
#    y 0.109850 3.154500 -0.033270 
#    z 0.080340 -0.033270 2.673350 
# 
# 
# High freq. dielectric constant tensor:
#      x y z
#    x 1.648960 0.017600 0.008660 
#    y 0.017600 1.645150 -0.009910 
#    z 0.008660 -0.009910 1.602720 
# 
# From -- ./inp_files/179225.got.cif
#   From: 2010.06.25/outbox.cif.g09.slc.cpg/sg2_90_cif.got.tgz:179225.got - 2010.06.27 13:26:56.
