data_PCOD8002753
_publ_section_title
;
Structure prediction by ZEFSAII (Michael W. Deem and Ramdas Pophale) SiO2 
 PCOD8002753
Probable space group: P -1
;
_chemical_formula_sum "Si O2"
_cell_formula_units_Z 16
_cell_length_a 15.494240
_cell_length_b 11.902841
_cell_length_c 14.969744
_cell_angle_alpha 62.169830
_cell_angle_beta 40.746502
_cell_angle_gamma 30.375674
_cell_volume 751.321727
_symmetry_space_group_name_H-M "P -1"
_symmetry_group_IT_number 2
_symmetry_cell_setting 'triclinic'
loop_
_space_group_symop_operation_xyz
x,y,z
-x,-y,-z
loop_
_atom_site_type_symbol
_atom_site_label
_atom_site_fract_x
_atom_site_fract_y
_atom_site_fract_z
Si Si1 0.226534 0.226270 0.728251
Si Si2 0.704991 0.293222 0.335102
Si Si3 0.358621 0.927117 0.592061
Si Si4 0.911572 0.111992 0.666998
Si Si5 0.574770 0.284880 0.718825
Si Si6 0.393946 0.146901 0.266979
Si Si7 0.633393 0.811681 0.046389
Si Si8 0.954889 0.341137 0.602791
O O1 0.340933 0.253812 0.575157
O O2 0.175386 0.146937 0.733816
O O3 0.464302 0.983275 0.700198
O O4 0.945585 0.504329 0.894726
O O5 0.500000 0.500000 0.500000
O O6 0.604869 0.256344 0.366678
O O7 0.701605 0.410952 0.220372
O O8 0.007562 0.015917 0.250584
O O9 0.205234 0.075964 0.564072
O O10 0.650593 0.261004 0.770100
O O11 0.809512 0.344238 0.668898
O O12 0.179213 0.881083 0.478357
O O13 0.538839 0.164777 0.795089
O O14 0.285370 0.383435 0.254222
O O15 0.109319 0.302898 0.424589
O O16 0.621741 0.920242 0.097250
O O17 0.500000 0.000000 0.000000
#
# Coordination Sequence:
#
# PCOD8002753 Si02
#       8
#     2   2   2   2   2   2   2   2
#     4  10  22  37  61  87 119 157 200 248 301 366
#     4   9  19  35  62  88 122 149 196 257 296 352
#     4   9  19  38  61  93 113 152 204 249 302 356
#     4   9  18  36  61  90 117 154 199 252 294 358
#     4  10  21  37  58  88 118 158 203 245 303 359
#     4  10  20  36  58  89 116 159 196 246 300 358
#     4  12  25  41  56  83 128 161 199 250 308 363
#     4   9  17  34  63  86 122 143 199 251 298 347
#
# _framework density 21.295805000000001
#
# number of rings (size 3 to 8) (size 9 to 14) (size 15 to 20)
#    0.000    2.250    1.250    1.125    3.500    4.000 
#    2.250    0.625    0.000    2.250    0.000    0.000 
#    0.000    0.000    0.000    0.000    0.000    0.000 
#
# Total GULP energy -198233.995015 kJ/mol
# GULP energy per Si atom -12389.624688 kJ/mol
# Density = 2.124733 g / cm^3
# Si number density = 21.295805 Si / 1000 Ang^3
#
#
#
# Elastic Constant Matrix: (Units=GPa)
#
#
# Indices 1 2 3 4 5 6 
#
# 1 113.4051 38.9728 11.6481 3.2246 11.3419 17.8331
# 2 38.9728 107.5444 12.2648 -11.5013 -3.6634 6.9790
# 3 11.6481 12.2648 34.9061 10.9935 11.7571 3.7414
# 4 3.2246 -11.5013 10.9935 30.3218 6.0262 11.0796
# 5 11.3419 -3.6634 11.7571 6.0262 23.4619 9.0454
# 6 17.8331 6.9790 3.7414 11.0796 9.0454 42.7217
#
#
#
# Elastic Compliance Matrix: (Units=1/GPa)
#
#
# Indices 1 2 3 4 5 6 
#
# 1 0.011168 -0.004078 -0.000195 -0.000710 -0.004674 -0.002805
# 2 -0.004078 0.012966 -0.007739 0.007953 0.007105 -0.003305
# 3 -0.000195 -0.007739 0.043023 -0.016681 -0.020822 0.006313
# 4 -0.000710 0.007953 -0.016681 0.045971 0.002784 -0.012054
# 5 -0.004674 0.007105 -0.020822 0.002784 0.059868 -0.010784
# 6 -0.002805 -0.003305 0.006313 -0.012054 -0.010784 0.029974
#
#
# Mechanical properties :
#
#
# Convention : Reuss Voigt Hill
#
# Bulk Modulus (GPa) = 23.18414 42.40299 32.79357
# Shear Modulus (GPa) = 20.71487 32.16575 26.44031
#
# Velocity S-wave (km/s) = 3.12223 3.89064 3.52742
# Velocity P-wave (km/s) = 4.88959 6.33541 5.65887
#
# Compressibility (1/GPa) = 0.04313294
#
# Stress axis : x y z
#
# Youngs Moduli (GPa) = 89.53997 77.12525 23.24333
#
# Poissons Ratio (x) = 0.31452 0.00454
# Poissons Ratio (y) = 0.36515 0.17987
# Poissons Ratio (z) = 0.01750 0.59685
#
# Static dielectric constant tensor:
#      x y z
#    x 4.106530 0.065240 0.034900 
#    y 0.065240 4.187170 0.011520 
#    z 0.034900 0.011520 3.490000 
# 
# 
# High freq. dielectric constant tensor:
#      x y z
#    x 1.848220 0.008160 0.008010 
#    y 0.008160 1.846410 0.000140 
#    z 0.008010 0.000140 1.776440 
# 
# From -- ./inp_files/447636.got.cif
#   From: 2010.06.25/outbox.cif.g09.slc.cpg/sg2_224_cif.got.tgz:447636.got - 2010.06.27 13:26:56.
