data_PCOD8002988
_publ_section_title
;
Structure prediction by ZEFSAII (Michael W. Deem and Ramdas Pophale) SiO2 
 PCOD8002988
Probable space group: P -1
;
_chemical_formula_sum "Si O2"
_cell_formula_units_Z 14
_cell_length_a 11.729751
_cell_length_b 7.111215
_cell_length_c 18.810653
_cell_angle_alpha 49.198685
_cell_angle_beta 35.663456
_cell_angle_gamma 55.137574
_cell_volume 689.525569
_symmetry_space_group_name_H-M "P -1"
_symmetry_group_IT_number 2
_symmetry_cell_setting 'triclinic'
loop_
_space_group_symop_operation_xyz
x,y,z
-x,-y,-z
loop_
_atom_site_type_symbol
_atom_site_label
_atom_site_fract_x
_atom_site_fract_y
_atom_site_fract_z
Si Si1 0.260865 0.611274 0.895643
Si Si2 0.911868 0.878675 0.930347
Si Si3 0.981553 0.386683 0.459653
Si Si4 0.188388 0.130300 0.635914
Si Si5 0.480437 0.017945 0.392169
Si Si6 0.313611 0.989540 0.339803
Si Si7 0.610806 0.279823 0.042926
O O1 0.436105 0.716751 0.735027
O O2 0.310182 0.602568 0.955286
O O3 0.057744 0.785610 0.943619
O O4 0.239117 0.327561 0.954684
O O5 0.044544 0.920843 0.782801
O O6 0.794930 0.143238 0.941655
O O7 0.937746 0.604819 0.370576
O O8 0.000000 0.500000 0.500000
O O9 0.182032 0.234539 0.372585
O O10 0.804996 0.210242 0.590314
O O11 0.284420 0.062112 0.527740
O O12 0.355644 0.154297 0.605026
O O13 0.427665 0.878429 0.380336
O O14 0.465547 0.069717 0.185047
O O15 0.500000 0.500000 0.000000
#
# Coordination Sequence:
#
# PCOD8002988 Si02
#       7
#     2   2   2   2   2   2   2
#     4   9  21  40  62  84 117 155 195 239 289 347
#     4  10  21  39  61  87 116 156 193 238 295 339
#     4  11  22  38  59  83 118 154 188 240 293 341
#     4  10  20  36  61  87 116 151 191 242 286 336
#     4   9  19  39  60  87 115 146 199 241 281 343
#     4  10  23  39  58  87 113 156 198 232 290 351
#     4  11  23  38  59  87 120 152 196 240 287 353
#
# _framework density 20.303813000000002
#
# number of rings (size 3 to 8) (size 9 to 14) (size 15 to 20)
#    0.000    2.000    1.429    1.286    2.000    2.286 
#    2.571    0.000    0.000    0.000    0.000    0.000 
#    0.000    0.000    0.000    0.000    0.000    0.000 
#
# Total GULP energy -173600.877780 kJ/mol
# GULP energy per Si atom -12400.062699 kJ/mol
# Density = 2.025760 g / cm^3
# Si number density = 20.303813 Si / 1000 Ang^3
#
#
#
# Elastic Constant Matrix: (Units=GPa)
#
#
# Indices 1 2 3 4 5 6 
#
# 1 125.0123 50.5738 50.5673 -8.4022 10.4521 2.8696
# 2 50.5738 56.6471 22.8994 -5.3927 18.9085 -3.8789
# 3 50.5673 22.8994 106.6960 7.5255 6.6036 10.7245
# 4 -8.4022 -5.3927 7.5255 22.7215 -0.3034 2.2867
# 5 10.4521 18.9085 6.6036 -0.3034 28.2198 -7.3826
# 6 2.8696 -3.8789 10.7245 2.2867 -7.3826 31.0801
#
#
#
# Elastic Compliance Matrix: (Units=1/GPa)
#
#
# Indices 1 2 3 4 5 6 
#
# 1 0.014924 -0.012183 -0.004928 0.004374 0.003667 -0.000649
# 2 -0.012183 0.035725 -0.001132 0.003975 -0.018799 0.001216
# 3 -0.004928 -0.001132 0.012876 -0.005968 -0.001555 -0.004060
# 4 0.004374 0.003975 -0.005968 0.048724 -0.002919 -0.002127
# 5 0.003667 -0.018799 -0.001555 -0.002919 0.049582 0.009844
# 6 -0.000649 0.001216 -0.004060 -0.002127 0.009844 0.036282
#
#
# Mechanical properties :
#
#
# Convention : Reuss Voigt Hill
#
# Bulk Modulus (GPa) = 36.98653 59.60402 48.29528
# Shear Modulus (GPa) = 20.52432 27.35861 23.94147
#
# Velocity S-wave (km/s) = 3.18285 3.67476 3.43762
# Velocity P-wave (km/s) = 5.63591 6.88658 6.29239
#
# Compressibility (1/GPa) = 0.02703687
#
# Stress axis : x y z
#
# Youngs Moduli (GPa) = 67.00693 27.99179 77.66122
#
# Poissons Ratio (x) = 0.34104 0.38274
# Poissons Ratio (y) = 0.81638 0.08793
# Poissons Ratio (z) = 0.33023 0.03169
#
# Static dielectric constant tensor:
#      x y z
#    x 3.897040 -0.220060 -0.034410 
#    y -0.220060 3.424460 0.013990 
#    z -0.034410 0.013990 3.741640 
# 
# 
# High freq. dielectric constant tensor:
#      x y z
#    x 1.807350 -0.014650 -0.002120 
#    y -0.014650 1.769540 0.001810 
#    z -0.002120 0.001810 1.801310 
# 
# From -- ./inp_files/67982.got.cif
#   From: 2010.06.25/outbox.cif.g09.slc.cpg/sg2_34_cif.got.tgz:67982.got - 2010.06.27 13:26:56.
