data_PCOD8002235
_publ_section_title
;
Structure prediction by ZEFSAII (Michael W. Deem and Ramdas Pophale) SiO2 
 PCOD8002235
Probable space group: P -1
;
_chemical_formula_sum "Si O2"
_cell_formula_units_Z 16
_cell_length_a 16.159129
_cell_length_b 6.492900
_cell_length_c 9.346522
_cell_angle_alpha 77.167945
_cell_angle_beta 122.843774
_cell_angle_gamma 102.866866
_cell_volume 797.024929
_symmetry_space_group_name_H-M "P -1"
_symmetry_group_IT_number 2
_symmetry_cell_setting 'triclinic'
loop_
_space_group_symop_operation_xyz
x,y,z
-x,-y,-z
loop_
_atom_site_type_symbol
_atom_site_label
_atom_site_fract_x
_atom_site_fract_y
_atom_site_fract_z
Si Si1 0.673912 0.492673 0.297278
Si Si2 0.873055 0.008354 0.981740
Si Si3 0.360536 0.489518 0.268274
Si Si4 0.214640 0.633987 0.325212
Si Si5 0.291703 0.248633 0.976168
Si Si6 0.507777 0.132664 0.132393
Si Si7 0.943356 0.695753 0.880658
Si Si8 0.564920 0.746773 0.379027
O O1 0.742730 0.348559 0.475040
O O2 0.580880 0.352136 0.155414
O O3 0.636108 0.667470 0.338275
O O4 0.736838 0.623065 0.210644
O O5 0.840060 0.163592 0.800814
O O6 0.791392 0.952928 0.038594
O O7 0.895551 0.791183 0.961070
O O8 0.973996 0.121686 0.135633
O O9 0.304555 0.636504 0.296787
O O10 0.289588 0.401970 0.087047
O O11 0.456088 0.624224 0.269752
O O12 0.394248 0.290670 0.419060
O O13 0.145286 0.403705 0.291372
O O14 0.398892 0.171717 0.072049
O O15 0.557747 0.996790 0.320026
O O16 0.500000 0.000000 0.000000
O O17 0.000000 0.500000 0.000000
#
# Coordination Sequence:
#
# PCOD8002235 Si02
#       8
#     2   2   2   2   2   2   2   2
#     4  11  24  38  56  85 124 158 199 240 299 341
#     4  10  21  37  66  93 112 152 201 235 295 364
#     4  10  20  35  58  83 121 149 204 251 289 330
#     4  10  21  39  62  89 117 154 192 249 294 353
#     4  12  22  38  58  88 120 158 201 248 285 351
#     4  12  23  37  58  78 122 172 202 233 292 345
#     4   9  19  40  65  91 119 146 188 247 303 352
#     4  10  21  38  53  82 117 163 198 248 287 343
#
# _framework density 20.074653999999999
#
# number of rings (size 3 to 8) (size 9 to 14) (size 15 to 20)
#    0.000    1.500    3.750    1.875    1.750    0.500 
#    0.000    0.625    0.000    6.750    0.000    0.000 
#    0.000    0.000    0.000    0.000    0.000    0.000 
#
# Total GULP energy -198332.207217 kJ/mol
# GULP energy per Si atom -12395.762951 kJ/mol
# Density = 2.002896 g / cm^3
# Si number density = 20.074654 Si / 1000 Ang^3
#
#
#
# Elastic Constant Matrix: (Units=GPa)
#
#
# Indices 1 2 3 4 5 6 
#
# 1 94.8078 38.5610 36.4123 -1.7549 1.3611 23.7495
# 2 38.5610 72.0081 30.9953 -7.5394 -8.8200 4.9385
# 3 36.4123 30.9953 84.1384 -4.2515 -11.0436 10.4891
# 4 -1.7549 -7.5394 -4.2515 33.0704 0.2309 5.0936
# 5 1.3611 -8.8200 -11.0436 0.2309 20.9366 -5.5411
# 6 23.7495 4.9385 10.4891 5.0936 -5.5411 39.5962
#
#
#
# Elastic Compliance Matrix: (Units=1/GPa)
#
#
# Indices 1 2 3 4 5 6 
#
# 1 0.018540 -0.008293 -0.005013 0.000086 -0.010037 -0.010174
# 2 -0.008293 0.020867 -0.003308 0.003209 0.008619 0.004041
# 3 -0.005013 -0.003308 0.016311 0.001021 0.007530 0.000021
# 4 0.000086 0.003209 0.001021 0.031840 0.000268 -0.004780
# 5 -0.010037 0.008619 0.007530 0.000268 0.058971 0.011168
# 6 -0.010174 0.004041 0.000021 -0.004780 0.011168 0.033025
#
#
# Mechanical properties :
#
#
# Convention : Reuss Voigt Hill
#
# Bulk Modulus (GPa) = 44.46768 51.43239 47.95004
# Shear Modulus (GPa) = 22.69822 28.38635 25.54229
#
# Velocity S-wave (km/s) = 3.36622 3.76445 3.57089
# Velocity P-wave (km/s) = 6.10802 6.67615 6.39839
#
# Compressibility (1/GPa) = 0.02248824
#
# Stress axis : x y z
#
# Youngs Moduli (GPa) = 53.93624 47.92232 61.30878
#
# Poissons Ratio (x) = 0.39743 0.30736
# Poissons Ratio (y) = 0.44731 0.20284
# Poissons Ratio (z) = 0.27040 0.15855
#
# Static dielectric constant tensor:
#      x y z
#    x 3.817670 0.211100 0.189290 
#    y 0.211100 3.915200 -0.027280 
#    z 0.189290 -0.027280 3.733570 
# 
# 
# High freq. dielectric constant tensor:
#      x y z
#    x 1.781520 0.004540 0.008900 
#    y 0.004540 1.786500 -0.003390 
#    z 0.008900 -0.003390 1.762640 
# 
# From -- ./inp_files/53441.got.cif
#   From: 2010.06.25/outbox.cif.g09.slc.cpg/sg2_27_cif.got.tgz:53441.got - 2010.06.27 13:26:56.
