data_PCOD8002345
_publ_section_title
;
Structure prediction by ZEFSAII (Michael W. Deem and Ramdas Pophale) SiO2 
 PCOD8002345
Probable space group: P -1
;
_chemical_formula_sum "Si O2"
_cell_formula_units_Z 16
_cell_length_a 13.921183
_cell_length_b 5.363677
_cell_length_c 12.412820
_cell_angle_alpha 91.227391
_cell_angle_beta 128.824739
_cell_angle_gamma 76.396218
_cell_volume 692.029806
_symmetry_space_group_name_H-M "P -1"
_symmetry_group_IT_number 2
_symmetry_cell_setting 'triclinic'
loop_
_space_group_symop_operation_xyz
x,y,z
-x,-y,-z
loop_
_atom_site_type_symbol
_atom_site_label
_atom_site_fract_x
_atom_site_fract_y
_atom_site_fract_z
Si Si1 0.807427 0.552413 0.342302
Si Si2 0.031442 0.200390 0.400003
Si Si3 0.107407 0.130605 0.040738
Si Si4 0.636909 0.029272 0.116352
Si Si5 0.368168 0.840923 0.119518
Si Si6 0.467577 0.746538 0.743960
Si Si7 0.766541 0.302250 0.514381
Si Si8 0.084725 0.476829 0.226931
O O1 0.906435 0.704970 0.452346
O O2 0.729963 0.518606 0.395480
O O3 0.879758 0.281476 0.327080
O O4 0.720461 0.736565 0.194686
O O5 0.048610 0.330078 0.300885
O O6 0.097158 0.895097 0.429184
O O7 0.141525 0.291066 0.165427
O O8 0.238675 0.919714 0.099193
O O9 0.047456 0.312193 0.898922
O O10 0.000000 0.000000 0.000000
O O11 0.623061 0.220738 0.211507
O O12 0.677813 0.149096 0.037336
O O13 0.500000 0.000000 0.000000
O O14 0.440211 0.545848 0.200583
O O15 0.453715 0.040006 0.204916
O O16 0.360685 0.801854 0.571157
O O17 0.798041 0.407023 0.653155
#
# Coordination Sequence:
#
# PCOD8002345 Si02
#       8
#     2   2   2   2   2   2   2   2
#     4  10  20  35  59  95 139 183 232 273 338 414
#     4  10  20  37  61  93 134 180 232 278 344 406
#     4  11  25  49  73  98 133 174 235 302 351 410
#     4  10  20  41  64  99 142 186 224 277 341 416
#     4  11  26  44  74 103 139 187 239 285 347 412
#     4  11  24  44  69 104 145 187 229 282 342 427
#     4  11  21  40  65  98 142 186 222 288 348 415
#     4  10  24  42  71  94 133 176 228 287 367 400
#
# _framework density 23.12039
#
# number of rings (size 3 to 8) (size 9 to 14) (size 15 to 20)
#    0.000    1.500    1.250    3.750    5.250    1.000 
#    9.000    1.250    0.000    0.000    0.000    0.000 
#    0.000    0.000    0.000    0.000    0.000    0.000 
#
# Total GULP energy -198268.172632 kJ/mol
# GULP energy per Si atom -12391.760790 kJ/mol
# Density = 2.306777 g / cm^3
# Si number density = 23.120390 Si / 1000 Ang^3
#
#
#
# Elastic Constant Matrix: (Units=GPa)
#
#
# Indices 1 2 3 4 5 6 
#
# 1 92.2306 33.4038 34.2163 0.6476 11.1555 -19.2401
# 2 33.4038 119.6746 46.0455 -1.6686 13.2058 -14.5424
# 3 34.2163 46.0455 130.0356 10.7351 3.8303 -10.0326
# 4 0.6476 -1.6686 10.7351 45.1603 0.0056 7.4375
# 5 11.1555 13.2058 3.8303 0.0056 24.6896 -6.9248
# 6 -19.2401 -14.5424 -10.0326 7.4375 -6.9248 31.5466
#
#
#
# Elastic Compliance Matrix: (Units=1/GPa)
#
#
# Indices 1 2 3 4 5 6 
#
# 1 0.014164 -0.001903 -0.002395 -0.000771 -0.003192 0.006480
# 2 -0.001903 0.010746 -0.003128 0.000884 -0.003917 0.001730
# 3 -0.002395 -0.003128 0.009681 -0.002568 0.001570 0.001126
# 4 -0.000771 0.000884 -0.002568 0.023932 -0.001663 -0.006887
# 5 -0.003192 -0.003917 0.001570 -0.001663 0.045816 0.007195
# 6 0.006480 0.001730 0.001126 -0.006887 0.007195 0.040010
#
#
# Mechanical properties :
#
#
# Convention : Reuss Voigt Hill
#
# Bulk Modulus (GPa) = 50.66656 63.25244 56.95950
# Shear Modulus (GPa) = 30.16051 35.49765 32.82908
#
# Velocity S-wave (km/s) = 3.61570 3.92259 3.77227
# Velocity P-wave (km/s) = 6.27637 6.92336 6.60779
#
# Compressibility (1/GPa) = 0.01973688
#
# Stress axis : x y z
#
# Youngs Moduli (GPa) = 70.60355 93.06154 103.29605
#
# Poissons Ratio (x) = 0.17707 0.24744
# Poissons Ratio (y) = 0.13434 0.32315
# Poissons Ratio (z) = 0.16913 0.29114
#
# Static dielectric constant tensor:
#      x y z
#    x 4.098890 -0.365570 -0.421880 
#    y -0.365570 4.610970 0.749280 
#    z -0.421880 0.749280 5.677670 
# 
# 
# High freq. dielectric constant tensor:
#      x y z
#    x 1.885600 -0.003180 0.011810 
#    y -0.003180 1.919730 0.000020 
#    z 0.011810 0.000020 1.930060 
# 
# From -- ./inp_files/441993.got.cif
#   From: 2010.06.25/outbox.cif.g09.slc.cpg/sg2_221_cif.got.tgz:441993.got - 2010.06.27 13:26:56.
