data_PCOD8002276
_publ_section_title
;
Structure prediction by ZEFSAII (Michael W. Deem and Ramdas Pophale) SiO2 
 PCOD8002276
Probable space group: P -1
;
_chemical_formula_sum "Si O2"
_cell_formula_units_Z 16
_cell_length_a 12.074880
_cell_length_b 18.653407
_cell_length_c 9.763577
_cell_angle_alpha 132.948684
_cell_angle_beta 74.890732
_cell_angle_gamma 141.763463
_cell_volume 792.514483
_symmetry_space_group_name_H-M "P -1"
_symmetry_group_IT_number 2
_symmetry_cell_setting 'triclinic'
loop_
_space_group_symop_operation_xyz
x,y,z
-x,-y,-z
loop_
_atom_site_type_symbol
_atom_site_label
_atom_site_fract_x
_atom_site_fract_y
_atom_site_fract_z
Si Si1 0.340345 0.300629 0.342694
Si Si2 0.870159 0.970119 0.167126
Si Si3 0.656331 0.024911 0.014713
Si Si4 0.175433 0.708970 0.164163
Si Si5 0.966737 0.055425 0.697113
Si Si6 0.338622 0.987346 0.681574
Si Si7 0.968314 0.682111 0.952528
Si Si8 0.501118 0.275784 0.470115
O O1 0.500000 0.500000 0.500000
O O2 0.460213 0.347022 0.498420
O O3 0.311752 0.193454 0.101323
O O4 0.100637 0.174358 0.287566
O O5 0.927788 0.915181 0.163055
O O6 0.767122 0.987003 0.303862
O O7 0.715755 0.065305 0.208605
O O8 0.885485 0.201065 0.081599
O O9 0.500000 0.000000 0.000000
O O10 0.509287 0.822325 0.758788
O O11 0.222002 0.812673 0.413124
O O12 0.397671 0.816139 0.181291
O O13 0.000000 0.500000 0.000000
O O14 0.093585 0.713174 0.068760
O O15 0.701097 0.884692 0.565209
O O16 0.000000 0.000000 0.500000
O O17 0.088230 0.249329 0.884830
O O18 0.739524 0.455089 0.701965
#
# Coordination Sequence:
#
# PCOD8002276 Si02
#       8
#     2   2   2   2   2   2   2   2
#     4  10  20  35  58  92 124 154 194 250 309 362
#     4  10  21  38  61  89 122 159 203 249 307 368
#     4  11  23  42  67  93 125 168 212 262 317 369
#     4  11  27  44  64  93 128 169 212 261 316 378
#     4  10  22  41  64  89 125 172 208 252 310 372
#     4  11  24  45  66  92 128 168 213 259 317 378
#     4  11  24  42  66  97 128 164 214 263 314 376
#     4  10  23  38  63  96 125 159 208 259 311 369
#
# _framework density 20.188904999999998
#
# number of rings (size 3 to 8) (size 9 to 14) (size 15 to 20)
#    0.000    1.500    2.500    1.500    5.250    5.000 
#    0.000    0.000    0.000    0.000    0.000    0.000 
#    0.000    0.000    0.000    0.000    0.000    0.000 
#
# Total GULP energy -198396.675061 kJ/mol
# GULP energy per Si atom -12399.792191 kJ/mol
# Density = 2.014295 g / cm^3
# Si number density = 20.188905 Si / 1000 Ang^3
#
#
#
# Elastic Constant Matrix: (Units=GPa)
#
#
# Indices 1 2 3 4 5 6 
#
# 1 113.7257 41.3678 48.1314 10.4915 -14.2911 9.8242
# 2 41.3678 94.7665 60.8272 3.0064 -9.5256 -2.8690
# 3 48.1314 60.8272 121.9081 7.8437 -1.6825 8.7711
# 4 10.4915 3.0064 7.8437 34.4452 1.9280 -6.9576
# 5 -14.2911 -9.5256 -1.6825 1.9280 28.8565 -3.0656
# 6 9.8242 -2.8690 8.7711 -6.9576 -3.0656 30.8651
#
#
#
# Elastic Compliance Matrix: (Units=1/GPa)
#
#
# Indices 1 2 3 4 5 6 
#
# 1 0.012397 -0.003187 -0.002705 -0.003934 0.004780 -0.003885
# 2 -0.003187 0.017647 -0.008052 0.002211 0.004252 0.005864
# 3 -0.002705 -0.008052 0.013727 -0.002344 -0.003537 -0.004668
# 4 -0.003934 0.002211 -0.002344 0.032574 -0.002553 0.009213
# 5 0.004780 0.004252 -0.003537 -0.002553 0.038724 0.003150
# 6 -0.003885 0.005864 -0.004668 0.009213 0.003150 0.037897
#
#
# Mechanical properties :
#
#
# Convention : Reuss Voigt Hill
#
# Bulk Modulus (GPa) = 62.97099 70.11702 66.54401
# Shear Modulus (GPa) = 26.86030 30.83827 28.84929
#
# Velocity S-wave (km/s) = 3.65149 3.91255 3.78427
# Velocity P-wave (km/s) = 7.00260 7.43078 7.21987
#
# Compressibility (1/GPa) = 0.01588033
#
# Stress axis : x y z
#
# Youngs Moduli (GPa) = 80.66700 56.66777 72.85172
#
# Poissons Ratio (x) = 0.18062 0.19710
# Poissons Ratio (y) = 0.25711 0.58660
# Poissons Ratio (z) = 0.21824 0.45629
#
# Static dielectric constant tensor:
#      x y z
#    x 4.061740 -0.123700 -0.073960 
#    y -0.123700 3.765600 -0.066350 
#    z -0.073960 -0.066350 3.619440 
# 
# 
# High freq. dielectric constant tensor:
#      x y z
#    x 1.804980 -0.001600 -0.001220 
#    y -0.001600 1.781400 -0.003150 
#    z -0.001220 -0.003150 1.791300 
# 
# From -- ./inp_files/81154.got.cif
#   From: 2010.06.25/outbox.cif.g09.slc.cpg/sg2_41_cif.got.tgz:81154.got - 2010.06.27 13:26:56.
