data_PCOD8002756
_publ_section_title
;
Structure prediction by ZEFSAII (Michael W. Deem and Ramdas Pophale) SiO2 
 PCOD8002756
Probable space group: P -1
;
_chemical_formula_sum "Si O2"
_cell_formula_units_Z 16
_cell_length_a 10.720891
_cell_length_b 12.622481
_cell_length_c 14.077454
_cell_angle_alpha 47.276687
_cell_angle_beta 121.656828
_cell_angle_gamma 146.200166
_cell_volume 774.987639
_symmetry_space_group_name_H-M "P -1"
_symmetry_group_IT_number 2
_symmetry_cell_setting 'triclinic'
loop_
_space_group_symop_operation_xyz
x,y,z
-x,-y,-z
loop_
_atom_site_type_symbol
_atom_site_label
_atom_site_fract_x
_atom_site_fract_y
_atom_site_fract_z
Si Si1 0.196585 0.840408 0.636490
Si Si2 0.499738 0.410434 0.838744
Si Si3 0.978279 0.646582 0.868788
Si Si4 0.224855 0.195386 0.031202
Si Si5 0.562517 0.882799 0.710146
Si Si6 0.531600 0.314915 0.410400
Si Si7 0.985375 0.738356 0.423294
Si Si8 0.087881 0.985724 0.829383
O O1 0.048427 0.716411 0.746066
O O2 0.361916 0.828725 0.702613
O O3 0.007974 0.707970 0.559819
O O4 0.357118 0.101121 0.538336
O O5 0.549024 0.579711 0.685435
O O6 0.720429 0.482578 0.888283
O O7 0.309826 0.161117 0.874987
O O8 0.409204 0.407510 0.906560
O O9 0.125826 0.878785 0.840415
O O10 0.000000 0.500000 0.000000
O O11 0.354792 0.152935 0.148068
O O12 0.135341 0.219795 0.071178
O O13 0.000000 0.000000 0.000000
O O14 0.467653 0.737634 0.665532
O O15 0.783817 0.139082 0.611338
O O16 0.783102 0.498142 0.441716
O O17 0.958245 0.893135 0.312555
#
# Coordination Sequence:
#
# PCOD8002756 Si02
#       8
#     2   2   2   2   2   2   2   2
#     4  11  24  38  56  87 124 159 194 234 287 355
#     4  10  21  39  62  87 114 151 196 242 292 342
#     4  12  26  41  57  82 119 160 195 233 289 354
#     4   9  18  37  64  89 114 149 195 247 293 332
#     4  10  20  36  58  89 125 154 191 242 291 344
#     4  10  21  38  65  90 114 151 196 249 298 340
#     4   9  19  39  64  90 114 147 197 249 297 340
#     4   9  21  40  61  87 116 146 196 250 286 340
#
# _framework density 20.645489999999999
#
# number of rings (size 3 to 8) (size 9 to 14) (size 15 to 20)
#    0.000    2.000    0.000    5.250    0.000    8.500 
#    0.000    5.000    0.000    0.000    0.000    0.000 
#    0.000    0.000    0.000    0.000    0.000    0.000 
#
# Total GULP energy -198229.995715 kJ/mol
# GULP energy per Si atom -12389.374732 kJ/mol
# Density = 2.059850 g / cm^3
# Si number density = 20.645490 Si / 1000 Ang^3
#
#
#
# Elastic Constant Matrix: (Units=GPa)
#
#
# Indices 1 2 3 4 5 6 
#
# 1 72.7720 25.7253 38.2102 -1.7168 -3.3146 8.7264
# 2 25.7253 118.6579 53.7152 5.1216 2.7424 10.6684
# 3 38.2102 53.7152 104.9770 5.3676 -15.5502 -2.6633
# 4 -1.7168 5.1216 5.3676 26.9235 3.7446 -2.3289
# 5 -3.3146 2.7424 -15.5502 3.7446 32.4643 -2.7636
# 6 8.7264 10.6684 -2.6633 -2.3289 -2.7636 19.6683
#
#
#
# Elastic Compliance Matrix: (Units=1/GPa)
#
#
# Indices 1 2 3 4 5 6 
#
# 1 0.018814 0.000290 -0.007791 0.002265 -0.002923 -0.009702
# 2 0.000290 0.012783 -0.007620 -0.000924 -0.005356 -0.008956
# 3 -0.007791 -0.007620 0.018157 -0.003079 0.009843 0.011067
# 4 0.002265 -0.000924 -0.003079 0.039085 -0.005423 0.002945
# 5 -0.002923 -0.005356 0.009843 -0.005423 0.037158 0.010114
# 6 -0.009702 -0.008956 0.011067 0.002945 0.010114 0.063274
#
#
# Mechanical properties :
#
#
# Convention : Reuss Voigt Hill
#
# Bulk Modulus (GPa) = 51.25124 59.07871 55.16498
# Shear Modulus (GPa) = 22.12224 27.72832 24.92528
#
# Velocity S-wave (km/s) = 3.27697 3.66877 3.47839
# Velocity P-wave (km/s) = 6.26070 6.82820 6.55060
#
# Compressibility (1/GPa) = 0.01951172
#
# Stress axis : x y z
#
# Youngs Moduli (GPa) = 53.15287 78.22895 55.07505
#
# Poissons Ratio (x) = -0.02271 0.42911
# Poissons Ratio (y) = -0.01543 0.41967
# Poissons Ratio (z) = 0.41414 0.59610
#
# Static dielectric constant tensor:
#      x y z
#    x 3.670950 0.035770 -0.083770 
#    y 0.035770 3.941200 0.109660 
#    z -0.083770 0.109660 3.882250 
# 
# 
# High freq. dielectric constant tensor:
#      x y z
#    x 1.787890 0.011430 -0.001970 
#    y 0.011430 1.822140 0.010140 
#    z -0.001970 0.010140 1.812110 
# 
# From -- ./inp_files/522289.got.cif
#   From: 2010.06.25/outbox.cif.g09.slc.cpg/sg2_262_cif.got.tgz:522289.got - 2010.06.27 13:26:56.
