data_PCOD8002377
_publ_section_title
;
Structure prediction by ZEFSAII (Michael W. Deem and Ramdas Pophale) SiO2 
 PCOD8002377
Probable space group: P -1
;
_chemical_formula_sum "Si O2"
_cell_formula_units_Z 16
_cell_length_a 19.133956
_cell_length_b 9.673290
_cell_length_c 12.049273
_cell_angle_alpha 145.643434
_cell_angle_beta 42.974357
_cell_angle_gamma 138.454125
_cell_volume 795.195954
_symmetry_space_group_name_H-M "P -1"
_symmetry_group_IT_number 2
_symmetry_cell_setting 'triclinic'
loop_
_space_group_symop_operation_xyz
x,y,z
-x,-y,-z
loop_
_atom_site_type_symbol
_atom_site_label
_atom_site_fract_x
_atom_site_fract_y
_atom_site_fract_z
Si Si1 0.746550 0.561718 0.167630
Si Si2 0.857943 0.527310 0.614693
Si Si3 0.048009 0.931280 0.784530
Si Si4 0.464683 0.393927 0.092252
Si Si5 0.323271 0.664284 0.121819
Si Si6 0.315032 0.700418 0.501663
Si Si7 0.353867 0.807847 0.767444
Si Si8 0.405499 0.130144 0.487983
O O1 0.733024 0.415074 0.203014
O O2 0.645640 0.649878 0.314350
O O3 0.864187 0.801164 0.190586
O O4 0.735355 0.358052 0.944492
O O5 0.895206 0.278357 0.399222
O O6 0.770602 0.508530 0.799509
O O7 0.798476 0.521559 0.561328
O O8 0.957150 0.805059 0.709477
O O9 0.000000 0.000000 0.000000
O O10 0.403416 0.566055 0.332849
O O11 0.500000 0.500000 0.000000
O O12 0.574937 0.439061 0.065431
O O13 0.384006 0.088473 0.977772
O O14 0.369616 0.966066 0.306653
O O15 0.295582 0.806160 0.714672
O O16 0.361030 0.940976 0.521048
O O17 0.462432 0.738901 0.576950
#
# Coordination Sequence:
#
# PCOD8002377 Si02
#       8
#     2   2   2   2   2   2   2   2
#     4  12  23  38  59  91 123 160 196 253 309 347
#     4  10  21  38  62  93 107 151 211 255 293 340
#     4  11  22  39  64  90 113 152 208 261 295 349
#     4  11  21  36  60  92 124 160 203 233 290 366
#     4  10  20  35  60  90 121 155 197 246 291 356
#     4  11  21  39  63  90 120 162 200 248 286 362
#     4  11  25  36  57  92 131 160 192 240 307 362
#     4  10  21  37  60  88 121 162 203 236 293 362
#
# _framework density 20.120826000000001
#
# number of rings (size 3 to 8) (size 9 to 14) (size 15 to 20)
#    0.000    1.250    7.500    1.500    1.750    4.000 
#    0.000    0.625    0.000    1.500    0.000    0.000 
#    0.000    0.000    0.000    0.000    0.000    0.000 
#
# Total GULP energy -198328.458494 kJ/mol
# GULP energy per Si atom -12395.528656 kJ/mol
# Density = 2.007503 g / cm^3
# Si number density = 20.120826 Si / 1000 Ang^3
#
#
#
# Elastic Constant Matrix: (Units=GPa)
#
#
# Indices 1 2 3 4 5 6 
#
# 1 82.4011 38.6188 32.2570 -8.4306 29.8874 15.7124
# 2 38.6188 112.1834 20.3612 -0.4006 18.4666 2.2345
# 3 32.2570 20.3612 41.7763 8.3702 7.8976 -7.8618
# 4 -8.4306 -0.4006 8.3702 15.1618 -0.9845 0.4922
# 5 29.8874 18.4666 7.8976 -0.9845 34.8198 4.6432
# 6 15.7124 2.2345 -7.8618 0.4922 4.6432 27.0505
#
#
#
# Elastic Compliance Matrix: (Units=1/GPa)
#
#
# Indices 1 2 3 4 5 6 
#
# 1 0.092779 -0.005731 -0.096187 0.104303 -0.041681 -0.076116
# 2 -0.005731 0.010955 0.000609 -0.003427 -0.001516 0.002924
# 3 -0.096187 0.000609 0.133798 -0.127933 0.036162 0.090827
# 4 0.104303 -0.003427 -0.127933 0.194902 -0.040641 -0.094054
# 5 -0.041681 -0.001516 0.036162 -0.040641 0.052403 0.026591
# 6 -0.076116 0.002924 0.090827 -0.094054 0.026591 0.104484
#
#
# Mechanical properties :
#
#
# Convention : Reuss Voigt Hill
#
# Bulk Modulus (GPa) = 28.64165 46.53720 37.58942
# Shear Modulus (GPa) = 6.22217 25.08135 15.65176
#
# Velocity S-wave (km/s) = 1.76043 3.53446 2.79209
# Velocity P-wave (km/s) = 4.28928 6.31155 5.39600
#
# Compressibility (1/GPa) = 0.03491420
#
# Stress axis : x y z
#
# Youngs Moduli (GPa) = 10.77831 91.27902 7.47394
#
# Poissons Ratio (x) = 0.52314 0.71890
# Poissons Ratio (y) = 0.06177 -0.00455
# Poissons Ratio (z) = 1.03673 -0.05560
#
# Static dielectric constant tensor:
#      x y z
#    x 3.815610 0.256340 0.017990 
#    y 0.256340 3.455350 0.095910 
#    z 0.017990 0.095910 4.135460 
# 
# 
# High freq. dielectric constant tensor:
#      x y z
#    x 1.783640 0.020810 0.018140 
#    y 0.020810 1.753700 0.008500 
#    z 0.018140 0.008500 1.793560 
# 
# From -- ./inp_files/470199.got.cif
#   From: 2010.06.25/outbox.cif.g09.slc.cpg/sg2_236_cif.got.tgz:470199.got - 2010.06.27 13:26:56.
