data_PCOD8002324
_publ_section_title
;
Structure prediction by ZEFSAII (Michael W. Deem and Ramdas Pophale) SiO2 
 PCOD8002324
Probable space group: P -1
;
_chemical_formula_sum "Si O2"
_cell_formula_units_Z 16
_cell_length_a 8.948457
_cell_length_b 15.401001
_cell_length_c 27.026131
_cell_angle_alpha 20.923587
_cell_angle_beta 37.062224
_cell_angle_gamma 47.906206
_cell_volume 751.387868
_symmetry_space_group_name_H-M "P -1"
_symmetry_group_IT_number 2
_symmetry_cell_setting 'triclinic'
loop_
_space_group_symop_operation_xyz
x,y,z
-x,-y,-z
loop_
_atom_site_type_symbol
_atom_site_label
_atom_site_fract_x
_atom_site_fract_y
_atom_site_fract_z
Si Si1 0.417027 0.598129 0.520227
Si Si2 0.265470 0.613997 0.757268
Si Si3 0.881721 0.217653 0.901385
Si Si4 0.102470 0.271707 0.604937
Si Si5 0.595855 0.880887 0.992090
Si Si6 0.070894 0.401017 0.233509
Si Si7 0.697944 0.030434 0.357319
Si Si8 0.365556 0.029713 0.357364
O O1 0.500000 0.500000 0.500000
O O2 0.612014 0.588866 0.518664
O O3 0.428834 0.898393 0.360061
O O4 0.111524 0.425685 0.699145
O O5 0.164634 0.717963 0.778385
O O6 0.017516 0.500159 0.846766
O O7 0.461682 0.848776 0.549400
O O8 0.406351 0.408329 0.842994
O O9 0.805180 0.338639 0.906427
O O10 0.606544 0.113459 0.000454
O O11 0.000000 0.000000 0.000000
O O12 0.000000 0.500000 0.500000
O O13 0.121891 0.134384 0.620415
O O14 0.896966 0.057913 0.807342
O O15 0.500000 0.000000 0.000000
O O16 0.848209 0.193322 0.435559
O O17 0.286013 0.269996 0.233213
O O18 0.614055 0.135257 0.272561
#
# Coordination Sequence:
#
# PCOD8002324 Si02
#       8
#     2   2   2   2   2   2   2   2
#     4  10  21  37  59  84 112 146 189 236 282 338
#     4  10  20  35  59  89 116 150 196 242 286 343
#     4  11  22  38  59  82 113 151 189 232 286 346
#     4  11  23  40  60  84 118 155 192 238 293 348
#     4  12  24  38  60  88 119 151 193 244 291 342
#     4   9  17  32  55  81 110 144 188 231 275 332
#     4   9  19  36  58  83 116 154 194 235 286 348
#     4   8  16  32  54  80 108 146 187 228 274 331
#
# _framework density 21.293928999999999
#
# number of rings (size 3 to 8) (size 9 to 14) (size 15 to 20)
#    0.000    2.000    0.000    4.500    0.000    4.500 
#    0.000    0.000    0.000    4.500    0.000    0.000 
#    0.000    0.000    0.000    0.000    0.000    0.000 
#
# Total GULP energy -198247.683044 kJ/mol
# GULP energy per Si atom -12390.480190 kJ/mol
# Density = 2.124546 g / cm^3
# Si number density = 21.293929 Si / 1000 Ang^3
#
#
#
# Elastic Constant Matrix: (Units=GPa)
#
#
# Indices 1 2 3 4 5 6 
#
# 1 113.8315 58.2820 21.5126 -29.8750 -0.7948 1.6191
# 2 58.2820 194.2033 19.2990 -46.2842 1.5887 21.1985
# 3 21.5126 19.2990 27.5588 -12.2561 -4.9166 4.2360
# 4 -29.8750 -46.2842 -12.2561 44.6244 -8.1220 -0.3832
# 5 -0.7948 1.5887 -4.9166 -8.1220 26.1042 -9.7633
# 6 1.6191 21.1985 4.2360 -0.3832 -9.7633 48.9868
#
#
#
# Elastic Compliance Matrix: (Units=1/GPa)
#
#
# Indices 1 2 3 4 5 6 
#
# 1 0.012192 -0.002136 -0.005971 0.004553 0.001291 0.001331
# 2 -0.002136 0.007711 -0.000313 0.006502 0.000256 -0.003137
# 3 -0.005971 -0.000313 0.048461 0.011144 0.011910 -0.001397
# 4 0.004553 0.006502 0.011144 0.037652 0.013180 -0.001006
# 5 0.001291 0.000256 0.011910 0.013180 0.047838 0.008454
# 6 0.001331 -0.003137 -0.001397 -0.001006 0.008454 0.023525
#
#
# Mechanical properties :
#
#
# Convention : Reuss Voigt Hill
#
# Bulk Modulus (GPa) = 19.40811 59.30897 39.35854
# Shear Modulus (GPa) = 23.65248 39.70974 31.68111
#
# Velocity S-wave (km/s) = 3.33642 4.32306 3.86139
# Velocity P-wave (km/s) = 4.89658 7.26853 6.19709
#
# Compressibility (1/GPa) = 0.05152486
#
# Stress axis : x y z
#
# Youngs Moduli (GPa) = 82.02018 129.67817 20.63505
#
# Poissons Ratio (x) = 0.27703 0.12320
# Poissons Ratio (y) = 0.17522 0.00646
# Poissons Ratio (z) = 0.48970 0.04061
#
# Static dielectric constant tensor:
#      x y z
#    x 4.034240 0.077760 -0.280790 
#    y 0.077760 4.245970 -0.238000 
#    z -0.280790 -0.238000 3.593870 
# 
# 
# High freq. dielectric constant tensor:
#      x y z
#    x 1.832270 0.001610 -0.008200 
#    y 0.001610 1.856660 -0.023350 
#    z -0.008200 -0.023350 1.806820 
# 
# From -- ./inp_files/240464.got.cif
#   From: 2010.06.25/outbox.cif.g09.slc.cpg/sg2_121_cif.got.tgz:240464.got - 2010.06.27 13:26:56.
