data_PCOD8002076
_publ_section_title
;
Structure prediction by ZEFSAII (Michael W. Deem and Ramdas Pophale) SiO2 
 PCOD8002076
Probable space group: P -1
;
_chemical_formula_sum "Si O2"
_cell_formula_units_Z 14
_cell_length_a 20.400147
_cell_length_b 10.326354
_cell_length_c 16.960572
_cell_angle_alpha 51.887178
_cell_angle_beta 18.859358
_cell_angle_gamma 40.788529
_cell_volume 665.915656
_symmetry_space_group_name_H-M "P -1"
_symmetry_group_IT_number 2
_symmetry_cell_setting 'triclinic'
loop_
_space_group_symop_operation_xyz
x,y,z
-x,-y,-z
loop_
_atom_site_type_symbol
_atom_site_label
_atom_site_fract_x
_atom_site_fract_y
_atom_site_fract_z
Si Si1 0.302410 0.901487 0.470325
Si Si2 0.904999 0.620912 0.871979
Si Si3 0.889918 0.815605 0.142805
Si Si4 0.794438 0.761921 0.655428
Si Si5 0.156719 0.085701 0.293650
Si Si6 0.391753 0.775671 0.591629
Si Si7 0.036769 0.711013 0.845605
O O1 0.164995 0.141810 0.502161
O O2 0.318367 0.905198 0.544852
O O3 0.122867 0.844665 0.669871
O O4 0.603943 0.716258 0.156778
O O5 0.120796 0.350865 0.734418
O O6 0.994855 0.704166 0.673160
O O7 0.873633 0.722502 0.955040
O O8 0.190550 0.730576 0.848280
O O9 0.836301 0.821496 0.108205
O O10 0.648151 0.069444 0.351746
O O11 0.880279 0.814611 0.615818
O O12 0.000000 0.500000 0.500000
O O13 0.476786 0.877331 0.983540
O O14 0.000000 0.000000 0.500000
O O15 0.702005 0.540810 0.329336
#
# Coordination Sequence:
#
# PCOD8002076 Si02
#       7
#     2   2   2   2   2   2   2
#     4  10  20  39  60  83 117 152 194 243 299 346
#     4  11  21  36  63  82 115 158 195 236 296 357
#     4  10  20  35  54  86 116 154 194 231 283 352
#     4  10  23  42  67  91 118 162 209 258 309 367
#     4  10  23  44  62  92 125 157 206 264 310 358
#     4  10  20  35  58  83 121 153 186 238 288 348
#     4  11  20  38  56  84 120 155 186 236 291 348
#
# _framework density 21.023683999999999
#
# number of rings (size 3 to 8) (size 9 to 14) (size 15 to 20)
#    0.000    1.714    2.857    2.143    2.000    1.143 
#    0.000    0.000    0.000    0.000    0.000    0.000 
#    0.000    0.000    0.000    0.000    0.000    0.000 
#
# Total GULP energy -173603.329195 kJ/mol
# GULP energy per Si atom -12400.237800 kJ/mol
# Density = 2.097583 g / cm^3
# Si number density = 21.023684 Si / 1000 Ang^3
#
#
#
# Elastic Constant Matrix: (Units=GPa)
#
#
# Indices 1 2 3 4 5 6 
#
# 1 96.0475 64.1943 28.0518 -3.2622 12.0389 -5.4647
# 2 64.1943 155.3942 52.4893 -14.5113 13.3976 -16.7750
# 3 28.0518 52.4893 68.7651 -11.0145 3.7535 0.1489
# 4 -3.2622 -14.5113 -11.0145 36.7081 1.3121 9.9505
# 5 12.0389 13.3976 3.7535 1.3121 25.8241 -1.8563
# 6 -5.4647 -16.7750 0.1489 9.9505 -1.8563 35.4183
#
#
#
# Elastic Compliance Matrix: (Units=1/GPa)
#
#
# Indices 1 2 3 4 5 6 
#
# 1 0.014985 -0.005274 -0.002071 -0.001226 -0.003889 -0.000037
# 2 -0.005274 0.011521 -0.006344 0.001119 -0.002349 0.004232
# 3 -0.002071 -0.006344 0.020987 0.004870 0.000618 -0.004748
# 4 -0.001226 0.001119 0.004870 0.031495 -0.002941 -0.008682
# 5 -0.003889 -0.002349 0.000618 -0.002941 0.041909 0.001308
# 6 -0.000037 0.004232 -0.004748 -0.008682 0.001308 0.032760
#
#
# Mechanical properties :
#
#
# Convention : Reuss Voigt Hill
#
# Bulk Modulus (GPa) = 49.71808 67.74196 58.73002
# Shear Modulus (GPa) = 26.63255 31.28820 28.96038
#
# Velocity S-wave (km/s) = 3.56306 3.86195 3.71551
# Velocity P-wave (km/s) = 6.37394 7.22343 6.81194
#
# Compressibility (1/GPa) = 0.02011341
#
# Stress axis : x y z
#
# Youngs Moduli (GPa) = 66.73309 86.80003 47.64967
#
# Poissons Ratio (x) = 0.45777 0.09870
# Poissons Ratio (y) = 0.35194 0.30230
# Poissons Ratio (z) = 0.13822 0.55068
#
# Static dielectric constant tensor:
#      x y z
#    x 3.905690 0.012400 0.043450 
#    y 0.012400 3.912380 -0.249120 
#    z 0.043450 -0.249120 3.700970 
# 
# 
# High freq. dielectric constant tensor:
#      x y z
#    x 1.824520 0.002340 -0.001550 
#    y 0.002340 1.829920 -0.018330 
#    z -0.001550 -0.018330 1.815640 
# 
# From -- ./inp_files/428308.got.cif
#   From: 2010.06.25/outbox.cif.g09.slc.cpg/sg2_215_cif.got.tgz:428308.got - 2010.06.27 13:26:56.
