data_PCOD8002601
_publ_section_title
;
Structure prediction by ZEFSAII (Michael W. Deem and Ramdas Pophale) SiO2 
 PCOD8002601
Probable space group: P -1
;
_chemical_formula_sum "Si O2"
_cell_formula_units_Z 16
_cell_length_a 28.765447
_cell_length_b 29.940073
_cell_length_c 12.644020
_cell_angle_alpha 150.873030
_cell_angle_beta 151.535370
_cell_angle_gamma 9.532215
_cell_volume 856.513186
_symmetry_space_group_name_H-M "P -1"
_symmetry_group_IT_number 2
_symmetry_cell_setting 'triclinic'
loop_
_space_group_symop_operation_xyz
x,y,z
-x,-y,-z
loop_
_atom_site_type_symbol
_atom_site_label
_atom_site_fract_x
_atom_site_fract_y
_atom_site_fract_z
Si Si1 0.478877 0.712352 0.083593
Si Si2 0.218612 0.781388 0.576206
Si Si3 0.096418 0.712352 0.318675
Si Si4 0.178984 0.709740 0.706079
Si Si5 0.780140 0.719860 0.423803
Si Si6 0.542574 0.164022 0.033318
Si Si7 0.129381 0.164022 0.206931
Si Si8 0.598464 0.290260 0.848818
O O1 0.491874 0.686441 0.181066
O O2 0.801581 0.418691 0.075921
O O3 0.324806 0.946868 0.240792
O O4 0.275446 0.818134 0.839863
O O5 0.500000 0.500000 0.500000
O O6 0.088287 0.818134 0.465546
O O7 0.000000 0.000000 0.500000
O O8 0.135243 0.686442 0.467804
O O9 0.361036 0.418692 0.194831
O O10 0.781457 0.946868 0.154095
O O11 0.347783 0.500000 0.695565
O O12 0.362794 0.637206 0.892396
O O13 0.881311 1.000000 0.762621
O O14 0.890439 0.708057 0.550039
O O15 0.000000 0.500000 0.500000
O O16 0.500000 0.000000 0.500000
O O17 0.693447 0.708057 0.156056
O O18 0.717943 0.000000 0.935886
#
# Coordination Sequence:
#
# PCOD8002601 Si02
#       8
#     2   2   2   2   2   2   2   2
#     4  12  22  37  55  83 111 151 185 223 277 331
#     4  12  24  34  48  76 118 152 176 204 259 336
#     4  12  22  37  55  83 111 151 185 223 277 331
#     4  10  21  38  58  78 106 143 191 242 275 311
#     4  10  20  36  56  80 110 148 190 232 270 310
#     4  11  22  36  57  82 116 148 185 226 270 331
#     4  11  22  36  57  82 116 148 185 226 270 331
#     4  10  21  38  58  78 106 143 191 242 275 311
#
# _framework density 18.680389000000002
#
# number of rings (size 3 to 8) (size 9 to 14) (size 15 to 20)
#    0.000    1.000    1.250    9.000    0.000    0.000 
#    0.000    0.000    0.000    0.000    0.000   17.500 
#    0.000    0.000    0.000    0.000    0.000    0.000 
#
# Total GULP energy -198419.680404 kJ/mol
# GULP energy per Si atom -12401.230025 kJ/mol
# Density = 1.863787 g / cm^3
# Si number density = 18.680389 Si / 1000 Ang^3
#
#
#
# Elastic Constant Matrix: (Units=GPa)
#
#
# Indices 1 2 3 4 5 6 
#
# 1 100.9924 50.1735 63.9853 -6.1115 -2.0541 27.3324
# 2 50.1735 152.9446 49.1673 -11.8503 0.0968 25.9062
# 3 63.9853 49.1673 95.4547 -14.7648 3.4729 11.6148
# 4 -6.1115 -11.8503 -14.7648 33.2658 7.5698 -1.2578
# 5 -2.0541 0.0968 3.4729 7.5698 19.7412 -2.2284
# 6 27.3324 25.9062 11.6148 -1.2578 -2.2284 35.4144
#
#
#
# Elastic Compliance Matrix: (Units=1/GPa)
#
#
# Indices 1 2 3 4 5 6 
#
# 1 0.022083 -0.001247 -0.013549 -0.003952 0.004902 -0.011520
# 2 -0.001247 0.008750 -0.002840 0.001642 -0.000810 -0.004500
# 3 -0.013549 -0.002840 0.021952 0.008218 -0.007829 0.005134
# 4 -0.003952 0.001642 0.008218 0.037234 -0.016204 -0.000543
# 5 0.004902 -0.000810 -0.007829 -0.016204 0.059044 0.002517
# 6 -0.011520 -0.004500 0.005134 -0.000543 0.002517 0.038875
#
#
# Mechanical properties :
#
#
# Convention : Reuss Voigt Hill
#
# Bulk Modulus (GPa) = 57.09579 75.11599 66.10589
# Shear Modulus (GPa) = 21.82935 30.08866 25.95900
#
# Velocity S-wave (km/s) = 3.42214 4.01772 3.73183
# Velocity P-wave (km/s) = 6.80042 7.86264 7.35074
#
# Compressibility (1/GPa) = 0.01751443
#
# Stress axis : x y z
#
# Youngs Moduli (GPa) = 45.28274 114.28074 45.55302
#
# Poissons Ratio (x) = 0.14251 0.61718
# Poissons Ratio (y) = 0.05647 0.12939
# Poissons Ratio (z) = 0.61352 0.32460
#
# Static dielectric constant tensor:
#      x y z
#    x 3.066860 0.144520 -0.279630 
#    y 0.144520 3.622710 -0.017250 
#    z -0.279630 -0.017250 2.684060 
# 
# 
# High freq. dielectric constant tensor:
#      x y z
#    x 1.702070 0.009730 0.007110 
#    y 0.009730 1.755330 -0.002960 
#    z 0.007110 -0.002960 1.710220 
# 
# From -- ./inp_files/477242.got.cif
#   From: 2010.06.25/outbox.cif.g09.slc.cpg/sg2_239_cif.got.tgz:477242.got - 2010.06.27 13:26:56.
