data_PCOD8002859
_publ_section_title
;
Structure prediction by ZEFSAII (Michael W. Deem and Ramdas Pophale) SiO2 
 PCOD8002859
Probable space group: P -1
;
_chemical_formula_sum "Si O2"
_cell_formula_units_Z 14
_cell_length_a 12.839886
_cell_length_b 8.959249
_cell_length_c 12.111987
_cell_angle_alpha 130.488545
_cell_angle_beta 100.579830
_cell_angle_gamma 50.418475
_cell_volume 751.138122
_symmetry_space_group_name_H-M "P -1"
_symmetry_group_IT_number 2
_symmetry_cell_setting 'triclinic'
loop_
_space_group_symop_operation_xyz
x,y,z
-x,-y,-z
loop_
_atom_site_type_symbol
_atom_site_label
_atom_site_fract_x
_atom_site_fract_y
_atom_site_fract_z
Si Si1 0.819292 0.263863 0.826854
Si Si2 0.848057 0.657276 0.985543
Si Si3 0.237034 0.309405 0.250626
Si Si4 0.654299 0.249732 0.962982
Si Si5 0.662123 0.420799 0.655022
Si Si6 0.149695 0.754356 0.586394
Si Si7 0.341512 0.722105 0.765809
O O1 0.723729 0.285294 0.722291
O O2 0.778991 0.545019 0.966475
O O3 0.785724 0.195458 0.901086
O O4 0.989879 0.034351 0.719369
O O5 0.737355 0.976274 0.141863
O O6 0.870207 0.610683 0.834101
O O7 0.000000 0.500000 0.000000
O O8 0.355262 0.318450 0.232547
O O9 0.145295 0.530955 0.439159
O O10 0.322302 0.012875 0.171515
O O11 0.658176 0.309350 0.118699
O O12 0.500000 0.500000 0.000000
O O13 0.780412 0.203216 0.479735
O O14 0.507164 0.513832 0.651635
O O15 0.256647 0.645388 0.660177
#
# Coordination Sequence:
#
# PCOD8002859 Si02
#       7
#     2   2   2   2   2   2   2
#     4  11  21  36  63  83 120 152 191 237 287 347
#     4  10  20  36  59  93 113 146 196 242 284 335
#     4   8  22  37  59  82 117 152 194 229 291 339
#     4  11  23  39  58  85 116 158 193 232 292 344
#     4   9  20  37  62  85 112 152 194 240 283 333
#     4  10  21  38  60  86 117 148 198 234 294 333
#     4  11  21  38  63  86 120 147 194 243 285 341
#
# _framework density 18.638383000000001
#
# number of rings (size 3 to 8) (size 9 to 14) (size 15 to 20)
#    0.857    1.143    2.857    0.857    2.000    2.857 
#    0.000    0.714    3.143    0.000    0.000    0.000 
#    0.000    0.000    0.000    0.000    0.000    0.000 
#
# Total GULP energy -173502.351059 kJ/mol
# GULP energy per Si atom -12393.025076 kJ/mol
# Density = 1.859596 g / cm^3
# Si number density = 18.638383 Si / 1000 Ang^3
#
#
#
# Elastic Constant Matrix: (Units=GPa)
#
#
# Indices 1 2 3 4 5 6 
#
# 1 76.9344 47.7657 39.9305 0.9992 -12.7974 -5.3094
# 2 47.7657 106.0026 35.7214 -3.7413 -0.5043 -7.4092
# 3 39.9305 35.7214 84.9923 -9.4352 -4.0572 -2.5013
# 4 0.9992 -3.7413 -9.4352 22.0040 -5.8748 0.0696
# 5 -12.7974 -0.5043 -4.0572 -5.8748 34.6472 -3.6999
# 6 -5.3094 -7.4092 -2.5013 0.0696 -3.6999 38.9993
#
#
#
# Elastic Compliance Matrix: (Units=1/GPa)
#
#
# Indices 1 2 3 4 5 6 
#
# 1 0.023187 -0.007850 -0.007617 -0.003759 0.007119 0.001859
# 2 -0.007850 0.013777 -0.002071 0.001105 -0.002630 0.001164
# 3 -0.007617 -0.002071 0.017045 0.007404 0.000374 -0.000315
# 4 -0.003759 0.001105 0.007404 0.051184 0.008266 0.000866
# 5 0.007119 -0.002630 0.000374 0.008266 0.033287 0.003637
# 6 0.001859 0.001164 -0.000315 0.000866 0.003637 0.026439
#
#
# Mechanical properties :
#
#
# Convention : Reuss Voigt Hill
#
# Bulk Modulus (GPa) = 52.81756 57.19604 55.00680
# Shear Modulus (GPa) = 24.23599 28.76421 26.50010
#
# Velocity S-wave (km/s) = 3.60992 3.93272 3.77477
# Velocity P-wave (km/s) = 6.76572 7.16768 6.96959
#
# Compressibility (1/GPa) = 0.01893310
#
# Stress axis : x y z
#
# Youngs Moduli (GPa) = 43.12847 72.58594 58.66826
#
# Poissons Ratio (x) = 0.56981 0.44686
# Poissons Ratio (y) = 0.33857 0.12148
# Poissons Ratio (z) = 0.32850 0.15030
#
# Static dielectric constant tensor:
#      x y z
#    x 3.291150 -0.013550 0.101350 
#    y -0.013550 3.440590 -0.132030 
#    z 0.101350 -0.132030 3.447050 
# 
# 
# High freq. dielectric constant tensor:
#      x y z
#    x 1.704120 -0.012500 0.003750 
#    y -0.012500 1.722610 -0.009940 
#    z 0.003750 -0.009940 1.720080 
# 
# From -- ./inp_files/173030.got.cif
#   From: 2010.06.25/outbox.cif.g09.slc.cpg/sg2_87_cif.got.tgz:173030.got - 2010.06.27 13:26:56.
