data_PCOD8002991
_publ_section_title
;
Structure prediction by ZEFSAII (Michael W. Deem and Ramdas Pophale) SiO2 
 PCOD8002991
Probable space group: P -1
;
_chemical_formula_sum "Si O2"
_cell_formula_units_Z 16
_cell_length_a 17.129548
_cell_length_b 9.878037
_cell_length_c 8.291542
_cell_angle_alpha 85.148593
_cell_angle_beta 139.518139
_cell_angle_gamma 113.498265
_cell_volume 776.896450
_symmetry_space_group_name_H-M "P -1"
_symmetry_group_IT_number 2
_symmetry_cell_setting 'triclinic'
loop_
_space_group_symop_operation_xyz
x,y,z
-x,-y,-z
loop_
_atom_site_type_symbol
_atom_site_label
_atom_site_fract_x
_atom_site_fract_y
_atom_site_fract_z
Si Si1 0.422282 0.052053 0.992516
Si Si2 0.040311 0.135425 0.422829
Si Si3 0.122597 0.400006 0.767316
Si Si4 0.889575 0.171559 0.910854
Si Si5 0.295509 0.701289 0.485052
Si Si6 0.195490 0.709184 0.684298
Si Si7 0.753977 0.869089 0.505161
Si Si8 0.199277 0.369056 0.233816
O O1 0.373189 0.157240 0.805803
O O2 0.291718 0.891473 0.880553
O O3 0.539405 0.165026 0.295532
O O4 0.500000 0.000000 0.000000
O O5 0.131114 0.305957 0.635009
O O6 0.119667 0.103260 0.411090
O O7 0.000000 0.000000 0.500000
O O8 0.905326 0.123763 0.122981
O O9 0.199677 0.586527 0.828060
O O10 0.961979 0.327900 0.575310
O O11 0.202772 0.378590 0.044721
O O12 0.805255 0.263346 0.785933
O O13 0.799553 0.021345 0.671103
O O14 0.041513 0.283242 0.061034
O O15 0.248361 0.688028 0.597314
O O16 0.284067 0.541135 0.427060
O O17 0.717358 0.719663 0.576695
#
# Coordination Sequence:
#
# PCOD8002991 Si02
#       8
#     2   2   2   2   2   2   2   2
#     4  10  20  40  63  86 115 159 207 239 293 353
#     4  11  22  34  58  92 126 155 190 245 315 353
#     4  11  22  36  59  92 126 157 186 252 309 348
#     4  11  20  36  62  91 119 153 202 248 295 352
#     4  11  22  38  63  90 118 161 204 247 285 356
#     4  10  20  36  61  87 122 157 198 243 298 352
#     4  11  21  39  63  88 119 158 198 251 296 359
#     4  11  22  36  60  93 123 149 203 251 301 345
#
# _framework density 20.594764000000001
#
# number of rings (size 3 to 8) (size 9 to 14) (size 15 to 20)
#    0.000    1.250    3.750    5.625    3.500    0.500 
#    0.000    0.625    0.000    3.750    0.000    0.000 
#    0.000    0.000    0.000    0.000    0.000    0.000 
#
# Total GULP energy -198368.374388 kJ/mol
# GULP energy per Si atom -12398.023399 kJ/mol
# Density = 2.054789 g / cm^3
# Si number density = 20.594764 Si / 1000 Ang^3
#
#
#
# Elastic Constant Matrix: (Units=GPa)
#
#
# Indices 1 2 3 4 5 6 
#
# 1 27.9855 18.2987 8.3025 0.5282 -7.5417 6.9351
# 2 18.2987 135.4555 52.8438 -13.1285 7.6434 1.5185
# 3 8.3025 52.8438 92.3840 -13.1294 5.9260 7.9286
# 4 0.5282 -13.1285 -13.1294 44.2514 -3.1368 -9.3002
# 5 -7.5417 7.6434 5.9260 -3.1368 26.3941 -2.6854
# 6 6.9351 1.5185 7.9286 -9.3002 -2.6854 30.9049
#
#
#
# Elastic Compliance Matrix: (Units=1/GPa)
#
#
# Indices 1 2 3 4 5 6 
#
# 1 0.046981 -0.007121 -0.000770 -0.003992 0.014171 -0.009965
# 2 -0.007121 0.010747 -0.005229 0.002051 -0.003452 0.002729
# 3 -0.000770 -0.005229 0.014549 0.002028 -0.002023 -0.002868
# 4 -0.003992 0.002051 0.002028 0.025689 0.001693 0.008152
# 5 0.014171 -0.003452 -0.002023 0.001693 0.043777 0.001822
# 6 -0.009965 0.002729 -0.002868 0.008152 0.001822 0.037807
#
#
# Mechanical properties :
#
#
# Convention : Reuss Voigt Hill
#
# Bulk Modulus (GPa) = 21.72155 46.07945 33.90050
# Shear Modulus (GPa) = 22.61060 32.06875 27.33968
#
# Velocity S-wave (km/s) = 3.31702 3.95033 3.64745
# Velocity P-wave (km/s) = 5.02396 6.57493 5.85107
#
# Compressibility (1/GPa) = 0.04603723
#
# Stress axis : x y z
#
# Youngs Moduli (GPa) = 21.28521 93.04665 68.73501
#
# Poissons Ratio (x) = 0.66259 0.05292
# Poissons Ratio (y) = 0.15157 0.35940
# Poissons Ratio (z) = 0.01639 0.48652
#
# Static dielectric constant tensor:
#      x y z
#    x 3.615420 0.097820 -0.031570 
#    y 0.097820 4.267810 0.111610 
#    z -0.031570 0.111610 4.158920 
# 
# 
# High freq. dielectric constant tensor:
#      x y z
#    x 1.776800 -0.010390 -0.014170 
#    y -0.010390 1.824670 -0.010640 
#    z -0.014170 -0.010640 1.799000 
# 
# From -- ./inp_files/282063.got.cif
#   From: 2010.06.25/outbox.cif.g09.slc.cpg/sg2_142_cif.got.tgz:282063.got - 2010.06.27 13:26:56.
