data_PCOD8002583
_publ_section_title
;
Structure prediction by ZEFSAII (Michael W. Deem and Ramdas Pophale) SiO2 
 PCOD8002583
Probable space group: P -1
;
_chemical_formula_sum "Si O2"
_cell_formula_units_Z 16
_cell_length_a 6.570536
_cell_length_b 24.486480
_cell_length_c 11.215843
_cell_angle_alpha 145.585370
_cell_angle_beta 65.165100
_cell_angle_gamma 128.463554
_cell_volume 780.673767
_symmetry_space_group_name_H-M "P -1"
_symmetry_group_IT_number 2
_symmetry_cell_setting 'triclinic'
loop_
_space_group_symop_operation_xyz
x,y,z
-x,-y,-z
loop_
_atom_site_type_symbol
_atom_site_label
_atom_site_fract_x
_atom_site_fract_y
_atom_site_fract_z
Si Si1 0.770689 0.688227 0.746032
Si Si2 0.458454 0.265809 0.696268
Si Si3 0.442773 0.500219 0.876586
Si Si4 0.948171 0.124037 0.420630
Si Si5 0.931765 0.934955 0.210206
Si Si6 0.050801 0.727261 0.508476
Si Si7 0.244700 0.487041 0.397122
Si Si8 0.616484 0.930272 0.491534
O O1 0.484275 0.594225 0.598596
O O2 0.830396 0.634802 0.748889
O O3 0.997066 0.724707 0.656905
O O4 0.770887 0.800983 0.981570
O O5 0.664341 0.257585 0.544992
O O6 0.395239 0.185501 0.680571
O O7 0.193351 0.228955 0.620372
O O8 0.580180 0.391232 0.947221
O O9 0.679028 0.508815 0.753257
O O10 0.162891 0.389606 0.713592
O O11 0.500000 0.500000 0.000000
O O12 0.951809 0.166742 0.361721
O O13 0.672871 0.091944 0.491845
O O14 0.974180 0.012501 0.221186
O O15 0.765376 0.967997 0.396850
O O16 0.213942 0.975009 0.276099
O O17 0.000000 0.500000 0.500000
#
# Coordination Sequence:
#
# PCOD8002583 Si02
#       8
#     2   2   2   2   2   2   2   2
#     4  10  23  41  60  84 118 159 192 232 299 355
#     4  10  20  36  58  84 118 150 195 248 290 337
#     4  11  21  37  62  90 113 156 201 237 296 351
#     4  10  20  36  55  87 115 147 196 244 286 339
#     4  10  20  37  59  82 114 156 192 239 295 348
#     4  10  22  38  57  85 121 154 196 243 286 354
#     4  10  24  42  60  88 124 151 194 243 291 356
#     4   9  20  36  57  84 116 147 195 249 288 343
#
# _framework density 20.495115999999999
#
# number of rings (size 3 to 8) (size 9 to 14) (size 15 to 20)
#    0.000    2.000    1.250    1.500    1.750    2.500 
#    2.250    5.625    0.000    0.000    0.000    0.000 
#    0.000    0.000    0.000    0.000    0.000    0.000 
#
# Total GULP energy -198366.782647 kJ/mol
# GULP energy per Si atom -12397.923915 kJ/mol
# Density = 2.044847 g / cm^3
# Si number density = 20.495116 Si / 1000 Ang^3
#
#
#
# Elastic Constant Matrix: (Units=GPa)
#
#
# Indices 1 2 3 4 5 6 
#
# 1 98.5145 50.4911 31.9265 -6.8785 -5.7606 9.4787
# 2 50.4911 109.1731 38.9685 0.5746 -0.5577 1.5461
# 3 31.9265 38.9685 92.3505 14.4105 -9.5470 -13.1904
# 4 -6.8785 0.5746 14.4105 36.1339 -7.2940 -7.6555
# 5 -5.7606 -0.5577 -9.5470 -7.2940 20.1679 1.2290
# 6 9.4787 1.5461 -13.1904 -7.6555 1.2290 36.4463
#
#
#
# Elastic Compliance Matrix: (Units=1/GPa)
#
#
# Indices 1 2 3 4 5 6 
#
# 1 0.015233 -0.005649 -0.003745 0.004440 0.004290 -0.004289
# 2 -0.005649 0.013172 -0.003939 -0.000478 -0.003256 -0.000506
# 3 -0.003745 -0.003939 0.015794 -0.004901 0.004179 0.005687
# 4 0.004440 -0.000478 -0.004901 0.033459 0.010807 0.003756
# 5 0.004290 -0.003256 0.004179 0.010807 0.056551 0.000898
# 6 -0.004289 -0.000506 0.005687 0.003756 0.000898 0.031391
#
#
# Mechanical properties :
#
#
# Convention : Reuss Voigt Hill
#
# Bulk Modulus (GPa) = 57.03577 60.31227 58.67402
# Shear Modulus (GPa) = 25.23839 30.45974 27.84907
#
# Velocity S-wave (km/s) = 3.51299 3.85930 3.69021
# Velocity P-wave (km/s) = 6.65914 7.02499 6.84451
#
# Compressibility (1/GPa) = 0.01753286
#
# Stress axis : x y z
#
# Youngs Moduli (GPa) = 65.64563 75.92100 63.31537
#
# Poissons Ratio (x) = 0.42890 0.23709
# Poissons Ratio (y) = 0.37085 0.24941
# Poissons Ratio (z) = 0.24581 0.29906
#
# Static dielectric constant tensor:
#      x y z
#    x 3.655400 -0.102260 0.016130 
#    y -0.102260 4.061430 0.249770 
#    z 0.016130 0.249770 3.576640 
# 
# 
# High freq. dielectric constant tensor:
#      x y z
#    x 1.797040 -0.005050 -0.005300 
#    y -0.005050 1.823370 0.018120 
#    z -0.005300 0.018120 1.779230 
# 
# From -- ./inp_files/100846.got.cif
#   From: 2010.06.25/outbox.cif.g09.slc.cpg/sg2_51_cif.got.tgz:100846.got - 2010.06.27 13:26:56.
