data_PCOD8002370
_publ_section_title
;
Structure prediction by ZEFSAII (Michael W. Deem and Ramdas Pophale) SiO2 
 PCOD8002370
Probable space group: P -1
;
_chemical_formula_sum "Si O2"
_cell_formula_units_Z 14
_cell_length_a 16.086142
_cell_length_b 9.424216
_cell_length_c 20.473962
_cell_angle_alpha 31.677458
_cell_angle_beta 155.771239
_cell_angle_gamma 145.490813
_cell_volume 652.107328
_symmetry_space_group_name_H-M "P -1"
_symmetry_group_IT_number 2
_symmetry_cell_setting 'triclinic'
loop_
_space_group_symop_operation_xyz
x,y,z
-x,-y,-z
loop_
_atom_site_type_symbol
_atom_site_label
_atom_site_fract_x
_atom_site_fract_y
_atom_site_fract_z
Si Si1 0.608430 0.416936 0.890948
Si Si2 0.454363 0.543722 0.862645
Si Si3 0.750866 0.905240 0.019709
Si Si4 0.851706 0.698000 0.838658
Si Si5 0.807831 0.087722 0.397369
Si Si6 0.535260 0.396175 0.637512
Si Si7 0.763486 0.013120 0.251351
O O1 0.487720 0.561818 0.801730
O O2 0.766021 0.638932 0.873778
O O3 0.441413 0.233855 0.794451
O O4 0.744040 0.228721 0.096756
O O5 0.679752 0.654410 0.015356
O O6 0.297181 0.732300 0.698896
O O7 0.362171 0.220082 0.944059
O O8 0.675149 0.167740 0.833545
O O9 0.000953 0.990432 0.176884
O O10 0.653327 0.660595 0.662027
O O11 0.000000 0.500000 0.000000
O O12 0.800082 0.181766 0.279630
O O13 0.694517 0.759718 0.443321
O O14 0.042804 0.119315 0.576875
O O15 0.500000 0.500000 0.500000
#
# Coordination Sequence:
#
# PCOD8002370 Si02
#       7
#     2   2   2   2   2   2   2
#     4  11  22  37  64  96 123 157 216 253 299 368
#     4  10  21  39  67  92 123 165 204 254 304 370
#     4   9  20  38  63  87 123 166 203 241 310 370
#     4  10  22  37  59  92 122 161 204 260 303 363
#     4  10  21  41  61  92 127 160 204 254 313 354
#     4  10  20  35  60  89 119 158 203 252 306 362
#     4  10  22  36  64  94 121 161 210 260 293 363
#
# _framework density 21.468858999999998
#
# number of rings (size 3 to 8) (size 9 to 14) (size 15 to 20)
#    0.000    2.000    1.429    2.571   10.000    1.143 
#    0.000    1.429    3.143    6.857    0.000    0.000 
#    0.000    0.000    0.000    0.000    0.000    0.000 
#
# Total GULP energy -173453.587064 kJ/mol
# GULP energy per Si atom -12389.541933 kJ/mol
# Density = 2.141999 g / cm^3
# Si number density = 21.468859 Si / 1000 Ang^3
#
#
#
# Elastic Constant Matrix: (Units=GPa)
#
#
# Indices 1 2 3 4 5 6 
#
# 1 141.9172 43.0390 48.0082 1.6053 -4.2194 -1.1824
# 2 43.0390 120.6818 50.2603 16.6121 -0.5580 26.1068
# 3 48.0082 50.2603 92.3645 20.3739 -2.2502 3.1272
# 4 1.6053 16.6121 20.3739 22.1309 -0.0767 5.8485
# 5 -4.2194 -0.5580 -2.2502 -0.0767 32.1232 -8.1249
# 6 -1.1824 26.1068 3.1272 5.8485 -8.1249 37.3337
#
#
#
# Elastic Compliance Matrix: (Units=1/GPa)
#
#
# Indices 1 2 3 4 5 6 
#
# 1 0.009378 -0.002517 -0.004631 0.004958 0.001373 0.001967
# 2 -0.002517 0.013839 -0.005359 -0.002771 -0.002875 -0.009500
# 3 -0.004631 -0.005359 0.019255 -0.014594 0.001792 0.004664
# 4 0.004958 -0.002771 -0.014594 0.062146 -0.002005 -0.006854
# 5 0.001373 -0.002875 0.001792 -0.002005 0.033803 0.009574
# 6 0.001967 -0.009500 0.004664 -0.006854 0.009574 0.036258
#
#
# Mechanical properties :
#
#
# Convention : Reuss Voigt Hill
#
# Bulk Modulus (GPa) = 57.28615 70.84206 64.06411
# Shear Modulus (GPa) = 24.32944 32.56130 28.44537
#
# Velocity S-wave (km/s) = 3.37002 3.89868 3.64395
# Velocity P-wave (km/s) = 6.47179 7.30311 6.89998
#
# Compressibility (1/GPa) = 0.01745623
#
# Stress axis : x y z
#
# Youngs Moduli (GPa) = 106.63779 72.25799 51.93477
#
# Poissons Ratio (x) = 0.18190 0.24051
# Poissons Ratio (y) = 0.26844 0.27834
# Poissons Ratio (z) = 0.49385 0.38726
#
# Static dielectric constant tensor:
#      x y z
#    x 3.764820 0.231100 -0.033460 
#    y 0.231100 4.550470 0.536830 
#    z -0.033460 0.536830 3.780970 
# 
# 
# High freq. dielectric constant tensor:
#      x y z
#    x 1.834260 0.009970 -0.009270 
#    y 0.009970 1.841120 0.025990 
#    z -0.009270 0.025990 1.825260 
# 
# From -- ./inp_files/572830.got.cif
#   From: 2010.06.25/outbox.cif.g09.slc.cpg/sg2_287_cif.got.tgz:572830.got - 2010.06.27 13:26:56.
