data_PCOD8002789
_publ_section_title
;
Structure prediction by ZEFSAII (Michael W. Deem and Ramdas Pophale) SiO2 
 PCOD8002789
Probable space group: P -1
;
_chemical_formula_sum "Si O2"
_cell_formula_units_Z 16
_cell_length_a 20.768748
_cell_length_b 17.124835
_cell_length_c 11.605813
_cell_angle_alpha 141.919655
_cell_angle_beta 35.583326
_cell_angle_gamma 162.350768
_cell_volume 726.490751
_symmetry_space_group_name_H-M "P -1"
_symmetry_group_IT_number 2
_symmetry_cell_setting 'triclinic'
loop_
_space_group_symop_operation_xyz
x,y,z
-x,-y,-z
loop_
_atom_site_type_symbol
_atom_site_label
_atom_site_fract_x
_atom_site_fract_y
_atom_site_fract_z
Si Si1 0.784370 0.071739 0.933131
Si Si2 0.337521 0.442088 0.363099
Si Si3 0.600165 0.248074 0.246790
Si Si4 0.485212 0.714995 0.227734
Si Si5 0.676731 0.221847 0.342339
Si Si6 0.053604 0.931349 0.125620
Si Si7 0.166036 0.755341 0.179877
Si Si8 0.618848 0.498212 0.098720
O O1 0.982143 0.191038 0.850196
O O2 0.687462 0.080679 0.175646
O O3 0.578719 0.771033 0.856319
O O4 0.877830 0.232639 0.870245
O O5 0.288748 0.505344 0.599024
O O6 0.401512 0.561345 0.284991
O O7 0.543253 0.565310 0.257946
O O8 0.113608 0.133632 0.314230
O O9 0.547501 0.119713 0.291703
O O10 0.361191 0.029658 0.276845
O O11 0.767268 0.327633 0.018847
O O12 0.458242 0.840368 0.431905
O O13 0.740136 0.924988 0.078184
O O14 0.330539 0.521475 0.119031
O O15 0.931547 0.533944 0.330945
O O16 0.835749 0.716378 0.115431
#
# Coordination Sequence:
#
# PCOD8002789 Si02
#       8
#     2   2   2   2   2   2   2   2
#     4   9  20  37  54  80 116 144 182 229 268 330
#     4   9  19  36  56  83 113 138 182 235 271 323
#     4   9  19  34  56  86 109 133 182 229 272 328
#     4   9  20  36  56  85 111 137 186 235 269 325
#     4  10  20  36  59  84 111 144 180 229 283 322
#     4  10  21  36  55  80 113 153 183 218 275 326
#     4  10  20  36  61  85 109 143 180 228 283 326
#     4  10  21  36  56  80 112 153 183 219 276 326
#
# _framework density 22.023679999999999
#
# number of rings (size 3 to 8) (size 9 to 14) (size 15 to 20)
#    0.000    2.750    0.000    3.000    0.000   12.000 
#    0.000    3.750    0.000   28.500    0.000    0.000 
#    0.000    0.000    0.000    0.000    0.000    0.000 
#
# Total GULP energy -198315.751998 kJ/mol
# GULP energy per Si atom -12394.734500 kJ/mol
# Density = 2.197355 g / cm^3
# Si number density = 22.023680 Si / 1000 Ang^3
#
#
#
# Elastic Constant Matrix: (Units=GPa)
#
#
# Indices 1 2 3 4 5 6 
#
# 1 85.2918 39.9794 5.8815 17.4312 -3.8938 36.2368
# 2 39.9794 75.2004 23.1991 14.3070 5.0520 37.4620
# 3 5.8815 23.1991 91.7705 19.2217 -2.3393 11.4231
# 4 17.4312 14.3070 19.2217 29.8262 -8.3104 4.9470
# 5 -3.8938 5.0520 -2.3393 -8.3104 23.2846 6.3000
# 6 36.2368 37.4620 11.4231 4.9470 6.3000 43.9289
#
#
#
# Elastic Compliance Matrix: (Units=1/GPa)
#
#
# Indices 1 2 3 4 5 6 
#
# 1 0.022027 -0.003532 0.003533 -0.009202 0.005815 -0.015874
# 2 -0.003532 0.026380 -0.002911 -0.007060 -0.004419 -0.017397
# 3 0.003533 -0.002911 0.013652 -0.008902 0.000232 -0.003013
# 4 -0.009202 -0.007060 -0.008902 0.050903 0.015093 0.008029
# 5 0.005815 -0.004419 0.000232 0.015093 0.053104 -0.010404
# 6 -0.015874 -0.017397 -0.003013 0.008029 -0.010404 0.052066
#
#
# Mechanical properties :
#
#
# Convention : Reuss Voigt Hill
#
# Bulk Modulus (GPa) = 17.78148 43.37583 30.57866
# Shear Modulus (GPa) = 20.60173 31.62144 26.11159
#
# Velocity S-wave (km/s) = 3.06181 3.79330 3.44701
# Velocity P-wave (km/s) = 4.53772 6.23885 5.45501
#
# Compressibility (1/GPa) = 0.05623830
#
# Stress axis : x y z
#
# Youngs Moduli (GPa) = 45.39904 37.90685 73.25115
#
# Poissons Ratio (x) = 0.13390 -0.25879
# Poissons Ratio (y) = 0.16037 0.21323
# Poissons Ratio (z) = -0.16039 0.11034
#
# Static dielectric constant tensor:
#      x y z
#    x 4.094570 0.015360 -0.196890 
#    y 0.015360 3.616400 0.183510 
#    z -0.196890 0.183510 4.206130 
# 
# 
# High freq. dielectric constant tensor:
#      x y z
#    x 1.874030 -0.001600 -0.011650 
#    y -0.001600 1.848000 0.010260 
#    z -0.011650 0.010260 1.869360 
# 
# From -- ./inp_files/472294.got.cif
#   From: 2010.06.25/outbox.cif.g09.slc.cpg/sg2_237_cif.got.tgz:472294.got - 2010.06.27 13:26:56.
