data_PCOD8002000
_publ_section_title
;
Structure prediction by ZEFSAII (Michael W. Deem and Ramdas Pophale) SiO2 
 PCOD8002000
Probable space group: P -1
;
_chemical_formula_sum "Si O2"
_cell_formula_units_Z 16
_cell_length_a 12.204696
_cell_length_b 7.535885
_cell_length_c 10.592357
_cell_angle_alpha 52.423344
_cell_angle_beta 90.778072
_cell_angle_gamma 82.929836
_cell_volume 761.348374
_symmetry_space_group_name_H-M "P -1"
_symmetry_group_IT_number 2
_symmetry_cell_setting 'triclinic'
loop_
_space_group_symop_operation_xyz
x,y,z
-x,-y,-z
loop_
_atom_site_type_symbol
_atom_site_label
_atom_site_fract_x
_atom_site_fract_y
_atom_site_fract_z
Si Si1 0.486158 0.742664 0.102880
Si Si2 0.539321 0.219068 0.638450
Si Si3 0.906492 0.682315 0.353631
Si Si4 0.312692 0.446056 0.478898
Si Si5 0.737105 0.392609 0.867303
Si Si6 0.659764 0.738490 0.924035
Si Si7 0.925525 0.191746 0.125072
Si Si8 0.118284 0.359183 0.919971
O O1 0.496958 0.646816 0.286900
O O2 0.364110 0.738810 0.050144
O O3 0.577455 0.611220 0.063618
O O4 0.500000 0.000000 0.000000
O O5 0.423730 0.252037 0.542650
O O6 0.640592 0.345971 0.538361
O O7 0.585487 0.958352 0.768761
O O8 0.781478 0.645754 0.401375
O O9 0.923782 0.649146 0.219146
O O10 0.000000 0.500000 0.500000
O O11 0.924524 0.935743 0.285683
O O12 0.254296 0.527364 0.310514
O O13 0.719229 0.609922 0.862398
O O14 0.848903 0.229985 0.981671
O O15 0.757255 0.783183 0.001551
O O16 0.884238 0.376165 0.154274
O O17 0.047084 0.228290 0.069325
#
# Coordination Sequence:
#
# PCOD8002000 Si02
#       8
#     2   2   2   2   2   2   2   2
#     4   9  18  32  57  85 115 152 197 252 290 350
#     4   9  20  36  58  82 120 164 190 247 302 359
#     4  12  26  40  66  95 119 164 204 250 314 372
#     4  10  22  39  55  87 126 156 200 242 307 363
#     4  10  21  38  59  87 123 156 201 254 300 361
#     4  10  20  34  63  90 111 160 207 246 303 357
#     4  10  24  43  66  91 123 157 208 263 301 358
#     4  10  23  44  65  93 121 161 207 255 309 357
#
# _framework density 21.015346000000001
#
# number of rings (size 3 to 8) (size 9 to 14) (size 15 to 20)
#    0.000    2.000    0.000    2.250   10.500    1.000 
#    2.250    0.000    0.000    0.000    0.000    0.000 
#    0.000    0.000    0.000    0.000    0.000    0.000 
#
# Total GULP energy -198238.132562 kJ/mol
# GULP energy per Si atom -12389.883285 kJ/mol
# Density = 2.096751 g / cm^3
# Si number density = 21.015346 Si / 1000 Ang^3
#
#
#
# Elastic Constant Matrix: (Units=GPa)
#
#
# Indices 1 2 3 4 5 6 
#
# 1 112.0447 19.9594 25.4417 -16.7267 -6.5869 9.5414
# 2 19.9594 49.5291 22.9109 -9.7443 -0.7198 7.0006
# 3 25.4417 22.9109 71.5408 -19.6161 11.0307 1.6527
# 4 -16.7267 -9.7443 -19.6161 30.3323 0.0203 0.2767
# 5 -6.5869 -0.7198 11.0307 0.0203 43.2779 -2.3230
# 6 9.5414 7.0006 1.6527 0.2767 -2.3230 27.1755
#
#
#
# Elastic Compliance Matrix: (Units=1/GPa)
#
#
# Indices 1 2 3 4 5 6 
#
# 1 0.010767 -0.002043 -0.002392 0.003760 0.002053 -0.002971
# 2 -0.002043 0.025469 -0.006807 0.002701 0.001561 -0.005324
# 3 -0.002392 -0.006807 0.020548 0.009780 -0.005678 0.000759
# 4 0.003760 0.002701 0.009780 0.042265 -0.002068 -0.003218
# 5 0.002053 0.001561 -0.005678 -0.002068 0.024967 0.001378
# 6 -0.002971 -0.005324 0.000759 -0.003218 0.001378 0.039317
#
#
# Mechanical properties :
#
#
# Convention : Reuss Voigt Hill
#
# Bulk Modulus (GPa) = 29.15401 41.08206 35.11803
# Shear Modulus (GPa) = 25.34863 31.14396 28.24630
#
# Velocity S-wave (km/s) = 3.47680 3.85380 3.67015
# Velocity P-wave (km/s) = 5.47908 6.27642 5.89126
#
# Compressibility (1/GPa) = 0.03430060
#
# Stress axis : x y z
#
# Youngs Moduli (GPa) = 92.87556 39.26402 48.66643
#
# Poissons Ratio (x) = 0.08022 0.11639
# Poissons Ratio (y) = 0.18975 0.33127
# Poissons Ratio (z) = 0.22213 0.26727
#
# Static dielectric constant tensor:
#      x y z
#    x 4.537950 -0.053120 -0.139560 
#    y -0.053120 3.738770 0.205430 
#    z -0.139560 0.205430 4.078230 
# 
# 
# High freq. dielectric constant tensor:
#      x y z
#    x 1.843290 0.007600 0.004640 
#    y 0.007600 1.800700 -0.000700 
#    z 0.004640 -0.000700 1.820600 
# 
# From -- ./inp_files/416325.got.cif
#   From: 2010.06.25/outbox.cif.g09.slc.cpg/sg2_209_cif.got.tgz:416325.got - 2010.06.27 13:26:56.
