data_PCOD8002080
_publ_section_title
;
Structure prediction by ZEFSAII (Michael W. Deem and Ramdas Pophale) SiO2 
 PCOD8002080
Probable space group: P -1
;
_chemical_formula_sum "Si O2"
_cell_formula_units_Z 14
_cell_length_a 11.687626
_cell_length_b 12.279834
_cell_length_c 9.045965
_cell_angle_alpha 143.493095
_cell_angle_beta 57.520076
_cell_angle_gamma 124.794571
_cell_volume 626.075721
_symmetry_space_group_name_H-M "P -1"
_symmetry_group_IT_number 2
_symmetry_cell_setting 'triclinic'
loop_
_space_group_symop_operation_xyz
x,y,z
-x,-y,-z
loop_
_atom_site_type_symbol
_atom_site_label
_atom_site_fract_x
_atom_site_fract_y
_atom_site_fract_z
Si Si1 0.949059 0.019137 0.890446
Si Si2 0.834943 0.180464 0.547868
Si Si3 0.335558 0.038989 0.850077
Si Si4 0.387616 0.444869 0.146635
Si Si5 0.084552 0.437831 0.241205
Si Si6 0.475916 0.677982 0.622359
Si Si7 0.382908 0.951158 0.187268
O O1 0.024543 0.888941 0.601452
O O2 0.993357 0.231960 0.024519
O O3 0.779211 0.951313 0.933043
O O4 0.000000 0.000000 0.000000
O O5 0.887013 0.409136 0.744234
O O6 0.744660 0.115266 0.684835
O O7 0.740350 0.098447 0.380072
O O8 0.463823 0.972192 0.755570
O O9 0.411060 0.251089 0.978321
O O10 0.230196 0.405240 0.155891
O O11 0.408109 0.603722 0.431396
O O12 0.500000 0.500000 0.000000
O O13 0.000000 0.500000 0.500000
O O14 0.500000 0.500000 0.500000
O O15 0.619515 0.853684 0.685980
O O16 0.372488 0.771969 0.890818
#
# Coordination Sequence:
#
# PCOD8002080 Si02
#       7
#     2   2   2   2   2   2   2
#     4  10  20  35  54  91 130 163 196 257 316 361
#     4  11  21  37  62  94 128 159 213 260 306 370
#     4  11  19  38  60  93 128 160 203 257 312 363
#     4  12  23  38  67  98 122 161 212 262 312 370
#     4  12  21  37  62  97 130 163 204 261 318 367
#     4  11  25  43  62  92 132 166 202 262 323 370
#     4  11  24  41  64  89 122 169 210 258 312 371
#
# _framework density 22.361512000000001
#
# number of rings (size 3 to 8) (size 9 to 14) (size 15 to 20)
#    0.000    0.857    7.143    3.000    0.000    0.000 
#    0.000    0.000    0.000    8.571    0.000    0.000 
#    0.000    0.000    0.000    0.000    0.000    0.000 
#
# Total GULP energy -173517.886798 kJ/mol
# GULP energy per Si atom -12394.134771 kJ/mol
# Density = 2.231062 g / cm^3
# Si number density = 22.361512 Si / 1000 Ang^3
#
#
#
# Elastic Constant Matrix: (Units=GPa)
#
#
# Indices 1 2 3 4 5 6 
#
# 1 34.5876 31.0004 19.8669 -8.6119 -12.1805 8.1830
# 2 31.0004 195.0257 67.0671 5.8586 -16.4769 5.6725
# 3 19.8669 67.0671 83.8832 -0.5957 -6.7526 -9.2445
# 4 -8.6119 5.8586 -0.5957 58.5595 3.8982 -14.9316
# 5 -12.1805 -16.4769 -6.7526 3.8982 27.8028 -0.9672
# 6 8.1830 5.6725 -9.2445 -14.9316 -0.9672 22.7877
#
#
#
# Elastic Compliance Matrix: (Units=1/GPa)
#
#
# Indices 1 2 3 4 5 6 
#
# 1 0.047199 -0.002049 -0.010357 0.001055 0.016130 -0.019265
# 2 -0.002049 0.008135 -0.006453 -0.002785 0.002551 -0.005623
# 3 -0.010357 -0.006453 0.021082 0.003666 -0.003194 0.016145
# 4 0.001055 -0.002785 0.003666 0.021806 -0.002799 0.015971
# 5 0.016130 0.002551 -0.003194 -0.002799 0.043895 -0.007694
# 6 -0.019265 -0.005623 0.016145 0.015971 -0.007694 0.068889
#
#
# Mechanical properties :
#
#
# Convention : Reuss Voigt Hill
#
# Bulk Modulus (GPa) = 25.84205 61.04059 43.44132
# Shear Modulus (GPa) = 19.11137 34.86748 26.98943
#
# Velocity S-wave (km/s) = 2.92662 3.95303 3.47790
# Velocity P-wave (km/s) = 4.79601 6.94203 5.96630
#
# Compressibility (1/GPa) = 0.03869662
#
# Stress axis : x y z
#
# Youngs Moduli (GPa) = 21.18699 122.92355 47.43409
#
# Poissons Ratio (x) = 0.25192 0.49128
# Poissons Ratio (y) = 0.04342 0.30609
# Poissons Ratio (z) = 0.21944 0.79323
#
# Static dielectric constant tensor:
#      x y z
#    x 3.954420 0.033670 -0.221040 
#    y 0.033670 4.483650 0.156270 
#    z -0.221040 0.156270 4.230320 
# 
# 
# High freq. dielectric constant tensor:
#      x y z
#    x 1.850510 0.002520 -0.022130 
#    y 0.002520 1.906840 0.014240 
#    z -0.022130 0.014240 1.878290 
# 
# From -- ./inp_files/260847.got.cif
#   From: 2010.06.25/outbox.cif.g09.slc.cpg/sg2_131_cif.got.tgz:260847.got - 2010.06.27 13:26:56.
