data_PCOD8002884
_publ_section_title
;
Structure prediction by ZEFSAII (Michael W. Deem and Ramdas Pophale) SiO2 
 PCOD8002884
Probable space group: P -1
;
_chemical_formula_sum "Si O2"
_cell_formula_units_Z 16
_cell_length_a 22.786292
_cell_length_b 9.488993
_cell_length_c 15.782626
_cell_angle_alpha 138.056371
_cell_angle_beta 159.787355
_cell_angle_gamma 44.420251
_cell_volume 786.119725
_symmetry_space_group_name_H-M "P -1"
_symmetry_group_IT_number 2
_symmetry_cell_setting 'triclinic'
loop_
_space_group_symop_operation_xyz
x,y,z
-x,-y,-z
loop_
_atom_site_type_symbol
_atom_site_label
_atom_site_fract_x
_atom_site_fract_y
_atom_site_fract_z
Si Si1 0.629292 0.144642 0.621119
Si Si2 0.466048 0.681062 0.968171
Si Si3 0.169941 0.023954 0.690323
Si Si4 0.288637 0.089983 0.213188
Si Si5 0.686964 0.037491 0.474974
Si Si6 0.910684 0.138061 0.668303
Si Si7 0.410800 0.366747 0.201653
Si Si8 0.643045 0.478504 0.421336
O O1 0.437905 0.061105 0.332001
O O2 0.629278 0.395510 0.714072
O O3 0.720722 0.102452 0.818260
O O4 0.734703 0.014628 0.630084
O O5 0.623988 0.827844 0.252412
O O6 0.500000 0.500000 0.000000
O O7 0.453455 0.541641 0.805710
O O8 0.295721 0.834781 0.812986
O O9 0.143673 0.018101 0.549948
O O10 0.236010 0.253737 0.901592
O O11 0.000000 0.000000 0.500000
O O12 0.342181 0.280065 0.429585
O O13 0.114053 0.134446 0.946088
O O14 0.842804 0.091199 0.649946
O O15 0.536165 0.223782 0.368630
O O16 0.834451 0.368581 0.638111
O O17 0.519798 0.356158 0.259389
#
# Coordination Sequence:
#
# PCOD8002884 Si02
#       8
#     2   2   2   2   2   2   2   2
#     4  10  21  37  56  84 115 154 188 227 283 341
#     4  10  20  36  60  85 112 152 192 236 282 343
#     4  10  22  40  58  86 115 149 191 242 288 339
#     4  10  21  36  57  83 119 149 185 234 282 335
#     4  10  20  36  60  84 111 150 192 232 280 342
#     4  10  21  37  58  84 111 148 190 237 286 330
#     4   9  19  37  58  79 109 152 189 228 279 344
#     4   9  18  37  58  83 111 148 193 227 278 338
#
# _framework density 20.353135000000002
#
# number of rings (size 3 to 8) (size 9 to 14) (size 15 to 20)
#    0.000    2.250    0.000    2.250    3.500    3.500 
#    6.750    0.625    0.000    0.000    0.000    0.000 
#    0.000    0.000    0.000    0.000    0.000    0.000 
#
# Total GULP energy -198229.176302 kJ/mol
# GULP energy per Si atom -12389.323519 kJ/mol
# Density = 2.030681 g / cm^3
# Si number density = 20.353135 Si / 1000 Ang^3
#
#
#
# Elastic Constant Matrix: (Units=GPa)
#
#
# Indices 1 2 3 4 5 6 
#
# 1 102.9071 10.2070 28.5006 -2.0634 -7.2444 0.7592
# 2 10.2070 62.6951 23.9063 10.7315 -6.1426 10.4954
# 3 28.5006 23.9063 88.0759 1.8824 -2.0845 1.9025
# 4 -2.0634 10.7315 1.8824 23.7780 1.3695 -0.6189
# 5 -7.2444 -6.1426 -2.0845 1.3695 26.9423 -1.5674
# 6 0.7592 10.4954 1.9025 -0.6189 -1.5674 22.6771
#
#
#
# Elastic Compliance Matrix: (Units=1/GPa)
#
#
# Indices 1 2 3 4 5 6 
#
# 1 0.010901 -0.000537 -0.003359 0.001320 0.002503 0.000375
# 2 -0.000537 0.021760 -0.005209 -0.009956 0.004362 -0.009586
# 3 -0.003359 -0.005209 0.013780 0.001061 -0.001001 0.001327
# 4 0.001320 -0.009956 0.001061 0.046947 -0.003900 0.005486
# 5 0.002503 0.004362 -0.001001 -0.003900 0.038938 0.000566
# 6 0.000375 -0.009586 0.001327 0.005486 0.000566 0.048599
#
#
# Mechanical properties :
#
#
# Convention : Reuss Voigt Hill
#
# Bulk Modulus (GPa) = 35.42319 42.10064 38.76192
# Shear Modulus (GPa) = 23.97557 27.41710 25.69633
#
# Velocity S-wave (km/s) = 3.43589 3.67423 3.55706
# Velocity P-wave (km/s) = 5.76043 6.22334 5.99635
#
# Compressibility (1/GPa) = 0.02823009
#
# Stress axis : x y z
#
# Youngs Moduli (GPa) = 91.73528 45.95497 72.57105
#
# Poissons Ratio (x) = 0.02470 0.24374
# Poissons Ratio (y) = 0.04930 0.37805
# Poissons Ratio (z) = 0.30810 0.23940
#
# Static dielectric constant tensor:
#      x y z
#    x 3.927550 0.078060 -0.145170 
#    y 0.078060 3.717880 0.028360 
#    z -0.145170 0.028360 3.633050 
# 
# 
# High freq. dielectric constant tensor:
#      x y z
#    x 1.803170 0.004510 -0.011660 
#    y 0.004510 1.789940 0.004030 
#    z -0.011660 0.004030 1.780090 
# 
# From -- ./inp_files/181830.got.cif
#   From: 2010.06.25/outbox.cif.g09.slc.cpg/sg2_91_cif.got.tgz:181830.got - 2010.06.27 13:26:56.
