data_PCOD8002909
_publ_section_title
;
Structure prediction by ZEFSAII (Michael W. Deem and Ramdas Pophale) SiO2 
 PCOD8002909
Probable space group: P -1
;
_chemical_formula_sum "Si O2"
_cell_formula_units_Z 16
_cell_length_a 16.996057
_cell_length_b 20.518650
_cell_length_c 11.483293
_cell_angle_alpha 28.342844
_cell_angle_beta 39.159769
_cell_angle_gamma 23.010041
_cell_volume 730.045976
_symmetry_space_group_name_H-M "P -1"
_symmetry_group_IT_number 2
_symmetry_cell_setting 'triclinic'
loop_
_space_group_symop_operation_xyz
x,y,z
-x,-y,-z
loop_
_atom_site_type_symbol
_atom_site_label
_atom_site_fract_x
_atom_site_fract_y
_atom_site_fract_z
Si Si1 0.729433 0.642538 0.364014
Si Si2 0.760706 0.738419 0.411434
Si Si3 0.098387 0.315949 0.080678
Si Si4 0.494089 0.743576 0.813852
Si Si5 0.873374 0.876832 0.205641
Si Si6 0.154413 0.665237 0.808638
Si Si7 0.364962 0.824744 0.585200
Si Si8 0.008387 0.947523 0.743992
O O1 0.666332 0.798771 0.297477
O O2 0.539234 0.702785 0.479334
O O3 0.936999 0.377128 0.565866
O O4 0.744894 0.722901 0.106859
O O5 0.641222 0.746991 0.626797
O O6 0.734290 0.914882 0.212666
O O7 0.000000 0.500000 0.500000
O O8 0.929414 0.400819 0.051713
O O9 0.221335 0.084111 0.363621
O O10 0.000000 0.500000 0.000000
O O11 0.471615 0.691191 0.795734
O O12 0.264482 0.969554 0.766410
O O13 0.610446 0.550815 0.080110
O O14 0.946716 0.948465 0.941034
O O15 0.015032 0.820489 0.839337
O O16 0.148243 0.796891 0.517963
O O17 0.236196 0.810993 0.705729
#
# Coordination Sequence:
#
# PCOD8002909 Si02
#       8
#     2   2   2   2   2   2   2   2
#     4  10  20  36  60  87 117 159 203 247 295 354
#     4   9  18  34  58  85 115 151 199 243 289 350
#     4  11  22  40  63  92 124 150 192 257 315 352
#     4  11  22  37  60  92 121 152 197 252 305 350
#     4  11  21  34  58  89 123 157 195 248 302 351
#     4  10  22  41  63  85 118 161 202 243 295 359
#     4  10  23  40  62  89 120 161 205 243 292 357
#     4  10  22  42  62  84 119 164 206 242 285 358
#
# _framework density 21.916429000000001
#
# number of rings (size 3 to 8) (size 9 to 14) (size 15 to 20)
#    0.000    1.750    0.000    6.000    0.000    5.000 
#    0.000    6.250    0.000    0.000    0.000    0.000 
#    0.000    0.000    0.000    0.000    0.000    0.000 
#
# Total GULP energy -198350.328862 kJ/mol
# GULP energy per Si atom -12396.895554 kJ/mol
# Density = 2.186655 g / cm^3
# Si number density = 21.916429 Si / 1000 Ang^3
#
#
#
# Elastic Constant Matrix: (Units=GPa)
#
#
# Indices 1 2 3 4 5 6 
#
# 1 102.5448 33.8341 33.3148 4.2722 -2.0651 -6.6738
# 2 33.8341 93.4299 22.1907 12.8068 -9.6642 2.7718
# 3 33.3148 22.1907 71.2895 7.3499 5.0188 -4.9343
# 4 4.2722 12.8068 7.3499 36.8191 -4.3400 3.3659
# 5 -2.0651 -9.6642 5.0188 -4.3400 27.7905 -4.4367
# 6 -6.6738 2.7718 -4.9343 3.3659 -4.4367 32.2969
#
#
#
# Elastic Compliance Matrix: (Units=1/GPa)
#
#
# Indices 1 2 3 4 5 6 
#
# 1 0.012593 -0.003466 -0.004788 0.000619 0.001051 0.002248
# 2 -0.003466 0.013493 -0.002648 -0.003142 0.004203 -0.001374
# 3 -0.004788 -0.002648 0.017815 -0.002777 -0.004671 0.001607
# 4 0.000619 -0.003142 -0.002777 0.029400 0.003633 -0.002592
# 5 0.001051 0.004203 -0.004671 0.003633 0.039605 0.004205
# 6 0.002248 -0.001374 0.001607 -0.002592 0.004205 0.032638
#
#
# Mechanical properties :
#
#
# Convention : Reuss Voigt Hill
#
# Bulk Modulus (GPa) = 45.25210 49.54927 47.40068
# Shear Modulus (GPa) = 28.61814 31.24296 29.93055
#
# Velocity S-wave (km/s) = 3.61748 3.77974 3.69950
# Velocity P-wave (km/s) = 6.17581 6.45801 6.31849
#
# Compressibility (1/GPa) = 0.02209842
#
# Stress axis : x y z
#
# Youngs Moduli (GPa) = 79.41183 74.11106 56.13112
#
# Poissons Ratio (x) = 0.25685 0.26876
# Poissons Ratio (y) = 0.27522 0.14861
# Poissons Ratio (z) = 0.38023 0.19622
#
# Static dielectric constant tensor:
#      x y z
#    x 4.188670 -0.076090 -0.021110 
#    y -0.076090 3.814750 0.079840 
#    z -0.021110 0.079840 3.894580 
# 
# 
# High freq. dielectric constant tensor:
#      x y z
#    x 1.858360 -0.008560 0.005860 
#    y -0.008560 1.850520 0.006980 
#    z 0.005860 0.006980 1.857670 
# 
# From -- ./inp_files/467043.got.cif
#   From: 2010.06.25/outbox.cif.g09.slc.cpg/sg2_234_cif.got.tgz:467043.got - 2010.06.27 13:26:56.
