data_PCOD8002956
_publ_section_title
;
Structure prediction by ZEFSAII (Michael W. Deem and Ramdas Pophale) SiO2 
 PCOD8002956
Probable space group: P -1
;
_chemical_formula_sum "Si O2"
_cell_formula_units_Z 12
_cell_length_a 11.449392
_cell_length_b 10.445162
_cell_length_c 10.593951
_cell_angle_alpha 70.492665
_cell_angle_beta 26.045130
_cell_angle_gamma 69.885175
_cell_volume 521.398364
_symmetry_space_group_name_H-M "P -1"
_symmetry_group_IT_number 2
_symmetry_cell_setting 'triclinic'
loop_
_space_group_symop_operation_xyz
x,y,z
-x,-y,-z
loop_
_atom_site_type_symbol
_atom_site_label
_atom_site_fract_x
_atom_site_fract_y
_atom_site_fract_z
Si Si1 0.291927 0.868074 0.007660
Si Si2 0.982136 0.496737 0.310571
Si Si3 0.541015 0.561938 0.303207
Si Si4 0.846643 0.717216 0.574109
Si Si5 0.148114 0.851759 0.880701
Si Si6 0.342140 0.169982 0.783754
O O1 0.052879 0.831247 0.341804
O O2 0.557170 0.797988 0.836797
O O3 0.257111 0.797163 0.927929
O O4 0.287245 0.031389 0.953435
O O5 0.728139 0.439593 0.513448
O O6 0.885706 0.634647 0.432381
O O7 0.122743 0.383334 0.304844
O O8 0.208232 0.526377 0.978475
O O9 0.500000 0.500000 0.500000
O O10 0.608133 0.717856 0.197274
O O11 0.399332 0.860491 0.543993
O O12 0.919169 0.769878 0.065233
O O13 0.000000 0.000000 0.000000
#
# Coordination Sequence:
#
# PCOD8002956 Si02
#       6
#     2   2   2   2   2   2
#     4  11  21  38  67 100 125 168 218 270 330 368
#     4  11  26  48  64  97 129 174 225 267 311 387
#     4  12  27  45  68  92 137 178 212 257 333 402
#     4  11  24  43  73  93 128 169 225 277 313 371
#     4  10  20  36  60  94 136 164 205 267 318 375
#     4  11  23  40  60  99 135 167 212 264 325 393
#
# _framework density 23.015035000000001
#
# number of rings (size 3 to 8) (size 9 to 14) (size 15 to 20)
#    0.000    1.000    0.000    8.500    7.000    2.667 
#    0.000    5.000    0.000    0.000    0.000    0.000 
#    0.000    0.000    0.000    0.000    0.000    0.000 
#
# Total GULP energy -148827.651538 kJ/mol
# GULP energy per Si atom -12402.304295 kJ/mol
# Density = 2.296265 g / cm^3
# Si number density = 23.015035 Si / 1000 Ang^3
#
#
#
# Elastic Constant Matrix: (Units=GPa)
#
#
# Indices 1 2 3 4 5 6 
#
# 1 67.0265 31.7144 44.4949 1.6874 -16.9797 8.9941
# 2 31.7144 73.4096 8.9700 -12.1341 -17.9432 7.7548
# 3 44.4949 8.9700 130.6073 -16.3556 -30.4498 4.4143
# 4 1.6874 -12.1341 -16.3556 29.8097 -3.3302 -5.3857
# 5 -16.9797 -17.9432 -30.4498 -3.3302 45.3369 3.2124
# 6 8.9941 7.7548 4.4143 -5.3857 3.2124 24.7422
#
#
#
# Elastic Compliance Matrix: (Units=1/GPa)
#
#
# Indices 1 2 3 4 5 6 
#
# 1 0.029808 -0.013853 -0.011474 -0.015256 -0.002619 -0.007428
# 2 -0.013853 0.024073 0.007579 0.015602 0.010707 -0.001855
# 3 -0.011474 0.007579 0.014907 0.013123 0.009626 0.000743
# 4 -0.015256 0.015602 0.013123 0.050751 0.012454 0.007745
# 5 -0.002619 0.010707 0.009626 0.012454 0.033098 -0.005707
# 6 -0.007428 -0.001855 0.000743 0.007745 -0.005707 0.045993
#
#
# Mechanical properties :
#
#
# Convention : Reuss Voigt Hill
#
# Bulk Modulus (GPa) = 30.03654 49.04464 39.54059
# Shear Modulus (GPa) = 20.38956 32.36870 26.37913
#
# Velocity S-wave (km/s) = 2.97968 3.75429 3.38919
# Velocity P-wave (km/s) = 4.99171 6.33632 5.70378
#
# Compressibility (1/GPa) = 0.03329278
#
# Stress axis : x y z
#
# Youngs Moduli (GPa) = 33.54796 41.54042 67.08118
#
# Poissons Ratio (x) = 0.57546 0.76966
# Poissons Ratio (y) = 0.46474 -0.50840
# Poissons Ratio (z) = 0.38492 -0.31483
#
# Static dielectric constant tensor:
#      x y z
#    x 4.505220 0.181240 -0.342930 
#    y 0.181240 4.250560 -0.130880 
#    z -0.342930 -0.130880 4.422530 
# 
# 
# High freq. dielectric constant tensor:
#      x y z
#    x 1.902890 -0.006580 -0.015480 
#    y -0.006580 1.910310 -0.007300 
#    z -0.015480 -0.007300 1.929450 
# 
# From -- ./inp_files/73740.got.cif
#   From: 2010.06.25/outbox.cif.g09.slc.cpg/sg2_37_cif.got.tgz:73740.got - 2010.06.27 13:26:56.
