data_PCOD8002153
_publ_section_title
;
Structure prediction by ZEFSAII (Michael W. Deem and Ramdas Pophale) SiO2 
 PCOD8002153
Probable space group: P -1
;
_chemical_formula_sum "Si O2"
_cell_formula_units_Z 16
_cell_length_a 14.311641
_cell_length_b 11.707306
_cell_length_c 8.394662
_cell_angle_alpha 97.312703
_cell_angle_beta 89.033519
_cell_angle_gamma 32.855673
_cell_volume 736.571852
_symmetry_space_group_name_H-M "P -1"
_symmetry_group_IT_number 2
_symmetry_cell_setting 'triclinic'
loop_
_space_group_symop_operation_xyz
x,y,z
-x,-y,-z
loop_
_atom_site_type_symbol
_atom_site_label
_atom_site_fract_x
_atom_site_fract_y
_atom_site_fract_z
Si Si1 0.089309 0.170037 0.445559
Si Si2 0.851525 0.738526 0.978036
Si Si3 0.099717 0.960886 0.630545
Si Si4 0.444339 0.997662 0.718645
Si Si5 0.080182 0.699533 0.052656
Si Si6 0.773747 0.389466 0.292423
Si Si7 0.821292 0.576461 0.732803
Si Si8 0.447358 0.884721 0.376782
O O1 0.947947 0.261963 0.346778
O O2 0.988146 0.377827 0.579348
O O3 0.174177 0.996103 0.547228
O O4 0.268044 0.023328 0.322422
O O5 0.818540 0.716600 0.800879
O O6 0.918219 0.800890 0.986602
O O7 0.000000 0.500000 0.000000
O O8 0.672992 0.920679 0.117325
O O9 0.242538 0.725609 0.665568
O O10 0.976118 0.132719 0.809466
O O11 0.000000 0.000000 0.500000
O O12 0.639768 0.738517 0.677147
O O13 0.366590 0.034491 0.560573
O O14 0.452125 0.129287 0.742189
O O15 0.180816 0.501689 0.124284
O O16 0.206079 0.622053 0.900751
O O17 0.587399 0.642107 0.385069
#
# Coordination Sequence:
#
# PCOD8002153 Si02
#       8
#     2   2   2   2   2   2   2   2
#     4  10  22  41  62  91 122 160 207 248 302 361
#     4  10  20  35  56  83 123 160 200 237 297 356
#     4   9  20  40  68  88 115 159 203 253 309 359
#     4  11  22  37  55  91 125 164 203 248 293 359
#     4  10  21  38  63  90 120 158 204 247 303 363
#     4  11  22  40  63  90 122 159 202 256 307 346
#     4  10  20  38  59  85 123 167 197 243 299 358
#     4  11  23  37  60  91 126 157 209 247 296 363
#
# _framework density 21.722251
#
# number of rings (size 3 to 8) (size 9 to 14) (size 15 to 20)
#    0.000    1.750    1.250    4.500    1.750    2.000 
#    0.000    0.000    0.000    3.750    0.000    0.000 
#    0.000    0.000    0.000    0.000    0.000    0.000 
#
# Total GULP energy -198247.947850 kJ/mol
# GULP energy per Si atom -12390.496741 kJ/mol
# Density = 2.167281 g / cm^3
# Si number density = 21.722251 Si / 1000 Ang^3
#
#
#
# Elastic Constant Matrix: (Units=GPa)
#
#
# Indices 1 2 3 4 5 6 
#
# 1 57.4797 32.2953 17.7724 19.0415 3.5506 -0.2492
# 2 32.2953 113.3336 7.9113 11.5467 -8.6040 3.9516
# 3 17.7724 7.9113 72.5724 11.2576 6.8529 9.6749
# 4 19.0415 11.5467 11.2576 28.0731 0.9873 -1.6078
# 5 3.5506 -8.6040 6.8529 0.9873 29.5037 0.8707
# 6 -0.2492 3.9516 9.6749 -1.6078 0.8707 37.8269
#
#
#
# Elastic Compliance Matrix: (Units=1/GPa)
#
#
# Indices 1 2 3 4 5 6 
#
# 1 0.026945 -0.006334 -0.003531 -0.014049 -0.003836 0.001233
# 2 -0.006334 0.011017 0.000243 -0.000551 0.003978 -0.001370
# 3 -0.003531 0.000243 0.016141 -0.004319 -0.002982 -0.004292
# 4 -0.014049 -0.000551 -0.004319 0.047254 0.000862 0.003058
# 5 -0.003836 0.003978 -0.002982 0.000862 0.036194 -0.000475
# 6 0.001233 -0.001370 -0.004292 0.003058 -0.000475 0.027826
#
#
# Mechanical properties :
#
#
# Convention : Reuss Voigt Hill
#
# Bulk Modulus (GPa) = 28.68784 39.92709 34.30746
# Shear Modulus (GPa) = 25.47879 31.44119 28.45999
#
# Velocity S-wave (km/s) = 3.42853 3.80862 3.62356
# Velocity P-wave (km/s) = 5.37665 6.14503 5.77364
#
# Compressibility (1/GPa) = 0.03485798
#
# Stress axis : x y z
#
# Youngs Moduli (GPa) = 37.11307 90.76487 61.95298
#
# Poissons Ratio (x) = 0.57495 0.21875
# Poissons Ratio (y) = 0.23509 -0.01503
# Poissons Ratio (z) = 0.13104 -0.02202
#
# Static dielectric constant tensor:
#      x y z
#    x 4.322810 0.156140 0.529090 
#    y 0.156140 3.963000 -0.255560 
#    z 0.529090 -0.255560 4.413510 
# 
# 
# High freq. dielectric constant tensor:
#      x y z
#    x 1.837060 0.008820 0.005460 
#    y 0.008820 1.849510 -0.008810 
#    z 0.005460 -0.008810 1.854740 
# 
# From -- ./inp_files/207185.got.cif
#   From: 2010.06.25/outbox.cif.g09.slc.cpg/sg2_104_cif.got.tgz:207185.got - 2010.06.27 13:26:56.
