data_PCOD8002300
_publ_section_title
;
Structure prediction by ZEFSAII (Michael W. Deem and Ramdas Pophale) SiO2 
 PCOD8002300
Probable space group: P -1
;
_chemical_formula_sum "Si O2"
_cell_formula_units_Z 16
_cell_length_a 24.166714
_cell_length_b 9.489305
_cell_length_c 20.590095
_cell_angle_alpha 52.683186
_cell_angle_beta 15.153728
_cell_angle_gamma 45.348525
_cell_volume 809.349927
_symmetry_space_group_name_H-M "P -1"
_symmetry_group_IT_number 2
_symmetry_cell_setting 'triclinic'
loop_
_space_group_symop_operation_xyz
x,y,z
-x,-y,-z
loop_
_atom_site_type_symbol
_atom_site_label
_atom_site_fract_x
_atom_site_fract_y
_atom_site_fract_z
Si Si1 0.731893 0.773958 0.325828
Si Si2 0.029086 0.257480 0.803022
Si Si3 0.966088 0.579358 0.383513
Si Si4 0.822125 0.205385 0.231337
Si Si5 0.445326 0.086384 0.142120
Si Si6 0.484446 0.560670 0.608437
Si Si7 0.483548 0.727398 0.118638
Si Si8 0.004606 0.815825 0.584881
O O1 0.671284 0.597736 0.428322
O O2 0.776664 0.770629 0.353181
O O3 0.500000 0.000000 0.500000
O O4 0.986341 0.719730 0.015685
O O5 0.117347 0.315645 0.622243
O O6 0.729888 0.439410 0.106003
O O7 0.030980 0.044982 0.851304
O O8 0.774770 0.755714 0.602638
O O9 0.958812 0.368231 0.454013
O O10 0.260671 0.498195 0.085889
O O11 0.648512 0.325898 0.456655
O O12 0.653093 0.258891 0.342796
O O13 0.386000 0.924515 0.223206
O O14 0.456875 0.226345 0.033380
O O15 0.724994 0.936463 0.902747
O O16 0.244396 0.703065 0.394343
O O17 0.000000 0.000000 0.500000
#
# Coordination Sequence:
#
# PCOD8002300 Si02
#       8
#     2   2   2   2   2   2   2   2
#     4  11  18  37  63  80 110 150 194 237 274 331
#     4  11  23  37  53  83 121 151 183 241 292 334
#     4  11  23  36  57  86 122 153 189 239 300 347
#     4  10  20  35  59  86 107 148 195 235 283 336
#     4   9  19  37  61  85 111 148 193 239 283 347
#     4  10  20  37  60  82 111 148 194 236 279 337
#     4   9  19  37  60  84 111 147 194 238 286 345
#     4   9  20  38  59  84 113 148 195 243 281 342
#
# _framework density 19.768953
#
# number of rings (size 3 to 8) (size 9 to 14) (size 15 to 20)
#    0.000    2.000    2.500    2.250    0.000    6.000 
#    0.000    0.000    2.750    0.000    0.000    0.000 
#    0.000    0.000    0.000    0.000    0.000    0.000 
#
# Total GULP energy -198342.324911 kJ/mol
# GULP energy per Si atom -12396.395307 kJ/mol
# Density = 1.972396 g / cm^3
# Si number density = 19.768953 Si / 1000 Ang^3
#
#
#
# Elastic Constant Matrix: (Units=GPa)
#
#
# Indices 1 2 3 4 5 6 
#
# 1 108.2548 41.4575 72.3989 4.6196 -1.9942 7.2449
# 2 41.4575 43.9773 35.4465 7.1996 9.1752 12.2439
# 3 72.3989 35.4465 112.9600 24.9744 -6.8982 17.9450
# 4 4.6196 7.1996 24.9744 28.6289 8.9615 -1.2212
# 5 -1.9942 9.1752 -6.8982 8.9615 45.9358 -1.1507
# 6 7.2449 12.2439 17.9450 -1.2212 -1.1507 21.9182
#
#
#
# Elastic Compliance Matrix: (Units=1/GPa)
#
#
# Indices 1 2 3 4 5 6 
#
# 1 0.025438 -0.017157 -0.017039 0.015989 -0.000746 0.015978
# 2 -0.017157 0.047781 0.000819 -0.008059 -0.009160 -0.022621
# 3 -0.017039 0.000819 0.028831 -0.025941 0.008000 -0.019455
# 4 0.015989 -0.008059 -0.025941 0.062105 -0.013126 0.023227
# 5 -0.000746 -0.009160 0.008000 -0.013126 0.027317 -0.000483
# 6 0.015978 -0.022621 -0.019455 0.023227 -0.000483 0.070176
#
#
# Mechanical properties :
#
#
# Convention : Reuss Voigt Hill
#
# Bulk Modulus (GPa) = 28.33175 62.64421 45.48798
# Shear Modulus (GPa) = 14.69862 27.02253 20.86058
#
# Velocity S-wave (km/s) = 2.72972 3.70120 3.25194
# Velocity P-wave (km/s) = 4.92927 7.07263 6.09589
#
# Compressibility (1/GPa) = 0.03529609
#
# Stress axis : x y z
#
# Youngs Moduli (GPa) = 39.31160 20.92862 34.68505
#
# Poissons Ratio (x) = 0.35907 0.59099
# Poissons Ratio (y) = 0.67447 -0.02839
# Poissons Ratio (z) = 0.66982 -0.01713
#
# Static dielectric constant tensor:
#      x y z
#    x 3.716320 0.168580 -0.403030 
#    y 0.168580 3.389080 0.056180 
#    z -0.403030 0.056180 3.914720 
# 
# 
# High freq. dielectric constant tensor:
#      x y z
#    x 1.758980 0.014600 -0.017480 
#    y 0.014600 1.753820 0.011350 
#    z -0.017480 0.011350 1.777680 
# 
# From -- ./inp_files/577294.got.cif
#   From: 2010.06.25/outbox.cif.g09.slc.cpg/sg2_289_cif.got.tgz:577294.got - 2010.06.27 13:26:56.
