data_PCOD8002515
_publ_section_title
;
Structure prediction by ZEFSAII (Michael W. Deem and Ramdas Pophale) SiO2 
 PCOD8002515
Probable space group: P -1
;
_chemical_formula_sum "Si O2"
_cell_formula_units_Z 16
_cell_length_a 29.478322
_cell_length_b 8.676627
_cell_length_c 9.556924
_cell_angle_alpha 75.762089
_cell_angle_beta 33.553604
_cell_angle_gamma 50.565924
_cell_volume 780.385904
_symmetry_space_group_name_H-M "P -1"
_symmetry_group_IT_number 2
_symmetry_cell_setting 'triclinic'
loop_
_space_group_symop_operation_xyz
x,y,z
-x,-y,-z
loop_
_atom_site_type_symbol
_atom_site_label
_atom_site_fract_x
_atom_site_fract_y
_atom_site_fract_z
Si Si1 0.573003 0.733004 0.434994
Si Si2 0.292967 0.859716 0.527110
Si Si3 0.646273 0.725092 0.750404
Si Si4 0.670361 0.435204 0.973855
Si Si5 0.772116 0.389983 0.229443
Si Si6 0.894063 0.578023 0.148778
Si Si7 0.566725 0.344039 0.069674
Si Si8 0.975799 0.917207 0.209509
O O1 0.690467 0.611029 0.268098
O O2 0.468680 0.785570 0.781317
O O3 0.500000 0.000000 0.500000
O O4 0.640646 0.513712 0.194421
O O5 0.232001 0.789402 0.750737
O O6 0.443118 0.644277 0.257537
O O7 0.183405 0.161270 0.795921
O O8 0.308046 0.848594 0.321268
O O9 0.608354 0.679142 0.992447
O O10 0.715493 0.508497 0.503794
O O11 0.758198 0.685111 0.523279
O O12 0.500000 0.000000 0.000000
O O13 0.829614 0.171866 0.593653
O O14 0.605477 0.367984 0.109973
O O15 0.929963 0.195489 0.871913
O O16 0.000000 0.500000 0.000000
O O17 0.994789 0.310584 0.859332
O O18 0.000000 0.000000 0.000000
#
# Coordination Sequence:
#
# PCOD8002515 Si02
#       8
#     2   2   2   2   2   2   2   2
#     4  11  26  40  61  93 127 163 208 258 318 380
#     4  10  20  35  64  94 121 155 211 264 314 365
#     4  11  22  36  64  93 122 162 212 263 316 366
#     4  12  22  40  62  86 126 167 204 254 316 381
#     4  10  21  42  63  89 128 162 204 260 313 379
#     4  11  22  33  58  97 128 155 204 271 312 370
#     4  10  21  39  62  89 124 163 203 260 321 374
#     4  11  21  40  62  90 123 168 208 254 315 376
#
# _framework density 20.502676999999998
#
# number of rings (size 3 to 8) (size 9 to 14) (size 15 to 20)
#    0.000    1.250    3.750    3.375    5.250    1.500 
#    0.000    0.000    0.000    3.750    0.000    0.000 
#    0.000    0.000    0.000    0.000    0.000    0.000 
#
# Total GULP energy -198239.285788 kJ/mol
# GULP energy per Si atom -12389.955362 kJ/mol
# Density = 2.045601 g / cm^3
# Si number density = 20.502677 Si / 1000 Ang^3
#
#
#
# Elastic Constant Matrix: (Units=GPa)
#
#
# Indices 1 2 3 4 5 6 
#
# 1 109.1215 23.6079 28.5236 0.2937 -19.3576 -6.2056
# 2 23.6079 119.1819 25.9407 16.9431 -8.4212 -1.8710
# 3 28.5236 25.9407 72.1835 15.4750 -10.7167 -1.9512
# 4 0.2937 16.9431 15.4750 27.5242 0.3172 2.2964
# 5 -19.3576 -8.4212 -10.7167 0.3172 41.3513 2.1009
# 6 -6.2056 -1.8710 -1.9512 2.2964 2.1009 31.2261
#
#
#
# Elastic Compliance Matrix: (Units=1/GPa)
#
#
# Indices 1 2 3 4 5 6 
#
# 1 0.011268 -0.001487 -0.003913 0.002831 0.003863 0.001438
# 2 -0.001487 0.009859 -0.001707 -0.005145 0.000883 0.000507
# 3 -0.003913 -0.001707 0.018433 -0.009366 0.002630 0.000784
# 4 0.002831 -0.005145 -0.009366 0.045053 -0.002319 -0.003488
# 5 0.003863 0.000883 0.002630 -0.002319 0.026904 -0.000655
# 6 0.001438 0.000507 0.000784 -0.003488 -0.000655 0.032690
#
#
# Mechanical properties :
#
#
# Convention : Reuss Voigt Hill
#
# Bulk Modulus (GPa) = 39.45527 50.73680 45.09604
# Shear Modulus (GPa) = 29.96366 34.84797 32.40582
#
# Velocity S-wave (km/s) = 3.82704 4.12719 3.97995
# Velocity P-wave (km/s) = 6.23009 6.89288 6.56985
#
# Compressibility (1/GPa) = 0.02534515
#
# Stress axis : x y z
#
# Youngs Moduli (GPa) = 88.74671 101.43471 54.25099
#
# Poissons Ratio (x) = 0.15086 0.21226
# Poissons Ratio (y) = 0.13199 0.09262
# Poissons Ratio (z) = 0.34722 0.17318
#
# Static dielectric constant tensor:
#      x y z
#    x 4.025860 0.003380 -0.353010 
#    y 0.003380 3.872390 0.052320 
#    z -0.353010 0.052320 4.145320 
# 
# 
# High freq. dielectric constant tensor:
#      x y z
#    x 1.806280 0.010180 -0.022730 
#    y 0.010180 1.799960 0.022470 
#    z -0.022730 0.022470 1.787150 
# 
# From -- ./inp_files/343510.got.cif
#   From: 2010.06.25/outbox.cif.g09.slc.cpg/sg2_172_cif.got.tgz:343510.got - 2010.06.27 13:26:56.
