data_PCOD8002486
_publ_section_title
;
Structure prediction by ZEFSAII (Michael W. Deem and Ramdas Pophale) SiO2 
 PCOD8002486
Probable space group: P -1
;
_chemical_formula_sum "Si O2"
_cell_formula_units_Z 12
_cell_length_a 9.914326
_cell_length_b 9.255544
_cell_length_c 14.732349
_cell_angle_alpha 41.250014
_cell_angle_beta 81.929695
_cell_angle_gamma 111.700616
_cell_volume 604.960162
_symmetry_space_group_name_H-M "P -1"
_symmetry_group_IT_number 2
_symmetry_cell_setting 'triclinic'
loop_
_space_group_symop_operation_xyz
x,y,z
-x,-y,-z
loop_
_atom_site_type_symbol
_atom_site_label
_atom_site_fract_x
_atom_site_fract_y
_atom_site_fract_z
Si Si1 0.318589 0.734451 0.767470
Si Si2 0.723506 0.735905 0.896236
Si Si3 0.936324 0.347430 0.676050
Si Si4 0.708008 0.368985 0.378121
Si Si5 0.939468 0.825498 0.492300
Si Si6 0.600217 0.701837 0.486835
O O1 0.206643 0.570949 0.759019
O O2 0.557038 0.994633 0.599816
O O3 0.275388 0.927561 0.720628
O O4 0.242408 0.465347 0.971525
O O5 0.757633 0.964803 0.861039
O O6 0.871574 0.932191 0.705320
O O7 0.500000 0.500000 0.000000
O O8 0.000000 0.500000 0.500000
O O9 0.110834 0.410561 0.674297
O O10 0.884962 0.504358 0.665466
O O11 0.584041 0.452640 0.355831
O O12 0.744321 0.700011 0.523553
O O13 0.000000 0.000000 0.500000
O O14 0.500000 0.500000 0.500000
#
# Coordination Sequence:
#
# PCOD8002486 Si02
#       6
#     2   2   2   2   2   2
#     4   9  20  37  62  85 119 154 206 236 305 351
#     4  11  24  38  63  86 123 160 204 253 290 361
#     4  10  20  38  63  87 117 167 207 232 299 374
#     4   9  19  38  64  85 115 164 203 238 295 375
#     4  11  24  40  64  91 124 157 203 251 312 358
#     4  10  20  35  63  88 117 156 195 250 300 358
#
# _framework density 19.836015
#
# number of rings (size 3 to 8) (size 9 to 14) (size 15 to 20)
#    1.000    1.000    0.000    5.000    4.667    1.333 
#    0.000    2.500    0.000    0.000    0.000    0.000 
#    0.000    0.000    0.000    0.000    0.000    0.000 
#
# Total GULP energy -148669.804351 kJ/mol
# GULP energy per Si atom -12389.150363 kJ/mol
# Density = 1.979087 g / cm^3
# Si number density = 19.836015 Si / 1000 Ang^3
#
#
#
# Elastic Constant Matrix: (Units=GPa)
#
#
# Indices 1 2 3 4 5 6 
#
# 1 132.3142 51.8811 34.8989 -16.9224 -8.4240 7.2387
# 2 51.8811 146.8865 31.4971 -19.1625 -9.7804 1.8295
# 3 34.8989 31.4971 62.3794 -9.6625 5.1973 0.1243
# 4 -16.9224 -19.1625 -9.6625 27.6000 2.4347 -0.1101
# 5 -8.4240 -9.7804 5.1973 2.4347 25.0551 -12.9474
# 6 7.2387 1.8295 0.1243 -0.1101 -12.9474 43.0618
#
#
#
# Elastic Compliance Matrix: (Units=1/GPa)
#
#
# Indices 1 2 3 4 5 6 
#
# 1 0.010125 -0.002042 -0.004406 0.002994 0.002848 -0.000738
# 2 -0.002042 0.008882 -0.003104 0.003511 0.003640 0.001078
# 3 -0.004406 -0.003104 0.021271 0.003315 -0.008292 -0.001674
# 4 0.002994 0.003511 0.003315 0.041939 -0.003164 -0.001506
# 5 0.002848 0.003640 -0.008292 -0.003164 0.052093 0.015045
# 6 -0.000738 0.001078 -0.001674 -0.001506 0.015045 0.027825
#
#
# Mechanical properties :
#
#
# Convention : Reuss Voigt Hill
#
# Bulk Modulus (GPa) = 47.22668 64.23716 55.73192
# Shear Modulus (GPa) = 26.55392 34.03025 30.29209
#
# Velocity S-wave (km/s) = 3.66276 4.14645 3.91208
# Velocity P-wave (km/s) = 6.46127 7.44167 6.96873
#
# Compressibility (1/GPa) = 0.02117447
#
# Stress axis : x y z
#
# Youngs Moduli (GPa) = 98.76394 112.58945 47.01314
#
# Poissons Ratio (x) = 0.22992 0.20712
# Poissons Ratio (y) = 0.20169 0.14592
# Poissons Ratio (z) = 0.43512 0.34945
#
# Static dielectric constant tensor:
#      x y z
#    x 3.822640 -0.162240 0.354060 
#    y -0.162240 3.909800 -0.363580 
#    z 0.354060 -0.363580 3.551050 
# 
# 
# High freq. dielectric constant tensor:
#      x y z
#    x 1.772500 0.005180 0.010490 
#    y 0.005180 1.790540 -0.021590 
#    z 0.010490 -0.021590 1.737510 
# 
# From -- ./inp_files/514004.got.cif
#   From: 2010.06.25/outbox.cif.g09.slc.cpg/sg2_258_cif.got.tgz:514004.got - 2010.06.27 13:26:56.
