data_PCOD8002388
_publ_section_title
;
Structure prediction by ZEFSAII (Michael W. Deem and Ramdas Pophale) SiO2 
 PCOD8002388
Probable space group: P -1
;
_chemical_formula_sum "Si O2"
_cell_formula_units_Z 16
_cell_length_a 8.338495
_cell_length_b 12.382456
_cell_length_c 24.140195
_cell_angle_alpha 159.694798
_cell_angle_beta 59.971675
_cell_angle_gamma 119.864849
_cell_volume 745.447583
_symmetry_space_group_name_H-M "P -1"
_symmetry_group_IT_number 2
_symmetry_cell_setting 'triclinic'
loop_
_space_group_symop_operation_xyz
x,y,z
-x,-y,-z
loop_
_atom_site_type_symbol
_atom_site_label
_atom_site_fract_x
_atom_site_fract_y
_atom_site_fract_z
Si Si1 0.607786 0.295382 0.652070
Si Si2 0.860247 0.659807 0.062003
Si Si3 0.854315 0.263108 0.151798
Si Si4 0.577402 0.836947 0.831891
Si Si5 0.985629 0.702404 0.436752
Si Si6 0.338083 0.457214 0.857636
Si Si7 0.003434 0.342195 0.786360
Si Si8 0.060739 0.333720 0.355305
O O1 0.589205 0.625863 0.783135
O O2 0.815903 0.217636 0.588407
O O3 0.528720 0.329692 0.743897
O O4 0.500000 0.000000 0.500000
O O5 0.668235 0.596056 0.099901
O O6 0.929432 0.018761 0.217635
O O7 0.000000 0.500000 0.000000
O O8 0.849391 0.506803 0.928588
O O9 0.637426 0.130905 0.130823
O O10 0.895119 0.437947 0.171648
O O11 0.864364 0.493166 0.313435
O O12 0.000000 0.000000 0.000000
O O13 0.715132 0.696027 0.694848
O O14 0.673906 0.187827 0.990651
O O15 0.013148 0.529751 0.405419
O O16 0.904377 0.030083 0.624080
O O17 0.165681 0.257402 0.760112
O O18 0.000000 0.500000 0.500000
#
# Coordination Sequence:
#
# PCOD8002388 Si02
#       8
#     2   2   2   2   2   2   2   2
#     4  11  21  36  61  97 122 154 209 270 308 361
#     4  10  20  35  60  93 121 162 201 258 315 361
#     4  12  25  41  63  91 130 172 207 254 318 383
#     4  11  23  38  63  92 127 160 212 256 317 363
#     4  11  24  39  65  94 127 164 208 258 325 374
#     4  11  20  36  63  93 124 159 207 261 311 367
#     4  11  21  40  62  89 127 163 208 261 314 373
#     4  11  22  39  67  97 124 160 212 265 312 373
#
# _framework density 21.463615999999998
#
# number of rings (size 3 to 8) (size 9 to 14) (size 15 to 20)
#    0.000    1.000    5.000    3.750    3.500    0.000 
#    0.000    0.625    0.000    3.750    0.000    0.000 
#    0.000    0.000    0.000    0.000    0.000    0.000 
#
# Total GULP energy -198217.641035 kJ/mol
# GULP energy per Si atom -12388.602565 kJ/mol
# Density = 2.141476 g / cm^3
# Si number density = 21.463616 Si / 1000 Ang^3
#
#
#
# Elastic Constant Matrix: (Units=GPa)
#
#
# Indices 1 2 3 4 5 6 
#
# 1 51.4975 20.6235 20.5301 -15.9038 2.5951 7.8040
# 2 20.6235 142.9506 68.7090 -35.9819 -3.3537 15.1341
# 3 20.5301 68.7090 137.9967 -26.5281 8.8715 9.6622
# 4 -15.9038 -35.9819 -26.5281 51.0549 1.1399 0.7823
# 5 2.5951 -3.3537 8.8715 1.1399 26.9540 -5.0923
# 6 7.8040 15.1341 9.6622 0.7823 -5.0923 23.1083
#
#
#
# Elastic Compliance Matrix: (Units=1/GPa)
#
#
# Indices 1 2 3 4 5 6 
#
# 1 0.023546 -0.000340 -0.001233 0.006665 -0.003747 -0.008265
# 2 -0.000340 0.011001 -0.004088 0.005570 0.001522 -0.005234
# 3 -0.001233 -0.004088 0.010329 0.002233 -0.004309 -0.002251
# 4 0.006665 0.005570 0.002233 0.026955 -0.003429 -0.008500
# 5 -0.003747 0.001522 -0.004309 -0.003429 0.041348 0.011298
# 6 -0.008265 -0.005234 -0.002251 -0.008500 0.011298 0.053212
#
#
# Mechanical properties :
#
#
# Convention : Reuss Voigt Hill
#
# Bulk Modulus (GPa) = 29.80176 61.35222 45.57699
# Shear Modulus (GPa) = 26.46961 35.06225 30.76593
#
# Velocity S-wave (km/s) = 3.51555 4.04613 3.79013
# Velocity P-wave (km/s) = 5.51305 7.10454 6.35878
#
# Compressibility (1/GPa) = 0.03355507
#
# Stress axis : x y z
#
# Youngs Moduli (GPa) = 42.47085 90.90217 96.81451
#
# Poissons Ratio (x) = 0.03086 0.11938
# Poissons Ratio (y) = 0.01442 0.39574
# Poissons Ratio (z) = 0.05237 0.37157
#
# Static dielectric constant tensor:
#      x y z
#    x 3.615520 0.260380 -0.042500 
#    y 0.260380 4.016500 -0.122910 
#    z -0.042500 -0.122910 4.146400 
# 
# 
# High freq. dielectric constant tensor:
#      x y z
#    x 1.789310 0.011900 0.000090 
#    y 0.011900 1.863060 -0.007010 
#    z 0.000090 -0.007010 1.863270 
# 
# From -- ./inp_files/331703.got.cif
#   From: 2010.06.25/outbox.cif.g09.slc.cpg/sg2_166_cif.got.tgz:331703.got - 2010.06.27 13:26:56.
