data_PCOD8002954
_publ_section_title
;
Structure prediction by ZEFSAII (Michael W. Deem and Ramdas Pophale) SiO2 
 PCOD8002954
Probable space group: P -1
;
_chemical_formula_sum "Si O2"
_cell_formula_units_Z 16
_cell_length_a 12.333125
_cell_length_b 21.589215
_cell_length_c 9.010540
_cell_angle_alpha 63.910420
_cell_angle_beta 141.959443
_cell_angle_gamma 142.834444
_cell_volume 771.109606
_symmetry_space_group_name_H-M "P -1"
_symmetry_group_IT_number 2
_symmetry_cell_setting 'triclinic'
loop_
_space_group_symop_operation_xyz
x,y,z
-x,-y,-z
loop_
_atom_site_type_symbol
_atom_site_label
_atom_site_fract_x
_atom_site_fract_y
_atom_site_fract_z
Si Si1 0.219505 0.196392 0.663998
Si Si2 0.169835 0.363088 0.019864
Si Si3 0.789918 0.506549 0.623103
Si Si4 0.343159 0.780926 0.911649
Si Si5 0.808172 0.161642 0.073719
Si Si6 0.752663 0.462982 0.966886
Si Si7 0.296173 0.975608 0.494200
Si Si8 0.685205 0.163357 0.484511
O O1 0.461392 0.327797 0.853927
O O2 0.023402 0.169197 0.352845
O O3 0.398716 0.190181 0.787361
O O4 0.012309 0.101451 0.674462
O O5 0.496116 0.430375 0.288549
O O6 0.205981 0.456700 0.973310
O O7 0.992066 0.277994 0.060278
O O8 0.987228 0.290621 0.749380
O O9 0.686149 0.461704 0.726916
O O10 0.012154 0.642533 0.714926
O O11 0.945523 0.487365 0.745998
O O12 0.354877 0.853134 0.947675
O O13 0.413705 0.820651 0.774926
O O14 0.556353 0.045071 0.823705
O O15 0.407695 0.071213 0.400951
O O16 0.230274 0.885845 0.426193
#
# Coordination Sequence:
#
# PCOD8002954 Si02
#       8
#     2   2   2   2   2   2   2   2
#     4  11  22  38  65  91 120 156 197 251 307 341
#     4  11  21  38  65  89 121 168 191 238 311 353
#     4  10  20  36  60  94 127 151 193 251 293 360
#     4  11  23  39  62  94 122 155 201 248 297 363
#     4  11  21  39  66  90 118 154 209 252 293 350
#     4  10  20  36  60  97 124 147 199 248 298 356
#     4  10  23  44  62  85 121 162 202 256 294 345
#     4  10  24  43  60  87 124 160 206 243 295 365
#
# _framework density 20.749319
#
# number of rings (size 3 to 8) (size 9 to 14) (size 15 to 20)
#    0.000    1.500    3.750    1.500    0.000    1.500 
#    2.250    1.250    0.000    0.000    0.000    0.000 
#    0.000    0.000    0.000    0.000    0.000    0.000 
#
# Total GULP energy -198448.346297 kJ/mol
# GULP energy per Si atom -12403.021644 kJ/mol
# Density = 2.070209 g / cm^3
# Si number density = 20.749319 Si / 1000 Ang^3
#
#
#
# Elastic Constant Matrix: (Units=GPa)
#
#
# Indices 1 2 3 4 5 6 
#
# 1 73.0260 28.3017 67.5416 1.3132 -1.7103 1.1746
# 2 28.3017 65.2896 44.5005 -0.0204 5.1147 4.9195
# 3 67.5416 44.5005 97.1774 2.9056 1.0284 -13.0694
# 4 1.3132 -0.0204 2.9056 32.3816 3.9958 4.1349
# 5 -1.7103 5.1147 1.0284 3.9958 27.6269 1.6548
# 6 1.1746 4.9195 -13.0694 4.1349 1.6548 37.2640
#
#
#
# Elastic Compliance Matrix: (Units=1/GPa)
#
#
# Indices 1 2 3 4 5 6 
#
# 1 0.045512 0.006177 -0.036687 0.003006 0.003540 -0.015608
# 2 0.006177 0.025465 -0.017326 0.003009 -0.003535 -0.009810
# 3 -0.036687 -0.017326 0.046639 -0.005159 -0.001277 0.020430
# 4 0.003006 0.003009 -0.005159 0.032514 -0.004540 -0.005708
# 5 0.003540 -0.003535 -0.001277 -0.004540 0.037850 -0.001270
# 6 -0.015608 -0.009810 0.020430 -0.005708 -0.001270 0.036478
#
#
# Mechanical properties :
#
#
# Convention : Reuss Voigt Hill
#
# Bulk Modulus (GPa) = 45.57357 57.35339 51.46348
# Shear Modulus (GPa) = 15.26973 25.79777 20.53375
#
# Velocity S-wave (km/s) = 2.71572 3.52988 3.14922
# Velocity P-wave (km/s) = 5.64314 6.65691 6.17088
#
# Compressibility (1/GPa) = 0.02194254
#
# Stress axis : x y z
#
# Youngs Moduli (GPa) = 21.97242 39.26907 21.44130
#
# Poissons Ratio (x) = -0.24256 0.78662
# Poissons Ratio (y) = -0.13572 0.37150
# Poissons Ratio (z) = 0.80610 0.68039
#
# Static dielectric constant tensor:
#      x y z
#    x 3.624460 0.194650 0.055860 
#    y 0.194650 4.004120 0.096490 
#    z 0.055860 0.096490 3.619960 
# 
# 
# High freq. dielectric constant tensor:
#      x y z
#    x 1.798120 0.007280 0.006630 
#    y 0.007280 1.828340 0.009470 
#    z 0.006630 0.009470 1.801210 
# 
# From -- ./inp_files/257821.got.cif
#   From: 2010.06.25/outbox.cif.g09.slc.cpg/sg2_129_cif.got.tgz:257821.got - 2010.06.27 13:26:56.
