data_PCOD8002947
_publ_section_title
;
Structure prediction by ZEFSAII (Michael W. Deem and Ramdas Pophale) SiO2 
 PCOD8002947
Probable space group: P -1
;
_chemical_formula_sum "Si O2"
_cell_formula_units_Z 12
_cell_length_a 10.419653
_cell_length_b 7.204488
_cell_length_c 18.874177
_cell_angle_alpha 142.962414
_cell_angle_beta 34.097497
_cell_angle_gamma 136.313780
_cell_volume 470.266184
_symmetry_space_group_name_H-M "P -1"
_symmetry_group_IT_number 2
_symmetry_cell_setting 'triclinic'
loop_
_space_group_symop_operation_xyz
x,y,z
-x,-y,-z
loop_
_atom_site_type_symbol
_atom_site_label
_atom_site_fract_x
_atom_site_fract_y
_atom_site_fract_z
Si Si1 0.781472 0.797849 0.578301
Si Si2 0.135900 0.284114 0.071410
Si Si3 0.433977 0.284112 0.071413
Si Si4 0.729697 0.078356 0.372986
Si Si5 0.567767 0.121885 0.671030
Si Si6 0.958971 0.878123 0.328973
O O1 0.800123 0.446995 0.448912
O O2 0.549458 0.900981 0.683016
O O3 0.000000 0.000000 0.500000
O O4 0.802479 0.900967 0.683010
O O5 0.241177 0.173703 0.063783
O O6 0.953831 0.516166 0.241347
O O7 0.336362 0.499993 0.999994
O O8 0.000000 0.000000 0.000000
O O9 0.338282 0.516158 0.241352
O O10 0.500000 0.000000 0.000000
O O11 0.500000 0.000000 0.500000
O O12 0.683503 0.931419 0.270184
O O13 0.937366 0.931435 0.270188
O O14 0.742916 0.999995 0.500000
#
# Coordination Sequence:
#
# PCOD8002947 Si02
#       6
#     2   2   2   2   2   2
#     4  10  20  36  60  92 130 164 213 272 333 392
#     4  11  27  49  72 103 145 189 233 291 356 423
#     4  11  27  49  72 103 145 189 233 291 356 423
#     4  10  22  36  62  98 132 168 215 280 341 398
#     4  10  22  44  68 101 134 176 230 286 342 409
#     4  10  22  44  68 101 134 176 230 286 342 409
#
# _framework density 25.51746
#
# number of rings (size 3 to 8) (size 9 to 14) (size 15 to 20)
#    0.000    1.667    1.667    1.000    2.333   11.333 
#    0.000    0.000    0.000    0.000    0.000    0.000 
#    0.000    0.000    0.000    0.000    0.000    0.000 
#
# Total GULP energy -148663.074897 kJ/mol
# GULP energy per Si atom -12388.589575 kJ/mol
# Density = 2.545938 g / cm^3
# Si number density = 25.517460 Si / 1000 Ang^3
#
#
#
# Elastic Constant Matrix: (Units=GPa)
#
#
# Indices 1 2 3 4 5 6 
#
# 1 333.6495 56.8985 67.9878 47.0287 2.1541 10.4079
# 2 56.8985 87.2390 31.7738 34.8374 1.7098 1.9620
# 3 67.9878 31.7738 127.3046 38.9666 -1.6278 2.8156
# 4 47.0287 34.8374 38.9666 39.7815 1.6067 2.4517
# 5 2.1541 1.7098 -1.6278 1.6067 42.7059 20.8575
# 6 10.4079 1.9620 2.8156 2.4517 20.8575 40.1383
#
#
#
# Elastic Compliance Matrix: (Units=1/GPa)
#
#
# Indices 1 2 3 4 5 6 
#
# 1 0.003755 -0.001084 -0.000936 -0.002533 0.000343 -0.000878
# 2 -0.001084 0.017960 0.000728 -0.015175 -0.000271 0.000420
# 3 -0.000936 0.000728 0.011511 -0.010820 0.001118 -0.000521
# 4 -0.002533 -0.015175 -0.010820 0.052095 -0.001523 -0.000233
# 5 0.000343 -0.000271 0.001118 -0.001523 0.031545 -0.016453
# 6 -0.000878 0.000420 -0.000521 -0.000233 -0.016453 0.033722
#
#
# Mechanical properties :
#
#
# Convention : Reuss Voigt Hill
#
# Bulk Modulus (GPa) = 32.63293 95.72369 64.17831
# Shear Modulus (GPa) = 30.60275 50.62733 40.61504
#
# Velocity S-wave (km/s) = 3.46683 4.45907 3.99389
# Velocity P-wave (km/s) = 5.37042 8.00660 6.81715
#
# Compressibility (1/GPa) = 0.03064389
#
# Stress axis : x y z
#
# Youngs Moduli (GPa) = 266.32224 55.67903 86.87567
#
# Poissons Ratio (x) = 0.06033 0.08129
# Poissons Ratio (y) = 0.28857 -0.06327
# Poissons Ratio (z) = 0.24919 -0.04055
#
# Static dielectric constant tensor:
#      x y z
#    x 91.432390 6.529640 4.092340 
#    y 6.529640 2.877240 1.556340 
#    z 4.092340 1.556340 4.281430 
# 
# 
# High freq. dielectric constant tensor:
#      x y z
#    x 2.066380 0.004790 0.001910 
#    y 0.004790 1.992400 0.014890 
#    z 0.001910 0.014890 2.004150 
# 
# From -- ./inp_files/609438.got.cif
#   From: 2010.06.25/outbox.cif.g09.slc.cpg/sg2_305_cif.got.tgz:609438.got - 2010.06.27 13:26:56.
