data_PCOD8002523
_publ_section_title
;
Structure prediction by ZEFSAII (Michael W. Deem and Ramdas Pophale) SiO2 
 PCOD8002523
Probable space group: P -1
;
_chemical_formula_sum "Si O2"
_cell_formula_units_Z 14
_cell_length_a 16.327020
_cell_length_b 5.208210
_cell_length_c 8.821759
_cell_angle_alpha 103.435189
_cell_angle_beta 68.456854
_cell_angle_gamma 86.459327
_cell_volume 669.626339
_symmetry_space_group_name_H-M "P -1"
_symmetry_group_IT_number 2
_symmetry_cell_setting 'triclinic'
loop_
_space_group_symop_operation_xyz
x,y,z
-x,-y,-z
loop_
_atom_site_type_symbol
_atom_site_label
_atom_site_fract_x
_atom_site_fract_y
_atom_site_fract_z
Si Si1 0.172114 0.351205 0.077889
Si Si2 0.990643 0.293259 0.109496
Si Si3 0.319738 0.237990 0.365746
Si Si4 0.314251 0.855402 0.897730
Si Si5 0.496776 0.797999 0.608578
Si Si6 0.718319 0.317652 0.799128
Si Si7 0.202834 0.519111 0.746133
O O1 0.184713 0.617692 0.201053
O O2 0.071447 0.299164 0.175741
O O3 0.182386 0.368972 0.892142
O O4 0.251504 0.117335 0.045442
O O5 0.891047 0.364283 0.257785
O O6 0.000000 0.500000 0.000000
O O7 0.000000 0.000000 0.000000
O O8 0.422839 0.171294 0.330155
O O9 0.319030 0.466936 0.271839
O O10 0.261563 0.326412 0.564459
O O11 0.279491 0.979119 0.305232
O O12 0.407349 0.907747 0.776215
O O13 0.259115 0.749293 0.784400
O O14 0.337096 0.654259 0.999180
O O15 0.500000 0.500000 0.500000
O O16 0.500000 0.000000 0.500000
#
# Coordination Sequence:
#
# PCOD8002523 Si02
#       7
#     2   2   2   2   2   2   2
#     4  10  21  43  66  95 129 166 215 262 315 377
#     4  10  20  35  64  99 123 157 216 267 309 369
#     4  12  25  44  63  95 133 164 215 262 314 379
#     4  11  22  43  69  91 129 170 213 258 319 375
#     4  12  26  42  67 101 125 160 213 272 315 365
#     4  11  26  43  64  91 134 176 205 255 320 383
#     4  10  22  38  69  96 123 168 214 268 316 364
#
# _framework density 20.907183
#
# number of rings (size 3 to 8) (size 9 to 14) (size 15 to 20)
#    0.000    1.143    4.286    1.714    4.000    1.143 
#    0.000    1.429    0.000    0.000    0.000    0.000 
#    0.000    0.000    0.000    0.000    0.000    0.000 
#
# Total GULP energy -173459.440353 kJ/mol
# GULP energy per Si atom -12389.960025 kJ/mol
# Density = 2.085960 g / cm^3
# Si number density = 20.907183 Si / 1000 Ang^3
#
#
#
# Elastic Constant Matrix: (Units=GPa)
#
#
# Indices 1 2 3 4 5 6 
#
# 1 132.7705 31.7054 61.2703 3.8996 -14.6055 11.8909
# 2 31.7054 122.3976 30.4279 3.9142 11.0071 7.8112
# 3 61.2703 30.4279 72.9069 1.6936 6.1050 6.3802
# 4 3.8996 3.9142 1.6936 39.0206 0.0024 12.9638
# 5 -14.6055 11.0071 6.1050 0.0024 32.9389 4.3437
# 6 11.8909 7.8112 6.3802 12.9638 4.3437 37.9483
#
#
#
# Elastic Compliance Matrix: (Units=1/GPa)
#
#
# Indices 1 2 3 4 5 6 
#
# 1 0.015120 -0.001460 -0.012630 0.000375 0.010006 -0.003587
# 2 -0.001460 0.009493 -0.002399 -0.000524 -0.003304 -0.000536
# 3 -0.012630 -0.002399 0.026046 -0.000026 -0.009784 0.001201
# 4 0.000375 -0.000524 -0.000026 0.029000 0.001676 -0.010104
# 5 0.010006 -0.003304 -0.009784 0.001676 0.038477 -0.005787
# 6 -0.003587 -0.000536 0.001201 -0.010104 -0.005787 0.031498
#
#
# Mechanical properties :
#
#
# Convention : Reuss Voigt Hill
#
# Bulk Modulus (GPa) = 56.55821 63.87581 60.21701
# Shear Modulus (GPa) = 26.52439 35.62632 31.07535
#
# Velocity S-wave (km/s) = 3.56571 4.13246 3.85950
# Velocity P-wave (km/s) = 6.63801 7.30671 6.98037
#
# Compressibility (1/GPa) = 0.01768090
#
# Stress axis : x y z
#
# Youngs Moduli (GPa) = 66.13886 105.34326 38.39301
#
# Poissons Ratio (x) = 0.15376 0.48490
# Poissons Ratio (y) = 0.09654 0.09212
# Poissons Ratio (z) = 0.83533 0.25276
#
# Static dielectric constant tensor:
#      x y z
#    x 4.434520 0.011050 -0.059140 
#    y 0.011050 3.490430 -0.771430 
#    z -0.059140 -0.771430 2.296170 
# 
# 
# High freq. dielectric constant tensor:
#      x y z
#    x 1.834940 0.011610 0.008600 
#    y 0.011610 1.832090 -0.002600 
#    z 0.008600 -0.002600 1.791740 
# 
# From -- ./inp_files/34990.got.cif
#   From: 2010.06.25/outbox.cif.g09.slc.cpg/sg2_18_cif.got.tgz:34990.got - 2010.06.27 13:26:56.
