data_PCOD8002957
_publ_section_title
;
Structure prediction by ZEFSAII (Michael W. Deem and Ramdas Pophale) SiO2 
 PCOD8002957
Probable space group: P -1
;
_chemical_formula_sum "Si O2"
_cell_formula_units_Z 16
_cell_length_a 7.760779
_cell_length_b 16.361627
_cell_length_c 8.301816
_cell_angle_alpha 121.748145
_cell_angle_beta 81.448418
_cell_angle_gamma 124.401670
_cell_volume 722.858603
_symmetry_space_group_name_H-M "P -1"
_symmetry_group_IT_number 2
_symmetry_cell_setting 'triclinic'
loop_
_space_group_symop_operation_xyz
x,y,z
-x,-y,-z
loop_
_atom_site_type_symbol
_atom_site_label
_atom_site_fract_x
_atom_site_fract_y
_atom_site_fract_z
Si Si1 0.401731 0.950439 0.286447
Si Si2 0.938335 0.875591 0.321693
Si Si3 0.703554 0.549718 0.904654
Si Si4 0.759408 0.415717 0.506964
Si Si5 0.903813 0.686419 0.307708
Si Si6 0.349769 0.796735 0.520631
Si Si7 0.583289 0.434443 0.236552
Si Si8 0.511862 0.778892 0.149574
O O1 0.457459 0.857977 0.136590
O O2 0.148687 0.886983 0.241423
O O3 0.500000 0.000000 0.500000
O O4 0.524176 0.070292 0.286720
O O5 0.838819 0.777789 0.380762
O O6 0.763664 0.830713 0.156157
O O7 0.000000 0.000000 0.500000
O O8 0.737474 0.455149 0.728644
O O9 0.656143 0.605043 0.815852
O O10 0.500000 0.500000 0.000000
O O11 0.909600 0.642116 0.078761
O O12 0.695982 0.284682 0.403478
O O13 0.596777 0.412669 0.400176
O O14 0.000000 0.500000 0.500000
O O15 0.746419 0.574344 0.325120
O O16 0.134978 0.761979 0.428804
O O17 0.480867 0.783115 0.349677
O O18 0.632012 0.354372 0.040026
#
# Coordination Sequence:
#
# PCOD8002957 Si02
#       8
#     2   2   2   2   2   2   2   2
#     4  10  20  36  60  95 125 165 220 278 321 378
#     4  12  20  36  62  97 128 160 221 283 324 378
#     4  10  23  42  64  91 127 171 221 269 320 387
#     4  12  26  41  61  95 138 179 209 262 338 401
#     4  11  21  37  64  97 125 165 220 270 324 389
#     4  11  21  39  62  94 130 170 219 267 326 390
#     4  11  24  41  60  93 133 174 211 264 333 400
#     4  11  22  39  66  96 128 168 223 278 329 383
#
# _framework density 22.134342
#
# number of rings (size 3 to 8) (size 9 to 14) (size 15 to 20)
#    0.000    1.000    7.500    1.875    3.500    1.000 
#    0.000    0.625    0.000    0.750    0.000    0.000 
#    0.000    0.000    0.000    0.000    0.000    0.000 
#
# Total GULP energy -198210.185698 kJ/mol
# GULP energy per Si atom -12388.136606 kJ/mol
# Density = 2.208396 g / cm^3
# Si number density = 22.134342 Si / 1000 Ang^3
#
#
#
# Elastic Constant Matrix: (Units=GPa)
#
#
# Indices 1 2 3 4 5 6 
#
# 1 98.3300 42.5623 10.3960 0.7040 -6.2372 -14.4903
# 2 42.5623 152.5710 33.2257 27.7032 -10.9886 -30.6811
# 3 10.3960 33.2257 53.1895 8.0386 -6.8092 -7.4812
# 4 0.7040 27.7032 8.0386 33.8758 -13.2036 -3.3818
# 5 -6.2372 -10.9886 -6.8092 -13.2036 26.4158 1.9442
# 6 -14.4903 -30.6811 -7.4812 -3.3818 1.9442 41.2086
#
#
#
# Elastic Compliance Matrix: (Units=1/GPa)
#
#
# Indices 1 2 3 4 5 6 
#
# 1 0.012148 -0.003503 -0.000129 0.004111 0.003298 0.001822
# 2 -0.003503 0.010914 -0.004383 -0.007964 -0.001804 0.005530
# 3 -0.000129 -0.004383 0.022139 -0.000159 0.003736 0.000522
# 4 0.004111 -0.007964 -0.000159 0.043373 0.019434 -0.001870
# 5 0.003298 -0.001804 0.003736 0.019434 0.048576 -0.000202
# 6 0.001822 0.005530 0.000522 -0.001870 -0.000202 0.028975
#
#
# Mechanical properties :
#
#
# Convention : Reuss Voigt Hill
#
# Bulk Modulus (GPa) = 34.27932 52.93984 43.60958
# Shear Modulus (GPa) = 26.05814 34.82713 30.44263
#
# Velocity S-wave (km/s) = 3.43486 3.97097 3.71260
# Velocity P-wave (km/s) = 5.59031 6.70777 6.17437
#
# Compressibility (1/GPa) = 0.02917211
#
# Stress axis : x y z
#
# Youngs Moduli (GPa) = 82.31718 91.62367 45.16888
#
# Poissons Ratio (x) = 0.32099 0.00581
# Poissons Ratio (y) = 0.28839 0.19796
# Poissons Ratio (z) = 0.01059 0.40155
#
# Static dielectric constant tensor:
#      x y z
#    x 4.517110 -0.280320 0.293700 
#    y -0.280320 4.413800 0.463380 
#    z 0.293700 0.463380 3.963400 
# 
# 
# High freq. dielectric constant tensor:
#      x y z
#    x 1.886690 -0.024130 0.013000 
#    y -0.024130 1.864990 0.039490 
#    z 0.013000 0.039490 1.834420 
# 
# From -- ./inp_files/215493.got.cif
#   From: 2010.06.25/outbox.cif.g09.slc.cpg/sg2_108_cif.got.tgz:215493.got - 2010.06.27 13:26:56.
