data_PCOD8002812
_publ_section_title
;
Structure prediction by ZEFSAII (Michael W. Deem and Ramdas Pophale) SiO2 
 PCOD8002812
Probable space group: P -1
;
_chemical_formula_sum "Si O2"
_cell_formula_units_Z 16
_cell_length_a 12.007525
_cell_length_b 14.451448
_cell_length_c 9.024375
_cell_angle_alpha 80.585856
_cell_angle_beta 146.920180
_cell_angle_gamma 107.353154
_cell_volume 804.528092
_symmetry_space_group_name_H-M "P -1"
_symmetry_group_IT_number 2
_symmetry_cell_setting 'triclinic'
loop_
_space_group_symop_operation_xyz
x,y,z
-x,-y,-z
loop_
_atom_site_type_symbol
_atom_site_label
_atom_site_fract_x
_atom_site_fract_y
_atom_site_fract_z
Si Si1 0.303541 0.650021 0.516180
Si Si2 0.722748 0.734067 0.138627
Si Si3 0.462266 0.806031 0.412253
Si Si4 0.469562 0.479094 0.643505
Si Si5 0.885506 0.894162 0.048162
Si Si6 0.290397 0.254643 0.542345
Si Si7 0.894940 0.105517 0.995995
Si Si8 0.103594 0.433112 0.732134
O O1 0.316697 0.711167 0.363435
O O2 0.338486 0.545999 0.549737
O O3 0.070128 0.632386 0.330469
O O4 0.483936 0.709028 0.815934
O O5 0.712088 0.773095 0.281318
O O6 0.812155 0.640169 0.257700
O O7 0.882105 0.822492 0.199998
O O8 0.673645 0.858375 0.723737
O O9 0.518340 0.772497 0.322072
O O10 0.337199 0.885533 0.228092
O O11 0.500000 0.500000 0.500000
O O12 0.322084 0.369517 0.532475
O O13 0.698593 0.497339 0.973537
O O14 0.080197 0.894488 0.155382
O O15 0.914766 0.003858 0.112802
O O16 0.065030 0.197965 0.234914
O O17 0.000000 0.500000 0.500000
#
# Coordination Sequence:
#
# PCOD8002812 Si02
#       8
#     2   2   2   2   2   2   2   2
#     4  10  21  38  61  82 112 160 196 233 283 352
#     4  10  22  40  59  83 123 152 190 241 291 345
#     4  10  20  36  59  86 113 144 195 240 285 340
#     4  11  23  39  57  86 125 155 192 246 291 340
#     4   9  20  40  61  84 110 153 191 237 294 343
#     4  11  23  37  55  85 120 151 187 240 297 336
#     4  10  21  37  62  85 113 146 195 243 286 346
#     4  11  23  38  61  88 116 159 204 234 289 354
#
# _framework density 19.887433999999999
#
# number of rings (size 3 to 8) (size 9 to 14) (size 15 to 20)
#    0.000    1.750    1.250    2.625    3.500    6.000 
#    0.000    0.625    0.000    0.000    0.000    0.000 
#    0.000    0.000    0.000    0.000    0.000    0.000 
#
# Total GULP energy -198453.741432 kJ/mol
# GULP energy per Si atom -12403.358839 kJ/mol
# Density = 1.984217 g / cm^3
# Si number density = 19.887434 Si / 1000 Ang^3
#
#
#
# Elastic Constant Matrix: (Units=GPa)
#
#
# Indices 1 2 3 4 5 6 
#
# 1 114.5485 28.8508 29.5687 -6.7966 -11.9987 -2.7337
# 2 28.8508 95.0037 28.6062 0.4625 -6.1566 6.8782
# 3 29.5687 28.6062 54.2754 -6.4517 -8.2716 -10.1027
# 4 -6.7966 0.4625 -6.4517 25.3871 4.8115 4.4870
# 5 -11.9987 -6.1566 -8.2716 4.8115 28.6299 -7.4590
# 6 -2.7337 6.8782 -10.1027 4.4870 -7.4590 28.9431
#
#
#
# Elastic Compliance Matrix: (Units=1/GPa)
#
#
# Indices 1 2 3 4 5 6 
#
# 1 0.010645 -0.001842 -0.004161 0.001203 0.002798 0.000525
# 2 -0.001842 0.013822 -0.007858 -0.001327 -0.001511 -0.006385
# 3 -0.004161 -0.007858 0.028785 0.002523 0.007888 0.013164
# 4 0.001203 -0.001327 0.002523 0.043280 -0.008289 -0.007536
# 5 0.002798 -0.001511 0.007888 -0.008289 0.043590 0.015895
# 6 0.000525 -0.006385 0.013164 -0.007536 0.015895 0.045977
#
#
# Mechanical properties :
#
#
# Convention : Reuss Voigt Hill
#
# Bulk Modulus (GPa) = 39.16975 48.65322 43.91149
# Shear Modulus (GPa) = 22.48880 28.37882 25.43381
#
# Velocity S-wave (km/s) = 3.36639 3.78163 3.58003
# Velocity P-wave (km/s) = 5.90327 6.60190 6.26233
#
# Compressibility (1/GPa) = 0.02552990
#
# Stress axis : x y z
#
# Youngs Moduli (GPa) = 93.94055 72.34673 34.73977
#
# Poissons Ratio (x) = 0.13329 0.14456
# Poissons Ratio (y) = 0.17307 0.27298
# Poissons Ratio (z) = 0.39090 0.56850
#
# Static dielectric constant tensor:
#      x y z
#    x 3.697460 -0.066690 0.048960 
#    y -0.066690 3.606660 0.108170 
#    z 0.048960 0.108170 3.441980 
# 
# 
# High freq. dielectric constant tensor:
#      x y z
#    x 1.783410 -0.000030 0.007500 
#    y -0.000030 1.782850 0.006570 
#    z 0.007500 0.006570 1.759780 
# 
# From -- ./inp_files/37429.got.cif
#   From: 2010.06.25/outbox.cif.g09.slc.cpg/sg2_19_cif.got.tgz:37429.got - 2010.06.27 13:26:56.
