data_PCOD8002452
_publ_section_title
;
Structure prediction by ZEFSAII (Michael W. Deem and Ramdas Pophale) SiO2 
 PCOD8002452
Probable space group: P -1
;
_chemical_formula_sum "Si O2"
_cell_formula_units_Z 16
_cell_length_a 8.566449
_cell_length_b 15.139766
_cell_length_c 15.307059
_cell_angle_alpha 150.990963
_cell_angle_beta 112.111053
_cell_angle_gamma 86.148375
_cell_volume 724.560940
_symmetry_space_group_name_H-M "P -1"
_symmetry_group_IT_number 2
_symmetry_cell_setting 'triclinic'
loop_
_space_group_symop_operation_xyz
x,y,z
-x,-y,-z
loop_
_atom_site_type_symbol
_atom_site_label
_atom_site_fract_x
_atom_site_fract_y
_atom_site_fract_z
Si Si1 0.999023 0.857881 0.761576
Si Si2 0.051485 0.449206 0.206442
Si Si3 0.253203 0.354505 0.313119
Si Si4 0.565912 0.623318 0.029418
Si Si5 0.927615 0.824297 0.169580
Si Si6 0.686021 0.806189 0.505500
Si Si7 0.227715 0.902732 0.694780
Si Si8 0.420105 0.909390 0.186059
O O1 0.860519 0.662863 0.634660
O O2 0.149191 0.813528 0.700168
O O3 0.839481 0.855368 0.659700
O O4 0.156610 0.100052 0.046936
O O5 0.210969 0.478828 0.338661
O O6 0.093116 0.379858 0.062639
O O7 0.821427 0.266780 0.034728
O O8 0.089575 0.690565 0.415750
O O9 0.500000 0.500000 0.500000
O O10 0.812508 0.739158 0.165752
O O11 0.513823 0.804191 0.172818
O O12 0.446159 0.448951 0.773552
O O13 0.500000 0.500000 0.000000
O O14 0.804330 0.903484 0.159961
O O15 0.170626 0.032421 0.406421
O O16 0.536985 0.876384 0.566492
O O17 0.468151 0.010369 0.816190
#
# Coordination Sequence:
#
# PCOD8002452 Si02
#       8
#     2   2   2   2   2   2   2   2
#     4  10  22  41  58  90 127 162 206 249 305 355
#     4  11  21  40  63  90 117 168 210 240 304 365
#     4  11  24  37  63  89 124 162 206 257 301 347
#     4  11  24  39  63  96 122 154 201 253 308 364
#     4   9  20  40  60  87 121 157 203 243 306 365
#     4  10  20  40  65  83 123 170 197 247 301 363
#     4  10  20  35  62  87 115 158 207 248 291 358
#     4  10  21  38  64  89 120 162 206 245 298 371
#
# _framework density 22.082341
#
# number of rings (size 3 to 8) (size 9 to 14) (size 15 to 20)
#    0.000    1.750    3.750    2.250    3.500    2.500 
#    0.000    3.750    0.000    0.000    0.000    0.000 
#    0.000    0.000    0.000    0.000    0.000    0.000 
#
# Total GULP energy -198275.088109 kJ/mol
# GULP energy per Si atom -12392.193007 kJ/mol
# Density = 2.203208 g / cm^3
# Si number density = 22.082341 Si / 1000 Ang^3
#
#
#
# Elastic Constant Matrix: (Units=GPa)
#
#
# Indices 1 2 3 4 5 6 
#
# 1 138.2327 27.5490 11.3562 4.6599 0.6051 27.8815
# 2 27.5490 58.8505 -8.2420 10.3403 3.2796 19.1758
# 3 11.3562 -8.2420 65.8761 8.9852 -6.8522 -4.9681
# 4 4.6599 10.3403 8.9852 15.7039 -0.5438 6.3973
# 5 0.6051 3.2796 -6.8522 -0.5438 31.0193 6.6167
# 6 27.8815 19.1758 -4.9681 6.3973 6.6167 33.8755
#
#
#
# Elastic Compliance Matrix: (Units=1/GPa)
#
#
# Indices 1 2 3 4 5 6 
#
# 1 0.009481 -0.003234 -0.003042 0.004118 0.001140 -0.007420
# 2 -0.003234 0.024277 0.005048 -0.014849 -0.000043 -0.007528
# 3 -0.003042 0.005048 0.019025 -0.015190 0.002432 0.004830
# 4 0.004118 -0.014849 -0.015190 0.086769 0.002667 -0.014119
# 5 0.001140 -0.000043 0.002432 0.002667 0.034467 -0.007793
# 6 -0.007420 -0.007528 0.004830 -0.014119 -0.007793 0.044785
#
#
# Mechanical properties :
#
#
# Convention : Reuss Voigt Hill
#
# Bulk Modulus (GPa) = 19.86950 36.03175 27.95062
# Shear Modulus (GPa) = 21.00526 31.60613 26.30570
#
# Velocity S-wave (km/s) = 3.08754 3.78734 3.45520
# Velocity P-wave (km/s) = 4.66133 5.95631 5.34816
#
# Compressibility (1/GPa) = 0.05032840
#
# Stress axis : x y z
#
# Youngs Moduli (GPa) = 105.47121 41.19056 52.56239
#
# Poissons Ratio (x) = 0.13321 0.15988
# Poissons Ratio (y) = 0.34109 -0.26534
# Poissons Ratio (z) = 0.32082 -0.20793
#
# Static dielectric constant tensor:
#      x y z
#    x 4.571620 0.483850 -0.027050 
#    y 0.483850 3.741810 0.364410 
#    z -0.027050 0.364410 4.025330 
# 
# 
# High freq. dielectric constant tensor:
#      x y z
#    x 1.891960 0.028810 -0.003010 
#    y 0.028810 1.826540 0.028130 
#    z -0.003010 0.028130 1.868240 
# 
# From -- ./inp_files/315324.got.cif
#   From: 2010.06.25/outbox.cif.g09.slc.cpg/sg2_158_cif.got.tgz:315324.got - 2010.06.27 13:26:56.
