data_PCOD8002508
_publ_section_title
;
Structure prediction by ZEFSAII (Michael W. Deem and Ramdas Pophale) SiO2 
 PCOD8002508
Probable space group: P -1
;
_chemical_formula_sum "Si O2"
_cell_formula_units_Z 12
_cell_length_a 7.964450
_cell_length_b 8.623685
_cell_length_c 12.022806
_cell_angle_alpha 54.710217
_cell_angle_beta 118.031933
_cell_angle_gamma 106.784603
_cell_volume 594.776836
_symmetry_space_group_name_H-M "P -1"
_symmetry_group_IT_number 2
_symmetry_cell_setting 'triclinic'
loop_
_space_group_symop_operation_xyz
x,y,z
-x,-y,-z
loop_
_atom_site_type_symbol
_atom_site_label
_atom_site_fract_x
_atom_site_fract_y
_atom_site_fract_z
Si Si1 0.381960 0.366478 0.936763
Si Si2 0.494057 0.682420 0.347557
Si Si3 0.790816 0.495914 0.389423
Si Si4 0.367108 0.903406 0.409651
Si Si5 0.734600 0.356315 0.916009
Si Si6 0.153775 0.240988 0.118167
O O1 0.238980 0.480299 0.762766
O O2 0.550708 0.263310 0.963077
O O3 0.500000 0.500000 0.000000
O O4 0.243874 0.232442 0.024939
O O5 0.500000 0.500000 0.500000
O O6 0.685584 0.676537 0.336113
O O7 0.481867 0.868671 0.344267
O O8 0.306986 0.664172 0.219263
O O9 0.704442 0.293647 0.480589
O O10 0.000000 0.500000 0.500000
O O11 0.500000 0.000000 0.500000
O O12 0.196326 0.045276 0.274433
O O13 0.757993 0.579302 0.861545
O O14 0.925693 0.246048 0.045905
#
# Coordination Sequence:
#
# PCOD8002508 Si02
#       6
#     2   2   2   2   2   2
#     4   9  18  37  60  84 118 159 199 245 304 368
#     4   9  19  36  59  79 120 161 193 241 308 362
#     4  10  22  41  62  89 122 162 204 250 312 372
#     4  11  22  40  61  90 123 157 207 254 305 358
#     4   9  19  37  57  89 118 161 203 241 312 370
#     4  10  20  35  64  86 118 160 205 252 297 366
#
# _framework density 20.175636000000001
#
# number of rings (size 3 to 8) (size 9 to 14) (size 15 to 20)
#    0.000    2.333    0.000    4.000    4.667    0.667 
#    6.000    2.500    0.000    0.000    0.000    0.000 
#    0.000    0.000    0.000    0.000    0.000    0.000 
#
# Total GULP energy -148660.180018 kJ/mol
# GULP energy per Si atom -12388.348335 kJ/mol
# Density = 2.012971 g / cm^3
# Si number density = 20.175636 Si / 1000 Ang^3
#
#
#
# Elastic Constant Matrix: (Units=GPa)
#
#
# Indices 1 2 3 4 5 6 
#
# 1 100.9353 41.7023 52.7595 11.3119 17.2456 -1.9523
# 2 41.7023 92.1136 52.1403 22.2822 11.6192 -17.4820
# 3 52.7595 52.1403 145.5645 24.7469 17.9405 -10.0419
# 4 11.3119 22.2822 24.7469 40.4692 -0.2331 1.6945
# 5 17.2456 11.6192 17.9405 -0.2331 37.9802 1.0375
# 6 -1.9523 -17.4820 -10.0419 1.6945 1.0375 27.2280
#
#
#
# Elastic Compliance Matrix: (Units=1/GPa)
#
#
# Indices 1 2 3 4 5 6 
#
# 1 0.014063 -0.004941 -0.003321 0.000941 -0.003209 -0.003325
# 2 -0.004941 0.018991 -0.002513 -0.008037 -0.002744 0.011517
# 3 -0.003321 -0.002513 0.010125 -0.003988 -0.002591 0.002229
# 4 0.000941 -0.008037 -0.003988 0.031700 0.004347 -0.008702
# 5 -0.003209 -0.002744 -0.002591 0.004347 0.029996 -0.004361
# 6 -0.003325 0.011517 0.002229 -0.008702 -0.004361 0.045413
#
#
# Mechanical properties :
#
#
# Convention : Reuss Voigt Hill
#
# Bulk Modulus (GPa) = 46.23323 70.20196 58.21759
# Shear Modulus (GPa) = 27.92549 33.93624 30.93086
#
# Velocity S-wave (km/s) = 3.72441 4.10572 3.91970
# Velocity P-wave (km/s) = 6.43895 7.57277 7.02876
#
# Compressibility (1/GPa) = 0.02162946
#
# Stress axis : x y z
#
# Youngs Moduli (GPa) = 71.10771 52.65535 98.76771
#
# Poissons Ratio (x) = 0.26016 0.32804
# Poissons Ratio (y) = 0.35133 0.24819
# Poissons Ratio (z) = 0.23617 0.13231
#
# Static dielectric constant tensor:
#      x y z
#    x 4.113260 -0.608690 -0.230210 
#    y -0.608690 3.653500 0.363140 
#    z -0.230210 0.363140 3.798600 
# 
# 
# High freq. dielectric constant tensor:
#      x y z
#    x 1.784090 -0.017480 0.005620 
#    y -0.017480 1.765970 0.021260 
#    z 0.005620 0.021260 1.804420 
# 
# From -- ./inp_files/149588.got.cif
#   From: 2010.06.25/outbox.cif.g09.slc.cpg/sg2_75_cif.got.tgz:149588.got - 2010.06.27 13:26:56.
