data_PCOD8002481
_publ_section_title
;
Structure prediction by ZEFSAII (Michael W. Deem and Ramdas Pophale) SiO2 
 PCOD8002481
Probable space group: P -1
;
_chemical_formula_sum "Si O2"
_cell_formula_units_Z 16
_cell_length_a 9.146632
_cell_length_b 26.010128
_cell_length_c 5.246379
_cell_angle_alpha 69.168938
_cell_angle_beta 52.701043
_cell_angle_gamma 42.572483
_cell_volume 662.107574
_symmetry_space_group_name_H-M "P -1"
_symmetry_group_IT_number 2
_symmetry_cell_setting 'triclinic'
loop_
_space_group_symop_operation_xyz
x,y,z
-x,-y,-z
loop_
_atom_site_type_symbol
_atom_site_label
_atom_site_fract_x
_atom_site_fract_y
_atom_site_fract_z
Si Si1 0.539524 0.240864 0.436942
Si Si2 0.955948 0.272668 0.606756
Si Si3 0.770248 0.677560 0.888048
Si Si4 0.760624 0.489103 0.460752
Si Si5 0.573653 0.856529 0.305426
Si Si6 0.005479 0.172449 0.359012
Si Si7 0.356221 0.010333 0.384973
Si Si8 0.471697 0.436156 0.927041
O O1 0.443050 0.270922 0.199852
O O2 0.561994 0.170770 0.592543
O O3 0.827996 0.204619 0.235604
O O4 0.358157 0.306194 0.730036
O O5 0.859516 0.241972 0.590857
O O6 0.701757 0.344657 0.904257
O O7 0.052019 0.305729 0.287169
O O8 0.191678 0.205392 0.647315
O O9 0.946782 0.589600 0.770620
O O10 0.575415 0.475958 0.718248
O O11 0.667561 0.547839 0.223374
O O12 0.734165 0.527211 0.689658
O O13 0.358324 0.942864 0.500962
O O14 0.716022 0.857274 0.921034
O O15 0.068436 0.097686 0.533587
O O16 0.500000 0.000000 0.500000
O O17 0.500000 0.000000 0.000000
#
# Coordination Sequence:
#
# PCOD8002481 Si02
#       8
#     2   2   2   2   2   2   2   2
#     4  11  24  37  63  92 121 158 206 244 299 351
#     4  10  20  35  63  85 124 156 204 246 303 351
#     4  10  21  39  59  88 122 162 196 252 299 355
#     4   9  17  32  52  81 120 147 197 243 294 349
#     4  10  22  41  62  89 125 158 202 247 298 357
#     4  11  23  39  63  90 123 160 200 249 299 356
#     4  10  21  38  63  88 120 161 197 241 301 352
#     4   9  18  28  53  88 109 152 198 243 288 357
#
# _framework density 24.165258000000001
#
# number of rings (size 3 to 8) (size 9 to 14) (size 15 to 20)
#    0.000    2.000    2.500    0.750    3.500    3.500 
#    0.000    0.000    0.000    9.750    0.000    0.000 
#    0.000    0.000    0.000    0.000    0.000    0.000 
#
# Total GULP energy -198283.198056 kJ/mol
# GULP energy per Si atom -12392.699878 kJ/mol
# Density = 2.411026 g / cm^3
# Si number density = 24.165258 Si / 1000 Ang^3
#
#
#
# Elastic Constant Matrix: (Units=GPa)
#
#
# Indices 1 2 3 4 5 6 
#
# 1 91.7864 28.5192 24.0478 9.3942 18.1867 -5.9690
# 2 28.5192 101.6507 5.1157 13.8229 11.7233 -7.5059
# 3 24.0478 5.1157 60.2687 3.5898 23.8030 9.0370
# 4 9.3942 13.8229 3.5898 23.8718 -4.9857 11.3382
# 5 18.1867 11.7233 23.8030 -4.9857 37.4712 -1.2397
# 6 -5.9690 -7.5059 9.0370 11.3382 -1.2397 28.7321
#
#
#
# Elastic Compliance Matrix: (Units=1/GPa)
#
#
# Indices 1 2 3 4 5 6 
#
# 1 0.014901 -0.001690 -0.004500 -0.008661 -0.004757 0.007282
# 2 -0.001690 0.012921 0.001347 -0.011403 -0.005368 0.006869
# 3 -0.004500 0.001347 0.025610 -0.001959 -0.015048 -0.008514
# 4 -0.008661 -0.011403 -0.001959 0.070698 0.017386 -0.031310
# 5 -0.004757 -0.005368 -0.015048 0.017386 0.042459 -0.002686
# 6 0.007282 0.006869 -0.008514 -0.031310 -0.002686 0.053029
#
#
# Mechanical properties :
#
#
# Convention : Reuss Voigt Hill
#
# Bulk Modulus (GPa) = 22.85926 41.00789 31.93358
# Shear Modulus (GPa) = 20.50135 31.08325 25.79230
#
# Velocity S-wave (km/s) = 2.91586 3.59036 3.27055
# Velocity P-wave (km/s) = 4.56250 5.84758 5.24455
#
# Compressibility (1/GPa) = 0.04374595
#
# Stress axis : x y z
#
# Youngs Moduli (GPa) = 67.10775 77.39426 39.04720
#
# Poissons Ratio (x) = 0.13082 0.17570
# Poissons Ratio (y) = 0.11343 -0.05259
# Poissons Ratio (z) = 0.30197 -0.10424
#
# Static dielectric constant tensor:
#      x y z
#    x 4.343780 0.340800 0.142190 
#    y 0.340800 4.832790 0.112270 
#    z 0.142190 0.112270 4.203030 
# 
# 
# High freq. dielectric constant tensor:
#      x y z
#    x 1.946450 0.007790 0.017430 
#    y 0.007790 1.970680 0.005870 
#    z 0.017430 0.005870 1.940110 
# 
# From -- ./inp_files/47128.got.cif
#   From: 2010.06.25/outbox.cif.g09.slc.cpg/sg2_24_cif.got.tgz:47128.got - 2010.06.27 13:26:56.
