data_PCOD8002491
_publ_section_title
;
Structure prediction by ZEFSAII (Michael W. Deem and Ramdas Pophale) SiO2 
 PCOD8002491
Probable space group: P -1
;
_chemical_formula_sum "Si O2"
_cell_formula_units_Z 16
_cell_length_a 13.661765
_cell_length_b 9.850384
_cell_length_c 12.907740
_cell_angle_alpha 50.589525
_cell_angle_beta 72.276198
_cell_angle_gamma 112.878120
_cell_volume 782.321989
_symmetry_space_group_name_H-M "P -1"
_symmetry_group_IT_number 2
_symmetry_cell_setting 'triclinic'
loop_
_space_group_symop_operation_xyz
x,y,z
-x,-y,-z
loop_
_atom_site_type_symbol
_atom_site_label
_atom_site_fract_x
_atom_site_fract_y
_atom_site_fract_z
Si Si1 0.890068 0.388634 0.745955
Si Si2 0.464800 0.655303 0.921572
Si Si3 0.833536 0.990324 0.094417
Si Si4 0.199455 0.429243 0.697072
Si Si5 0.120420 0.823514 0.783352
Si Si6 0.385631 0.980087 0.489151
Si Si7 0.089060 0.265826 0.273919
Si Si8 0.766052 0.271544 0.622138
O O1 0.890982 0.529984 0.767680
O O2 0.775525 0.290364 0.734220
O O3 0.080651 0.628298 0.528464
O O4 0.802470 0.097356 0.966291
O O5 0.497393 0.733947 0.752666
O O6 0.587790 0.939484 0.815399
O O7 0.500000 0.500000 0.000000
O O8 0.271675 0.440075 0.105102
O O9 0.804857 0.007575 0.213958
O O10 0.721073 0.659500 0.270580
O O11 0.023024 0.183444 0.929928
O O12 0.279576 0.712359 0.579670
O O13 0.210778 0.495004 0.538884
O O14 0.277849 0.962330 0.603207
O O15 0.020379 0.839031 0.743484
O O16 0.000000 0.500000 0.000000
O O17 0.500000 0.000000 0.500000
O O18 0.000000 0.000000 0.500000
#
# Coordination Sequence:
#
# PCOD8002491 Si02
#       8
#     2   2   2   2   2   2   2   2
#     4  10  20  38  62  91 124 166 210 249 309 377
#     4  11  24  43  62  90 128 163 209 265 320 372
#     4  10  20  35  63  90 126 159 210 258 297 371
#     4   9  19  37  57  91 123 163 207 251 308 367
#     4  12  21  40  64  95 127 164 215 262 308 373
#     4  11  23  40  65  92 130 168 205 257 326 376
#     4  12  25  40  66  94 120 164 217 264 314 379
#     4   9  20  39  61  87 126 166 202 257 312 374
#
# _framework density 20.451936
#
# number of rings (size 3 to 8) (size 9 to 14) (size 15 to 20)
#    0.000    1.500    2.500    3.750    1.750    1.500 
#    2.250    0.625    0.000    0.000    0.000    0.000 
#    0.000    0.000    0.000    0.000    0.000    0.000 
#
# Total GULP energy -198221.425467 kJ/mol
# GULP energy per Si atom -12388.839092 kJ/mol
# Density = 2.040539 g / cm^3
# Si number density = 20.451936 Si / 1000 Ang^3
#
#
#
# Elastic Constant Matrix: (Units=GPa)
#
#
# Indices 1 2 3 4 5 6 
#
# 1 105.1190 15.4350 49.1486 5.3587 17.5616 0.4876
# 2 15.4350 59.1981 29.1047 16.7224 11.3348 -6.9236
# 3 49.1486 29.1047 122.5264 8.3183 12.1132 -3.4074
# 4 5.3587 16.7224 8.3183 25.1040 6.8222 11.1056
# 5 17.5616 11.3348 12.1132 6.8222 38.6672 -5.7619
# 6 0.4876 -6.9236 -3.4074 11.1056 -5.7619 36.5727
#
#
#
# Elastic Compliance Matrix: (Units=1/GPa)
#
#
# Indices 1 2 3 4 5 6 
#
# 1 0.012425 -0.000781 -0.004499 0.001423 -0.004536 -0.001879
# 2 -0.000781 0.026357 -0.004173 -0.020513 -0.000850 0.010706
# 3 -0.004499 -0.004173 0.010977 0.000023 -0.000137 0.000264
# 4 0.001423 -0.020513 0.000023 0.067552 -0.010442 -0.026058
# 5 -0.004536 -0.000850 -0.000137 -0.010442 0.031245 0.007980
# 6 -0.001879 0.010706 0.000264 -0.026058 0.007980 0.038589
#
#
# Mechanical properties :
#
#
# Convention : Reuss Voigt Hill
#
# Bulk Modulus (GPa) = 32.41186 52.69112 42.55149
# Shear Modulus (GPa) = 23.11217 32.94580 28.02898
#
# Velocity S-wave (km/s) = 3.36530 4.01794 3.70602
# Velocity P-wave (km/s) = 5.56620 6.88073 6.25808
#
# Compressibility (1/GPa) = 0.03085291
#
# Stress axis : x y z
#
# Youngs Moduli (GPa) = 80.48170 37.94020 91.10171
#
# Poissons Ratio (x) = 0.02963 0.40987
# Poissons Ratio (y) = 0.06285 0.38019
# Poissons Ratio (z) = 0.36209 0.15833
#
# Static dielectric constant tensor:
#      x y z
#    x 4.007640 0.090740 0.517630 
#    y 0.090740 3.601150 0.092830 
#    z 0.517630 0.092830 4.048640 
# 
# 
# High freq. dielectric constant tensor:
#      x y z
#    x 1.804400 -0.004960 0.023830 
#    y -0.004960 1.792380 0.007040 
#    z 0.023830 0.007040 1.807650 
# 
# From -- ./inp_files/446942.got.cif
#   From: 2010.06.25/outbox.cif.g09.slc.cpg/sg2_224_cif.got.tgz:446942.got - 2010.06.27 13:26:56.
