data_PCOD8002109
_publ_section_title
;
Structure prediction by ZEFSAII (Michael W. Deem and Ramdas Pophale) SiO2 
 PCOD8002109
Probable space group: P -1
;
_chemical_formula_sum "Si O2"
_cell_formula_units_Z 14
_cell_length_a 13.508937
_cell_length_b 9.788844
_cell_length_c 10.105792
_cell_angle_alpha 60.512520
_cell_angle_beta 58.187948
_cell_angle_gamma 37.749289
_cell_volume 687.884465
_symmetry_space_group_name_H-M "P -1"
_symmetry_group_IT_number 2
_symmetry_cell_setting 'triclinic'
loop_
_space_group_symop_operation_xyz
x,y,z
-x,-y,-z
loop_
_atom_site_type_symbol
_atom_site_label
_atom_site_fract_x
_atom_site_fract_y
_atom_site_fract_z
Si Si1 0.995629 0.360538 0.470066
Si Si2 0.520251 0.450077 0.715647
Si Si3 0.269506 0.458671 0.002587
Si Si4 0.746626 0.392263 0.776765
Si Si5 0.902119 0.671300 0.868311
Si Si6 0.752631 0.154667 0.461648
Si Si7 0.014166 0.111118 0.164474
O O1 0.982068 0.437022 0.293298
O O2 0.000000 0.500000 0.500000
O O3 0.835026 0.409617 0.592442
O O4 0.166844 0.095054 0.490719
O O5 0.422120 0.384940 0.849181
O O6 0.576620 0.484857 0.792317
O O7 0.684117 0.245213 0.614694
O O8 0.400574 0.685844 0.609300
O O9 0.091377 0.705811 0.965914
O O10 0.297970 0.458011 0.138165
O O11 0.262340 0.276931 0.068717
O O12 0.867931 0.135250 0.864451
O O13 0.865345 0.884180 0.842044
O O14 0.000000 0.500000 0.000000
O O15 0.888416 0.158744 0.338197
#
# Coordination Sequence:
#
# PCOD8002109 Si02
#       7
#     2   2   2   2   2   2   2
#     4  11  21  38  63  85 115 147 196 250 287 328
#     4  10  20  36  58  83 119 154 192 229 289 359
#     4  10  20  35  55  83 125 151 182 241 295 344
#     4  11  20  35  60  86 113 150 196 245 285 338
#     4  10  20  36  57  86 116 148 189 238 290 340
#     4   9  20  38  60  85 111 153 196 241 283 339
#     4   9  19  35  60  86 107 151 204 240 281 333
#
# _framework density 20.352257000000002
#
# number of rings (size 3 to 8) (size 9 to 14) (size 15 to 20)
#    0.000    2.000    1.429    2.571    0.000    3.429 
#    0.000    3.571    0.000    0.000    0.000    0.000 
#    0.000    0.000    0.000    0.000    0.000    0.000 
#
# Total GULP energy -173583.378542 kJ/mol
# GULP energy per Si atom -12398.812753 kJ/mol
# Density = 2.030593 g / cm^3
# Si number density = 20.352257 Si / 1000 Ang^3
#
#
#
# Elastic Constant Matrix: (Units=GPa)
#
#
# Indices 1 2 3 4 5 6 
#
# 1 136.3086 34.2488 31.2920 -2.0867 -1.2502 19.3489
# 2 34.2488 68.0023 20.8433 -0.6202 -2.5322 11.6313
# 3 31.2920 20.8433 105.2929 -1.3107 4.8479 6.5010
# 4 -2.0867 -0.6202 -1.3107 21.5839 5.7582 1.3443
# 5 -1.2502 -2.5322 4.8479 5.7582 30.5412 1.7712
# 6 19.3489 11.6313 6.5010 1.3443 1.7712 29.0102
#
#
#
# Elastic Compliance Matrix: (Units=1/GPa)
#
#
# Indices 1 2 3 4 5 6 
#
# 1 0.009241 -0.003298 -0.001828 0.000835 0.000499 -0.004501
# 2 -0.003298 0.017955 -0.002388 -0.000206 0.002037 -0.004579
# 3 -0.001828 -0.002388 0.010631 0.000978 -0.002138 -0.000120
# 4 0.000835 -0.000206 0.000978 0.049083 -0.009253 -0.002403
# 5 0.000499 0.002037 -0.002138 -0.009253 0.035154 -0.002388
# 6 -0.004501 -0.004579 -0.000120 -0.002403 -0.002388 0.039592
#
#
# Mechanical properties :
#
#
# Convention : Reuss Voigt Hill
#
# Bulk Modulus (GPa) = 43.85985 53.59690 48.72837
# Shear Modulus (GPa) = 27.13189 31.10838 29.12013
#
# Velocity S-wave (km/s) = 3.65514 3.91384 3.78670
# Velocity P-wave (km/s) = 6.27779 6.84222 6.56607
#
# Compressibility (1/GPa) = 0.02279990
#
# Stress axis : x y z
#
# Youngs Moduli (GPa) = 108.21618 55.69354 94.06116
#
# Poissons Ratio (x) = 0.18366 0.17196
# Poissons Ratio (y) = 0.35687 0.22461
# Poissons Ratio (z) = 0.19784 0.13299
#
# Static dielectric constant tensor:
#      x y z
#    x 3.938490 0.224600 -0.174540 
#    y 0.224600 3.491440 -0.146130 
#    z -0.174540 -0.146130 3.859260 
# 
# 
# High freq. dielectric constant tensor:
#      x y z
#    x 1.801730 0.012540 -0.002120 
#    y 0.012540 1.764530 -0.006140 
#    z -0.002120 -0.006140 1.807730 
# 
# From -- ./inp_files/157461.got.cif
#   From: 2010.06.25/outbox.cif.g09.slc.cpg/sg2_79_cif.got.tgz:157461.got - 2010.06.27 13:26:56.
