data_PCOD8002608
_publ_section_title
;
Structure prediction by ZEFSAII (Michael W. Deem and Ramdas Pophale) SiO2 
 PCOD8002608
Probable space group: P -1
;
_chemical_formula_sum "Si O2"
_cell_formula_units_Z 14
_cell_length_a 11.575923
_cell_length_b 28.814319
_cell_length_c 5.191792
_cell_angle_alpha 89.104343
_cell_angle_beta 77.363011
_cell_angle_gamma 151.101255
_cell_volume 733.588161
_symmetry_space_group_name_H-M "P -1"
_symmetry_group_IT_number 2
_symmetry_cell_setting 'triclinic'
loop_
_space_group_symop_operation_xyz
x,y,z
-x,-y,-z
loop_
_atom_site_type_symbol
_atom_site_label
_atom_site_fract_x
_atom_site_fract_y
_atom_site_fract_z
Si Si1 0.205963 0.032719 0.984709
Si Si2 0.191728 0.884838 0.591103
Si Si3 0.031059 0.148793 0.796267
Si Si4 0.133797 0.603131 0.180628
Si Si5 0.260551 0.753031 0.054983
Si Si6 0.738710 0.196007 0.460654
Si Si7 0.348782 0.632158 0.561826
O O1 0.406749 0.126883 0.093113
O O2 0.405078 0.081591 0.659510
O O3 0.028570 0.927319 0.189400
O O4 0.000000 0.000000 0.000000
O O5 0.153305 0.890547 0.321202
O O6 0.135810 0.810435 0.631253
O O7 0.500000 0.000000 0.500000
O O8 0.011422 0.847396 0.894466
O O9 0.338121 0.269532 0.560847
O O10 0.135842 0.658409 0.143977
O O11 0.319905 0.655675 0.328867
O O12 0.825236 0.476240 0.389055
O O13 0.252429 0.623468 0.864155
O O14 0.126158 0.735091 0.353728
O O15 0.164825 0.740139 0.834009
#
# Coordination Sequence:
#
# PCOD8002608 Si02
#       7
#     2   2   2   2   2   2   2
#     4  10  23  35  54  88 120 147 183 241 291 359
#     4  12  22  41  59  81 119 164 202 238 280 343
#     4  12  24  37  63  86 122 151 200 245 285 341
#     4  10  20  39  63  80 128 147 196 231 300 362
#     4  10  20  36  56  83 109 156 180 237 284 356
#     4  10  22  37  55  83 110 155 197 222 295 335
#     4  10  22  38  58  93 110 162 189 243 289 344
#
# _framework density 19.084275999999999
#
# number of rings (size 3 to 8) (size 9 to 14) (size 15 to 20)
#    0.857    0.571    1.429    4.714    2.000    0.571 
#    0.000    0.000    0.000    5.143    0.000    0.000 
#    0.000    0.000    0.000    0.000    0.000    0.000 
#
# Total GULP energy -173548.388756 kJ/mol
# GULP energy per Si atom -12396.313483 kJ/mol
# Density = 1.904084 g / cm^3
# Si number density = 19.084276 Si / 1000 Ang^3
#
#
#
# Elastic Constant Matrix: (Units=GPa)
#
#
# Indices 1 2 3 4 5 6 
#
# 1 106.9818 31.0053 33.8304 -11.3776 20.0874 -18.2713
# 2 31.0053 78.9277 27.6850 -8.6854 4.7171 -14.7122
# 3 33.8304 27.6850 90.8507 10.1694 20.7616 -3.4120
# 4 -11.3776 -8.6854 10.1694 29.6278 3.7949 6.4651
# 5 20.0874 4.7171 20.7616 3.7949 31.7805 2.2365
# 6 -18.2713 -14.7122 -3.4120 6.4651 2.2365 32.3616
#
#
#
# Elastic Compliance Matrix: (Units=1/GPa)
#
#
# Indices 1 2 3 4 5 6 
#
# 1 0.014026 -0.002207 -0.003224 0.005499 -0.007510 0.005996
# 2 -0.002207 0.016535 -0.004813 0.004451 0.001217 0.004790
# 3 -0.003224 -0.004813 0.016024 -0.007185 -0.006829 -0.000412
# 4 0.005499 0.004451 -0.007185 0.040926 -0.004082 -0.003523
# 5 -0.007510 0.001217 -0.006829 -0.004082 0.041435 -0.006455
# 6 0.005996 0.004790 -0.000412 -0.003523 -0.006455 0.037570
#
#
# Mechanical properties :
#
#
# Convention : Reuss Voigt Hill
#
# Bulk Modulus (GPa) = 38.32144 51.31128 44.81636
# Shear Modulus (GPa) = 25.54884 31.03662 28.29273
#
# Velocity S-wave (km/s) = 3.66285 4.03711 3.85452
# Velocity P-wave (km/s) = 6.16541 6.97682 6.58363
#
# Compressibility (1/GPa) = 0.02609505
#
# Stress axis : x y z
#
# Youngs Moduli (GPa) = 71.29813 60.47735 62.40735
#
# Poissons Ratio (x) = 0.13348 0.20123
# Poissons Ratio (y) = 0.15736 0.30038
# Poissons Ratio (z) = 0.22990 0.29109
#
# Static dielectric constant tensor:
#      x y z
#    x 3.243680 0.013140 0.257240 
#    y 0.013140 3.490890 0.064080 
#    z 0.257240 0.064080 3.616720 
# 
# 
# High freq. dielectric constant tensor:
#      x y z
#    x 1.734630 -0.013890 0.016380 
#    y -0.013890 1.736880 0.014200 
#    z 0.016380 0.014200 1.745690 
# 
# From -- ./inp_files/54854.got.cif
#   From: 2010.06.25/outbox.cif.g09.slc.cpg/sg2_28_cif.got.tgz:54854.got - 2010.06.27 13:26:56.
