data_PCOD8002296
_publ_section_title
;
Structure prediction by ZEFSAII (Michael W. Deem and Ramdas Pophale) SiO2 
 PCOD8002296
Probable space group: P -1
;
_chemical_formula_sum "Si O2"
_cell_formula_units_Z 10
_cell_length_a 6.354502
_cell_length_b 9.244564
_cell_length_c 8.538304
_cell_angle_alpha 110.062581
_cell_angle_beta 86.062489
_cell_angle_gamma 74.757040
_cell_volume 447.529638
_symmetry_space_group_name_H-M "P -1"
_symmetry_group_IT_number 2
_symmetry_cell_setting 'triclinic'
loop_
_space_group_symop_operation_xyz
x,y,z
-x,-y,-z
loop_
_atom_site_type_symbol
_atom_site_label
_atom_site_fract_x
_atom_site_fract_y
_atom_site_fract_z
Si Si1 0.259994 0.106841 0.501992
Si Si2 0.247683 0.757579 0.874447
Si Si3 0.873406 0.567160 0.243271
Si Si4 0.662355 0.588216 0.948393
Si Si5 0.999214 0.980530 0.239652
O O1 0.233343 0.298964 0.568200
O O2 0.084825 0.096795 0.638840
O O3 0.500000 0.000000 0.500000
O O4 0.196368 0.048827 0.315760
O O5 0.200120 0.590335 0.774224
O O6 0.504772 0.729303 0.899725
O O7 0.088861 0.841739 0.055823
O O8 0.198325 0.871869 0.767597
O O9 0.141219 0.524385 0.211499
O O10 0.778317 0.649734 0.110636
O O11 0.500000 0.500000 0.000000
#
# Coordination Sequence:
#
# PCOD8002296 Si02
#       5
#     2   2   2   2   2
#     4  11  23  40  58  82 118 154 184 230 288 338
#     4  10  21  39  61  85 113 147 190 239 277 327
#     4  10  20  35  59  85 109 148 197 227 272 343
#     4   9  17  32  57  85 111 144 186 234 276 324
#     4  10  23  39  57  86 118 147 187 233 285 336
#
# _framework density 22.344891000000001
#
# number of rings (size 3 to 8) (size 9 to 14) (size 15 to 20)
#    0.000    2.000    0.000    4.800    0.000    7.200 
#    0.000    7.000    0.000    0.000    0.000    0.000 
#    0.000    0.000    0.000    0.000    0.000    0.000 
#
# Total GULP energy -123967.505973 kJ/mol
# GULP energy per Si atom -12396.750597 kJ/mol
# Density = 2.229403 g / cm^3
# Si number density = 22.344891 Si / 1000 Ang^3
#
#
#
# Elastic Constant Matrix: (Units=GPa)
#
#
# Indices 1 2 3 4 5 6 
#
# 1 101.4475 25.4026 -5.1240 3.5006 12.3961 -35.0331
# 2 25.4026 99.4274 24.1278 18.9548 14.5882 -19.6774
# 3 -5.1240 24.1278 48.0828 18.4641 13.8577 3.7394
# 4 3.5006 18.9548 18.4641 42.0400 -6.2399 8.5015
# 5 12.3961 14.5882 13.8577 -6.2399 30.3273 -4.5059
# 6 -35.0331 -19.6774 3.7394 8.5015 -4.5059 41.1266
#
#
#
# Elastic Compliance Matrix: (Units=1/GPa)
#
#
# Indices 1 2 3 4 5 6 
#
# 1 0.016574 -0.000009 0.006703 -0.008609 -0.009488 0.014244
# 2 -0.000009 0.014916 -0.003422 -0.007806 -0.005966 0.008401
# 3 0.006703 -0.003422 0.036264 -0.018544 -0.021139 0.002293
# 4 -0.008609 -0.007806 -0.018544 0.042648 0.022179 -0.015768
# 5 -0.009488 -0.005966 -0.021139 0.022179 0.052783 -0.007817
# 6 0.014244 0.008401 0.002293 -0.015768 -0.007817 0.042663
#
#
# Mechanical properties :
#
#
# Convention : Reuss Voigt Hill
#
# Bulk Modulus (GPa) = 13.45925 37.53003 25.49464
# Shear Modulus (GPa) = 22.31455 36.33557 29.32506
#
# Velocity S-wave (km/s) = 3.16356 4.03690 3.62661
# Velocity P-wave (km/s) = 4.40234 6.20975 5.38245
#
# Compressibility (1/GPa) = 0.07429835
#
# Stress axis : x y z
#
# Youngs Moduli (GPa) = 60.33714 67.04114 27.57563
#
# Poissons Ratio (x) = 0.00057 -0.18484
# Poissons Ratio (y) = 0.00052 0.09437
# Poissons Ratio (z) = -0.40445 0.22943
#
# Static dielectric constant tensor:
#      x y z
#    x 4.342300 -0.409160 0.402770 
#    y -0.409160 4.112560 0.037090 
#    z 0.402770 0.037090 3.994220 
# 
# 
# High freq. dielectric constant tensor:
#      x y z
#    x 1.885550 -0.018440 0.014870 
#    y -0.018440 1.874640 0.013130 
#    z 0.014870 0.013130 1.861070 
# 
# From -- ./inp_files/15869.got.cif
#   From: 2010.06.25/outbox.cif.g09.slc.cpg/sg2_8_cif.got.tgz:15869.got - 2010.06.27 13:26:56.
