data_PCOD8002110
_publ_section_title
;
Structure prediction by ZEFSAII (Michael W. Deem and Ramdas Pophale) SiO2 
 PCOD8002110
Probable space group: P -1
;
_chemical_formula_sum "Si O2"
_cell_formula_units_Z 16
_cell_length_a 9.831613
_cell_length_b 20.440118
_cell_length_c 11.423631
_cell_angle_alpha 124.874388
_cell_angle_beta 123.738500
_cell_angle_gamma 28.719097
_cell_volume 896.484009
_symmetry_space_group_name_H-M "P -1"
_symmetry_group_IT_number 2
_symmetry_cell_setting 'triclinic'
loop_
_space_group_symop_operation_xyz
x,y,z
-x,-y,-z
loop_
_atom_site_type_symbol
_atom_site_label
_atom_site_fract_x
_atom_site_fract_y
_atom_site_fract_z
Si Si1 0.959272 0.841794 0.027506
Si Si2 0.135213 0.259255 0.264257
Si Si3 0.838454 0.683808 0.418269
Si Si4 0.166248 0.833376 0.516882
Si Si5 0.564993 0.956910 0.153893
Si Si6 0.822892 0.586600 0.621005
Si Si7 0.255873 0.135722 0.602278
Si Si8 0.205345 0.872918 0.319597
O O1 0.191124 0.816668 0.145269
O O2 0.850882 0.843624 0.097587
O O3 0.077713 0.722394 0.877861
O O4 0.685738 0.991064 0.982306
O O5 0.036924 0.321832 0.412036
O O6 0.453289 0.093329 0.257089
O O7 0.149667 0.329821 0.256388
O O8 0.855519 0.736037 0.370660
O O9 0.515683 0.786180 0.392988
O O10 0.032041 0.527446 0.326543
O O11 0.495139 0.693110 0.563066
O O12 0.123528 0.858112 0.382659
O O13 0.012479 0.815364 0.468849
O O14 0.024038 0.965912 0.648849
O O15 0.618805 0.895051 0.241389
O O16 0.000000 0.500000 0.500000
O O17 0.500000 0.000000 0.500000
#
# Coordination Sequence:
#
# PCOD8002110 Si02
#       8
#     2   2   2   2   2   2   2   2
#     4   9  18  29  53  84 110 135 182 233 272 323
#     4   9  16  33  54  79 107 144 178 225 278 314
#     4  11  22  36  59  77 121 141 181 231 275 325
#     4  11  21  31  59  83 114 137 190 230 268 323
#     4   9  17  29  53  80 108 142 172 228 277 318
#     4  10  20  35  55  84 110 146 182 234 270 314
#     4  12  20  35  53  86 115 146 174 230 284 323
#     4  11  19  33  56  92  99 137 193 236 260 313
#
# _framework density 17.847501000000001
#
# number of rings (size 3 to 8) (size 9 to 14) (size 15 to 20)
#    0.750    1.000    6.250    0.750    0.000    0.500 
#    0.000    1.250    0.000    0.750    0.000    0.000 
#    0.000    0.000    0.000    0.000    0.000    0.000 
#
# Total GULP energy -198229.082185 kJ/mol
# GULP energy per Si atom -12389.317637 kJ/mol
# Density = 1.780688 g / cm^3
# Si number density = 17.847501 Si / 1000 Ang^3
#
#
#
# Elastic Constant Matrix: (Units=GPa)
#
#
# Indices 1 2 3 4 5 6 
#
# 1 103.7049 42.6215 35.8108 -5.9049 3.4674 23.1280
# 2 42.6215 95.5774 17.3918 -3.4434 4.7517 15.5923
# 3 35.8108 17.3918 101.0890 -9.2480 8.4550 8.9458
# 4 -5.9049 -3.4434 -9.2480 13.5945 3.3098 1.0510
# 5 3.4674 4.7517 8.4550 3.3098 28.5231 -4.0843
# 6 23.1280 15.5923 8.9458 1.0510 -4.0843 39.3489
#
#
#
# Elastic Compliance Matrix: (Units=1/GPa)
#
#
# Indices 1 2 3 4 5 6 
#
# 1 0.014256 -0.004580 -0.003295 0.003568 -0.001273 -0.006043
# 2 -0.004580 0.013155 -0.000008 0.002109 -0.002280 -0.002812
# 3 -0.003295 -0.000008 0.012309 0.008133 -0.004410 -0.001534
# 4 0.003568 0.002109 0.008133 0.085324 -0.014321 -0.008548
# 5 -0.001273 -0.002280 -0.004410 -0.014321 0.039586 0.007146
# 6 -0.006043 -0.002812 -0.001534 -0.008548 0.007146 0.031398
#
#
# Mechanical properties :
#
#
# Convention : Reuss Voigt Hill
#
# Bulk Modulus (GPa) = 41.74625 54.66882 48.20754
# Shear Modulus (GPa) = 22.75011 29.92979 26.33995
#
# Velocity S-wave (km/s) = 3.57416 4.09953 3.84583
# Velocity P-wave (km/s) = 6.36193 7.28737 6.84032
#
# Compressibility (1/GPa) = 0.02395424
#
# Stress axis : x y z
#
# Youngs Moduli (GPa) = 70.14479 76.01828 81.23832
#
# Poissons Ratio (x) = 0.34818 0.26765
# Poissons Ratio (y) = 0.32128 0.00067
# Poissons Ratio (z) = 0.23110 0.00062
#
# Static dielectric constant tensor:
#      x y z
#    x 3.254790 0.298620 0.108540 
#    y 0.298620 3.352260 0.040380 
#    z 0.108540 0.040380 3.286020 
# 
# 
# High freq. dielectric constant tensor:
#      x y z
#    x 1.671410 0.011240 0.011740 
#    y 0.011240 1.672560 -0.005380 
#    z 0.011740 -0.005380 1.676980 
# 
# From -- ./inp_files/404222.got.cif
#   From: 2010.06.25/outbox.cif.g09.slc.cpg/sg2_203_cif.got.tgz:404222.got - 2010.06.27 13:26:56.
