data_PCOD8002530
_publ_section_title
;
Structure prediction by ZEFSAII (Michael W. Deem and Ramdas Pophale) SiO2 
 PCOD8002530
Probable space group: P -1
;
_chemical_formula_sum "Si O2"
_cell_formula_units_Z 16
_cell_length_a 11.826996
_cell_length_b 18.626290
_cell_length_c 10.184851
_cell_angle_alpha 28.122414
_cell_angle_beta 52.924196
_cell_angle_gamma 48.178334
_cell_volume 787.421781
_symmetry_space_group_name_H-M "P -1"
_symmetry_group_IT_number 2
_symmetry_cell_setting 'triclinic'
loop_
_space_group_symop_operation_xyz
x,y,z
-x,-y,-z
loop_
_atom_site_type_symbol
_atom_site_label
_atom_site_fract_x
_atom_site_fract_y
_atom_site_fract_z
Si Si1 0.136022 0.572340 0.642178
Si Si2 0.629604 0.101276 0.368537
Si Si3 0.112871 0.926333 0.154208
Si Si4 0.960558 0.918092 0.532035
Si Si5 0.873754 0.470334 0.989696
Si Si6 0.404689 0.944460 0.836714
Si Si7 0.464633 0.465544 0.935208
Si Si8 0.442253 0.401657 0.595155
O O1 0.166617 0.734661 0.398082
O O2 0.258787 0.478095 0.598357
O O3 0.970554 0.580053 0.691527
O O4 0.157479 0.479430 0.916402
O O5 0.643363 0.055744 0.280336
O O6 0.593046 0.293182 0.088498
O O7 0.779839 0.990926 0.518834
O O8 0.488242 0.073144 0.584650
O O9 0.035341 0.981446 0.258649
O O10 0.250096 0.994250 0.947330
O O11 0.000000 0.000000 0.000000
O O12 0.000000 0.000000 0.500000
O O13 0.028292 0.720352 0.804095
O O14 0.708151 0.527867 0.948446
O O15 0.517678 0.777658 0.087250
O O16 0.500000 0.500000 0.000000
O O17 0.485263 0.593747 0.606967
O O18 0.500000 0.500000 0.500000
#
# Coordination Sequence:
#
# PCOD8002530 Si02
#       8
#     2   2   2   2   2   2   2   2
#     4  10  20  35  65  90 113 151 205 253 291 356
#     4  11  23  39  64  97 124 155 209 262 304 352
#     4  11  21  36  59  89 117 154 198 246 301 353
#     4  11  23  41  61  87 126 165 196 244 314 373
#     4  10  21  39  62  91 121 156 202 252 307 356
#     4  11  22  38  66  96 121 154 208 266 302 353
#     4  12  25  42  63  91 127 166 204 249 309 373
#     4  12  19  40  64  91 120 160 208 245 306 364
#
# _framework density 20.319479000000001
#
# number of rings (size 3 to 8) (size 9 to 14) (size 15 to 20)
#    0.000    1.000    5.000    2.250    1.750    2.000 
#    0.000    4.375    0.000    0.000    0.000    0.000 
#    0.000    0.000    0.000    0.000    0.000    0.000 
#
# Total GULP energy -198282.290412 kJ/mol
# GULP energy per Si atom -12392.643151 kJ/mol
# Density = 2.027323 g / cm^3
# Si number density = 20.319479 Si / 1000 Ang^3
#
#
#
# Elastic Constant Matrix: (Units=GPa)
#
#
# Indices 1 2 3 4 5 6 
#
# 1 119.4664 53.5622 24.7673 23.9153 3.6995 -15.5327
# 2 53.5622 75.3666 17.5100 12.7932 2.4719 -12.9313
# 3 24.7673 17.5100 66.6873 15.5476 -0.2000 0.2481
# 4 23.9153 12.7932 15.5476 36.7945 -9.1224 -0.4037
# 5 3.6995 2.4719 -0.2000 -9.1224 32.6362 6.7522
# 6 -15.5327 -12.9313 0.2481 -0.4037 6.7522 40.0385
#
#
#
# Elastic Compliance Matrix: (Units=1/GPa)
#
#
# Indices 1 2 3 4 5 6 
#
# 1 0.014098 -0.007792 -0.001676 -0.006597 -0.003587 0.003502
# 2 -0.007792 0.020272 -0.002093 -0.001525 -0.001886 0.003840
# 3 -0.001676 -0.002093 0.017528 -0.005826 -0.000895 -0.001343
# 4 -0.006597 -0.001525 -0.005826 0.037448 0.012269 -0.004707
# 5 -0.003587 -0.001886 -0.000895 0.012269 0.036267 -0.007987
# 6 0.003502 0.003840 -0.001343 -0.004707 -0.007987 0.028882
#
#
# Mechanical properties :
#
#
# Convention : Reuss Voigt Hill
#
# Bulk Modulus (GPa) = 34.75121 50.35547 42.55334
# Shear Modulus (GPa) = 26.70798 32.93922 29.82360
#
# Velocity S-wave (km/s) = 3.62940 4.03061 3.83526
# Velocity P-wave (km/s) = 5.89092 6.81886 6.37180
#
# Compressibility (1/GPa) = 0.02877598
#
# Stress axis : x y z
#
# Youngs Moduli (GPa) = 70.92976 49.32905 57.05153
#
# Poissons Ratio (x) = 0.38437 0.09561
# Poissons Ratio (y) = 0.55268 0.11943
# Poissons Ratio (z) = 0.11887 0.10326
#
# Static dielectric constant tensor:
#      x y z
#    x 3.829340 -0.406670 -0.200700 
#    y -0.406670 3.787940 0.122840 
#    z -0.200700 0.122840 4.043220 
# 
# 
# High freq. dielectric constant tensor:
#      x y z
#    x 1.789620 -0.029740 -0.005800 
#    y -0.029740 1.784860 0.003970 
#    z -0.005800 0.003970 1.794080 
# 
# From -- ./inp_files/278668.got.cif
#   From: 2010.06.25/outbox.cif.g09.slc.cpg/sg2_140_cif.got.tgz:278668.got - 2010.06.27 13:26:56.
