data_PCOD8002028
_publ_section_title
;
Structure prediction by ZEFSAII (Michael W. Deem and Ramdas Pophale) SiO2 
 PCOD8002028
Probable space group: P -1
;
_chemical_formula_sum "Si O2"
_cell_formula_units_Z 16
_cell_length_a 6.733819
_cell_length_b 22.973586
_cell_length_c 11.714981
_cell_angle_alpha 53.770168
_cell_angle_beta 85.543884
_cell_angle_gamma 124.130981
_cell_volume 956.073182
_symmetry_space_group_name_H-M "P -1"
_symmetry_group_IT_number 2
_symmetry_cell_setting 'triclinic'
loop_
_space_group_symop_operation_xyz
x,y,z
-x,-y,-z
loop_
_atom_site_type_symbol
_atom_site_label
_atom_site_fract_x
_atom_site_fract_y
_atom_site_fract_z
Si Si1 0.311581 0.164539 0.377126
Si Si2 0.259690 0.994221 0.543161
Si Si3 0.135913 0.637701 0.243723
Si Si4 0.701970 0.356564 0.289301
Si Si5 0.710919 0.780617 0.918207
Si Si6 0.290172 0.387018 0.850557
Si Si7 0.017525 0.444120 0.407613
Si Si8 0.251777 0.470624 0.969256
O O1 0.403133 0.228217 0.417859
O O2 0.437363 0.247609 0.168887
O O3 0.945431 0.055185 0.506307
O O4 0.438575 0.117094 0.421311
O O5 0.036199 0.910798 0.755648
O O6 0.500000 0.000000 0.500000
O O7 0.033750 0.534998 0.308564
O O8 0.898443 0.635274 0.223604
O O9 0.142328 0.632950 0.385211
O O10 0.478473 0.749521 0.058025
O O11 0.621084 0.418694 0.211529
O O12 0.810270 0.365838 0.400297
O O13 0.952521 0.401469 0.135274
O O14 0.776437 0.715017 0.013159
O O15 0.648097 0.498480 0.687058
O O16 0.167670 0.395917 0.955282
O O17 0.500000 0.500000 0.000000
#
# Coordination Sequence:
#
# PCOD8002028 Si02
#       8
#     2   2   2   2   2   2   2   2
#     4   9  20  34  52  76 104 127 161 208 265 310
#     4   9  20  35  53  77 103 124 164 214 261 314
#     4  10  20  35  52  68 108 140 179 215 234 296
#     4  11  21  32  49  74 107 138 167 204 253 307
#     4   9  20  32  54  79  98 133 173 203 266 298
#     4  11  19  32  52  75 105 144 171 208 242 299
#     4  10  21  35  47  76 103 145 179 204 246 285
#     4  11  21  30  47  75 110 139 164 198 251 309
#
# _framework density 16.735120999999999
#
# number of rings (size 3 to 8) (size 9 to 14) (size 15 to 20)
#    0.750    1.250    2.500    1.875    7.000    0.000 
#    0.000    0.000    0.000    0.750    0.000    1.750 
#    0.000    0.000    0.000    0.000    0.000    0.000 
#
# Total GULP energy -198319.564134 kJ/mol
# GULP energy per Si atom -12394.972758 kJ/mol
# Density = 1.669703 g / cm^3
# Si number density = 16.735121 Si / 1000 Ang^3
#
#
#
# Elastic Constant Matrix: (Units=GPa)
#
#
# Indices 1 2 3 4 5 6 
#
# 1 108.3159 29.0544 39.0647 2.7620 16.0660 -0.0482
# 2 29.0544 80.9562 35.2436 4.5245 7.2625 3.2179
# 3 39.0647 35.2436 79.7960 10.3343 5.0154 6.0513
# 4 2.7620 4.5245 10.3343 22.4675 -3.1735 -0.1226
# 5 16.0660 7.2625 5.0154 -3.1735 24.3081 -0.5298
# 6 -0.0482 3.2179 6.0513 -0.1226 -0.5298 16.5874
#
#
#
# Elastic Compliance Matrix: (Units=1/GPa)
#
#
# Indices 1 2 3 4 5 6 
#
# 1 0.012531 -0.001767 -0.005125 0.000249 -0.006620 0.002039
# 2 -0.001767 0.015810 -0.005799 -0.000653 -0.002467 -0.001040
# 3 -0.005125 -0.005799 0.018929 -0.006915 0.000184 -0.005841
# 4 0.000249 -0.000653 -0.006915 0.048926 0.007916 0.003264
# 5 -0.006620 -0.002467 0.000184 0.007916 0.047289 0.001961
# 6 0.002039 -0.001040 -0.005841 0.003264 0.001961 0.062712
#
#
# Mechanical properties :
#
#
# Convention : Reuss Voigt Hill
#
# Bulk Modulus (GPa) = 45.68773 52.86595 49.27684
# Shear Modulus (GPa) = 20.93128 23.71963 22.32546
#
# Velocity S-wave (km/s) = 3.54042 3.76886 3.65642
# Velocity P-wave (km/s) = 6.63871 7.11319 6.88004
#
# Compressibility (1/GPa) = 0.02188771
#
# Stress axis : x y z
#
# Youngs Moduli (GPa) = 79.80149 63.24927 52.82863
#
# Poissons Ratio (x) = 0.11178 0.27074
# Poissons Ratio (y) = 0.14103 0.30637
# Poissons Ratio (z) = 0.40898 0.36680
#
# Static dielectric constant tensor:
#      x y z
#    x 3.299370 -0.013180 0.097070 
#    y -0.013180 2.973810 0.007960 
#    z 0.097070 0.007960 3.094000 
# 
# 
# High freq. dielectric constant tensor:
#      x y z
#    x 1.662020 0.000280 0.010000 
#    y 0.000280 1.614560 0.001170 
#    z 0.010000 0.001170 1.626790 
# 
# From -- ./inp_files/370400.got.cif
#   From: 2010.06.25/outbox.cif.g09.slc.cpg/sg2_186_cif.got.tgz:370400.got - 2010.06.27 13:26:56.
