data_PCOD8002784
_publ_section_title
;
Structure prediction by ZEFSAII (Michael W. Deem and Ramdas Pophale) SiO2 
 PCOD8002784
Probable space group: P -1
;
_chemical_formula_sum "Si O2"
_cell_formula_units_Z 14
_cell_length_a 11.062275
_cell_length_b 6.935141
_cell_length_c 18.699291
_cell_angle_alpha 136.382866
_cell_angle_beta 135.013399
_cell_angle_gamma 62.744377
_cell_volume 695.292171
_symmetry_space_group_name_H-M "P -1"
_symmetry_group_IT_number 2
_symmetry_cell_setting 'triclinic'
loop_
_space_group_symop_operation_xyz
x,y,z
-x,-y,-z
loop_
_atom_site_type_symbol
_atom_site_label
_atom_site_fract_x
_atom_site_fract_y
_atom_site_fract_z
Si Si1 0.848090 0.784430 0.608525
Si Si2 0.388552 0.366011 0.652941
Si Si3 0.113390 0.228327 0.766498
Si Si4 0.636752 0.092603 0.140940
Si Si5 0.236213 0.747836 0.197719
Si Si6 0.977636 0.307301 0.046167
Si Si7 0.115504 0.424504 0.663565
O O1 0.665890 0.704652 0.470565
O O2 0.922413 0.485859 0.576402
O O3 0.821636 0.964126 0.716874
O O4 0.974025 0.969664 0.657378
O O5 0.435632 0.701402 0.775155
O O6 0.557068 0.219849 0.704099
O O7 0.222199 0.262657 0.605945
O O8 0.074474 0.524250 0.861398
O O9 0.115928 0.242770 0.686136
O O10 0.298454 0.168315 0.859547
O O11 0.790789 0.257722 0.202888
O O12 0.500000 0.000000 0.000000
O O13 0.153395 0.471718 0.132070
O O14 0.174636 0.714697 0.081573
O O15 0.000000 0.000000 0.000000
#
# Coordination Sequence:
#
# PCOD8002784 Si02
#       7
#     2   2   2   2   2   2   2
#     4  10  20  39  59  80 115 152 192 228 277 335
#     4  10  21  38  57  87 114 149 187 235 281 327
#     4  10  20  36  59  83 110 154 186 229 280 334
#     4   9  20  36  53  81 117 140 183 231 279 329
#     4  10  21  39  60  82 115 147 188 237 277 332
#     4  10  21  38  61  83 111 150 190 227 286 339
#     4   9  21  36  58  83 115 149 187 228 279 335
#
# _framework density 20.135418999999999
#
# number of rings (size 3 to 8) (size 9 to 14) (size 15 to 20)
#    0.857    1.429    0.000    2.571    0.000    4.571 
#    2.571    0.000    0.000    5.143    0.000    0.000 
#    0.000    0.000    0.000    0.000    0.000    0.000 
#
# Total GULP energy -173495.699381 kJ/mol
# GULP energy per Si atom -12392.549956 kJ/mol
# Density = 2.008959 g / cm^3
# Si number density = 20.135419 Si / 1000 Ang^3
#
#
#
# Elastic Constant Matrix: (Units=GPa)
#
#
# Indices 1 2 3 4 5 6 
#
# 1 63.1603 26.0639 7.1496 -10.4921 -2.1966 -13.2380
# 2 26.0639 100.5499 12.1760 -15.8933 7.5123 -3.9451
# 3 7.1496 12.1760 93.4513 -20.4184 0.2474 -3.9430
# 4 -10.4921 -15.8933 -20.4184 33.0237 -8.0579 2.0980
# 5 -2.1966 7.5123 0.2474 -8.0579 21.1683 -10.1209
# 6 -13.2380 -3.9451 -3.9430 2.0980 -10.1209 27.0262
#
#
#
# Elastic Compliance Matrix: (Units=1/GPa)
#
#
# Indices 1 2 3 4 5 6 
#
# 1 0.023042 -0.005334 0.001349 0.008224 0.014875 0.015637
# 2 -0.005334 0.012099 -0.000726 0.002569 -0.005374 -0.003164
# 3 0.001349 -0.000726 0.012830 0.009121 0.005532 0.003790
# 4 0.008224 0.002569 0.009121 0.044408 0.021722 0.010421
# 5 0.014875 -0.005374 0.005532 0.021722 0.075014 0.033714
# 6 0.015637 -0.003164 0.003790 0.010421 0.033714 0.056568
#
#
# Mechanical properties :
#
#
# Convention : Reuss Voigt Hill
#
# Bulk Modulus (GPa) = 25.94060 38.66007 32.30033
# Shear Modulus (GPa) = 20.30588 30.36177 25.33382
#
# Velocity S-wave (km/s) = 3.17908 3.88735 3.55092
# Velocity P-wave (km/s) = 5.13677 6.27618 5.73484
#
# Compressibility (1/GPa) = 0.03854961
#
# Stress axis : x y z
#
# Youngs Moduli (GPa) = 43.39896 82.64908 77.94035
#
# Poissons Ratio (x) = 0.44086 -0.10517
# Poissons Ratio (y) = 0.23150 0.05661
# Poissons Ratio (z) = -0.05856 0.06003
#
# Static dielectric constant tensor:
#      x y z
#    x 3.542930 -0.180350 -0.038890 
#    y -0.180350 3.547390 -0.087900 
#    z -0.038890 -0.087900 3.569920 
# 
# 
# High freq. dielectric constant tensor:
#      x y z
#    x 1.763920 -0.016420 -0.012140 
#    y -0.016420 1.778640 -0.009510 
#    z -0.012140 -0.009510 1.793080 
# 
# From -- ./inp_files/564597.got.cif
#   From: 2010.06.25/outbox.cif.g09.slc.cpg/sg2_283_cif.got.tgz:564597.got - 2010.06.27 13:26:56.
