data_PCOD8002084
_publ_section_title
;
Structure prediction by ZEFSAII (Michael W. Deem and Ramdas Pophale) SiO2 
 PCOD8002084
Probable space group: P -1
;
_chemical_formula_sum "Si O2"
_cell_formula_units_Z 16
_cell_length_a 12.511224
_cell_length_b 18.055449
_cell_length_c 14.620250
_cell_angle_alpha 119.008674
_cell_angle_beta 18.880060
_cell_angle_gamma 111.804281
_cell_volume 888.921254
_symmetry_space_group_name_H-M "P -1"
_symmetry_group_IT_number 2
_symmetry_cell_setting 'triclinic'
loop_
_space_group_symop_operation_xyz
x,y,z
-x,-y,-z
loop_
_atom_site_type_symbol
_atom_site_label
_atom_site_fract_x
_atom_site_fract_y
_atom_site_fract_z
Si Si1 0.686081 0.180360 0.476712
Si Si2 0.942723 0.014956 0.895752
Si Si3 0.640237 0.868100 0.450124
Si Si4 0.845503 0.174910 0.836147
Si Si5 0.440850 0.059749 0.172637
Si Si6 0.621729 0.689862 0.834071
Si Si7 0.421081 0.600081 0.092910
Si Si8 0.290830 0.255666 0.016643
O O1 0.386287 0.196156 0.651275
O O2 0.901438 0.249139 0.323157
O O3 0.528795 0.189075 0.711013
O O4 0.916906 0.077734 0.220248
O O5 0.242112 0.047903 0.627354
O O6 0.743575 0.091142 0.173515
O O7 0.678702 0.001219 0.024275
O O8 0.889252 0.810104 0.293003
O O9 0.046483 0.099370 0.553699
O O10 0.555720 0.145511 0.106870
O O11 0.641783 0.267873 0.008743
O O12 0.500000 0.000000 0.000000
O O13 0.577963 0.764460 0.995797
O O14 0.019427 0.656433 0.461526
O O15 0.516990 0.606185 0.911394
O O16 0.500000 0.500000 0.000000
O O17 0.671052 0.645561 0.975753
#
# Coordination Sequence:
#
# PCOD8002084 Si02
#       8
#     2   2   2   2   2   2   2   2
#     4  12  20  34  54  73 107 135 182 228 255 300
#     4  10  21  33  48  71 100 142 189 224 261 292
#     4  10  21  37  49  72  99 149 186 220 255 289
#     4  10  21  35  49  71 105 133 178 217 244 317
#     4  10  21  30  47  69 101 140 176 218 267 296
#     4  10  20  35  55  79 110 130 166 203 265 309
#     4  10  20  37  57  84 113 129 158 200 264 338
#     4  10  22  32  52  85 101 132 165 208 277 301
#
# _framework density 17.999344000000001
#
# number of rings (size 3 to 8) (size 9 to 14) (size 15 to 20)
#    0.750    1.000    1.250    3.750    3.500    0.000 
#    0.000    0.000    0.000    0.000    0.000    5.250 
#    0.000    0.000    0.000    0.000    0.000    0.000 
#
# Total GULP energy -198233.385334 kJ/mol
# GULP energy per Si atom -12389.586583 kJ/mol
# Density = 1.795838 g / cm^3
# Si number density = 17.999344 Si / 1000 Ang^3
#
#
#
# Elastic Constant Matrix: (Units=GPa)
#
#
# Indices 1 2 3 4 5 6 
#
# 1 88.9942 34.8204 33.3190 3.1707 -14.2887 -2.4163
# 2 34.8204 76.9376 23.9438 -4.1897 -14.5502 -4.7018
# 3 33.3190 23.9438 70.4946 -11.3860 -1.4160 -1.8552
# 4 3.1707 -4.1897 -11.3860 23.4639 -9.1492 1.4298
# 5 -14.2887 -14.5502 -1.4160 -9.1492 24.3843 -3.2968
# 6 -2.4163 -4.7018 -1.8552 1.4298 -3.2968 19.1222
#
#
#
# Elastic Compliance Matrix: (Units=1/GPa)
#
#
# Indices 1 2 3 4 5 6 
#
# 1 0.016629 -0.004558 -0.006893 -0.004493 0.005145 0.001535
# 2 -0.004558 0.018829 -0.002755 0.006881 0.011701 0.005289
# 3 -0.006893 -0.002755 0.019927 0.009779 -0.000925 -0.000506
# 4 -0.004493 0.006881 0.009779 0.058546 0.024262 0.001878
# 5 0.005145 0.011701 -0.000925 0.024262 0.061715 0.012263
# 6 0.001535 0.005289 -0.000506 0.001878 0.012263 0.055714
#
#
# Mechanical properties :
#
#
# Convention : Reuss Voigt Hill
#
# Bulk Modulus (GPa) = 37.07673 46.73255 41.90464
# Shear Modulus (GPa) = 18.60369 23.01697 20.81033
#
# Velocity S-wave (km/s) = 3.21842 3.57986 3.40394
# Velocity P-wave (km/s) = 5.86980 6.56560 6.22743
#
# Compressibility (1/GPa) = 0.02697109
#
# Stress axis : x y z
#
# Youngs Moduli (GPa) = 60.13601 53.10994 50.18328
#
# Poissons Ratio (x) = 0.24210 0.34593
# Poissons Ratio (y) = 0.27413 0.13826
# Poissons Ratio (z) = 0.41454 0.14632
#
# Static dielectric constant tensor:
#      x y z
#    x 3.500410 -0.108230 0.074220 
#    y -0.108230 3.104000 -0.374950 
#    z 0.074220 -0.374950 3.293040 
# 
# 
# High freq. dielectric constant tensor:
#      x y z
#    x 1.697300 -0.013550 0.010620 
#    y -0.013550 1.666260 -0.039310 
#    z 0.010620 -0.039310 1.690750 
# 
# From -- ./inp_files/100798.got.cif
#   From: 2010.06.25/outbox.cif.g09.slc.cpg/sg2_51_cif.got.tgz:100798.got - 2010.06.27 13:26:56.
