data_PCOD8002525
_publ_section_title
;
Structure prediction by ZEFSAII (Michael W. Deem and Ramdas Pophale) SiO2 
 PCOD8002525
Probable space group: P -1
;
_chemical_formula_sum "Si O2"
_cell_formula_units_Z 16
_cell_length_a 8.261035
_cell_length_b 5.086345
_cell_length_c 18.114356
_cell_angle_alpha 88.124482
_cell_angle_beta 71.187096
_cell_angle_gamma 80.889951
_cell_volume 711.250220
_symmetry_space_group_name_H-M "P -1"
_symmetry_group_IT_number 2
_symmetry_cell_setting 'triclinic'
loop_
_space_group_symop_operation_xyz
x,y,z
-x,-y,-z
loop_
_atom_site_type_symbol
_atom_site_label
_atom_site_fract_x
_atom_site_fract_y
_atom_site_fract_z
Si Si1 0.105326 0.536846 0.057090
Si Si2 0.690708 0.989723 0.777861
Si Si3 0.003516 0.387572 0.323361
Si Si4 0.105038 0.723341 0.508951
Si Si5 0.819510 0.680594 0.213797
Si Si6 0.679131 0.400154 0.651497
Si Si7 0.684755 0.035978 0.941881
Si Si8 0.594259 0.250041 0.237573
O O1 0.242903 0.740195 0.021240
O O2 0.981769 0.683983 0.136880
O O3 0.194252 0.248583 0.072825
O O4 0.000000 0.500000 0.000000
O O5 0.624586 0.175293 0.715836
O O6 0.676194 0.139739 0.857161
O O7 0.889568 0.853894 0.737221
O O8 0.550579 0.783007 0.803332
O O9 0.141565 0.537029 0.342442
O O10 0.877169 0.285903 0.404446
O O11 0.879655 0.581667 0.286942
O O12 0.288671 0.690454 0.437872
O O13 0.000000 0.500000 0.500000
O O14 0.000000 0.000000 0.500000
O O15 0.701898 0.481827 0.195318
O O16 0.723037 0.979515 0.236093
O O17 0.521035 0.647390 0.673545
O O18 0.500000 0.000000 0.000000
#
# Coordination Sequence:
#
# PCOD8002525 Si02
#       8
#     2   2   2   2   2   2   2   2
#     4  12  28  48  70 100 140 178 218 281 343 408
#     4  11  22  43  70  95 133 173 230 275 329 395
#     4  10  22  39  68  97 129 170 225 281 325 393
#     4  10  20  35  64  99 129 167 218 281 333 383
#     4  12  25  44  66  96 134 177 229 261 345 401
#     4  10  21  42  67  99 131 173 229 271 334 393
#     4  12  28  46  72 104 135 174 228 280 338 398
#     4  11  26  40  66  94 135 181 220 274 329 404
#
# _framework density 22.495598000000001
#
# number of rings (size 3 to 8) (size 9 to 14) (size 15 to 20)
#    0.000    1.000    3.750    2.250    7.000    0.000 
#    0.000    1.250    0.000    0.000    0.000    0.000 
#    0.000    0.000    0.000    0.000    0.000    0.000 
#
# Total GULP energy -198325.044395 kJ/mol
# GULP energy per Si atom -12395.315275 kJ/mol
# Density = 2.244440 g / cm^3
# Si number density = 22.495598 Si / 1000 Ang^3
#
#
#
# Elastic Constant Matrix: (Units=GPa)
#
#
# Indices 1 2 3 4 5 6 
#
# 1 83.3799 24.4726 33.2483 0.1454 -9.0606 10.9147
# 2 24.4726 133.0353 31.1789 10.1902 -11.0060 -6.7504
# 3 33.2483 31.1789 143.4153 -0.2257 -7.1930 -7.4489
# 4 0.1454 10.1902 -0.2257 28.2715 -0.4691 -7.0988
# 5 -9.0606 -11.0060 -7.1930 -0.4691 19.5326 2.0744
# 6 10.9147 -6.7504 -7.4489 -7.0988 2.0744 44.2062
#
#
#
# Elastic Compliance Matrix: (Units=1/GPa)
#
#
# Indices 1 2 3 4 5 6 
#
# 1 0.014948 -0.001795 -0.003061 -0.000577 0.005294 -0.004822
# 2 -0.001795 0.008691 -0.001257 -0.002840 0.003433 0.000941
# 3 -0.003061 -0.001257 0.008098 0.001064 0.000660 0.002068
# 4 -0.000577 -0.002840 0.001064 0.037901 -0.001207 0.006031
# 5 0.005294 0.003433 0.000660 -0.001207 0.056173 -0.003501
# 6 -0.004822 0.000941 0.002068 0.006031 -0.003501 0.025437
#
#
# Mechanical properties :
#
#
# Convention : Reuss Voigt Hill
#
# Bulk Modulus (GPa) = 51.25180 59.73670 55.49425
# Shear Modulus (GPa) = 29.41590 36.46410 32.94000
#
# Velocity S-wave (km/s) = 3.62004 4.03046 3.83075
# Velocity P-wave (km/s) = 6.34865 6.94780 6.65498
#
# Compressibility (1/GPa) = 0.01951151
#
# Stress axis : x y z
#
# Youngs Moduli (GPa) = 66.89778 115.06348 123.49000
#
# Poissons Ratio (x) = 0.20653 0.37802
# Poissons Ratio (y) = 0.12007 0.15519
# Poissons Ratio (z) = 0.20478 0.14460
#
# Static dielectric constant tensor:
#      x y z
#    x 4.084900 0.060910 -0.270250 
#    y 0.060910 4.226800 0.054720 
#    z -0.270250 0.054720 4.478590 
# 
# 
# High freq. dielectric constant tensor:
#      x y z
#    x 1.875010 0.005360 -0.018040 
#    y 0.005360 1.895330 0.011210 
#    z -0.018040 0.011210 1.887580 
# 
# From -- ./inp_files/552672.got.cif
#   From: 2010.06.25/outbox.cif.g09.slc.cpg/sg2_277_cif.got.tgz:552672.got - 2010.06.27 13:26:56.
