data_PCOD8002131
_publ_section_title
;
Structure prediction by ZEFSAII (Michael W. Deem and Ramdas Pophale) SiO2 
 PCOD8002131
Probable space group: P -1
;
_chemical_formula_sum "Si O2"
_cell_formula_units_Z 16
_cell_length_a 22.419550
_cell_length_b 10.016159
_cell_length_c 16.344790
_cell_angle_alpha 137.344320
_cell_angle_beta 19.395482
_cell_angle_gamma 135.311562
_cell_volume 823.470978
_symmetry_space_group_name_H-M "P -1"
_symmetry_group_IT_number 2
_symmetry_cell_setting 'triclinic'
loop_
_space_group_symop_operation_xyz
x,y,z
-x,-y,-z
loop_
_atom_site_type_symbol
_atom_site_label
_atom_site_fract_x
_atom_site_fract_y
_atom_site_fract_z
Si Si1 0.092537 0.299105 0.786403
Si Si2 0.171534 0.454367 0.205432
Si Si3 0.448688 0.299104 0.430253
Si Si4 0.299973 0.209812 0.325450
Si Si5 0.471100 0.545632 0.151933
Si Si6 0.282344 0.943916 0.583366
Si Si7 0.930154 0.943917 0.935556
Si Si8 0.658994 0.209813 0.966428
O O1 0.273273 0.325999 0.616453
O O2 0.132983 0.250351 0.617919
O O3 0.959138 0.124837 0.916946
O O4 0.000000 0.500000 0.000000
O O5 0.148279 0.243381 0.097705
O O6 0.198722 0.619643 0.174231
O O7 0.000000 0.500000 0.500000
O O8 0.340316 0.461687 0.050212
O O9 0.500000 0.500000 0.500000
O O10 0.413531 0.124836 0.462554
O O11 0.615565 0.250348 0.135335
O O12 0.324985 0.380356 0.302061
O O13 0.254550 1.000000 0.245450
O O14 0.478316 0.203116 0.144926
O O15 0.396864 0.756618 0.357152
O O16 0.500000 0.500000 0.000000
O O17 0.116369 0.894393 0.714459
O O18 0.215159 1.000000 0.784841
#
# Coordination Sequence:
#
# PCOD8002131 Si02
#       8
#     2   2   2   2   2   2   2   2
#     4  10  20  35  56  80 108 142 178 219 266 318
#     4  11  22  36  57  82 109 143 183 227 273 323
#     4  10  20  35  56  80 108 142 178 219 266 318
#     4   9  18  34  55  77 103 139 180 218 261 316
#     4  11  22  36  57  82 109 143 183 227 273 323
#     4  10  21  37  57  82 113 146 179 221 273 324
#     4  10  21  37  57  82 113 146 179 221 273 324
#     4   9  18  34  55  77 103 139 180 218 261 316
#
# _framework density 19.429950000000002
#
# number of rings (size 3 to 8) (size 9 to 14) (size 15 to 20)
#    0.000    2.000    0.000    3.750    0.000    5.500 
#    0.000    1.250    0.000    5.250    0.000    0.000 
#    0.000    0.000    0.000    0.000    0.000    0.000 
#
# Total GULP energy -198458.926092 kJ/mol
# GULP energy per Si atom -12403.682881 kJ/mol
# Density = 1.938573 g / cm^3
# Si number density = 19.429950 Si / 1000 Ang^3
#
#
#
# Elastic Constant Matrix: (Units=GPa)
#
#
# Indices 1 2 3 4 5 6 
#
# 1 84.6444 69.7989 50.1672 -5.2578 35.3767 -0.7452
# 2 69.7989 200.6274 88.1310 0.8155 32.0178 -8.1077
# 3 50.1672 88.1310 137.4726 3.5303 40.9237 -13.8570
# 4 -5.2578 0.8155 3.5303 40.2871 -5.1738 6.9977
# 5 35.3767 32.0178 40.9237 -5.1738 40.9238 -0.6957
# 6 -0.7452 -8.1077 -13.8570 6.9977 -0.6957 37.4949
#
#
#
# Elastic Compliance Matrix: (Units=1/GPa)
#
#
# Indices 1 2 3 4 5 6 
#
# 1 0.022898 -0.005367 -0.000738 0.001542 -0.014689 -0.001538
# 2 -0.005367 0.008253 -0.003900 -0.000321 0.002047 0.000335
# 3 -0.000738 -0.003900 0.013669 -0.003345 -0.010325 0.004626
# 4 0.001542 -0.000321 -0.003345 0.027123 0.005585 -0.006233
# 5 -0.014689 0.002047 -0.010325 0.005585 0.046498 -0.003845
# 6 -0.001538 0.000335 0.004626 -0.006233 -0.003845 0.029514
#
#
# Mechanical properties :
#
#
# Convention : Reuss Voigt Hill
#
# Bulk Modulus (GPa) = 40.30271 93.21539 66.75905
# Shear Modulus (GPa) = 28.37167 38.05097 33.21132
#
# Velocity S-wave (km/s) = 3.82541 4.43014 4.13883
# Velocity P-wave (km/s) = 6.34817 8.61670 7.56792
#
# Compressibility (1/GPa) = 0.02481223
#
# Stress axis : x y z
#
# Youngs Moduli (GPa) = 43.67145 121.17515 73.15800
#
# Poissons Ratio (x) = 0.65029 0.05396
# Poissons Ratio (y) = 0.23436 0.28529
# Poissons Ratio (z) = 0.03221 0.47254
#
# Static dielectric constant tensor:
#      x y z
#    x 3.161310 -0.018140 -0.117160 
#    y -0.018140 3.710050 0.036070 
#    z -0.117160 0.036070 3.085000 
# 
# 
# High freq. dielectric constant tensor:
#      x y z
#    x 1.744750 -0.004420 0.025370 
#    y -0.004420 1.775770 0.000360 
#    z 0.025370 0.000360 1.761570 
# 
# From -- ./inp_files/207119.got.cif
#   From: 2010.06.25/outbox.cif.g09.slc.cpg/sg2_104_cif.got.tgz:207119.got - 2010.06.27 13:26:56.
