data_PCOD8002781
_publ_section_title
;
Structure prediction by ZEFSAII (Michael W. Deem and Ramdas Pophale) SiO2 
 PCOD8002781
Probable space group: P -1
;
_chemical_formula_sum "Si O2"
_cell_formula_units_Z 16
_cell_length_a 10.685377
_cell_length_b 11.153655
_cell_length_c 13.431606
_cell_angle_alpha 146.630348
_cell_angle_beta 74.709094
_cell_angle_gamma 109.133137
_cell_volume 831.703947
_symmetry_space_group_name_H-M "P -1"
_symmetry_group_IT_number 2
_symmetry_cell_setting 'triclinic'
loop_
_space_group_symop_operation_xyz
x,y,z
-x,-y,-z
loop_
_atom_site_type_symbol
_atom_site_label
_atom_site_fract_x
_atom_site_fract_y
_atom_site_fract_z
Si Si1 0.867521 0.667123 0.279331
Si Si2 0.805142 0.600863 0.724550
Si Si3 0.678285 0.431590 0.989675
Si Si4 0.079872 0.576423 0.719539
Si Si5 0.379662 0.300252 0.001356
Si Si6 0.066521 0.134941 0.295012
Si Si7 0.207577 0.841749 0.701367
Si Si8 0.142944 0.908037 0.304139
O O1 0.772804 0.597651 0.158243
O O2 0.866501 0.450838 0.199608
O O3 0.016852 0.750213 0.269664
O O4 0.816283 0.862183 0.484367
O O5 0.829771 0.788024 0.762455
O O6 0.773554 0.354374 0.513005
O O7 0.935971 0.642568 0.795944
O O8 0.680194 0.634482 0.837395
O O9 0.667414 0.559402 0.979049
O O10 0.537033 0.355147 0.018920
O O11 0.734177 0.212970 0.800240
O O12 0.056622 0.340363 0.508401
O O13 0.186498 0.752553 0.757443
O O14 0.336291 0.037288 0.805495
O O15 0.918506 0.050455 0.225682
O O16 0.112324 0.946785 0.221223
#
# Coordination Sequence:
#
# PCOD8002781 Si02
#       8
#     2   2   2   2   2   2   2   2
#     4  10  20  36  59  83 107 137 171 215 273 318
#     4   9  18  35  57  81 110 138 171 220 263 305
#     4  11  25  39  51  76 110 138 180 227 252 307
#     4   8  16  32  57  87 109 131 173 221 265 312
#     4  11  24  38  53  75 102 146 190 209 255 322
#     4   8  16  32  57  87 109 131 173 221 265 312
#     4   9  18  35  57  81 110 138 171 220 263 305
#     4  10  20  36  59  83 107 137 171 215 273 318
#
# _framework density 19.237615000000002
#
# number of rings (size 3 to 8) (size 9 to 14) (size 15 to 20)
#    0.000    2.500    0.000    3.375    0.000    8.000 
#    0.000    5.000    0.000    4.500    0.000    0.000 
#    0.000    0.000    0.000    0.000    0.000    0.000 
#
# Total GULP energy -198387.200237 kJ/mol
# GULP energy per Si atom -12399.200015 kJ/mol
# Density = 1.919383 g / cm^3
# Si number density = 19.237615 Si / 1000 Ang^3
#
#
#
# Elastic Constant Matrix: (Units=GPa)
#
#
# Indices 1 2 3 4 5 6 
#
# 1 52.2848 21.5360 23.7675 -11.6715 -19.4490 -3.2312
# 2 21.5360 86.5101 18.9799 -10.9387 -14.9625 -5.8289
# 3 23.7675 18.9799 71.6955 -15.0001 -7.2881 1.6624
# 4 -11.6715 -10.9387 -15.0001 27.5348 2.7877 -5.1753
# 5 -19.4490 -14.9625 -7.2881 2.7877 18.7821 1.4810
# 6 -3.2312 -5.8289 1.6624 -5.1753 1.4810 30.5577
#
#
#
# Elastic Compliance Matrix: (Units=1/GPa)
#
#
# Indices 1 2 3 4 5 6 
#
# 1 0.037473 -0.000460 -0.007010 0.009222 0.034020 0.004169
# 2 -0.000460 0.014455 -0.001924 0.004118 0.009441 0.003053
# 3 -0.007010 -0.001924 0.017794 0.006060 -0.002714 -0.000918
# 4 0.009222 0.004118 0.006060 0.046055 0.007647 0.008860
# 5 0.034020 0.009441 -0.002714 0.007647 0.093621 0.002303
# 6 0.004169 0.003053 -0.000918 0.008860 0.002303 0.035187
#
#
# Mechanical properties :
#
#
# Convention : Reuss Voigt Hill
#
# Bulk Modulus (GPa) = 19.63266 37.67301 28.65283
# Shear Modulus (GPa) = 17.83478 25.12207 21.47843
#
# Velocity S-wave (km/s) = 3.04810 3.61762 3.34500
# Velocity P-wave (km/s) = 4.75556 6.08893 5.46308
#
# Compressibility (1/GPa) = 0.05093554
#
# Stress axis : x y z
#
# Youngs Moduli (GPa) = 26.68594 69.17968 56.19765
#
# Poissons Ratio (x) = 0.03181 0.39393
# Poissons Ratio (y) = 0.01227 0.10812
# Poissons Ratio (z) = 0.18706 0.13309
#
# Static dielectric constant tensor:
#      x y z
#    x 3.426630 -0.314820 -0.040890 
#    y -0.314820 3.946580 0.029460 
#    z -0.040890 0.029460 3.407070 
# 
# 
# High freq. dielectric constant tensor:
#      x y z
#    x 1.717450 -0.010190 -0.000830 
#    y -0.010190 1.762890 0.000320 
#    z -0.000830 0.000320 1.750950 
# 
# From -- ./inp_files/310949.got.cif
#   From: 2010.06.25/outbox.cif.g09.slc.cpg/sg2_156_cif.got.tgz:310949.got - 2010.06.27 13:26:56.
