data_PCOD8002736
_publ_section_title
;
Structure prediction by ZEFSAII (Michael W. Deem and Ramdas Pophale) SiO2 
 PCOD8002736
Probable space group: P -1
;
_chemical_formula_sum "Si O2"
_cell_formula_units_Z 16
_cell_length_a 14.990923
_cell_length_b 14.562587
_cell_length_c 15.150576
_cell_angle_alpha 151.130431
_cell_angle_beta 36.485031
_cell_angle_gamma 152.780777
_cell_volume 725.622051
_symmetry_space_group_name_H-M "P -1"
_symmetry_group_IT_number 2
_symmetry_cell_setting 'triclinic'
loop_
_space_group_symop_operation_xyz
x,y,z
-x,-y,-z
loop_
_atom_site_type_symbol
_atom_site_label
_atom_site_fract_x
_atom_site_fract_y
_atom_site_fract_z
Si Si1 0.235662 0.882510 0.628532
Si Si2 0.116157 0.200569 0.499639
Si Si3 0.993931 0.276765 0.492540
Si Si4 0.590687 0.828529 0.857228
Si Si5 0.618143 0.390580 0.770450
Si Si6 0.018173 0.307519 0.165341
Si Si7 0.791065 0.372087 0.102842
Si Si8 0.735647 0.768805 0.858820
O O1 0.306939 0.723649 0.445486
O O2 0.044311 0.748408 0.728466
O O3 0.190266 0.893980 0.571554
O O4 0.393517 0.156880 0.775756
O O5 0.963458 0.126487 0.479250
O O6 0.302393 0.232092 0.344588
O O7 0.197355 0.464638 0.692372
O O8 0.000000 0.000000 0.500000
O O9 0.032939 0.529820 0.699762
O O10 0.185520 0.351417 0.355639
O O11 0.363003 0.675303 0.886652
O O12 0.589775 0.760451 0.902318
O O13 0.712530 0.121019 0.000855
O O14 0.618929 0.592440 0.887528
O O15 0.745626 0.521459 0.869356
O O16 0.919062 0.056691 0.979204
O O17 0.000000 0.500000 0.000000
#
# Coordination Sequence:
#
# PCOD8002736 Si02
#       8
#     2   2   2   2   2   2   2   2
#     4  10  20  37  60  84 121 165 198 247 303 360
#     4  11  22  40  68  95 123 169 210 260 323 376
#     4  10  21  39  60  86 124 159 204 255 306 363
#     4  10  24  42  64  95 127 163 213 258 319 377
#     4  10  20  36  58  86 119 162 204 244 297 360
#     4  11  20  39  61  84 125 164 198 246 311 352
#     4  11  22  44  67  89 125 166 204 266 319 377
#     4  11  21  38  61  91 120 159 204 254 300 368
#
# _framework density 22.050045999999998
#
# number of rings (size 3 to 8) (size 9 to 14) (size 15 to 20)
#    0.000    1.500    3.750    2.250    0.000    1.500 
#    0.000    3.750    0.000    0.000    0.000    0.000 
#    0.000    0.000    0.000    0.000    0.000    0.000 
#
# Total GULP energy -198339.947609 kJ/mol
# GULP energy per Si atom -12396.246726 kJ/mol
# Density = 2.199986 g / cm^3
# Si number density = 22.050046 Si / 1000 Ang^3
#
#
#
# Elastic Constant Matrix: (Units=GPa)
#
#
# Indices 1 2 3 4 5 6 
#
# 1 147.3164 43.1940 31.3152 13.1354 -18.7373 -2.8111
# 2 43.1940 72.7732 18.3256 13.6588 -9.3946 15.5598
# 3 31.3152 18.3256 106.6705 13.7840 -16.1443 4.1274
# 4 13.1354 13.6588 13.7840 20.4203 2.7781 2.4605
# 5 -18.7373 -9.3946 -16.1443 2.7781 26.6179 1.8004
# 6 -2.8111 15.5598 4.1274 2.4605 1.8004 31.6881
#
#
#
# Elastic Compliance Matrix: (Units=1/GPa)
#
#
# Indices 1 2 3 4 5 6 
#
# 1 0.009308 -0.004853 -0.000972 -0.003078 0.004346 0.003327
# 2 -0.004853 0.021740 0.000560 -0.011399 0.006508 -0.010663
# 3 -0.000972 0.000560 0.011921 -0.008649 0.007760 -0.001683
# 4 -0.003078 -0.011399 -0.008649 0.066656 -0.018550 0.002329
# 5 0.004346 0.006508 0.007760 -0.018550 0.049921 -0.005217
# 6 0.003327 -0.010663 -0.001683 0.002329 -0.005217 0.037424
#
#
# Mechanical properties :
#
#
# Convention : Reuss Voigt Hill
#
# Bulk Modulus (GPa) = 30.82625 56.93665 43.88145
# Shear Modulus (GPa) = 22.90290 31.34027 27.12158
#
# Velocity S-wave (km/s) = 3.22635 3.77414 3.51094
# Velocity P-wave (km/s) = 5.28106 6.69849 6.03156
#
# Compressibility (1/GPa) = 0.03243989
#
# Stress axis : x y z
#
# Youngs Moduli (GPa) = 107.43041 45.99820 83.88460
#
# Poissons Ratio (x) = 0.22322 0.08155
# Poissons Ratio (y) = 0.52134 -0.04699
# Poissons Ratio (z) = 0.10445 -0.02577
#
# Static dielectric constant tensor:
#      x y z
#    x 4.231270 0.086700 -0.214370 
#    y 0.086700 3.787390 0.175050 
#    z -0.214370 0.175050 4.105940 
# 
# 
# High freq. dielectric constant tensor:
#      x y z
#    x 1.872480 0.005460 -0.015270 
#    y 0.005460 1.844500 0.013100 
#    z -0.015270 0.013100 1.884580 
# 
# From -- ./inp_files/534522.got.cif
#   From: 2010.06.25/outbox.cif.g09.slc.cpg/sg2_268_cif.got.tgz:534522.got - 2010.06.27 13:26:56.
