data_PCOD8002090
_publ_section_title
;
Structure prediction by ZEFSAII (Michael W. Deem and Ramdas Pophale) SiO2 
 PCOD8002090
Probable space group: P -1
;
_chemical_formula_sum "Si O2"
_cell_formula_units_Z 16
_cell_length_a 8.190682
_cell_length_b 8.376254
_cell_length_c 17.928851
_cell_angle_alpha 117.853512
_cell_angle_beta 95.455496
_cell_angle_gamma 120.751508
_cell_volume 839.507650
_symmetry_space_group_name_H-M "P -1"
_symmetry_group_IT_number 2
_symmetry_cell_setting 'triclinic'
loop_
_space_group_symop_operation_xyz
x,y,z
-x,-y,-z
loop_
_atom_site_type_symbol
_atom_site_label
_atom_site_fract_x
_atom_site_fract_y
_atom_site_fract_z
Si Si1 0.057308 0.716355 0.751855
Si Si2 0.478521 0.434673 0.759907
Si Si3 0.906402 0.912900 0.895698
Si Si4 0.521487 0.936363 0.240101
Si Si5 0.394036 0.031855 0.396196
Si Si6 0.942710 0.655368 0.248153
Si Si7 0.093616 0.715116 0.104305
Si Si8 0.605968 0.345428 0.603813
O O1 0.105600 0.550950 0.748157
O O2 0.021773 0.823455 0.843301
O O3 0.850429 0.576307 0.659282
O O4 0.250964 0.919061 0.755484
O O5 0.654704 0.706410 0.846066
O O6 0.540690 0.296952 0.776614
O O7 0.250974 0.342878 0.755498
O O8 0.478742 0.396020 0.662419
O O9 0.954003 0.121960 0.894959
O O10 0.000000 0.000000 0.000000
O O11 0.345317 0.859599 0.153936
O O12 0.521249 0.092454 0.337586
O O13 0.500007 0.268083 0.500006
O O14 0.405147 0.858716 0.406139
O O15 0.149571 0.907342 0.340735
O O16 0.978285 0.615127 0.156716
O O17 0.000000 0.500000 0.000000
#
# Coordination Sequence:
#
# PCOD8002090 Si02
#       8
#     2   2   2   2   2   2   2   2
#     4  10  20  35  55  80 110 143 180 220 265 315
#     4  10  20  35  55  80 110 143 180 220 265 315
#     4  11  22  38  58  80 107 138 176 220 269 320
#     4  10  20  35  55  80 110 143 180 220 265 315
#     4   8  16  32  53  77 108 144 180 220 264 311
#     4  10  20  35  55  80 110 143 180 220 265 315
#     4  11  22  38  58  80 107 138 176 220 269 320
#     4   8  16  32  53  77 108 144 180 220 264 311
#
# _framework density 19.058790999999999
#
# number of rings (size 3 to 8) (size 9 to 14) (size 15 to 20)
#    0.000    2.250    0.000    5.250    0.000    2.000 
#    0.000    5.000    0.000   25.500    0.000    0.000 
#    0.000    0.000    0.000    0.000    0.000    0.000 
#
# Total GULP energy -198412.499782 kJ/mol
# GULP energy per Si atom -12400.781236 kJ/mol
# Density = 1.901541 g / cm^3
# Si number density = 19.058791 Si / 1000 Ang^3
#
#
#
# Elastic Constant Matrix: (Units=GPa)
#
#
# Indices 1 2 3 4 5 6 
#
# 1 88.7021 13.8354 44.8620 0.3441 4.5397 20.8825
# 2 13.8354 63.2772 29.2137 1.4854 3.1222 12.7594
# 3 44.8620 29.2137 171.5188 -3.5963 4.4647 21.3238
# 4 0.3441 1.4854 -3.5963 18.2459 -3.5037 0.8688
# 5 4.5397 3.1222 4.4647 -3.5037 15.7166 2.9834
# 6 20.8825 12.7594 21.3238 0.8688 2.9834 40.3557
#
#
#
# Elastic Compliance Matrix: (Units=1/GPa)
#
#
# Indices 1 2 3 4 5 6 
#
# 1 0.014242 -0.000526 -0.002915 -0.000994 -0.002365 -0.005467
# 2 -0.000526 0.018001 -0.002425 -0.002226 -0.002490 -0.003906
# 3 -0.002915 -0.002425 0.007241 0.001747 -0.000043 -0.001585
# 4 -0.000994 -0.002226 0.001747 0.058045 0.013544 -0.001956
# 5 -0.002365 -0.002490 -0.000043 0.013544 0.068466 -0.003319
# 6 -0.005467 -0.003906 -0.001585 -0.001956 -0.003319 0.029969
#
#
# Mechanical properties :
#
#
# Convention : Reuss Voigt Hill
#
# Bulk Modulus (GPa) = 36.03341 55.48003 45.75672
# Shear Modulus (GPa) = 23.04731 30.56943 26.80837
#
# Velocity S-wave (km/s) = 3.48124 4.00928 3.75455
# Velocity P-wave (km/s) = 5.92505 7.11376 6.54644
#
# Compressibility (1/GPa) = 0.02775202
#
# Stress axis : x y z
#
# Youngs Moduli (GPa) = 70.21484 55.55377 138.11112
#
# Poissons Ratio (x) = 0.02921 0.40262
# Poissons Ratio (y) = 0.03691 0.33487
# Poissons Ratio (z) = 0.20469 0.13470
#
# Static dielectric constant tensor:
#      x y z
#    x 3.402990 0.021600 0.007650 
#    y 0.021600 3.387680 -0.020390 
#    z 0.007650 -0.020390 3.816680 
# 
# 
# High freq. dielectric constant tensor:
#      x y z
#    x 1.737400 0.004280 0.000690 
#    y 0.004280 1.734250 -0.000380 
#    z 0.000690 -0.000380 1.746290 
# 
# From -- ./inp_files/201820.got.cif
#   From: 2010.06.25/outbox.cif.g09.slc.cpg/sg2_101_cif.got.tgz:201820.got - 2010.06.27 13:26:56.
