data_PCOD8002058
_publ_section_title
;
Structure prediction by ZEFSAII (Michael W. Deem and Ramdas Pophale) SiO2 
 PCOD8002058
Probable space group: P -1
;
_chemical_formula_sum "Si O2"
_cell_formula_units_Z 14
_cell_length_a 15.191810
_cell_length_b 12.927739
_cell_length_c 16.106062
_cell_angle_alpha 49.102593
_cell_angle_beta 128.054754
_cell_angle_gamma 162.028293
_cell_volume 737.457364
_symmetry_space_group_name_H-M "P -1"
_symmetry_group_IT_number 2
_symmetry_cell_setting 'triclinic'
loop_
_space_group_symop_operation_xyz
x,y,z
-x,-y,-z
loop_
_atom_site_type_symbol
_atom_site_label
_atom_site_fract_x
_atom_site_fract_y
_atom_site_fract_z
Si Si1 0.054681 0.409016 0.549220
Si Si2 0.589904 0.848077 0.689263
Si Si3 0.422931 0.390963 0.918003
Si Si4 0.805253 0.594372 0.962142
Si Si5 0.230892 0.641422 0.076254
Si Si6 0.126954 0.619637 0.315667
Si Si7 0.567200 0.073516 0.197121
O O1 0.358713 0.699188 0.605500
O O2 0.063634 0.424303 0.445905
O O3 0.000000 0.500000 0.500000
O O4 0.785504 0.018711 0.634451
O O5 0.412142 0.524512 0.795958
O O6 0.817309 0.172339 0.715207
O O7 0.636482 0.544505 0.903834
O O8 0.500000 0.500000 0.000000
O O9 0.126948 0.980692 0.971745
O O10 0.834656 0.577067 0.892071
O O11 0.647792 0.308640 0.079651
O O12 0.329413 0.727845 0.183344
O O13 0.000000 0.500000 0.000000
O O14 0.500000 0.000000 0.000000
O O15 0.864266 0.328652 0.250567
O O16 0.422072 0.924714 0.279814
#
# Coordination Sequence:
#
# PCOD8002058 Si02
#       7
#     2   2   2   2   2   2   2
#     4  10  20  35  54  76 106 143 180 223 274 322
#     4  11  21  36  52  77 113 147 178 216 262 328
#     4  12  24  36  54  81 112 151 185 211 253 323
#     4  11  22  37  53  78 114 149 179 215 263 327
#     4  10  20  36  55  78 108 144 182 224 275 325
#     4  11  20  33  54  82 107 136 175 228 277 313
#     4  11  20  33  55  82 108 136 174 229 275 312
#
# _framework density 18.984148999999999
#
# number of rings (size 3 to 8) (size 9 to 14) (size 15 to 20)
#    0.000    1.143    0.000   11.571    0.000    0.000 
#    0.000    0.000    0.000    0.000    0.000   20.000 
#    0.000    0.000    0.000    0.000    0.000    0.000 
#
# Total GULP energy -173450.375132 kJ/mol
# GULP energy per Si atom -12389.312509 kJ/mol
# Density = 1.894094 g / cm^3
# Si number density = 18.984149 Si / 1000 Ang^3
#
#
#
# Elastic Constant Matrix: (Units=GPa)
#
#
# Indices 1 2 3 4 5 6 
#
# 1 100.0747 43.6281 30.1592 5.4107 -1.9548 5.2444
# 2 43.6281 105.8653 32.9799 15.3109 -4.2841 6.4610
# 3 30.1592 32.9799 97.8801 2.6569 -11.1459 -1.7655
# 4 5.4107 15.3109 2.6569 38.5029 13.1099 -4.1040
# 5 -1.9548 -4.2841 -11.1459 13.1099 28.4824 1.4780
# 6 5.2444 6.4610 -1.7655 -4.1040 1.4780 40.7477
#
#
#
# Elastic Compliance Matrix: (Units=1/GPa)
#
#
# Indices 1 2 3 4 5 6 
#
# 1 0.012726 -0.004486 -0.002542 0.000382 -0.000922 -0.000965
# 2 -0.004486 0.013232 -0.002557 -0.005905 0.003522 -0.002354
# 3 -0.002542 -0.002557 0.012443 -0.000981 0.004710 0.001002
# 4 0.000382 -0.005905 -0.000981 0.034838 -0.017540 0.004990
# 5 -0.000922 0.003522 0.004710 -0.017540 0.045682 -0.003659
# 6 -0.000965 -0.002354 0.001002 0.004990 -0.003659 0.025717
#
#
# Mechanical properties :
#
#
# Convention : Reuss Voigt Hill
#
# Bulk Modulus (GPa) = 52.00536 57.48384 54.74460
# Shear Modulus (GPa) = 29.37377 34.68345 32.02861
#
# Velocity S-wave (km/s) = 3.93781 4.27894 4.11192
# Velocity P-wave (km/s) = 6.93749 7.39987 7.17241
#
# Compressibility (1/GPa) = 0.01922879
#
# Stress axis : x y z
#
# Youngs Moduli (GPa) = 78.57628 75.57677 80.36923
#
# Poissons Ratio (x) = 0.33907 0.20434
# Poissons Ratio (y) = 0.35252 0.20551
# Poissons Ratio (z) = 0.19978 0.19326
#
# Static dielectric constant tensor:
#      x y z
#    x 3.041870 0.658950 -0.050350 
#    y 0.658950 3.153000 -0.360710 
#    z -0.050350 -0.360710 3.506700 
# 
# 
# High freq. dielectric constant tensor:
#      x y z
#    x 1.730990 0.030940 -0.019860 
#    y 0.030940 1.742100 0.008380 
#    z -0.019860 0.008380 1.727860 
# 
# From -- ./inp_files/63486.got.cif
#   From: 2010.06.25/outbox.cif.g09.slc.cpg/sg2_32_cif.got.tgz:63486.got - 2010.06.27 13:26:56.
