data_PCOD8002424
_publ_section_title
;
Structure prediction by ZEFSAII (Michael W. Deem and Ramdas Pophale) SiO2 
 PCOD8002424
Probable space group: P -1
;
_chemical_formula_sum "Si O2"
_cell_formula_units_Z 14
_cell_length_a 8.789396
_cell_length_b 9.290655
_cell_length_c 12.110072
_cell_angle_alpha 49.502637
_cell_angle_beta 118.915990
_cell_angle_gamma 105.723708
_cell_volume 656.867528
_symmetry_space_group_name_H-M "P -1"
_symmetry_group_IT_number 2
_symmetry_cell_setting 'triclinic'
loop_
_space_group_symop_operation_xyz
x,y,z
-x,-y,-z
loop_
_atom_site_type_symbol
_atom_site_label
_atom_site_fract_x
_atom_site_fract_y
_atom_site_fract_z
Si Si1 0.759961 0.969186 0.119981
Si Si2 0.720992 0.810254 0.875959
Si Si3 0.901920 0.270224 0.869038
Si Si4 0.580536 0.147801 0.536867
Si Si5 0.922198 0.304502 0.605061
Si Si6 0.508659 0.259626 0.980714
Si Si7 0.695258 0.579087 0.771713
O O1 0.938364 0.872123 0.278546
O O2 0.670089 0.099642 0.120100
O O3 0.636992 0.806882 0.121362
O O4 0.788715 0.102623 0.957079
O O5 0.572248 0.707166 0.942165
O O6 0.768238 0.721282 0.817015
O O7 0.647771 0.030278 0.727151
O O8 0.895928 0.798164 0.015081
O O9 0.863786 0.319400 0.704681
O O10 0.854484 0.461542 0.827538
O O11 0.749921 0.255751 0.498926
O O12 0.422724 0.308155 0.419748
O O13 0.500000 0.000000 0.500000
O O14 0.000000 0.500000 0.500000
O O15 0.568791 0.455060 0.859445
#
# Coordination Sequence:
#
# PCOD8002424 Si02
#       7
#     2   2   2   2   2   2   2
#     4  10  20  37  59  89 121 154 202 253 306 360
#     4  11  20  39  65  86 123 162 203 247 311 366
#     4  11  22  39  64  89 118 163 207 253 301 368
#     4  10  23  40  61  86 129 165 200 247 317 367
#     4  12  23  38  65  92 125 160 210 260 306 361
#     4  10  20  35  61  91 118 154 203 255 300 361
#     4  10  23  39  59  91 124 158 204 250 307 366
#
# _framework density 21.313276999999999
#
# number of rings (size 3 to 8) (size 9 to 14) (size 15 to 20)
#    0.000    1.429    2.857    3.000    0.000    1.714 
#    0.000    0.000    0.000    3.429    0.000    0.000 
#    0.000    0.000    0.000    0.000    0.000    0.000 
#
# Total GULP energy -173520.380488 kJ/mol
# GULP energy per Si atom -12394.312892 kJ/mol
# Density = 2.126477 g / cm^3
# Si number density = 21.313277 Si / 1000 Ang^3
#
#
#
# Elastic Constant Matrix: (Units=GPa)
#
#
# Indices 1 2 3 4 5 6 
#
# 1 89.4765 16.5198 22.9841 5.3668 1.3818 -3.4950
# 2 16.5198 66.5179 17.9272 0.5934 -1.0133 11.5660
# 3 22.9841 17.9272 80.4741 -8.3639 10.2683 -1.6516
# 4 5.3668 0.5934 -8.3639 26.6381 2.6131 0.5195
# 5 1.3818 -1.0133 10.2683 2.6131 33.4652 -7.5714
# 6 -3.4950 11.5660 -1.6516 0.5195 -7.5714 41.0278
#
#
#
# Elastic Compliance Matrix: (Units=1/GPa)
#
#
# Indices 1 2 3 4 5 6 
#
# 1 0.012857 -0.002496 -0.003634 -0.003835 0.001245 0.001931
# 2 -0.002496 0.017503 -0.003466 -0.000933 0.000601 -0.005164
# 3 -0.003634 -0.003466 0.015542 0.006189 -0.005147 0.000265
# 4 -0.003835 -0.000933 0.006189 0.040817 -0.005250 -0.001300
# 5 0.001245 0.000601 -0.005147 -0.005250 0.033177 0.005918
# 6 0.001931 -0.005164 0.000265 -0.001300 0.005918 0.027113
#
#
# Mechanical properties :
#
#
# Convention : Reuss Voigt Hill
#
# Bulk Modulus (GPa) = 37.43972 39.03675 38.23824
# Shear Modulus (GPa) = 28.55457 32.16205 30.35831
#
# Velocity S-wave (km/s) = 3.66424 3.88882 3.77820
# Velocity P-wave (km/s) = 5.95875 6.20639 6.08383
#
# Compressibility (1/GPa) = 0.02670960
#
# Stress axis : x y z
#
# Youngs Moduli (GPa) = 77.78089 57.13346 64.34315
#
# Poissons Ratio (x) = 0.14262 0.23380
# Poissons Ratio (y) = 0.19416 0.22300
# Poissons Ratio (z) = 0.28263 0.19802
#
# Static dielectric constant tensor:
#      x y z
#    x 3.978980 0.047600 0.213060 
#    y 0.047600 3.777120 -0.243940 
#    z 0.213060 -0.243940 4.000760 
# 
# 
# High freq. dielectric constant tensor:
#      x y z
#    x 1.835350 0.007820 0.016350 
#    y 0.007820 1.836310 -0.019320 
#    z 0.016350 -0.019320 1.827430 
# 
# From -- ./inp_files/158852.got.cif
#   From: 2010.06.25/outbox.cif.g09.slc.cpg/sg2_80_cif.got.tgz:158852.got - 2010.06.27 13:26:56.
