data_PCOD8002570
_publ_section_title
;
Structure prediction by ZEFSAII (Michael W. Deem and Ramdas Pophale) SiO2 
 PCOD8002570
Probable space group: P -1
;
_chemical_formula_sum "Si O2"
_cell_formula_units_Z 14
_cell_length_a 7.880582
_cell_length_b 7.371309
_cell_length_c 14.833723
_cell_angle_alpha 82.124350
_cell_angle_beta 95.974822
_cell_angle_gamma 60.087756
_cell_volume 724.791545
_symmetry_space_group_name_H-M "P -1"
_symmetry_group_IT_number 2
_symmetry_cell_setting 'triclinic'
loop_
_space_group_symop_operation_xyz
x,y,z
-x,-y,-z
loop_
_atom_site_type_symbol
_atom_site_label
_atom_site_fract_x
_atom_site_fract_y
_atom_site_fract_z
Si Si1 0.714984 0.670031 0.091442
Si Si2 0.951351 0.537840 0.288256
Si Si3 0.232818 0.659604 0.390213
Si Si4 0.327886 0.506508 0.604165
Si Si5 0.945586 0.137438 0.316300
Si Si6 0.123937 0.819783 0.890176
Si Si7 0.274639 0.985856 0.041227
O O1 0.858555 0.656837 0.180885
O O2 0.776380 0.434990 0.077148
O O3 0.486888 0.803991 0.106351
O O4 0.732452 0.795310 0.998779
O O5 0.772512 0.618920 0.347804
O O6 0.048739 0.280410 0.298495
O O7 0.122532 0.582027 0.322724
O O8 0.276663 0.531020 0.494183
O O9 0.435218 0.619336 0.358240
O O10 0.097604 0.911434 0.384413
O O11 0.239078 0.737453 0.632770
O O12 0.864803 0.114055 0.216479
O O13 0.246844 0.887861 0.954521
O O14 0.892262 0.955153 0.897241
#
# Coordination Sequence:
#
# PCOD8002570 Si02
#       7
#     2   2   2   2   2   2   2
#     4  10  20  38  52  80 114 137 185 231 266 329
#     4   9  21  38  56  85 114 143 187 230 273 332
#     4  11  19  40  60  80 117 149 179 235 278 324
#     4   9  22  38  57  87 111 145 193 223 276 341
#     4   9  21  36  56  84 115 144 187 230 274 334
#     4  10  20  36  55  81 110 143 182 229 270 322
#     4  10  21  34  58  79 104 151 183 217 284 324
#
# _framework density 19.315899000000002
#
# number of rings (size 3 to 8) (size 9 to 14) (size 15 to 20)
#    0.857    1.429    0.000    2.571    2.000    0.000 
#    2.571    7.143    0.000    0.000    0.000    0.000 
#    0.000    0.000    0.000    0.000    0.000    0.000 
#
# Total GULP energy -173542.974763 kJ/mol
# GULP energy per Si atom -12395.926769 kJ/mol
# Density = 1.927194 g / cm^3
# Si number density = 19.315899 Si / 1000 Ang^3
#
#
#
# Elastic Constant Matrix: (Units=GPa)
#
#
# Indices 1 2 3 4 5 6 
#
# 1 42.0818 3.2032 8.2399 -3.9717 16.3144 -2.7092
# 2 3.2032 73.3753 9.9722 -1.8104 10.3735 -1.9838
# 3 8.2399 9.9722 52.8557 2.5433 12.4935 -3.4615
# 4 -3.9717 -1.8104 2.5433 18.8161 -4.1620 -2.4664
# 5 16.3144 10.3735 12.4935 -4.1620 22.6113 0.0246
# 6 -2.7092 -1.9838 -3.4615 -2.4664 0.0246 22.2088
#
#
#
# Elastic Compliance Matrix: (Units=1/GPa)
#
#
# Indices 1 2 3 4 5 6 
#
# 1 0.033812 0.002213 0.000476 0.002313 -0.025253 0.004681
# 2 0.002213 0.014833 -0.001282 0.000582 -0.007588 0.001468
# 3 0.000476 -0.001282 0.022702 -0.005667 -0.013345 0.002867
# 4 0.002313 0.000582 -0.005667 0.057843 0.011836 0.005861
# 5 -0.025253 -0.007588 -0.013345 0.011836 0.075485 -0.004607
# 6 0.004681 0.001468 0.002867 0.005861 -0.004607 0.046832
#
#
# Mechanical properties :
#
#
# Convention : Reuss Voigt Hill
#
# Bulk Modulus (GPa) = 13.48424 23.46039 18.47232
# Shear Modulus (GPa) = 18.28742 22.52042 20.40392
#
# Velocity S-wave (km/s) = 3.08028 3.41823 3.25365
# Velocity P-wave (km/s) = 4.43248 5.26793 4.86816
#
# Compressibility (1/GPa) = 0.07416065
#
# Stress axis : x y z
#
# Youngs Moduli (GPa) = 29.57573 67.41741 44.04904
#
# Poissons Ratio (x) = -0.14920 -0.02096
# Poissons Ratio (y) = -0.06545 0.05646
# Poissons Ratio (z) = -0.01407 0.08641
#
# Static dielectric constant tensor:
#      x y z
#    x 3.334880 -0.066930 0.014300 
#    y -0.066930 3.500040 -0.031040 
#    z 0.014300 -0.031040 3.397180 
# 
# 
# High freq. dielectric constant tensor:
#      x y z
#    x 1.736370 -0.002110 0.000590 
#    y -0.002110 1.750510 -0.002770 
#    z 0.000590 -0.002770 1.754510 
# 
# From -- ./inp_files/492985.got.cif
#   From: 2010.06.25/outbox.cif.g09.slc.cpg/sg2_247_cif.got.tgz:492985.got - 2010.06.27 13:26:56.
