data_PCOD8002074
_publ_section_title
;
Structure prediction by ZEFSAII (Michael W. Deem and Ramdas Pophale) SiO2 
 PCOD8002074
Probable space group: P -1
;
_chemical_formula_sum "Si O2"
_cell_formula_units_Z 12
_cell_length_a 9.030700
_cell_length_b 12.166680
_cell_length_c 10.431404
_cell_angle_alpha 118.339500
_cell_angle_beta 138.206866
_cell_angle_gamma 52.778410
_cell_volume 607.635795
_symmetry_space_group_name_H-M "P -1"
_symmetry_group_IT_number 2
_symmetry_cell_setting 'triclinic'
loop_
_space_group_symop_operation_xyz
x,y,z
-x,-y,-z
loop_
_atom_site_type_symbol
_atom_site_label
_atom_site_fract_x
_atom_site_fract_y
_atom_site_fract_z
Si Si1 0.166248 0.971189 0.715609
Si Si2 0.740725 0.796137 0.968694
Si Si3 0.171643 0.730673 0.731703
Si Si4 0.705831 0.572896 0.995658
Si Si5 0.103949 0.341930 0.270713
Si Si6 0.425460 0.487800 0.588378
O O1 0.448649 0.878816 0.811727
O O2 0.075760 0.888804 0.712884
O O3 0.000000 0.000000 0.500000
O O4 0.132982 0.114834 0.835951
O O5 0.812182 0.657755 0.021956
O O6 0.844606 0.758303 0.872028
O O7 0.442271 0.678095 0.944880
O O8 0.203592 0.632607 0.573498
O O9 0.972163 0.725006 0.697015
O O10 0.661910 0.459450 0.815588
O O11 0.892243 0.494357 0.185467
O O12 0.344458 0.363069 0.478214
O O13 0.500000 0.500000 0.500000
#
# Coordination Sequence:
#
# PCOD8002074 Si02
#       6
#     2   2   2   2   2   2
#     4  10  22  43  59  76 112 154 198 239 270 335
#     4  10  22  36  60  87 105 152 202 224 279 342
#     4   9  22  38  54  89 116 150 190 231 286 335
#     4   9  21  35  57  88 114 153 181 226 293 338
#     4  12  20  36  60  86 124 143 180 246 288 336
#     4  10  20  35  54  85 120 144 193 220 274 352
#
# _framework density 19.748673
#
# number of rings (size 3 to 8) (size 9 to 14) (size 15 to 20)
#    1.000    1.000    1.667    1.500    2.333    2.000 
#    0.000    0.833    0.000    0.000    0.000    0.000 
#    0.000    0.000    0.000    0.000    0.000    0.000 
#
# Total GULP energy -148747.603602 kJ/mol
# GULP energy per Si atom -12395.633634 kJ/mol
# Density = 1.970372 g / cm^3
# Si number density = 19.748673 Si / 1000 Ang^3
#
#
#
# Elastic Constant Matrix: (Units=GPa)
#
#
# Indices 1 2 3 4 5 6 
#
# 1 145.8333 49.2215 36.7058 17.4493 -13.2531 33.7878
# 2 49.2215 95.6134 57.4866 14.4532 -3.1388 22.7029
# 3 36.7058 57.4866 95.6827 17.5579 6.2142 21.4410
# 4 17.4493 14.4532 17.5579 32.7118 1.0607 0.7782
# 5 -13.2531 -3.1388 6.2142 1.0607 15.1112 0.4444
# 6 33.7878 22.7029 21.4410 0.7782 0.4444 27.9938
#
#
#
# Elastic Compliance Matrix: (Units=1/GPa)
#
#
# Indices 1 2 3 4 5 6 
#
# 1 0.012302 -0.001719 -0.000454 -0.005616 0.011399 -0.013131
# 2 -0.001719 0.019055 -0.009353 -0.002549 0.006659 -0.006250
# 3 -0.000454 -0.009353 0.019312 -0.005525 -0.009708 -0.006351
# 4 -0.005616 -0.002549 -0.005525 0.037569 -0.006177 0.012132
# 5 0.011399 0.006659 -0.009708 -0.006177 0.082360 -0.012859
# 6 -0.013131 -0.006250 -0.006351 0.012132 -0.012859 0.061371
#
#
# Mechanical properties :
#
#
# Convention : Reuss Voigt Hill
#
# Bulk Modulus (GPa) = 36.20902 69.32857 52.76880
# Shear Modulus (GPa) = 18.92306 28.07773 23.50039
#
# Velocity S-wave (km/s) = 3.09883 3.77470 3.45334
# Velocity P-wave (km/s) = 5.58376 7.36067 6.53291
#
# Compressibility (1/GPa) = 0.02761742
#
# Stress axis : x y z
#
# Youngs Moduli (GPa) = 81.28906 52.47884 51.78066
#
# Poissons Ratio (x) = 0.09022 0.02349
# Poissons Ratio (y) = 0.13974 0.48432
# Poissons Ratio (z) = 0.03687 0.49085
#
# Static dielectric constant tensor:
#      x y z
#    x 3.491850 0.098730 0.185950 
#    y 0.098730 3.527800 0.206680 
#    z 0.185950 0.206680 3.508460 
# 
# 
# High freq. dielectric constant tensor:
#      x y z
#    x 1.767280 0.008290 0.009750 
#    y 0.008290 1.751770 0.012600 
#    z 0.009750 0.012600 1.763120 
# 
# From -- ./inp_files/172479.got.cif
#   From: 2010.06.25/outbox.cif.g09.slc.cpg/sg2_87_cif.got.tgz:172479.got - 2010.06.27 13:26:56.
