data_PCOD8002247
_publ_section_title
;
Structure prediction by ZEFSAII (Michael W. Deem and Ramdas Pophale) SiO2 
 PCOD8002247
Probable space group: P -1
;
_chemical_formula_sum "Si O2"
_cell_formula_units_Z 14
_cell_length_a 6.003056
_cell_length_b 8.547273
_cell_length_c 19.778206
_cell_angle_alpha 54.997178
_cell_angle_beta 70.766189
_cell_angle_gamma 52.277678
_cell_volume 657.150370
_symmetry_space_group_name_H-M "P -1"
_symmetry_group_IT_number 2
_symmetry_cell_setting 'triclinic'
loop_
_space_group_symop_operation_xyz
x,y,z
-x,-y,-z
loop_
_atom_site_type_symbol
_atom_site_label
_atom_site_fract_x
_atom_site_fract_y
_atom_site_fract_z
Si Si1 0.928482 0.945547 0.190577
Si Si2 0.467627 0.439951 0.749921
Si Si3 0.564791 0.115194 0.309897
Si Si4 0.956366 0.281268 0.380998
Si Si5 0.273179 0.147840 0.899822
Si Si6 0.806151 0.913261 0.465544
Si Si7 0.879845 0.758789 0.962119
O O1 0.657584 0.035767 0.243303
O O2 0.956130 0.157438 0.119280
O O3 0.901266 0.838296 0.151275
O O4 0.202820 0.741886 0.252185
O O5 0.405656 0.674223 0.728539
O O6 0.298839 0.485179 0.684354
O O7 0.357851 0.333053 0.840943
O O8 0.785406 0.897636 0.390120
O O9 0.243235 0.194027 0.332306
O O10 0.884598 0.093566 0.428244
O O11 0.989091 0.310861 0.452005
O O12 0.551898 0.895993 0.940892
O O13 0.082213 0.205799 0.971158
O O14 0.500000 0.000000 0.500000
O O15 0.000000 0.500000 0.000000
#
# Coordination Sequence:
#
# PCOD8002247 Si02
#       7
#     2   2   2   2   2   2   2
#     4  11  23  37  58  88 118 148 190 239 287 342
#     4  10  21  37  57  83 117 153 194 236 283 338
#     4  10  20  35  58  86 116 153 193 236 288 339
#     4   9  17  33  59  83 113 155 193 234 283 334
#     4  10  22  38  57  84 115 148 190 238 284 338
#     4   8  16  32  56  85 114 150 194 235 280 335
#     4  10  22  40  60  82 112 150 191 234 285 342
#
# _framework density 21.304106000000001
#
# number of rings (size 3 to 8) (size 9 to 14) (size 15 to 20)
#    0.000    2.286    0.000    2.143    0.000    7.429 
#    0.000    0.714    0.000   35.143    0.000    0.000 
#    0.000    0.000    0.000    0.000    0.000    0.000 
#
# Total GULP energy -173463.007022 kJ/mol
# GULP energy per Si atom -12390.214787 kJ/mol
# Density = 2.125562 g / cm^3
# Si number density = 21.304106 Si / 1000 Ang^3
#
#
#
# Elastic Constant Matrix: (Units=GPa)
#
#
# Indices 1 2 3 4 5 6 
#
# 1 102.1727 39.8875 52.4183 0.0606 12.9737 -13.9233
# 2 39.8875 77.5032 62.1911 -1.1765 6.6327 -6.5545
# 3 52.4183 62.1911 135.7377 1.4681 15.2316 -13.8804
# 4 0.0606 -1.1765 1.4681 25.9525 -10.0778 5.8550
# 5 12.9737 6.6327 15.2316 -10.0778 33.8872 0.8260
# 6 -13.9233 -6.5545 -13.8804 5.8550 0.8260 18.2014
#
#
#
# Elastic Compliance Matrix: (Units=1/GPa)
#
#
# Indices 1 2 3 4 5 6 
#
# 1 0.014618 -0.004902 -0.001744 -0.004466 -0.005420 0.009770
# 2 -0.004902 0.022125 -0.008979 0.003441 0.002699 -0.003859
# 3 -0.001744 -0.008979 0.013589 -0.004971 -0.005348 0.007638
# 4 -0.004466 0.003441 -0.004971 0.051747 0.019233 -0.023487
# 5 -0.005420 0.002699 -0.005348 0.019233 0.039551 -0.015234
# 6 0.009770 -0.003859 0.007638 -0.023487 -0.015234 0.075096
#
#
# Mechanical properties :
#
#
# Convention : Reuss Voigt Hill
#
# Bulk Modulus (GPa) = 52.40094 69.37860 60.88977
# Shear Modulus (GPa) = 19.65907 26.33600 22.99753
#
# Velocity S-wave (km/s) = 3.04103 3.51977 3.28912
# Velocity P-wave (km/s) = 6.08116 7.01106 6.56260
#
# Compressibility (1/GPa) = 0.01908363
#
# Stress axis : x y z
#
# Youngs Moduli (GPa) = 68.41054 45.19718 73.58716
#
# Poissons Ratio (x) = 0.22154 0.12831
# Poissons Ratio (y) = 0.33533 0.66074
# Poissons Ratio (z) = 0.11928 0.40583
#
# Static dielectric constant tensor:
#      x y z
#    x 3.967360 -0.138400 0.255660 
#    y -0.138400 3.306830 -0.259670 
#    z 0.255660 -0.259670 4.691480 
# 
# 
# High freq. dielectric constant tensor:
#      x y z
#    x 1.847170 -0.005850 -0.000310 
#    y -0.005850 1.784100 -0.015790 
#    z -0.000310 -0.015790 1.866040 
# 
# From -- ./inp_files/7411.got.cif
#   From: 2010.06.25/outbox.cif.g09.slc.cpg/sg2_4_cif.got.tgz:7411.got - 2010.06.27 13:26:56.
