data_PCOD8002968
_publ_section_title
;
Structure prediction by ZEFSAII (Michael W. Deem and Ramdas Pophale) SiO2 
 PCOD8002968
Probable space group: P -1
;
_chemical_formula_sum "Si O2"
_cell_formula_units_Z 14
_cell_length_a 12.861025
_cell_length_b 5.229870
_cell_length_c 10.960632
_cell_angle_alpha 67.658841
_cell_angle_beta 75.090879
_cell_angle_gamma 75.233682
_cell_volume 648.678649
_symmetry_space_group_name_H-M "P -1"
_symmetry_group_IT_number 2
_symmetry_cell_setting 'triclinic'
loop_
_space_group_symop_operation_xyz
x,y,z
-x,-y,-z
loop_
_atom_site_type_symbol
_atom_site_label
_atom_site_fract_x
_atom_site_fract_y
_atom_site_fract_z
Si Si1 0.740152 0.237493 0.051371
Si Si2 0.478974 0.977849 0.868325
Si Si3 0.168474 0.829979 0.211597
Si Si4 0.284842 0.277693 0.189291
Si Si5 0.741085 0.027391 0.346262
Si Si6 0.970210 0.825447 0.425696
Si Si7 0.598720 0.584186 0.380287
O O1 0.788819 0.126789 0.186295
O O2 0.615105 0.200482 0.089080
O O3 0.815435 0.070405 0.951068
O O4 0.733391 0.571430 0.967197
O O5 0.445862 0.282433 0.759897
O O6 0.587711 0.810680 0.800273
O O7 0.500000 0.000000 0.000000
O O8 0.225826 0.500412 0.267517
O O9 0.041386 0.886449 0.275404
O O10 0.230356 0.002450 0.255831
O O11 0.682486 0.300591 0.384238
O O12 0.659490 0.805334 0.393900
O O13 0.842983 0.896407 0.421159
O O14 0.000000 0.500000 0.500000
O O15 0.000000 0.000000 0.500000
O O16 0.500000 0.500000 0.500000
#
# Coordination Sequence:
#
# PCOD8002968 Si02
#       7
#     2   2   2   2   2   2   2
#     4   9  22  38  65  97 135 161 222 261 347 385
#     4  11  19  38  65  98 138 176 214 271 332 388
#     4  10  23  39  64  96 127 164 226 269 324 385
#     4  10  20  36  61 101 133 165 211 270 325 388
#     4  11  25  46  70  93 135 177 214 282 334 392
#     4  12  27  49  69  93 128 177 231 275 335 397
#     4  11  26  44  67 101 137 179 225 262 335 413
#
# _framework density 21.582333999999999
#
# number of rings (size 3 to 8) (size 9 to 14) (size 15 to 20)
#    0.857    0.571    1.429    3.429    2.000    7.429 
#    0.000    0.714    0.000    0.000    0.000    0.000 
#    0.000    0.000    0.000    0.000    0.000    0.000 
#
# Total GULP energy -173517.711958 kJ/mol
# GULP energy per Si atom -12394.122283 kJ/mol
# Density = 2.153321 g / cm^3
# Si number density = 21.582334 Si / 1000 Ang^3
#
#
#
# Elastic Constant Matrix: (Units=GPa)
#
#
# Indices 1 2 3 4 5 6 
#
# 1 107.5951 47.2926 58.2784 -7.7005 4.7370 -9.1320
# 2 47.2926 144.2873 27.4528 -12.6233 1.9634 -2.2456
# 3 58.2784 27.4528 76.9812 -1.6457 -2.1946 -7.4549
# 4 -7.7005 -12.6233 -1.6457 25.4334 -6.7217 -1.2174
# 5 4.7370 1.9634 -2.1946 -6.7217 40.5192 0.4297
# 6 -9.1320 -2.2456 -7.4549 -1.2174 0.4297 37.7067
#
#
#
# Elastic Compliance Matrix: (Units=1/GPa)
#
#
# Indices 1 2 3 4 5 6 
#
# 1 0.017670 -0.003222 -0.012062 0.002483 -0.002170 0.001808
# 2 -0.003222 0.008352 -0.000483 0.003255 0.000489 -0.000279
# 3 -0.012062 -0.000483 0.022460 -0.001751 0.002345 0.001407
# 4 0.002483 0.003255 -0.001751 0.043412 0.006640 0.001775
# 5 -0.002170 0.000489 0.002345 0.006640 0.026139 -0.000116
# 6 0.001808 -0.000279 0.001407 0.001775 -0.000116 0.027279
#
#
# Mechanical properties :
#
#
# Convention : Reuss Voigt Hill
#
# Bulk Modulus (GPa) = 59.00218 66.10127 62.55173
# Shear Modulus (GPa) = 27.39796 33.78784 30.59290
#
# Velocity S-wave (km/s) = 3.56682 3.96097 3.76905
# Velocity P-wave (km/s) = 6.66036 7.18422 6.92725
#
# Compressibility (1/GPa) = 0.01694853
#
# Stress axis : x y z
#
# Youngs Moduli (GPa) = 56.59219 119.72812 44.52436
#
# Poissons Ratio (x) = 0.38574 0.53705
# Poissons Ratio (y) = 0.18233 0.02150
# Poissons Ratio (z) = 0.68262 0.05783
#
# Static dielectric constant tensor:
#      x y z
#    x 4.990260 0.413070 1.404280 
#    y 0.413070 4.215140 0.750600 
#    z 1.404280 0.750600 6.446150 
# 
# 
# High freq. dielectric constant tensor:
#      x y z
#    x 1.836390 -0.002460 -0.018550 
#    y -0.002460 1.855950 -0.003960 
#    z -0.018550 -0.003960 1.846060 
# 
# From -- ./inp_files/409821.got.cif
#   From: 2010.06.25/outbox.cif.g09.slc.cpg/sg2_205_cif.got.tgz:409821.got - 2010.06.27 13:26:56.
