data_PCOD8002893
_publ_section_title
;
Structure prediction by ZEFSAII (Michael W. Deem and Ramdas Pophale) SiO2 
 PCOD8002893
Probable space group: P -1
;
_chemical_formula_sum "Si O2"
_cell_formula_units_Z 16
_cell_length_a 13.782327
_cell_length_b 9.009909
_cell_length_c 16.152266
_cell_angle_alpha 68.291640
_cell_angle_beta 25.339071
_cell_angle_gamma 66.091350
_cell_volume 784.717859
_symmetry_space_group_name_H-M "P -1"
_symmetry_group_IT_number 2
_symmetry_cell_setting 'triclinic'
loop_
_space_group_symop_operation_xyz
x,y,z
-x,-y,-z
loop_
_atom_site_type_symbol
_atom_site_label
_atom_site_fract_x
_atom_site_fract_y
_atom_site_fract_z
Si Si1 0.262773 0.006361 0.272210
Si Si2 0.964992 0.130472 0.200550
Si Si3 0.136675 0.273352 0.196103
Si Si4 0.332111 0.563997 0.925506
Si Si5 0.026474 0.338383 0.958935
Si Si6 0.601042 0.113166 0.115747
Si Si7 0.674568 0.309706 0.632448
Si Si8 0.498912 0.849503 0.361516
O O1 0.375337 0.814017 0.229086
O O2 0.281760 0.096588 0.150409
O O3 0.386136 0.104901 0.223452
O O4 0.000000 0.000000 0.500000
O O5 0.956318 0.200789 0.100581
O O6 0.708656 0.102595 0.423926
O O7 0.039160 0.258534 0.182137
O O8 0.150511 0.964150 0.099383
O O9 0.940076 0.316698 0.409038
O O10 0.271966 0.422419 0.060367
O O11 0.122470 0.641993 0.012836
O O12 0.404481 0.698751 0.900819
O O13 0.546970 0.489000 0.717062
O O14 0.000000 0.500000 0.000000
O O15 0.286839 0.274150 0.738636
O O16 0.570454 0.018051 0.243900
O O17 0.568670 0.245335 0.646046
#
# Coordination Sequence:
#
# PCOD8002893 Si02
#       8
#     2   2   2   2   2   2   2   2
#     4   9  19  40  64  84 108 149 197 235 280 344
#     4  10  21  38  61  85 111 155 202 231 273 338
#     4  10  20  36  60  85 109 147 196 237 281 338
#     4  12  23  36  55  87 123 150 182 239 295 333
#     4  11  20  36  58  87 117 151 193 237 279 330
#     4  10  23  39  56  85 123 148 183 240 291 338
#     4   9  19  36  58  84 111 146 193 239 278 333
#     4   9  19  38  60  81 112 156 200 231 270 336
#
# _framework density 20.389493999999999
#
# number of rings (size 3 to 8) (size 9 to 14) (size 15 to 20)
#    0.000    2.000    2.500    2.250    0.000    7.000 
#    0.000    3.750    0.000    0.000    0.000    0.000 
#    0.000    0.000    0.000    0.000    0.000    0.000 
#
# Total GULP energy -198327.472322 kJ/mol
# GULP energy per Si atom -12395.467020 kJ/mol
# Density = 2.034309 g / cm^3
# Si number density = 20.389494 Si / 1000 Ang^3
#
#
#
# Elastic Constant Matrix: (Units=GPa)
#
#
# Indices 1 2 3 4 5 6 
#
# 1 69.3354 30.4864 30.7856 -0.3949 -9.6494 -14.1836
# 2 30.4864 108.1228 50.5792 0.8730 -5.7717 5.7922
# 3 30.7856 50.5792 105.4669 8.2598 -1.6029 1.9527
# 4 -0.3949 0.8730 8.2598 27.3584 -5.7108 -3.5897
# 5 -9.6494 -5.7717 -1.6029 -5.7108 25.9569 -0.5081
# 6 -14.1836 5.7922 1.9527 -3.5897 -0.5081 32.1525
#
#
#
# Elastic Compliance Matrix: (Units=1/GPa)
#
#
# Indices 1 2 3 4 5 6 
#
# 1 0.021929 -0.004087 -0.004931 0.005166 0.008299 0.011417
# 2 -0.004087 0.013005 -0.005019 0.000795 0.001164 -0.003734
# 3 -0.004931 -0.005019 0.013728 -0.005097 -0.003276 -0.002726
# 4 0.005166 0.000795 -0.005097 0.041393 0.011031 0.007241
# 5 0.008299 0.001164 -0.003276 0.011031 0.044203 0.005580
# 6 0.011417 -0.003734 -0.002726 0.007241 0.005580 0.037873
#
#
# Mechanical properties :
#
#
# Convention : Reuss Voigt Hill
#
# Bulk Modulus (GPa) = 48.57267 56.29196 52.43231
# Shear Modulus (GPa) = 24.14675 28.49848 26.32262
#
# Velocity S-wave (km/s) = 3.44506 3.74264 3.59693
# Velocity P-wave (km/s) = 6.30069 6.80770 6.55910
#
# Compressibility (1/GPa) = 0.02058771
#
# Stress axis : x y z
#
# Youngs Moduli (GPa) = 45.60188 76.89485 72.84412
#
# Poissons Ratio (x) = 0.31425 0.35919
# Poissons Ratio (y) = 0.18636 0.36562
# Poissons Ratio (z) = 0.22486 0.38595
#
# Static dielectric constant tensor:
#      x y z
#    x 3.513730 -0.369670 -0.093950 
#    y -0.369670 3.712730 0.085850 
#    z -0.093950 0.085850 3.977490 
# 
# 
# High freq. dielectric constant tensor:
#      x y z
#    x 1.772590 -0.025990 -0.006200 
#    y -0.025990 1.789230 0.006950 
#    z -0.006200 0.006950 1.809140 
# 
# From -- ./inp_files/267290.got.cif
#   From: 2010.06.25/outbox.cif.g09.slc.cpg/sg2_134_cif.got.tgz:267290.got - 2010.06.27 13:26:56.
