data_PCOD8002609
_publ_section_title
;
Structure prediction by ZEFSAII (Michael W. Deem and Ramdas Pophale) SiO2 
 PCOD8002609
Probable space group: P -1
;
_chemical_formula_sum "Si O2"
_cell_formula_units_Z 16
_cell_length_a 17.823362
_cell_length_b 8.725307
_cell_length_c 15.265265
_cell_angle_alpha 81.799040
_cell_angle_beta 154.506438
_cell_angle_gamma 113.313106
_cell_volume 788.051905
_symmetry_space_group_name_H-M "P -1"
_symmetry_group_IT_number 2
_symmetry_cell_setting 'triclinic'
loop_
_space_group_symop_operation_xyz
x,y,z
-x,-y,-z
loop_
_atom_site_type_symbol
_atom_site_label
_atom_site_fract_x
_atom_site_fract_y
_atom_site_fract_z
Si Si1 0.134629 0.602331 0.927705
Si Si2 0.187786 0.891801 0.082172
Si Si3 0.789236 0.656255 0.567216
Si Si4 0.487107 0.333838 0.406050
Si Si5 0.721178 0.800877 0.309344
Si Si6 0.758272 0.367414 0.155479
Si Si7 0.996760 0.754366 0.480259
Si Si8 0.857009 0.623402 0.896559
O O1 0.268639 0.641633 0.976999
O O2 0.898141 0.553388 0.657839
O O3 0.276228 0.795656 0.125194
O O4 0.090374 0.421256 0.950052
O O5 0.398397 0.121761 0.293368
O O6 0.971269 0.844297 0.806616
O O7 0.095200 0.787141 0.088085
O O8 0.561620 0.488996 0.392911
O O9 0.726762 0.733092 0.416919
O O10 0.703612 0.426285 0.688978
O O11 0.280904 0.294754 0.244091
O O12 0.784848 0.704634 0.313837
O O13 0.886845 0.037977 0.461869
O O14 0.475235 0.726830 0.035729
O O15 0.838734 0.241040 0.278811
O O16 0.929838 0.595631 0.347855
#
# Coordination Sequence:
#
# PCOD8002609 Si02
#       8
#     2   2   2   2   2   2   2   2
#     4  10  21  40  54  82 125 150 191 252 286 341
#     4   9  20  37  58  81 116 156 190 247 289 339
#     4   9  21  37  55  84 120 151 192 242 286 343
#     4  10  20  36  59  82 112 156 201 235 295 353
#     4  11  21  41  65  89 120 161 192 244 297 354
#     4  11  22  42  62  92 121 156 195 245 300 351
#     4  10  23  41  65  92 120 150 202 243 295 359
#     4  10  20  36  56  83 114 151 197 247 288 343
#
# _framework density 20.303231
#
# number of rings (size 3 to 8) (size 9 to 14) (size 15 to 20)
#    0.750    1.250    1.250    2.250    0.000    2.500 
#    2.250    1.250    0.000    0.000    0.000    0.000 
#    0.000    0.000    0.000    0.000    0.000    0.000 
#
# Total GULP energy -198338.768051 kJ/mol
# GULP energy per Si atom -12396.173003 kJ/mol
# Density = 2.025702 g / cm^3
# Si number density = 20.303231 Si / 1000 Ang^3
#
#
#
# Elastic Constant Matrix: (Units=GPa)
#
#
# Indices 1 2 3 4 5 6 
#
# 1 105.2638 48.4437 24.5272 -1.6558 3.2887 15.1198
# 2 48.4437 90.1392 30.1346 -0.9180 -3.1199 13.6993
# 3 24.5272 30.1346 54.6690 7.1333 7.7554 8.1539
# 4 -1.6558 -0.9180 7.1333 29.0024 -5.5763 -0.0210
# 5 3.2887 -3.1199 7.7554 -5.5763 23.0754 -2.3751
# 6 15.1198 13.6993 8.1539 -0.0210 -2.3751 32.5942
#
#
#
# Elastic Compliance Matrix: (Units=1/GPa)
#
#
# Indices 1 2 3 4 5 6 
#
# 1 0.013294 -0.006092 -0.001864 0.000581 -0.002292 -0.003307
# 2 -0.006092 0.017646 -0.008068 0.003460 0.006587 -0.002090
# 3 -0.001864 -0.008068 0.027106 -0.009449 -0.012573 -0.003448
# 4 0.000581 0.003460 -0.009449 0.039500 0.013274 0.001632
# 5 -0.002292 0.006587 -0.012573 0.013274 0.052530 0.005277
# 6 -0.003307 -0.002090 -0.003448 0.001632 0.005277 0.034341
#
#
# Mechanical properties :
#
#
# Convention : Reuss Voigt Hill
#
# Bulk Modulus (GPa) = 38.46375 50.69811 44.58093
# Shear Modulus (GPa) = 22.20948 26.73217 24.47082
#
# Velocity S-wave (km/s) = 3.31099 3.63250 3.47546
# Velocity P-wave (km/s) = 5.79678 6.52825 6.17336
#
# Compressibility (1/GPa) = 0.02599851
#
# Stress axis : x y z
#
# Youngs Moduli (GPa) = 75.22426 56.66972 36.89250
#
# Poissons Ratio (x) = 0.34525 0.06875
# Poissons Ratio (y) = 0.45829 0.29764
# Poissons Ratio (z) = 0.14019 0.45719
#
# Static dielectric constant tensor:
#      x y z
#    x 3.651180 -0.027220 0.069260 
#    y -0.027220 3.486980 -0.090080 
#    z 0.069260 -0.090080 3.393810 
# 
# 
# High freq. dielectric constant tensor:
#      x y z
#    x 1.797170 0.002310 0.008030 
#    y 0.002310 1.788000 -0.010690 
#    z 0.008030 -0.010690 1.771090 
# 
# From -- ./inp_files/537351.got.cif
#   From: 2010.06.25/outbox.cif.g09.slc.cpg/sg2_269_cif.got.tgz:537351.got - 2010.06.27 13:26:56.
