data_PCOD8002758
_publ_section_title
;
Structure prediction by ZEFSAII (Michael W. Deem and Ramdas Pophale) SiO2 
 PCOD8002758
Probable space group: P -1
;
_chemical_formula_sum "Si O2"
_cell_formula_units_Z 14
_cell_length_a 17.986906
_cell_length_b 8.885328
_cell_length_c 12.370739
_cell_angle_alpha 37.061958
_cell_angle_beta 145.584265
_cell_angle_gamma 139.107164
_cell_volume 645.199262
_symmetry_space_group_name_H-M "P -1"
_symmetry_group_IT_number 2
_symmetry_cell_setting 'triclinic'
loop_
_space_group_symop_operation_xyz
x,y,z
-x,-y,-z
loop_
_atom_site_type_symbol
_atom_site_label
_atom_site_fract_x
_atom_site_fract_y
_atom_site_fract_z
Si Si1 0.323068 0.818733 0.287701
Si Si2 0.845054 0.149137 0.131893
Si Si3 0.048725 0.178664 0.805075
Si Si4 0.844111 0.688208 0.913008
Si Si5 0.635367 0.985482 0.537456
Si Si6 0.145183 0.307844 0.455706
Si Si7 0.161798 0.539543 0.561264
O O1 0.474569 0.863756 0.395871
O O2 0.261737 0.507030 0.411039
O O3 0.325524 0.985342 0.304387
O O4 0.230038 0.922155 0.032491
O O5 0.008975 0.194170 0.284859
O O6 0.793902 0.916283 0.292262
O O7 0.805911 0.401011 0.983729
O O8 0.147661 0.272577 0.765051
O O9 0.917342 0.285959 0.571292
O O10 0.133641 0.316867 0.930050
O O11 0.985182 0.866376 0.922316
O O12 0.714465 0.803271 0.676972
O O13 0.681793 0.276834 0.372782
O O14 0.097199 0.458341 0.411527
#
# Coordination Sequence:
#
# PCOD8002758 Si02
#       7
#     2   2   2   2   2   2   2
#     4  10  22  43  62  83 121 161 193 241 295 340
#     4  11  23  38  60  88 122 153 192 246 301 342
#     4   9  18  32  59  88 116 147 192 246 295 335
#     4  10  20  36  58  90 117 148 198 239 294 350
#     4   9  21  41  61  85 116 155 205 237 278 364
#     4  10  22  39  58  91 120 150 200 241 287 366
#     4   9  17  35  58  86 115 149 194 246 286 340
#
# _framework density 21.698722
#
# number of rings (size 3 to 8) (size 9 to 14) (size 15 to 20)
#    0.000    2.286    1.429    0.429    4.000    2.857 
#    5.143    2.857    0.000    0.000    0.000    0.000 
#    0.000    0.000    0.000    0.000    0.000    0.000 
#
# Total GULP energy -173519.877144 kJ/mol
# GULP energy per Si atom -12394.276939 kJ/mol
# Density = 2.164933 g / cm^3
# Si number density = 21.698722 Si / 1000 Ang^3
#
#
#
# Elastic Constant Matrix: (Units=GPa)
#
#
# Indices 1 2 3 4 5 6 
#
# 1 68.8544 36.8390 43.9630 -4.9037 -7.8142 28.9956
# 2 36.8390 104.3197 65.1950 -4.5643 -0.1220 29.8297
# 3 43.9630 65.1950 117.7678 -3.4034 -18.4357 18.7304
# 4 -4.9037 -4.5643 -3.4034 33.6417 -8.7884 2.0373
# 5 -7.8142 -0.1220 -18.4357 -8.7884 26.6917 -9.9855
# 6 28.9956 29.8297 18.7304 2.0373 -9.9855 35.2540
#
#
#
# Elastic Compliance Matrix: (Units=1/GPa)
#
#
# Indices 1 2 3 4 5 6 
#
# 1 0.027727 0.001810 -0.008589 0.003501 -0.004616 -0.021283
# 2 0.001810 0.021306 -0.012009 -0.000767 -0.014337 -0.017153
# 3 -0.008589 -0.012009 0.019056 0.002448 0.015661 0.011396
# 4 0.003501 -0.000767 0.002448 0.033942 0.013235 -0.001744
# 5 -0.004616 -0.014337 0.015661 0.013235 0.060157 0.023881
# 6 -0.021283 -0.017153 0.011396 -0.001744 0.023881 0.061194
#
#
# Mechanical properties :
#
#
# Convention : Reuss Voigt Hill
#
# Bulk Modulus (GPa) = 32.77333 64.77065 48.77199
# Shear Modulus (GPa) = 18.44143 28.78047 23.61095
#
# Velocity S-wave (km/s) = 2.91844 3.64588 3.30225
# Velocity P-wave (km/s) = 5.14714 6.90203 6.08815
#
# Compressibility (1/GPa) = 0.03051261
#
# Stress axis : x y z
#
# Youngs Moduli (GPa) = 36.06585 46.93459 52.47819
#
# Poissons Ratio (x) = -0.08494 0.45073
# Poissons Ratio (y) = -0.06527 0.63021
# Poissons Ratio (z) = 0.30977 0.56363
#
# Static dielectric constant tensor:
#      x y z
#    x 3.862240 0.125880 -0.228570 
#    y 0.125880 3.967870 -0.283600 
#    z -0.228570 -0.283600 3.858970 
# 
# 
# High freq. dielectric constant tensor:
#      x y z
#    x 1.836120 -0.002180 -0.013160 
#    y -0.002180 1.848650 -0.022020 
#    z -0.013160 -0.022020 1.843640 
# 
# From -- ./inp_files/460966.got.cif
#   From: 2010.06.25/outbox.cif.g09.slc.cpg/sg2_231_cif.got.tgz:460966.got - 2010.06.27 13:26:56.
