data_PCOD8002172
_publ_section_title
;
Structure prediction by ZEFSAII (Michael W. Deem and Ramdas Pophale) SiO2 
 PCOD8002172
Probable space group: P -1
;
_chemical_formula_sum "Si O2"
_cell_formula_units_Z 16
_cell_length_a 18.685669
_cell_length_b 21.910420
_cell_length_c 10.044140
_cell_angle_alpha 131.575590
_cell_angle_beta 118.067955
_cell_angle_gamma 20.700129
_cell_volume 894.795507
_symmetry_space_group_name_H-M "P -1"
_symmetry_group_IT_number 2
_symmetry_cell_setting 'triclinic'
loop_
_space_group_symop_operation_xyz
x,y,z
-x,-y,-z
loop_
_atom_site_type_symbol
_atom_site_label
_atom_site_fract_x
_atom_site_fract_y
_atom_site_fract_z
Si Si1 0.188240 0.472144 0.698470
Si Si2 0.767735 0.653632 0.717539
Si Si3 0.223245 0.733164 0.360097
Si Si4 0.278047 0.218846 0.529771
Si Si5 0.962215 0.955601 0.724150
Si Si6 0.673469 0.912091 0.886907
Si Si7 0.415486 0.427342 0.869201
Si Si8 0.272139 0.660780 0.822148
O O1 0.283303 0.352739 0.465325
O O2 0.222434 0.367081 0.680954
O O3 0.333347 0.412414 0.789339
O O4 0.894070 0.768575 0.863877
O O5 0.737082 0.779842 0.854178
O O6 0.049731 0.380974 0.618562
O O7 0.575716 0.804275 0.878045
O O8 0.477109 0.542424 0.316611
O O9 0.268515 0.617361 0.127439
O O10 0.000000 0.000000 0.500000
O O11 0.149468 0.769785 0.494501
O O12 0.372132 0.090444 0.291915
O O13 0.500000 0.000000 0.500000
O O14 0.708988 0.148731 0.749172
O O15 0.888167 0.119663 0.922370
O O16 0.103148 0.786262 0.734257
O O17 0.346877 0.522829 0.798314
#
# Coordination Sequence:
#
# PCOD8002172 Si02
#       8
#     2   2   2   2   2   2   2   2
#     4   9  19  33  50  73 103 133 166 212 261 302
#     4   8  15  31  53  70  93 129 173 203 240 302
#     4  11  18  35  59  78 102 141 185 219 256 316
#     4   9  17  31  52  76 100 133 170 209 251 303
#     4  10  20  36  55  79 103 137 184 220 257 318
#     4   8  15  31  52  72  90 129 174 201 239 306
#     4  11  21  35  53  79 111 141 173 219 274 317
#     4  10  20  35  57  78 102 140 180 220 265 314
#
# _framework density 17.881180000000001
#
# number of rings (size 3 to 8) (size 9 to 14) (size 15 to 20)
#    0.000    2.500    2.500    2.625    0.000    1.500 
#    4.500    0.000    2.750    0.000    0.000    0.000 
#    0.000    0.000    0.000    0.000    0.000    0.000 
#
# Total GULP energy -198218.613347 kJ/mol
# GULP energy per Si atom -12388.663334 kJ/mol
# Density = 1.784048 g / cm^3
# Si number density = 17.881180 Si / 1000 Ang^3
#
#
#
# Elastic Constant Matrix: (Units=GPa)
#
#
# Indices 1 2 3 4 5 6 
#
# 1 65.4948 49.1976 50.5733 -9.1710 -8.2680 -17.8195
# 2 49.1976 137.3331 45.2470 -4.3808 -5.6509 -7.2941
# 3 50.5733 45.2470 96.7022 12.9907 -20.4907 -17.8224
# 4 -9.1710 -4.3808 12.9907 21.2851 -7.5605 -1.9441
# 5 -8.2680 -5.6509 -20.4907 -7.5605 25.9663 -1.5828
# 6 -17.8195 -7.2941 -17.8224 -1.9441 -1.5828 22.5896
#
#
#
# Elastic Compliance Matrix: (Units=1/GPa)
#
#
# Indices 1 2 3 4 5 6 
#
# 1 0.052725 -0.008537 -0.021953 0.040623 0.011006 0.025782
# 2 -0.008537 0.010447 -0.001639 -0.001908 -0.002599 -0.005001
# 3 -0.021953 -0.001639 0.027979 -0.023790 0.007972 0.002739
# 4 0.040623 -0.001908 -0.023790 0.087933 0.020670 0.021675
# 5 0.011006 -0.002599 0.007972 0.020670 0.054965 0.019763
# 6 0.025782 -0.005001 0.002739 0.021675 0.019763 0.068403
#
#
# Mechanical properties :
#
#
# Convention : Reuss Voigt Hill
#
# Bulk Modulus (GPa) = 37.18574 65.50733 51.34653
# Shear Modulus (GPa) = 13.30944 24.26899 18.78922
#
# Velocity S-wave (km/s) = 2.73120 3.68807 3.24509
# Velocity P-wave (km/s) = 5.54861 7.40609 6.54359
#
# Compressibility (1/GPa) = 0.02689203
#
# Stress axis : x y z
#
# Youngs Moduli (GPa) = 18.96634 95.72519 35.74127
#
# Poissons Ratio (x) = 0.81722 0.78462
# Poissons Ratio (y) = 0.16192 0.05859
# Poissons Ratio (z) = 0.41636 0.15692
#
# Static dielectric constant tensor:
#      x y z
#    x 2.993570 -0.212040 -0.251570 
#    y -0.212040 3.341500 0.126780 
#    z -0.251570 0.126780 3.387660 
# 
# 
# High freq. dielectric constant tensor:
#      x y z
#    x 1.656440 -0.017080 -0.021810 
#    y -0.017080 1.699080 0.005140 
#    z -0.021810 0.005140 1.693100 
# 
# From -- ./inp_files/337841.got.cif
#   From: 2010.06.25/outbox.cif.g09.slc.cpg/sg2_169_cif.got.tgz:337841.got - 2010.06.27 13:26:56.
