data_PCOD8002446
_publ_section_title
;
Structure prediction by ZEFSAII (Michael W. Deem and Ramdas Pophale) SiO2 
 PCOD8002446
Probable space group: P -1
;
_chemical_formula_sum "Si O2"
_cell_formula_units_Z 14
_cell_length_a 14.857602
_cell_length_b 11.787418
_cell_length_c 10.700272
_cell_angle_alpha 138.954174
_cell_angle_beta 131.831454
_cell_angle_gamma 31.043314
_cell_volume 633.389690
_symmetry_space_group_name_H-M "P -1"
_symmetry_group_IT_number 2
_symmetry_cell_setting 'triclinic'
loop_
_space_group_symop_operation_xyz
x,y,z
-x,-y,-z
loop_
_atom_site_type_symbol
_atom_site_label
_atom_site_fract_x
_atom_site_fract_y
_atom_site_fract_z
Si Si1 0.312213 0.612764 0.469567
Si Si2 0.809726 0.216209 0.237932
Si Si3 0.810086 0.202218 0.756586
Si Si4 0.796881 0.824912 0.461556
Si Si5 0.528119 0.284437 0.125014
Si Si6 0.547887 0.889154 0.758213
Si Si7 0.802414 0.601000 0.524201
O O1 0.179758 0.736373 0.566799
O O2 0.198279 0.791974 0.396774
O O3 0.458036 0.610317 0.646499
O O4 0.396268 0.334465 0.294643
O O5 0.659248 0.226880 0.092806
O O6 0.772322 0.433297 0.309787
O O7 0.995301 0.941925 0.141105
O O8 0.669858 0.483998 0.915983
O O9 0.766928 0.058995 0.652486
O O10 0.757930 0.771201 0.510528
O O11 0.995118 0.584565 0.398138
O O12 0.656283 0.909037 0.299406
O O13 0.571553 0.039484 0.987459
O O14 0.668877 0.786118 0.663445
#
# Coordination Sequence:
#
# PCOD8002446 Si02
#       7
#     2   2   2   2   2   2   2
#     4   9  20  38  55  82 112 145 184 221 272 325
#     4   8  19  35  58  77 110 144 183 224 273 314
#     4  11  18  37  58  78 114 148 180 226 270 325
#     4  10  20  35  62  82 105 151 182 221 282 318
#     4  10  22  34  55  87 110 144 184 219 278 324
#     4  11  21  37  58  83 113 143 180 229 273 323
#     4   9  19  38  59  82 108 142 189 226 267 330
#
# _framework density 22.103294999999999
#
# number of rings (size 3 to 8) (size 9 to 14) (size 15 to 20)
#    0.857    1.429    1.429    1.286    0.000    1.714 
#    0.000    3.571    0.000    5.143    0.000    0.000 
#    0.000    0.000    0.000    0.000    0.000    0.000 
#
# Total GULP energy -173497.929331 kJ/mol
# GULP energy per Si atom -12392.709238 kJ/mol
# Density = 2.205299 g / cm^3
# Si number density = 22.103295 Si / 1000 Ang^3
#
#
#
# Elastic Constant Matrix: (Units=GPa)
#
#
# Indices 1 2 3 4 5 6 
#
# 1 87.8177 36.8455 17.5730 14.3392 26.5350 3.1744
# 2 36.8455 102.8476 23.2433 23.8887 14.6230 -2.1871
# 3 17.5730 23.2433 65.0811 27.6803 19.8658 -10.6340
# 4 14.3392 23.8887 27.6803 28.6599 10.8272 5.1269
# 5 26.5350 14.6230 19.8658 10.8272 17.7269 2.3331
# 6 3.1744 -2.1871 -10.6340 5.1269 2.3331 46.4596
#
#
#
# Elastic Compliance Matrix: (Units=1/GPa)
#
#
# Indices 1 2 3 4 5 6 
#
# 1 0.024357 -0.004277 0.009060 -0.001849 -0.042289 0.002536
# 2 -0.004277 0.013521 0.001318 -0.010872 0.000093 0.002426
# 3 0.009060 0.001318 0.042010 -0.032240 -0.043988 0.014825
# 4 -0.001849 -0.010872 -0.032240 0.078082 0.002347 -0.016499
# 5 -0.042289 0.000093 -0.043988 0.002347 0.169598 -0.015950
# 6 0.002536 0.002426 0.014825 -0.016499 -0.015950 0.027480
#
#
# Mechanical properties :
#
#
# Convention : Reuss Voigt Hill
#
# Bulk Modulus (GPa) = 10.85891 45.67445 28.26668
# Shear Modulus (GPa) = 13.38531 30.44159 21.91345
#
# Velocity S-wave (km/s) = 2.46352 3.71515 3.15208
# Velocity P-wave (km/s) = 3.60769 6.25396 5.10526
#
# Compressibility (1/GPa) = 0.09209024
#
# Stress axis : x y z
#
# Youngs Moduli (GPa) = 41.05551 73.95710 23.80375
#
# Poissons Ratio (x) = 0.31635 -0.21567
# Poissons Ratio (y) = 0.17561 -0.03137
# Poissons Ratio (z) = -0.37197 -0.09747
#
# Static dielectric constant tensor:
#      x y z
#    x 4.198750 -0.060400 0.300770 
#    y -0.060400 3.962570 0.199740 
#    z 0.300770 0.199740 3.424910 
# 
# 
# High freq. dielectric constant tensor:
#      x y z
#    x 1.898960 -0.005230 0.020890 
#    y -0.005230 1.873310 0.023660 
#    z 0.020890 0.023660 1.817060 
# 
# From -- ./inp_files/111332.got.cif
#   From: 2010.06.25/outbox.cif.g09.slc.cpg/sg2_56_cif.got.tgz:111332.got - 2010.06.27 13:26:56.
