data_PCOD8002849
_publ_section_title
;
Structure prediction by ZEFSAII (Michael W. Deem and Ramdas Pophale) SiO2 
 PCOD8002849
Probable space group: P -1
;
_chemical_formula_sum "Si O2"
_cell_formula_units_Z 16
_cell_length_a 13.462571
_cell_length_b 18.888594
_cell_length_c 10.166879
_cell_angle_alpha 146.902400
_cell_angle_beta 30.992015
_cell_angle_gamma 146.310831
_cell_volume 664.613576
_symmetry_space_group_name_H-M "P -1"
_symmetry_group_IT_number 2
_symmetry_cell_setting 'triclinic'
loop_
_space_group_symop_operation_xyz
x,y,z
-x,-y,-z
loop_
_atom_site_type_symbol
_atom_site_label
_atom_site_fract_x
_atom_site_fract_y
_atom_site_fract_z
Si Si1 0.898667 0.024301 0.465675
Si Si2 0.674820 0.930532 0.845805
Si Si3 0.413023 0.158086 0.833521
Si Si4 0.828951 0.717095 0.031972
Si Si5 0.552223 0.338807 0.465434
Si Si6 0.242252 0.865641 0.442651
Si Si7 0.189352 0.353238 0.342174
Si Si8 0.689686 0.209105 0.351208
O O1 0.818240 0.120404 0.617159
O O2 0.154601 0.091843 0.286682
O O3 0.800518 0.015045 0.706108
O O4 0.820984 0.869018 0.246359
O O5 0.488968 0.779781 0.784994
O O6 0.580346 0.038670 0.181608
O O7 0.534115 0.151746 0.823139
O O8 0.593479 0.230072 0.630685
O O9 0.253376 0.998167 0.727038
O O10 0.284366 0.253734 0.153023
O O11 0.666931 0.646602 0.226131
O O12 0.749595 0.624953 0.847375
O O13 0.058733 0.734046 0.841233
O O14 0.717081 0.489411 0.456167
O O15 0.640882 0.297942 0.432519
O O16 0.062443 0.721723 0.479011
#
# Coordination Sequence:
#
# PCOD8002849 Si02
#       8
#     2   2   2   2   2   2   2   2
#     4   9  18  38  66  89 118 153 207 259 297 343
#     4   9  20  39  65  92 115 156 210 254 294 348
#     4  11  23  37  63  95 120 154 206 252 305 366
#     4  10  20  36  59  90 121 156 196 252 305 349
#     4  11  23  38  60  89 128 165 198 245 303 365
#     4  11  23  39  61  91 124 161 200 251 306 360
#     4  12  23  39  58  89 134 161 193 245 311 372
#     4  11  21  38  66  93 118 155 207 260 297 350
#
# _framework density 24.07414
#
# number of rings (size 3 to 8) (size 9 to 14) (size 15 to 20)
#    0.000    1.500    3.750    2.625    0.000    2.500 
#    0.000    0.625    0.000    3.750    0.000    0.000 
#    0.000    0.000    0.000    0.000    0.000    0.000 
#
# Total GULP energy -198460.610887 kJ/mol
# GULP energy per Si atom -12403.788180 kJ/mol
# Density = 2.401935 g / cm^3
# Si number density = 24.074140 Si / 1000 Ang^3
#
#
#
# Elastic Constant Matrix: (Units=GPa)
#
#
# Indices 1 2 3 4 5 6 
#
# 1 92.6073 25.3998 3.6001 13.8892 -12.3039 4.6247
# 2 25.3998 131.3787 18.1322 14.8769 -18.7063 17.3678
# 3 3.6001 18.1322 47.7099 4.0183 -11.4107 11.2958
# 4 13.8892 14.8769 4.0183 32.4771 4.7222 -0.0777
# 5 -12.3039 -18.7063 -11.4107 4.7222 24.2487 -1.8372
# 6 4.6247 17.3678 11.2958 -0.0777 -1.8372 16.9325
#
#
#
# Elastic Compliance Matrix: (Units=1/GPa)
#
#
# Indices 1 2 3 4 5 6 
#
# 1 0.013246 -0.000309 0.002866 -0.007183 0.008906 -0.004279
# 2 -0.000309 0.011026 0.001231 -0.006456 0.009347 -0.011062
# 3 0.002866 0.001231 0.029596 -0.007876 0.016346 -0.020052
# 4 -0.007183 -0.006456 -0.007876 0.040635 -0.019341 0.011926
# 5 0.008906 0.009347 0.016346 -0.019341 0.063203 -0.016156
# 6 -0.004279 -0.011062 -0.020052 0.011926 -0.016156 0.083252
#
#
# Mechanical properties :
#
#
# Convention : Reuss Voigt Hill
#
# Bulk Modulus (GPa) = 16.27504 40.66223 28.46863
# Shear Modulus (GPa) = 19.69562 29.70256 24.69909
#
# Velocity S-wave (km/s) = 2.86339 3.51635 3.20654
# Velocity P-wave (km/s) = 4.20798 5.78043 5.05571
#
# Compressibility (1/GPa) = 0.06144379
#
# Stress axis : x y z
#
# Youngs Moduli (GPa) = 75.49509 90.69669 33.78828
#
# Poissons Ratio (x) = 0.02806 -0.09684
# Poissons Ratio (y) = 0.02336 -0.04160
# Poissons Ratio (z) = -0.21638 -0.11167
#
# Static dielectric constant tensor:
#      x y z
#    x 4.408670 0.167490 -0.110860 
#    y 0.167490 4.224650 -0.216740 
#    z -0.110860 -0.216740 4.252070 
# 
# 
# High freq. dielectric constant tensor:
#      x y z
#    x 1.962290 0.009210 -0.011880 
#    y 0.009210 1.941790 -0.025090 
#    z -0.011880 -0.025090 1.937820 
# 
# From -- ./inp_files/457524.got.cif
#   From: 2010.06.25/outbox.cif.g09.slc.cpg/sg2_229_cif.got.tgz:457524.got - 2010.06.27 13:26:56.
