data_PCOD8002550
_publ_section_title
;
Structure prediction by ZEFSAII (Michael W. Deem and Ramdas Pophale) SiO2 
 PCOD8002550
Probable space group: P -1
;
_chemical_formula_sum "Si O2"
_cell_formula_units_Z 14
_cell_length_a 21.292675
_cell_length_b 18.438652
_cell_length_c 9.493913
_cell_angle_alpha 128.483638
_cell_angle_beta 114.817607
_cell_angle_gamma 19.100274
_cell_volume 719.733247
_symmetry_space_group_name_H-M "P -1"
_symmetry_group_IT_number 2
_symmetry_cell_setting 'triclinic'
loop_
_space_group_symop_operation_xyz
x,y,z
-x,-y,-z
loop_
_atom_site_type_symbol
_atom_site_label
_atom_site_fract_x
_atom_site_fract_y
_atom_site_fract_z
Si Si1 0.642162 0.913862 0.251238
Si Si2 0.735297 0.419054 0.868139
Si Si3 0.529565 0.855820 0.083216
Si Si4 0.163060 0.569030 0.425638
Si Si5 0.993512 0.984204 0.813059
Si Si6 0.699913 0.323344 0.493230
Si Si7 0.051443 0.509231 0.256523
O O1 0.785823 0.795308 0.354452
O O2 0.370513 0.307377 0.430488
O O3 0.610376 0.852417 0.213675
O O4 0.802069 0.697794 0.999403
O O5 0.576925 0.719055 0.085881
O O6 0.595933 0.530667 0.760369
O O7 0.751899 0.347242 0.949856
O O8 0.025837 0.067826 0.665235
O O9 0.698945 0.607660 0.808775
O O10 0.230928 0.242547 0.229995
O O11 0.973081 0.900352 0.666005
O O12 0.998335 0.687600 0.434251
O O13 0.256257 0.682022 0.622528
O O14 0.000000 0.000000 0.000000
O O15 0.500000 0.500000 0.500000
#
# Coordination Sequence:
#
# PCOD8002550 Si02
#       7
#     2   2   2   2   2   2   2
#     4   8  15  25  42  73  97 123 166 208 255 301
#     4   9  18  33  51  75 105 134 172 215 261 300
#     4   9  14  27  47  72  99 127 163 214 255 299
#     4   9  15  29  45  67 104 132 163 207 257 299
#     4  10  20  36  53  74 109 144 173 211 260 311
#     4   9  18  34  53  76 101 134 180 215 254 304
#     4   8  15  25  44  71  98 128 163 208 258 300
#
# _framework density 19.451651999999999
#
# number of rings (size 3 to 8) (size 9 to 14) (size 15 to 20)
#    0.857    2.286    1.429    1.714    0.000    1.143 
#    7.714    0.714    0.000    3.429    0.000    2.000 
#    0.000    0.000    0.000    0.000    0.000    0.000 
#
# Total GULP energy -173456.692851 kJ/mol
# GULP energy per Si atom -12389.763775 kJ/mol
# Density = 1.940738 g / cm^3
# Si number density = 19.451652 Si / 1000 Ang^3
#
#
#
# Elastic Constant Matrix: (Units=GPa)
#
#
# Indices 1 2 3 4 5 6 
#
# 1 123.9540 83.5749 43.0610 -10.0304 42.7219 9.2259
# 2 83.5749 108.7677 26.1664 -13.7445 25.0583 -5.4532
# 3 43.0610 26.1664 38.9923 -14.6068 12.1911 9.3969
# 4 -10.0304 -13.7445 -14.6068 21.1777 6.1828 9.3134
# 5 42.7219 25.0583 12.1911 6.1828 30.2231 -0.8663
# 6 9.2259 -5.4532 9.3969 9.3134 -0.8663 46.7376
#
#
#
# Elastic Compliance Matrix: (Units=1/GPa)
#
#
# Indices 1 2 3 4 5 6 
#
# 1 0.040111 -0.016572 -0.007780 0.021843 -0.044676 -0.013468
# 2 -0.016572 0.021265 0.005602 0.007867 0.002013 0.003096
# 3 -0.007780 0.005602 0.086669 0.088492 -0.047678 -0.033753
# 4 0.021843 0.007867 0.088492 0.182698 -0.112179 -0.059671
# 5 -0.044676 0.002013 -0.047678 -0.112179 0.137999 0.043552
# 6 -0.013468 0.003096 -0.033753 -0.059671 0.043552 0.043900
#
#
# Mechanical properties :
#
#
# Convention : Reuss Voigt Hill
#
# Bulk Modulus (GPa) = 9.04594 64.14650 36.59622
# Shear Modulus (GPa) = 8.51803 27.55515 18.03659
#
# Velocity S-wave (km/s) = 2.09490 3.76785 3.04839
# Velocity P-wave (km/s) = 3.24222 7.20957 5.58972
#
# Compressibility (1/GPa) = 0.11054686
#
# Stress axis : x y z
#
# Youngs Moduli (GPa) = 24.93056 47.02572 11.53814
#
# Poissons Ratio (x) = 0.77929 0.08977
# Poissons Ratio (y) = 0.41314 -0.06464
# Poissons Ratio (z) = 0.19396 -0.26345
#
# Static dielectric constant tensor:
#      x y z
#    x 3.542730 -0.037610 0.358650 
#    y -0.037610 3.668770 -0.117390 
#    z 0.358650 -0.117390 3.069040 
# 
# 
# High freq. dielectric constant tensor:
#      x y z
#    x 1.747300 0.008530 0.035120 
#    y 0.008530 1.746310 -0.009730 
#    z 0.035120 -0.009730 1.711380 
# 
# From -- ./inp_files/304358.got.cif
#   From: 2010.06.25/outbox.cif.g09.slc.cpg/sg2_153_cif.got.tgz:304358.got - 2010.06.27 13:26:56.
