data_PCOD8002681
_publ_section_title
;
Structure prediction by ZEFSAII (Michael W. Deem and Ramdas Pophale) SiO2 
 PCOD8002681
Probable space group: P -1
;
_chemical_formula_sum "Si O2"
_cell_formula_units_Z 14
_cell_length_a 12.066601
_cell_length_b 15.088674
_cell_length_c 8.239154
_cell_angle_alpha 57.483053
_cell_angle_beta 121.363711
_cell_angle_gamma 148.483851
_cell_volume 654.608373
_symmetry_space_group_name_H-M "P -1"
_symmetry_group_IT_number 2
_symmetry_cell_setting 'triclinic'
loop_
_space_group_symop_operation_xyz
x,y,z
-x,-y,-z
loop_
_atom_site_type_symbol
_atom_site_label
_atom_site_fract_x
_atom_site_fract_y
_atom_site_fract_z
Si Si1 0.195596 0.793807 0.411249
Si Si2 0.863256 0.661409 0.871244
Si Si3 0.577876 0.635228 0.551453
Si Si4 0.497210 0.832709 0.745643
Si Si5 0.286703 0.504718 0.739959
Si Si6 0.398784 0.685863 0.154394
Si Si7 0.287052 0.820488 0.091491
O O1 0.302479 0.791800 0.635055
O O2 0.294896 0.817244 0.294155
O O3 0.940957 0.613148 0.401399
O O4 0.276412 0.966821 0.329504
O O5 0.814301 0.747474 0.679777
O O6 0.761378 0.507883 0.830107
O O7 0.762995 0.594264 0.040868
O O8 0.111908 0.794237 0.932669
O O9 0.500000 0.500000 0.500000
O O10 0.419775 0.523504 0.694813
O O11 0.571149 0.746714 0.354357
O O12 0.431956 0.698845 0.704247
O O13 0.526659 0.812738 0.972302
O O14 0.253742 0.681165 0.135630
O O15 0.500000 0.000000 0.000000
#
# Coordination Sequence:
#
# PCOD8002681 Si02
#       7
#     2   2   2   2   2   2   2
#     4  10  21  36  57  90 123 154 202 242 300 354
#     4   9  21  37  61  87 115 159 197 240 299 356
#     4  10  21  39  62  89 116 153 203 245 300 355
#     4  10  20  36  57  89 122 159 196 246 296 360
#     4  10  20  37  64  81 118 160 202 242 299 356
#     4  10  20  36  60  88 120 154 198 245 292 356
#     4  11  20  36  59  87 122 150 193 247 296 343
#
# _framework density 21.386831999999998
#
# number of rings (size 3 to 8) (size 9 to 14) (size 15 to 20)
#    0.000    2.000    1.429    2.143    0.000    4.571 
#    0.000    0.714    6.286    6.000    0.000    0.000 
#    0.000    0.000    0.000    0.000    0.000    0.000 
#
# Total GULP energy -173494.892447 kJ/mol
# GULP energy per Si atom -12392.492318 kJ/mol
# Density = 2.133816 g / cm^3
# Si number density = 21.386832 Si / 1000 Ang^3
#
#
#
# Elastic Constant Matrix: (Units=GPa)
#
#
# Indices 1 2 3 4 5 6 
#
# 1 126.7166 46.8872 58.5957 7.1653 3.3906 11.1979
# 2 46.8872 65.0477 33.9931 6.2387 -3.8628 -2.4211
# 3 58.5957 33.9931 135.5160 13.5412 29.6213 15.4964
# 4 7.1653 6.2387 13.5412 22.0903 4.4550 0.0618
# 5 3.3906 -3.8628 29.6213 4.4550 26.1688 7.9423
# 6 11.1979 -2.4211 15.4964 0.0618 7.9423 21.2708
#
#
#
# Elastic Compliance Matrix: (Units=1/GPa)
#
#
# Indices 1 2 3 4 5 6 
#
# 1 0.012757 -0.007244 -0.003693 -0.000497 0.003399 -0.006118
# 2 -0.007244 0.024622 -0.005580 -0.003061 0.009210 0.007252
# 3 -0.003693 -0.005580 0.014362 -0.002991 -0.015019 -0.003538
# 4 -0.000497 -0.003061 -0.002991 0.049484 -0.006786 0.004482
# 5 0.003399 0.009210 -0.015019 -0.006786 0.061112 -0.012598
# 6 -0.006118 0.007252 -0.003538 0.004482 -0.012598 0.058327
#
#
# Mechanical properties :
#
#
# Convention : Reuss Voigt Hill
#
# Bulk Modulus (GPa) = 53.45698 67.35913 60.40805
# Shear Modulus (GPa) = 19.23564 26.42628 22.83096
#
# Velocity S-wave (km/s) = 3.00228 3.51897 3.27084
# Velocity P-wave (km/s) = 6.08833 6.93360 6.52467
#
# Compressibility (1/GPa) = 0.01870663
#
# Stress axis : x y z
#
# Youngs Moduli (GPa) = 78.38544 40.61481 69.62822
#
# Poissons Ratio (x) = 0.29422 0.25712
# Poissons Ratio (y) = 0.56783 0.38854
# Poissons Ratio (z) = 0.28946 0.22664
#
# Static dielectric constant tensor:
#      x y z
#    x 4.064540 -0.182880 0.314630 
#    y -0.182880 3.686590 0.232250 
#    z 0.314630 0.232250 4.513350 
# 
# 
# High freq. dielectric constant tensor:
#      x y z
#    x 1.828410 -0.013130 -0.000740 
#    y -0.013130 1.814460 0.014140 
#    z -0.000740 0.014140 1.856620 
# 
# From -- ./inp_files/155391.got.cif
#   From: 2010.06.25/outbox.cif.g09.slc.cpg/sg2_78_cif.got.tgz:155391.got - 2010.06.27 13:26:56.
