data_PCOD8002526
_publ_section_title
;
Structure prediction by ZEFSAII (Michael W. Deem and Ramdas Pophale) SiO2 
 PCOD8002526
Probable space group: P -1
;
_chemical_formula_sum "Si O2"
_cell_formula_units_Z 16
_cell_length_a 9.199312
_cell_length_b 25.027017
_cell_length_c 9.426926
_cell_angle_alpha 51.045905
_cell_angle_beta 118.689302
_cell_angle_gamma 152.447704
_cell_volume 762.444143
_symmetry_space_group_name_H-M "P -1"
_symmetry_group_IT_number 2
_symmetry_cell_setting 'triclinic'
loop_
_space_group_symop_operation_xyz
x,y,z
-x,-y,-z
loop_
_atom_site_type_symbol
_atom_site_label
_atom_site_fract_x
_atom_site_fract_y
_atom_site_fract_z
Si Si1 0.068360 0.412401 0.642936
Si Si2 0.276800 0.398934 0.269495
Si Si3 0.856375 0.022710 0.360624
Si Si4 0.553775 0.319089 0.678226
Si Si5 0.867632 0.231627 0.627847
Si Si6 0.743037 0.744027 0.643699
Si Si7 0.840177 0.791358 0.058742
Si Si8 0.710785 0.443566 0.011239
O O1 0.333655 0.464062 0.768991
O O2 0.237585 0.537983 0.438734
O O3 0.792353 0.338975 0.745366
O O4 0.901326 0.308214 0.618307
O O5 0.158722 0.300676 0.263210
O O6 0.161970 0.433529 0.111057
O O7 0.147083 0.332711 0.473734
O O8 0.960507 0.113695 0.378339
O O9 0.472972 0.884128 0.416312
O O10 0.000000 0.000000 0.500000
O O11 0.978394 0.088582 0.152911
O O12 0.338796 0.247571 0.555211
O O13 0.320144 0.224282 0.860232
O O14 0.899779 0.171685 0.827590
O O15 0.423448 0.634531 0.774269
O O16 0.568554 0.654175 0.073478
O O17 0.000000 0.500000 0.000000
#
# Coordination Sequence:
#
# PCOD8002526 Si02
#       8
#     2   2   2   2   2   2   2   2
#     4  10  20  35  65 101 130 162 205 275 325 390
#     4  11  22  39  66  99 135 166 217 266 338 397
#     4  11  27  46  67  92 133 179 229 276 329 387
#     4  10  21  39  69  98 135 164 214 273 334 391
#     4  12  22  42  71  92 128 180 227 270 321 392
#     4  10  23  44  62  95 139 169 216 276 326 392
#     4  11  23  45  66  99 125 177 229 265 324 403
#     4  11  25  37  67 102 141 172 209 270 346 402
#
# _framework density 20.985143000000001
#
# number of rings (size 3 to 8) (size 9 to 14) (size 15 to 20)
#    0.000    1.250    3.750    2.625   10.500    0.500 
#    0.000    2.500    0.000    0.000    0.000    0.000 
#    0.000    0.000    0.000    0.000    0.000    0.000 
#
# Total GULP energy -198474.374490 kJ/mol
# GULP energy per Si atom -12404.648406 kJ/mol
# Density = 2.093738 g / cm^3
# Si number density = 20.985143 Si / 1000 Ang^3
#
#
#
# Elastic Constant Matrix: (Units=GPa)
#
#
# Indices 1 2 3 4 5 6 
#
# 1 155.5370 57.8071 33.9050 1.3545 3.1700 -2.8860
# 2 57.8071 115.9390 21.6084 5.4813 8.6917 -9.0443
# 3 33.9050 21.6084 87.3209 7.8680 -6.6289 -1.8854
# 4 1.3545 5.4813 7.8680 18.9186 -0.2538 1.2721
# 5 3.1700 8.6917 -6.6289 -0.2538 36.4164 6.4333
# 6 -2.8860 -9.0443 -1.8854 1.2721 6.4333 36.9001
#
#
#
# Elastic Compliance Matrix: (Units=1/GPa)
#
#
# Indices 1 2 3 4 5 6 
#
# 1 0.008363 -0.003803 -0.002470 0.001556 -0.000184 -0.000426
# 2 -0.003803 0.011364 -0.001263 -0.002744 -0.003173 0.003071
# 3 -0.002470 -0.001263 0.013392 -0.004977 0.002948 -0.000161
# 4 0.001556 -0.002744 -0.004977 0.055807 0.000500 -0.002816
# 5 -0.000184 -0.003173 0.002948 0.000500 0.029808 -0.005855
# 6 -0.000426 0.003071 -0.000161 -0.002816 -0.005855 0.028929
#
#
# Mechanical properties :
#
#
# Convention : Reuss Voigt Hill
#
# Bulk Modulus (GPa) = 55.40526 65.04864 60.22695
# Shear Modulus (GPa) = 29.62952 34.81210 32.22081
#
# Velocity S-wave (km/s) = 3.76164 4.07737 3.92268
# Velocity P-wave (km/s) = 6.73246 7.29598 7.01988
#
# Compressibility (1/GPa) = 0.01804883
#
# Stress axis : x y z
#
# Youngs Moduli (GPa) = 119.57029 87.99919 74.67049
#
# Poissons Ratio (x) = 0.33463 0.18441
# Poissons Ratio (y) = 0.45468 0.09430
# Poissons Ratio (z) = 0.29530 0.11113
#
# Static dielectric constant tensor:
#      x y z
#    x 4.007630 -0.044700 -0.103510 
#    y -0.044700 3.748670 0.078750 
#    z -0.103510 0.078750 3.659020 
# 
# 
# High freq. dielectric constant tensor:
#      x y z
#    x 1.838630 -0.002360 -0.005120 
#    y -0.002360 1.809030 0.011710 
#    z -0.005120 0.011710 1.811800 
# 
# From -- ./inp_files/199442.got.cif
#   From: 2010.06.25/outbox.cif.g09.slc.cpg/sg2_100_cif.got.tgz:199442.got - 2010.06.27 13:26:56.
