data_PCOD8002680
_publ_section_title
;
Structure prediction by ZEFSAII (Michael W. Deem and Ramdas Pophale) SiO2 
 PCOD8002680
Probable space group: P -1
;
_chemical_formula_sum "Si O2"
_cell_formula_units_Z 16
_cell_length_a 10.583950
_cell_length_b 13.448286
_cell_length_c 12.519058
_cell_angle_alpha 63.200067
_cell_angle_beta 51.698075
_cell_angle_gamma 34.978289
_cell_volume 795.181094
_symmetry_space_group_name_H-M "P -1"
_symmetry_group_IT_number 2
_symmetry_cell_setting 'triclinic'
loop_
_space_group_symop_operation_xyz
x,y,z
-x,-y,-z
loop_
_atom_site_type_symbol
_atom_site_label
_atom_site_fract_x
_atom_site_fract_y
_atom_site_fract_z
Si Si1 0.295583 0.012625 0.118054
Si Si2 0.561714 0.133793 0.333523
Si Si3 0.474434 0.440431 0.905211
Si Si4 0.908835 0.385531 0.149520
Si Si5 0.722029 0.701528 0.171402
Si Si6 0.725442 0.805421 0.348882
Si Si7 0.068866 0.960558 0.108435
Si Si8 0.288702 0.467463 0.200294
O O1 0.437924 0.846137 0.198657
O O2 0.198914 0.005117 0.062228
O O3 0.048368 0.201311 0.213766
O O4 0.500000 0.000000 0.000000
O O5 0.434965 0.181521 0.490741
O O6 0.369729 0.301395 0.275161
O O7 0.631020 0.982444 0.310819
O O8 0.811929 0.073488 0.252960
O O9 0.360687 0.497113 0.819292
O O10 0.748195 0.239659 0.866629
O O11 0.497527 0.558647 0.862902
O O12 0.283227 0.477789 0.068788
O O13 0.848329 0.511181 0.209476
O O14 0.098203 0.324277 0.987299
O O15 0.688045 0.774089 0.268038
O O16 0.018722 0.642137 0.307370
O O17 0.000000 0.000000 0.000000
#
# Coordination Sequence:
#
# PCOD8002680 Si02
#       8
#     2   2   2   2   2   2   2   2
#     4  10  23  36  61  93 125 162 203 258 321 383
#     4  11  25  41  62  91 129 170 213 258 314 381
#     4  11  21  35  63  95 124 158 201 263 330 363
#     4  10  20  36  57  88 122 155 203 258 312 372
#     4  10  21  37  58  85 122 160 206 258 308 370
#     4  11  24  42  62  89 127 175 214 256 311 380
#     4  12  23  39  64  96 130 163 209 270 321 369
#     4  11  22  37  62  92 125 162 204 262 320 373
#
# _framework density 20.121200999999999
#
# number of rings (size 3 to 8) (size 9 to 14) (size 15 to 20)
#    0.000    1.250    5.000    1.125    5.250    1.000 
#    0.000    0.625    0.000    1.500    0.000    0.000 
#    0.000    0.000    0.000    0.000    0.000    0.000 
#
# Total GULP energy -198308.633787 kJ/mol
# GULP energy per Si atom -12394.289612 kJ/mol
# Density = 2.007540 g / cm^3
# Si number density = 20.121201 Si / 1000 Ang^3
#
#
#
# Elastic Constant Matrix: (Units=GPa)
#
#
# Indices 1 2 3 4 5 6 
#
# 1 118.0546 40.7477 39.4713 2.3374 9.7264 4.7309
# 2 40.7477 161.9280 37.5167 4.5274 3.4272 4.5999
# 3 39.4713 37.5167 85.9270 14.0014 -3.4395 4.0856
# 4 2.3374 4.5274 14.0014 24.7757 3.8347 -0.8400
# 5 9.7264 3.4272 -3.4395 3.8347 24.8569 5.1549
# 6 4.7309 4.5999 4.0856 -0.8400 5.1549 32.2739
#
#
#
# Elastic Compliance Matrix: (Units=1/GPa)
#
#
# Indices 1 2 3 4 5 6 
#
# 1 0.011099 -0.001584 -0.005111 0.002961 -0.005325 0.000173
# 2 -0.001584 0.007160 -0.002462 0.000326 -0.000684 -0.000359
# 3 -0.005111 -0.002462 0.017042 -0.009818 0.006706 -0.002384
# 4 0.002961 0.000326 -0.009818 0.047342 -0.010631 0.003693
# 5 -0.005325 -0.000684 0.006706 -0.010631 0.046570 -0.007686
# 6 0.000173 -0.000359 -0.002384 0.003693 -0.007686 0.032636
#
#
# Mechanical properties :
#
#
# Convention : Reuss Voigt Hill
#
# Bulk Modulus (GPa) = 58.86552 66.82011 62.84282
# Shear Modulus (GPa) = 26.90694 32.92624 29.91659
#
# Velocity S-wave (km/s) = 3.66080 4.04963 3.86011
# Velocity P-wave (km/s) = 6.86932 7.42609 7.15313
#
# Compressibility (1/GPa) = 0.01698787
#
# Stress axis : x y z
#
# Youngs Moduli (GPa) = 90.09606 139.66195 58.67872
#
# Poissons Ratio (x) = 0.22121 0.29989
# Poissons Ratio (y) = 0.14271 0.14447
# Poissons Ratio (z) = 0.46046 0.34386
#
# Static dielectric constant tensor:
#      x y z
#    x 3.635860 -0.078760 -0.102580 
#    y -0.078760 4.385000 0.067330 
#    z -0.102580 0.067330 3.300300 
# 
# 
# High freq. dielectric constant tensor:
#      x y z
#    x 1.786240 0.000120 -0.004170 
#    y 0.000120 1.820150 0.011590 
#    z -0.004170 0.011590 1.728950 
# 
# From -- ./inp_files/432684.got.cif
#   From: 2010.06.25/outbox.cif.g09.slc.cpg/sg2_217_cif.got.tgz:432684.got - 2010.06.27 13:26:56.
