data_PCOD8002052
_publ_section_title
;
Structure prediction by ZEFSAII (Michael W. Deem and Ramdas Pophale) SiO2 
 PCOD8002052
Probable space group: P -1
;
_chemical_formula_sum "Si O2"
_cell_formula_units_Z 16
_cell_length_a 13.772078
_cell_length_b 9.159004
_cell_length_c 9.129294
_cell_angle_alpha 119.489491
_cell_angle_beta 59.062982
_cell_angle_gamma 89.528705
_cell_volume 805.390348
_symmetry_space_group_name_H-M "P -1"
_symmetry_group_IT_number 2
_symmetry_cell_setting 'triclinic'
loop_
_space_group_symop_operation_xyz
x,y,z
-x,-y,-z
loop_
_atom_site_type_symbol
_atom_site_label
_atom_site_fract_x
_atom_site_fract_y
_atom_site_fract_z
Si Si1 0.365138 0.997621 0.482425
Si Si2 0.254430 0.874049 0.232962
Si Si3 0.077912 0.126964 0.275697
Si Si4 0.155531 0.237207 0.977048
Si Si5 0.899765 0.365166 0.732138
Si Si6 0.049686 0.778430 0.072936
Si Si7 0.334106 0.654691 0.801303
Si Si8 0.497720 0.259645 0.516920
O O1 0.446969 0.110354 0.419679
O O2 0.309741 0.948167 0.357515
O O3 0.447261 0.811197 0.401194
O O4 0.263535 0.114391 0.732419
O O5 0.194488 0.735170 0.270049
O O6 0.159855 0.043619 0.310524
O O7 0.352545 0.766334 0.982327
O O8 0.158139 0.143565 0.084837
O O9 0.986256 0.318467 0.498488
O O10 0.005902 0.994934 0.219780
O O11 0.172185 0.424206 0.092403
O O12 0.025013 0.277341 0.022070
O O13 0.976638 0.294890 0.786703
O O14 0.193658 0.698911 0.890432
O O15 0.388272 0.447044 0.700295
O O16 0.396752 0.714012 0.647509
#
# Coordination Sequence:
#
# PCOD8002052 Si02
#       8
#     2   2   2   2   2   2   2   2
#     4  11  22  38  60  86 112 152 191 231 283 337
#     4  10  21  38  59  79 114 152 190 231 282 338
#     4  10  20  35  53  81 119 153 184 226 279 340
#     4  12  22  35  58  89 120 146 188 234 282 337
#     4  10  20  35  53  81 119 153 184 226 279 340
#     4  10  20  36  61  83 115 152 186 229 282 344
#     4   9  20  41  59  85 113 149 190 236 284 326
#     4  10  22  40  62  82 114 148 194 238 274 336
#
# _framework density 19.866143999999998
#
# number of rings (size 3 to 8) (size 9 to 14) (size 15 to 20)
#    0.000    2.000    0.000    7.125    0.000    3.000 
#    0.000    2.500    0.000    0.000    0.000    0.000 
#    0.000    0.000    0.000    0.000    0.000    0.000 
#
# Total GULP energy -198327.827651 kJ/mol
# GULP energy per Si atom -12395.489228 kJ/mol
# Density = 1.982093 g / cm^3
# Si number density = 19.866144 Si / 1000 Ang^3
#
#
#
# Elastic Constant Matrix: (Units=GPa)
#
#
# Indices 1 2 3 4 5 6 
#
# 1 67.4232 -1.9071 12.3777 2.4872 -3.6789 -0.8533
# 2 -1.9071 72.0180 -4.0192 8.9032 -5.1434 -0.2405
# 3 12.3777 -4.0192 43.8931 11.0095 -3.7853 0.6751
# 4 2.4872 8.9032 11.0095 26.5873 -1.3192 -4.6019
# 5 -3.6789 -5.1434 -3.7853 -1.3192 22.1377 -1.6043
# 6 -0.8533 -0.2405 0.6751 -4.6019 -1.6043 8.4355
#
#
#
# Elastic Compliance Matrix: (Units=1/GPa)
#
#
# Indices 1 2 3 4 5 6 
#
# 1 0.015789 0.000215 -0.004524 0.000931 0.002165 0.002885
# 2 0.000215 0.015166 0.003388 -0.006823 0.003524 -0.002869
# 3 -0.004524 0.003388 0.028297 -0.013921 0.003350 -0.009583
# 4 0.000931 -0.006823 -0.013921 0.050639 0.001300 0.028887
# 5 0.002165 0.003524 0.003350 0.001300 0.047713 0.009835
# 6 0.002885 -0.002869 -0.009583 0.028887 0.009835 0.137154
#
#
# Mechanical properties :
#
#
# Convention : Reuss Voigt Hill
#
# Bulk Modulus (GPa) = 17.41925 21.80411 19.61168
# Shear Modulus (GPa) = 15.83603 23.22427 19.53015
#
# Velocity S-wave (km/s) = 2.82642 3.42283 3.13882
# Velocity P-wave (km/s) = 4.40896 5.15949 4.79892
#
# Compressibility (1/GPa) = 0.05740776
#
# Stress axis : x y z
#
# Youngs Moduli (GPa) = 63.33706 65.93796 35.33997
#
# Poissons Ratio (x) = -0.01416 0.15987
# Poissons Ratio (y) = -0.01360 -0.11972
# Poissons Ratio (z) = 0.28653 -0.22337
#
# Static dielectric constant tensor:
#      x y z
#    x 3.405730 0.023390 -0.024630 
#    y 0.023390 3.733000 0.049050 
#    z -0.024630 0.049050 3.716480 
# 
# 
# High freq. dielectric constant tensor:
#      x y z
#    x 1.752860 0.001730 -0.002160 
#    y 0.001730 1.785910 0.001570 
#    z -0.002160 0.001570 1.781220 
# 
# From -- ./inp_files/202151.got.cif
#   From: 2010.06.25/outbox.cif.g09.slc.cpg/sg2_102_cif.got.tgz:202151.got - 2010.06.27 13:26:56.
