data_PCOD8002582
_publ_section_title
;
Structure prediction by ZEFSAII (Michael W. Deem and Ramdas Pophale) SiO2 
 PCOD8002582
Probable space group: P -1
;
_chemical_formula_sum "Si O2"
_cell_formula_units_Z 16
_cell_length_a 11.898033
_cell_length_b 20.646535
_cell_length_c 12.129980
_cell_angle_alpha 45.442833
_cell_angle_beta 113.943078
_cell_angle_gamma 150.001713
_cell_volume 874.827595
_symmetry_space_group_name_H-M "P -1"
_symmetry_group_IT_number 2
_symmetry_cell_setting 'triclinic'
loop_
_space_group_symop_operation_xyz
x,y,z
-x,-y,-z
loop_
_atom_site_type_symbol
_atom_site_label
_atom_site_fract_x
_atom_site_fract_y
_atom_site_fract_z
Si Si1 0.758181 0.609867 0.435490
Si Si2 0.813157 0.961480 0.435567
Si Si3 0.520569 0.875605 0.600814
Si Si4 0.085727 0.730700 0.600727
Si Si5 0.646786 0.715576 0.500038
Si Si6 0.347842 0.615920 0.000023
Si Si7 0.303099 0.392399 0.149146
Si Si8 0.929003 0.018277 0.850866
O O1 0.500000 0.500000 0.500000
O O2 0.655042 0.489703 0.429019
O O3 0.854697 0.600457 0.574776
O O4 0.019335 0.847247 0.237855
O O5 0.002967 0.175067 0.237910
O O6 0.591955 0.846181 0.574867
O O7 0.658857 0.824217 0.429175
O O8 0.000000 0.000000 0.500000
O O9 0.335345 0.835334 0.526258
O O10 0.342203 0.704606 0.823142
O O11 0.794210 0.098042 0.500072
O O12 0.929466 0.567098 0.823042
O O13 0.665427 0.647235 0.679647
O O14 0.889073 0.870930 0.320360
O O15 0.615803 0.793482 0.970011
O O16 0.351012 0.528739 0.029999
O O17 0.500000 0.500000 0.000000
O O18 0.000000 0.000000 0.000000
#
# Coordination Sequence:
#
# PCOD8002582 Si02
#       8
#     2   2   2   2   2   2   2   2
#     4  10  20  36  58  83 119 155 196 249 300 349
#     4  10  20  36  58  83 119 155 196 249 300 349
#     4  11  23  40  59  87 123 162 204 252 303 363
#     4  11  23  40  59  87 123 162 204 252 303 363
#     4  10  20  36  55  86 125 160 196 254 306 350
#     4  12  19  34  58  86 118 158 201 244 307 356
#     4  11  20  32  55  91 123 158 197 248 304 362
#     4  11  20  32  55  91 123 158 197 248 304 362
#
# _framework density 18.289317
#
# number of rings (size 3 to 8) (size 9 to 14) (size 15 to 20)
#    0.000    1.250    2.500    7.875    1.750    0.000 
#    0.000    0.625    0.000    0.000    0.000    3.500 
#    0.000    0.000    0.000    0.000    0.000    0.000 
#
# Total GULP energy -198260.546305 kJ/mol
# GULP energy per Si atom -12391.284144 kJ/mol
# Density = 1.824769 g / cm^3
# Si number density = 18.289317 Si / 1000 Ang^3
#
#
#
# Elastic Constant Matrix: (Units=GPa)
#
#
# Indices 1 2 3 4 5 6 
#
# 1 87.8839 54.3793 21.6868 -1.3375 -1.6297 -6.1060
# 2 54.3793 120.6872 32.4311 -12.2925 12.4893 -22.1160
# 3 21.6868 32.4311 106.7249 -4.5624 -1.6088 -7.7974
# 4 -1.3375 -12.2925 -4.5624 37.7190 -8.2954 11.0276
# 5 -1.6297 12.4893 -1.6088 -8.2954 26.1887 -3.4477
# 6 -6.1060 -22.1160 -7.7974 11.0276 -3.4477 31.5146
#
#
#
# Elastic Compliance Matrix: (Units=1/GPa)
#
#
# Indices 1 2 3 4 5 6 
#
# 1 0.016553 -0.008067 -0.001020 -0.000619 0.004353 -0.002013
# 2 -0.008067 0.014599 -0.002342 0.000676 -0.006451 0.007160
# 3 -0.001020 -0.002342 0.010401 0.000692 0.002005 0.000709
# 4 -0.000619 0.000676 0.000692 0.031431 0.008379 -0.009556
# 5 0.004353 -0.006451 0.002005 0.008379 0.044139 -0.001291
# 6 -0.002013 0.007160 0.000709 -0.009556 -0.001291 0.039744
#
#
# Mechanical properties :
#
#
# Convention : Reuss Voigt Hill
#
# Bulk Modulus (GPa) = 53.49394 59.14338 56.31866
# Shear Modulus (GPa) = 26.88801 32.87104 29.87952
#
# Velocity S-wave (km/s) = 3.83841 4.24403 4.04631
# Velocity P-wave (km/s) = 6.99691 7.51157 7.25880
#
# Compressibility (1/GPa) = 0.01869370
#
# Stress axis : x y z
#
# Youngs Moduli (GPa) = 60.41049 68.49946 96.14867
#
# Poissons Ratio (x) = 0.55259 0.09810
# Poissons Ratio (y) = 0.48733 0.22519
# Poissons Ratio (z) = 0.06164 0.16044
#
# Static dielectric constant tensor:
#      x y z
#    x 3.311920 -0.397400 0.155170 
#    y -0.397400 3.822250 -0.348420 
#    z 0.155170 -0.348420 3.630580 
# 
# 
# High freq. dielectric constant tensor:
#      x y z
#    x 1.686560 -0.015570 0.008560 
#    y -0.015570 1.707940 -0.020930 
#    z 0.008560 -0.020930 1.718640 
# 
# From -- ./inp_files/425723.got.cif
#   From: 2010.06.25/outbox.cif.g09.slc.cpg/sg2_213_cif.got.tgz:425723.got - 2010.06.27 13:26:56.
