data_PCOD8002378
_publ_section_title
;
Structure prediction by ZEFSAII (Michael W. Deem and Ramdas Pophale) SiO2 
 PCOD8002378
Probable space group: P -1
;
_chemical_formula_sum "Si O2"
_cell_formula_units_Z 16
_cell_length_a 13.547805
_cell_length_b 12.841108
_cell_length_c 12.266090
_cell_angle_alpha 139.283592
_cell_angle_beta 82.100183
_cell_angle_gamma 64.832515
_cell_volume 790.332472
_symmetry_space_group_name_H-M "P -1"
_symmetry_group_IT_number 2
_symmetry_cell_setting 'triclinic'
loop_
_space_group_symop_operation_xyz
x,y,z
-x,-y,-z
loop_
_atom_site_type_symbol
_atom_site_label
_atom_site_fract_x
_atom_site_fract_y
_atom_site_fract_z
Si Si1 0.980557 0.272006 0.757165
Si Si2 0.159873 0.008411 0.742542
Si Si3 0.269143 0.672750 0.149605
Si Si4 0.298117 0.260748 0.212026
Si Si5 0.039040 0.866577 0.774003
Si Si6 0.899725 0.592064 0.833630
Si Si7 0.196169 0.106047 0.246748
Si Si8 0.491195 0.464649 0.152927
O O1 0.808869 0.398475 0.914295
O O2 0.914962 0.512313 0.892517
O O3 0.076492 0.189466 0.788797
O O4 0.111111 0.005810 0.445894
O O5 0.063685 0.971456 0.762498
O O6 0.364658 0.709326 0.455487
O O7 0.142571 0.163808 0.962670
O O8 0.378936 0.522694 0.124722
O O9 0.389376 0.555919 0.935748
O O10 0.215115 0.530767 0.488353
O O11 0.253416 0.304078 0.124203
O O12 0.202599 0.230706 0.251249
O O13 0.500000 0.000000 0.000000
O O14 0.880159 0.960571 0.839239
O O15 0.000000 0.000000 0.000000
O O16 0.083355 0.324522 0.535179
O O17 0.391585 0.821353 0.032727
#
# Coordination Sequence:
#
# PCOD8002378 Si02
#       8
#     2   2   2   2   2   2   2   2
#     4  10  20  36  64  87 122 161 206 238 302 358
#     4  11  23  38  62  92 125 157 201 250 303 356
#     4   9  19  35  59  91 118 158 200 248 290 361
#     4  11  25  41  62  90 120 157 204 254 306 354
#     4  11  23  42  65  89 118 161 206 251 299 360
#     4  11  23  41  60  89 124 162 200 248 300 361
#     4  11  22  40  65  86 117 161 206 245 302 362
#     4  10  20  35  60  90 122 153 199 248 301 351
#
# _framework density 20.244641999999999
#
# number of rings (size 3 to 8) (size 9 to 14) (size 15 to 20)
#    0.000    1.500    1.250    4.875   10.500    1.000 
#    0.000    4.375    0.000    0.000    0.000    0.000 
#    0.000    0.000    0.000    0.000    0.000    0.000 
#
# Total GULP energy -198437.165922 kJ/mol
# GULP energy per Si atom -12402.322870 kJ/mol
# Density = 2.019856 g / cm^3
# Si number density = 20.244642 Si / 1000 Ang^3
#
#
#
# Elastic Constant Matrix: (Units=GPa)
#
#
# Indices 1 2 3 4 5 6 
#
# 1 90.3653 22.5642 57.9657 0.4643 1.4435 8.3065
# 2 22.5642 95.6500 43.7531 8.3658 1.5127 4.7973
# 3 57.9657 43.7531 110.8276 2.8117 10.6851 -9.9551
# 4 0.4643 8.3658 2.8117 33.3471 -3.4250 -6.9462
# 5 1.4435 1.5127 10.6851 -3.4250 35.1194 4.5761
# 6 8.3065 4.7973 -9.9551 -6.9462 4.5761 29.3240
#
#
#
# Elastic Compliance Matrix: (Units=1/GPa)
#
#
# Indices 1 2 3 4 5 6 
#
# 1 0.019353 0.001561 -0.012066 -0.001479 0.004074 -0.010820
# 2 0.001561 0.013910 -0.006956 -0.004051 0.001883 -0.006333
# 3 -0.012066 -0.006956 0.019823 0.002233 -0.006694 0.012859
# 4 -0.001479 -0.004051 0.002233 0.032954 0.001544 0.009405
# 5 0.004074 0.001883 -0.006694 0.001544 0.031492 -0.008283
# 6 -0.010820 -0.006333 0.012859 0.009405 -0.008283 0.046088
#
#
# Mechanical properties :
#
#
# Convention : Reuss Voigt Hill
#
# Bulk Modulus (GPa) = 55.04619 60.60099 57.82359
# Shear Modulus (GPa) = 24.43830 31.06212 27.75021
#
# Velocity S-wave (km/s) = 3.47817 3.92131 3.70637
# Velocity P-wave (km/s) = 6.58633 7.10645 6.85133
#
# Compressibility (1/GPa) = 0.01816656
#
# Stress axis : x y z
#
# Youngs Moduli (GPa) = 51.67155 71.88865 50.44527
#
# Poissons Ratio (x) = -0.11224 0.60865
# Poissons Ratio (y) = -0.08068 0.35089
# Poissons Ratio (z) = 0.62345 0.50005
#
# Static dielectric constant tensor:
#      x y z
#    x 3.586590 0.096950 -0.118600 
#    y 0.096950 3.753260 0.093640 
#    z -0.118600 0.093640 3.623220 
# 
# 
# High freq. dielectric constant tensor:
#      x y z
#    x 1.786580 0.005680 -0.007900 
#    y 0.005680 1.802420 0.005670 
#    z -0.007900 0.005670 1.781040 
# 
# From -- ./inp_files/223581.got.cif
#   From: 2010.06.25/outbox.cif.g09.slc.cpg/sg2_112_cif.got.tgz:223581.got - 2010.06.27 13:26:56.
