data_PCOD8002379
_publ_section_title
;
Structure prediction by ZEFSAII (Michael W. Deem and Ramdas Pophale) SiO2 
 PCOD8002379
Probable space group: P -1
;
_chemical_formula_sum "Si O2"
_cell_formula_units_Z 16
_cell_length_a 12.530708
_cell_length_b 12.301515
_cell_length_c 9.251803
_cell_angle_alpha 63.942328
_cell_angle_beta 102.050966
_cell_angle_gamma 145.988903
_cell_volume 681.522546
_symmetry_space_group_name_H-M "P -1"
_symmetry_group_IT_number 2
_symmetry_cell_setting 'triclinic'
loop_
_space_group_symop_operation_xyz
x,y,z
-x,-y,-z
loop_
_atom_site_type_symbol
_atom_site_label
_atom_site_fract_x
_atom_site_fract_y
_atom_site_fract_z
Si Si1 0.044433 0.844868 0.272564
Si Si2 0.119871 0.535858 0.676965
Si Si3 0.508870 0.197696 0.541055
Si Si4 0.555987 0.914491 0.095381
Si Si5 0.994389 0.632076 0.967236
Si Si6 0.945773 0.264559 0.378416
Si Si7 0.642160 0.545341 0.207014
Si Si8 0.532970 0.692539 0.992139
O O1 0.005404 0.800079 0.461756
O O2 0.040153 0.700447 0.308314
O O3 0.874632 0.765899 0.192187
O O4 0.257318 0.101656 0.153731
O O5 0.330624 0.736626 0.535790
O O6 0.004814 0.556853 0.644578
O O7 0.162918 0.511503 0.860735
O O8 0.556298 0.236565 0.703148
O O9 0.523822 0.349059 0.399778
O O10 0.290689 0.941526 0.600704
O O11 0.478805 0.760944 0.029214
O O12 0.794387 0.121156 0.056896
O O13 0.500000 0.000000 0.000000
O O14 0.938195 0.651969 0.790888
O O15 0.000000 0.500000 0.000000
O O16 0.549305 0.593000 0.163024
O O17 0.632631 0.487298 0.072663
#
# Coordination Sequence:
#
# PCOD8002379 Si02
#       8
#     2   2   2   2   2   2   2   2
#     4  11  21  38  66  94 126 171 223 275 332 394
#     4  10  20  35  60  93 131 174 219 263 330 398
#     4  10  22  39  62  94 130 175 222 269 322 402
#     4  11  25  41  64  98 137 173 214 271 340 394
#     4   9  20  38  57  89 131 175 210 266 324 397
#     4  10  20  35  60  90 137 171 213 276 332 393
#     4  10  24  43  69  98 124 179 235 268 329 390
#     4  11  23  45  69  94 136 175 220 286 323 388
#
# _framework density 23.476845999999998
#
# number of rings (size 3 to 8) (size 9 to 14) (size 15 to 20)
#    0.000    1.750    2.500    1.125    1.750   10.500 
#    0.000    0.000    0.000    3.000    0.000    0.000 
#    0.000    0.000    0.000    0.000    0.000    0.000 
#
# Total GULP energy -198290.428379 kJ/mol
# GULP energy per Si atom -12393.151774 kJ/mol
# Density = 2.342341 g / cm^3
# Si number density = 23.476846 Si / 1000 Ang^3
#
#
#
# Elastic Constant Matrix: (Units=GPa)
#
#
# Indices 1 2 3 4 5 6 
#
# 1 77.6391 11.6505 43.4512 14.5042 12.7686 -7.3732
# 2 11.6505 50.2081 18.6286 15.9061 -2.5046 -0.0656
# 3 43.4512 18.6286 192.9877 23.2153 1.3542 3.2674
# 4 14.5042 15.9061 23.2153 39.6583 0.4111 1.5031
# 5 12.7686 -2.5046 1.3542 0.4111 40.2729 -0.7094
# 6 -7.3732 -0.0656 3.2674 1.5031 -0.7094 31.1569
#
#
#
# Elastic Compliance Matrix: (Units=1/GPa)
#
#
# Indices 1 2 3 4 5 6 
#
# 1 0.016932 -0.001820 -0.003231 -0.003684 -0.005258 0.004400
# 2 -0.001820 0.023378 -0.000875 -0.008227 0.002147 0.000156
# 3 -0.003231 -0.000875 0.006262 -0.002091 0.000758 -0.001305
# 4 -0.003684 -0.008227 -0.002091 0.031165 0.000370 -0.002165
# 5 -0.005258 0.002147 0.000758 0.000370 0.026589 -0.000732
# 6 0.004400 0.000156 -0.001305 -0.002165 -0.000732 0.033362
#
#
# Mechanical properties :
#
#
# Convention : Reuss Voigt Hill
#
# Bulk Modulus (GPa) = 28.80182 52.03285 40.41734
# Shear Modulus (GPa) = 31.03430 38.69126 34.86278
#
# Velocity S-wave (km/s) = 3.63975 4.06404 3.85773
# Velocity P-wave (km/s) = 5.47344 6.65082 6.09065
#
# Compressibility (1/GPa) = 0.03472003
#
# Stress axis : x y z
#
# Youngs Moduli (GPa) = 59.05908 42.77615 159.69389
#
# Poissons Ratio (x) = 0.07784 0.51599
# Poissons Ratio (y) = 0.10747 0.13972
# Poissons Ratio (z) = 0.19083 0.03743
#
# Static dielectric constant tensor:
#      x y z
#    x 3.378340 -0.122990 0.349410 
#    y -0.122990 4.270660 0.219710 
#    z 0.349410 0.219710 4.256980 
# 
# 
# High freq. dielectric constant tensor:
#      x y z
#    x 1.879720 0.000450 0.002820 
#    y 0.000450 1.935840 0.007250 
#    z 0.002820 0.007250 1.956400 
# 
# From -- ./inp_files/312838.got.cif
#   From: 2010.06.25/outbox.cif.g09.slc.cpg/sg2_157_cif.got.tgz:312838.got - 2010.06.27 13:26:56.
