data_PCOD8002607
_publ_section_title
;
Structure prediction by ZEFSAII (Michael W. Deem and Ramdas Pophale) SiO2 
 PCOD8002607
Probable space group: P -1
;
_chemical_formula_sum "Si O2"
_cell_formula_units_Z 14
_cell_length_a 13.927808
_cell_length_b 9.663435
_cell_length_c 8.902321
_cell_angle_alpha 76.490643
_cell_angle_beta 58.446934
_cell_angle_gamma 49.052719
_cell_volume 759.984706
_symmetry_space_group_name_H-M "P -1"
_symmetry_group_IT_number 2
_symmetry_cell_setting 'triclinic'
loop_
_space_group_symop_operation_xyz
x,y,z
-x,-y,-z
loop_
_atom_site_type_symbol
_atom_site_label
_atom_site_fract_x
_atom_site_fract_y
_atom_site_fract_z
Si Si1 0.704792 0.252361 0.337735
Si Si2 0.009951 0.652339 0.802490
Si Si3 0.368255 0.696483 0.123271
Si Si4 0.533744 0.655377 0.278131
Si Si5 0.790019 0.988479 0.075384
Si Si6 0.241978 0.290904 0.876446
Si Si7 0.875297 0.209326 0.504137
O O1 0.650447 0.430360 0.236891
O O2 0.562575 0.281256 0.507468
O O3 0.797869 0.070654 0.201886
O O4 0.804284 0.225119 0.399140
O O5 0.158115 0.455666 0.782461
O O6 0.048843 0.696711 0.601223
O O7 0.873497 0.650131 0.905601
O O8 0.956259 0.820515 0.922034
O O9 0.427268 0.743575 0.199847
O O10 0.245602 0.687370 0.291330
O O11 0.500000 0.500000 0.000000
O O12 0.301834 0.852963 0.014115
O O13 0.615130 0.740778 0.179500
O O14 0.710478 0.898908 0.188878
O O15 0.000000 0.000000 0.500000
#
# Coordination Sequence:
#
# PCOD8002607 Si02
#       7
#     2   2   2   2   2   2   2
#     4  10  21  34  58  87 111 145 195 233 281 336
#     4   9  19  36  57  81 112 151 187 234 283 334
#     4  11  22  36  57  89 119 143 193 241 283 328
#     4  10  20  36  56  82 117 154 180 233 290 337
#     4  10  20  37  56  87 112 147 196 230 277 345
#     4   9  19  37  57  82 113 154 187 231 284 345
#     4  11  20  38  59  84 114 149 187 242 286 331
#
# _framework density 18.421424999999999
#
# number of rings (size 3 to 8) (size 9 to 14) (size 15 to 20)
#    0.857    1.143    4.286    0.000    0.000    1.714 
#    2.571    0.000    0.000    1.714    0.000    0.000 
#    0.000    0.000    0.000    0.000    0.000    0.000 
#
# Total GULP energy -173467.390875 kJ/mol
# GULP energy per Si atom -12390.527920 kJ/mol
# Density = 1.837950 g / cm^3
# Si number density = 18.421425 Si / 1000 Ang^3
#
#
#
# Elastic Constant Matrix: (Units=GPa)
#
#
# Indices 1 2 3 4 5 6 
#
# 1 38.8463 3.2100 19.7527 -10.8582 -11.6511 -0.4846
# 2 3.2100 91.0463 45.9201 -11.7096 4.7150 0.3734
# 3 19.7527 45.9201 87.6199 -8.7769 -17.6133 1.7430
# 4 -10.8582 -11.7096 -8.7769 35.0483 3.6155 1.4320
# 5 -11.6511 4.7150 -17.6133 3.6155 34.7478 -5.4633
# 6 -0.4846 0.3734 1.7430 1.4320 -5.4633 25.1039
#
#
#
# Elastic Compliance Matrix: (Units=1/GPa)
#
#
# Indices 1 2 3 4 5 6 
#
# 1 0.033573 0.003158 -0.007032 0.008926 0.006654 0.002028
# 2 0.003158 0.017333 -0.010782 0.004896 -0.007481 -0.001356
# 3 -0.007032 -0.010782 0.020425 -0.001708 0.009766 0.000829
# 4 0.008926 0.004896 -0.001708 0.032830 -0.002292 -0.002153
# 5 0.006654 -0.007481 0.009766 -0.002292 0.038482 0.008067
# 6 0.002028 -0.001356 0.000829 -0.002153 0.008067 0.041715
#
#
# Mechanical properties :
#
#
# Convention : Reuss Voigt Hill
#
# Bulk Modulus (GPa) = 23.79921 39.47533 31.63727
# Shear Modulus (GPa) = 21.96095 28.88865 25.42480
#
# Velocity S-wave (km/s) = 3.45649 3.96436 3.71910
# Velocity P-wave (km/s) = 5.37374 6.51386 5.97108
#
# Compressibility (1/GPa) = 0.04201821
#
# Stress axis : x y z
#
# Youngs Moduli (GPa) = 29.78547 57.69375 48.96024
#
# Poissons Ratio (x) = -0.18221 0.34431
# Poissons Ratio (y) = -0.09407 0.52790
# Poissons Ratio (z) = 0.20946 0.62207
#
# Static dielectric constant tensor:
#      x y z
#    x 3.167260 -0.433370 -0.059390 
#    y -0.433370 1.823320 0.625490 
#    z -0.059390 0.625490 3.239650 
# 
# 
# High freq. dielectric constant tensor:
#      x y z
#    x 1.691890 -0.015400 -0.023340 
#    y -0.015400 1.714900 -0.013540 
#    z -0.023340 -0.013540 1.711470 
# 
# From -- ./inp_files/202581.got.cif
#   From: 2010.06.25/outbox.cif.g09.slc.cpg/sg2_102_cif.got.tgz:202581.got - 2010.06.27 13:26:56.
