data_PCOD8002543
_publ_section_title
;
Structure prediction by ZEFSAII (Michael W. Deem and Ramdas Pophale) SiO2 
 PCOD8002543
Probable space group: P -1
;
_chemical_formula_sum "Si O2"
_cell_formula_units_Z 16
_cell_length_a 11.590946
_cell_length_b 9.146964
_cell_length_c 15.351769
_cell_angle_alpha 48.529350
_cell_angle_beta 48.893552
_cell_angle_gamma 37.085391
_cell_volume 704.714888
_symmetry_space_group_name_H-M "P -1"
_symmetry_group_IT_number 2
_symmetry_cell_setting 'triclinic'
loop_
_space_group_symop_operation_xyz
x,y,z
-x,-y,-z
loop_
_atom_site_type_symbol
_atom_site_label
_atom_site_fract_x
_atom_site_fract_y
_atom_site_fract_z
Si Si1 0.468557 0.242155 0.654778
Si Si2 0.601732 0.739856 0.723397
Si Si3 0.279689 0.259784 0.995265
Si Si4 0.975515 0.748704 0.225779
Si Si5 0.706372 0.291725 0.180228
Si Si6 0.549909 0.524851 0.601300
Si Si7 0.914897 0.573452 0.156085
Si Si8 0.205767 0.354109 0.503693
O O1 0.586366 0.267062 0.661592
O O2 0.526562 0.292763 0.515662
O O3 0.230174 0.457615 0.708207
O O4 0.533076 0.962693 0.737355
O O5 0.446070 0.687939 0.820254
O O6 0.623521 0.828145 0.582164
O O7 0.810000 0.478813 0.753633
O O8 0.277749 0.491452 0.925906
O O9 0.205495 0.258706 0.936624
O O10 0.121390 0.302376 0.127954
O O11 0.500000 0.000000 0.000000
O O12 0.962680 0.711780 0.144158
O O13 0.797257 0.777717 0.355835
O O14 0.924890 0.017589 0.162248
O O15 0.632209 0.307212 0.307770
O O16 0.755365 0.451958 0.563626
O O17 0.000000 0.500000 0.500000
#
# Coordination Sequence:
#
# PCOD8002543 Si02
#       8
#     2   2   2   2   2   2   2   2
#     4  11  20  39  65 100 134 174 217 262 329 386
#     4  10  22  37  64  99 140 175 209 263 320 393
#     4  11  28  49  71  90 125 173 221 286 334 387
#     4  11  22  39  67  96 134 170 218 270 317 391
#     4  11  22  42  66  97 128 172 219 263 335 388
#     4  10  20  35  68  95 135 180 211 264 323 394
#     4  11  24  45  69  94 128 170 221 273 333 383
#     4   9  18  36  57  97 142 178 212 252 318 384
#
# _framework density 22.704217
#
# number of rings (size 3 to 8) (size 9 to 14) (size 15 to 20)
#    0.000    1.500    3.750    0.750    1.750    4.500 
#    0.000    6.250    2.750    0.000    0.000    0.000 
#    0.000    0.000    0.000    0.000    0.000    0.000 
#
# Total GULP energy -198240.864294 kJ/mol
# GULP energy per Si atom -12390.054018 kJ/mol
# Density = 2.265254 g / cm^3
# Si number density = 22.704217 Si / 1000 Ang^3
#
#
#
# Elastic Constant Matrix: (Units=GPa)
#
#
# Indices 1 2 3 4 5 6 
#
# 1 129.5758 67.7628 19.9749 0.3168 2.0044 25.9888
# 2 67.7628 146.6854 43.2812 2.5324 -0.2355 5.4022
# 3 19.9749 43.2812 57.8714 10.7894 2.8815 4.3970
# 4 0.3168 2.5324 10.7894 28.2486 5.2291 -6.3800
# 5 2.0044 -0.2355 2.8815 5.2291 32.0320 2.8772
# 6 25.9888 5.4022 4.3970 -6.3800 2.8772 40.5112
#
#
#
# Elastic Compliance Matrix: (Units=1/GPa)
#
#
# Indices 1 2 3 4 5 6 
#
# 1 0.011894 -0.005438 0.000809 -0.001602 0.000056 -0.007249
# 2 -0.005438 0.011331 -0.007316 0.002474 0.000396 0.003133
# 3 0.000809 -0.007316 0.024539 -0.009473 -0.000436 -0.003667
# 4 -0.001602 0.002474 -0.009473 0.042045 -0.006685 0.008822
# 5 0.000056 0.000396 -0.000436 -0.006685 0.032655 -0.003413
# 6 -0.007249 0.003133 -0.003667 0.008822 -0.003413 0.030947
#
#
# Mechanical properties :
#
#
# Convention : Reuss Voigt Hill
#
# Bulk Modulus (GPa) = 41.89035 66.24118 54.06577
# Shear Modulus (GPa) = 26.98923 33.69927 30.34425
#
# Velocity S-wave (km/s) = 3.45154 3.85681 3.65979
# Velocity P-wave (km/s) = 5.86299 7.00516 6.45937
#
# Compressibility (1/GPa) = 0.02387184
#
# Stress axis : x y z
#
# Youngs Moduli (GPa) = 84.07714 88.25460 40.75200
#
# Poissons Ratio (x) = 0.47996 -0.03296
# Poissons Ratio (y) = 0.45724 0.29815
# Poissons Ratio (z) = -0.06799 0.64568
#
# Static dielectric constant tensor:
#      x y z
#    x 4.433370 0.293640 -0.105200 
#    y 0.293640 4.059080 0.499620 
#    z -0.105200 0.499620 4.240470 
# 
# 
# High freq. dielectric constant tensor:
#      x y z
#    x 1.912220 0.017590 -0.004990 
#    y 0.017590 1.878350 0.036440 
#    z -0.004990 0.036440 1.881740 
# 
# From -- ./inp_files/515032.got.cif
#   From: 2010.06.25/outbox.cif.g09.slc.cpg/sg2_258_cif.got.tgz:515032.got - 2010.06.27 13:26:56.
