data_PCOD8002952
_publ_section_title
;
Structure prediction by ZEFSAII (Michael W. Deem and Ramdas Pophale) SiO2 
 PCOD8002952
Probable space group: P -1
;
_chemical_formula_sum "Si O2"
_cell_formula_units_Z 16
_cell_length_a 6.050607
_cell_length_b 12.528330
_cell_length_c 24.494609
_cell_angle_alpha 21.693535
_cell_angle_beta 95.357416
_cell_angle_gamma 93.871289
_cell_volume 682.414493
_symmetry_space_group_name_H-M "P -1"
_symmetry_group_IT_number 2
_symmetry_cell_setting 'triclinic'
loop_
_space_group_symop_operation_xyz
x,y,z
-x,-y,-z
loop_
_atom_site_type_symbol
_atom_site_label
_atom_site_fract_x
_atom_site_fract_y
_atom_site_fract_z
Si Si1 0.939734 0.939640 0.269623
Si Si2 0.312569 0.061492 0.632303
Si Si3 0.222940 0.222338 0.837500
Si Si4 0.334028 0.326370 0.237702
Si Si5 0.986473 0.772822 0.974313
Si Si6 0.623930 0.824588 0.022517
Si Si7 0.306134 0.584382 0.504952
Si Si8 0.106199 0.805920 0.505529
O O1 0.843187 0.077922 0.258551
O O2 0.741295 0.752982 0.329414
O O3 0.158037 0.731698 0.383282
O O4 0.007798 0.174749 0.115378
O O5 0.431244 0.341641 0.530241
O O6 0.157950 0.161144 0.529693
O O7 0.499524 0.828346 0.728547
O O8 0.199202 0.153782 0.934267
O O9 0.161169 0.564367 0.667085
O O10 0.056248 0.050355 0.878504
O O11 0.475590 0.125235 0.870825
O O12 0.462547 0.568684 0.158057
O O13 0.214944 0.110202 0.380118
O O14 0.137081 0.483748 0.123591
O O15 0.738390 0.736107 0.009454
O O16 0.240250 0.729703 0.490893
#
# Coordination Sequence:
#
# PCOD8002952 Si02
#       8
#     2   2   2   2   2   2   2   2
#     4  10  20  36  60  93 127 161 208 256 300 367
#     4  10  21  38  62  88 129 169 201 255 304 360
#     4  10  22  42  67  96 117 156 214 260 312 372
#     4  10  23  41  59  89 130 166 210 249 302 378
#     4  11  22  40  63  91 130 163 202 254 315 367
#     4  10  23  43  66  91 125 161 201 263 318 366
#     4   9  19  36  57  95 126 155 208 257 305 364
#     4  10  20  40  63  91 125 159 208 259 304 365
#
# _framework density 23.446162999999999
#
# number of rings (size 3 to 8) (size 9 to 14) (size 15 to 20)
#    0.000    2.000    1.250    1.500    0.000    5.000 
#    0.000   11.250    0.000    0.000    0.000    0.000 
#    0.000    0.000    0.000    0.000    0.000    0.000 
#
# Total GULP energy -198289.307108 kJ/mol
# GULP energy per Si atom -12393.081694 kJ/mol
# Density = 2.339280 g / cm^3
# Si number density = 23.446163 Si / 1000 Ang^3
#
#
#
# Elastic Constant Matrix: (Units=GPa)
#
#
# Indices 1 2 3 4 5 6 
#
# 1 96.1325 17.0529 16.7984 -1.5173 6.1461 -14.0991
# 2 17.0529 39.2556 7.2073 2.1361 3.7200 1.3343
# 3 16.7984 7.2073 83.6405 -4.8035 14.5048 -9.7804
# 4 -1.5173 2.1361 -4.8035 27.5887 2.5703 -3.6614
# 5 6.1461 3.7200 14.5048 2.5703 28.3778 -9.0251
# 6 -14.0991 1.3343 -9.7804 -3.6614 -9.0251 35.6446
#
#
#
# Elastic Compliance Matrix: (Units=1/GPa)
#
#
# Indices 1 2 3 4 5 6 
#
# 1 0.012326 -0.005363 -0.001384 0.001486 0.000162 0.004890
# 2 -0.005363 0.028715 -0.001610 -0.003146 -0.002996 -0.004720
# 3 -0.001384 -0.001610 0.013887 0.003324 -0.006224 0.002089
# 4 0.001486 -0.003146 0.003324 0.038099 -0.003589 0.004622
# 5 0.000162 -0.002996 -0.006224 -0.003589 0.041870 0.008701
# 6 0.004890 -0.004720 0.002089 0.004622 0.008701 0.033417
#
#
# Mechanical properties :
#
#
# Convention : Reuss Voigt Hill
#
# Bulk Modulus (GPa) = 26.16901 33.46064 29.81483
# Shear Modulus (GPa) = 25.28251 30.18688 27.73469
#
# Velocity S-wave (km/s) = 3.28734 3.59206 3.44308
# Velocity P-wave (km/s) = 5.05909 5.61303 5.34325
#
# Compressibility (1/GPa) = 0.03821313
#
# Stress axis : x y z
#
# Youngs Moduli (GPa) = 81.13077 34.82530 72.00878
#
# Poissons Ratio (x) = 0.18676 0.09968
# Poissons Ratio (y) = 0.43507 0.11596
# Poissons Ratio (z) = 0.11231 0.05608
#
# Static dielectric constant tensor:
#      x y z
#    x 4.518480 0.173550 -0.094370 
#    y 0.173550 4.054360 -0.287750 
#    z -0.094370 -0.287750 4.231200 
# 
# 
# High freq. dielectric constant tensor:
#      x y z
#    x 1.935860 0.002000 -0.001050 
#    y 0.002000 1.915570 -0.014650 
#    z -0.001050 -0.014650 1.909650 
# 
# From -- ./inp_files/569657.got.cif
#   From: 2010.06.25/outbox.cif.g09.slc.cpg/sg2_285_cif.got.tgz:569657.got - 2010.06.27 13:26:56.
