data_PCOD8002240
_publ_section_title
;
Structure prediction by ZEFSAII (Michael W. Deem and Ramdas Pophale) SiO2 
 PCOD8002240
Probable space group: P -1
;
_chemical_formula_sum "Si O2"
_cell_formula_units_Z 16
_cell_length_a 15.966451
_cell_length_b 9.684129
_cell_length_c 12.121286
_cell_angle_alpha 74.574876
_cell_angle_beta 123.381901
_cell_angle_gamma 144.183064
_cell_volume 851.298569
_symmetry_space_group_name_H-M "P -1"
_symmetry_group_IT_number 2
_symmetry_cell_setting 'triclinic'
loop_
_space_group_symop_operation_xyz
x,y,z
-x,-y,-z
loop_
_atom_site_type_symbol
_atom_site_label
_atom_site_fract_x
_atom_site_fract_y
_atom_site_fract_z
Si Si1 0.198219 0.478813 0.027634
Si Si2 0.083774 0.219120 0.781383
Si Si3 0.377165 0.723923 0.753752
Si Si4 0.034030 0.233391 0.187740
Si Si5 0.163990 0.032327 0.535096
Si Si6 0.386465 0.046457 0.784135
Si Si7 0.185860 0.382670 0.490673
Si Si8 0.246398 0.858195 0.967685
O O1 0.149340 0.351642 0.135972
O O2 0.403523 0.690990 0.104490
O O3 0.075373 0.261835 0.891692
O O4 0.157328 0.598524 0.971095
O O5 0.264400 0.482186 0.797986
O O6 0.913883 0.079691 0.621043
O O7 0.079508 0.042432 0.810721
O O8 0.334102 0.836077 0.732491
O O9 0.329104 0.644341 0.607070
O O10 0.582816 0.929638 0.874848
O O11 0.172982 0.426451 0.347126
O O12 0.896218 0.198470 0.079967
O O13 0.317000 0.095687 0.649593
O O14 0.008800 0.825840 0.554731
O O15 0.245833 0.287123 0.556072
O O16 0.702301 0.052475 0.139949
#
# Coordination Sequence:
#
# PCOD8002240 Si02
#       8
#     2   2   2   2   2   2   2   2
#     4  11  22  40  55  82 116 147 179 229 273 329
#     4  10  20  37  57  84 113 140 184 232 271 322
#     4  10  20  35  58  84 113 137 187 237 266 313
#     4  11  23  37  58  81 115 150 178 220 285 330
#     4   9  19  34  57  83 109 143 186 227 269 321
#     4  11  20  37  59  84 108 145 189 226 273 317
#     4   9  19  36  53  83 116 139 180 231 273 321
#     4  11  21  38  57  84 109 145 191 225 268 325
#
# _framework density 18.794816000000001
#
# number of rings (size 3 to 8) (size 9 to 14) (size 15 to 20)
#    0.000    1.750    3.750    2.250    0.000    4.500 
#    0.000    6.250    0.000    0.000    0.000    0.000 
#    0.000    0.000    0.000    0.000    0.000    0.000 
#
# Total GULP energy -198444.076157 kJ/mol
# GULP energy per Si atom -12402.754760 kJ/mol
# Density = 1.875204 g / cm^3
# Si number density = 18.794816 Si / 1000 Ang^3
#
#
#
# Elastic Constant Matrix: (Units=GPa)
#
#
# Indices 1 2 3 4 5 6 
#
# 1 52.0887 33.5070 50.1188 -0.6165 -14.0753 -12.4674
# 2 33.5070 42.3952 24.5581 1.4729 -0.2463 -9.6056
# 3 50.1188 24.5581 106.4252 -0.8881 -14.9304 -14.8042
# 4 -0.6165 1.4729 -0.8881 26.6615 -9.3068 -8.7091
# 5 -14.0753 -0.2463 -14.9304 -9.3068 44.5996 -8.1405
# 6 -12.4674 -9.6056 -14.8042 -8.7091 -8.1405 23.6022
#
#
#
# Elastic Compliance Matrix: (Units=1/GPa)
#
#
# Indices 1 2 3 4 5 6 
#
# 1 0.090921 -0.052547 -0.020818 0.027618 0.033656 0.035383
# 2 -0.052547 0.059010 0.006695 -0.014752 -0.019214 -0.011613
# 3 -0.020818 0.006695 0.018267 0.001182 0.000523 0.003803
# 4 0.027618 -0.014752 0.001182 0.063669 0.030209 0.043239
# 5 0.033656 -0.019214 0.000523 0.030209 0.046239 0.037381
# 6 0.035383 -0.011613 0.003803 0.043239 0.037381 0.087566
#
#
# Mechanical properties :
#
#
# Convention : Reuss Voigt Hill
#
# Bulk Modulus (GPa) = 28.68771 46.36412 37.52591
# Shear Modulus (GPa) = 9.79179 25.15433 17.47306
#
# Velocity S-wave (km/s) = 2.28498 3.66234 3.05236
# Velocity P-wave (km/s) = 4.71787 6.52731 5.69491
#
# Compressibility (1/GPa) = 0.03485814
#
# Stress axis : x y z
#
# Youngs Moduli (GPa) = 10.99855 16.94631 54.74287
#
# Poissons Ratio (x) = 0.89049 1.13963
# Poissons Ratio (y) = 0.57795 -0.36652
# Poissons Ratio (z) = 0.22897 -0.11346
#
# Static dielectric constant tensor:
#      x y z
#    x 3.326570 -0.215120 -0.191420 
#    y -0.215120 3.356370 -0.025090 
#    z -0.191420 -0.025090 3.645930 
# 
# 
# High freq. dielectric constant tensor:
#      x y z
#    x 1.718910 -0.018850 -0.010790 
#    y -0.018850 1.716470 -0.003340 
#    z -0.010790 -0.003340 1.741500 
# 
# From -- ./inp_files/447227.got.cif
#   From: 2010.06.25/outbox.cif.g09.slc.cpg/sg2_224_cif.got.tgz:447227.got - 2010.06.27 13:26:56.
