data_PCOD8002419
_publ_section_title
;
Structure prediction by ZEFSAII (Michael W. Deem and Ramdas Pophale) SiO2 
 PCOD8002419
Probable space group: P -1
;
_chemical_formula_sum "Si O2"
_cell_formula_units_Z 16
_cell_length_a 8.764636
_cell_length_b 8.337218
_cell_length_c 17.529145
_cell_angle_alpha 78.679154
_cell_angle_beta 55.154073
_cell_angle_gamma 46.375892
_cell_volume 717.500109
_symmetry_space_group_name_H-M "P -1"
_symmetry_group_IT_number 2
_symmetry_cell_setting 'triclinic'
loop_
_space_group_symop_operation_xyz
x,y,z
-x,-y,-z
loop_
_atom_site_type_symbol
_atom_site_label
_atom_site_fract_x
_atom_site_fract_y
_atom_site_fract_z
Si Si1 0.303198 0.932184 0.411070
Si Si2 0.310709 0.843209 0.249585
Si Si3 0.203788 0.227955 0.650287
Si Si4 0.709701 0.393186 0.843071
Si Si5 0.272026 0.849115 0.591058
Si Si6 0.138536 0.530385 0.518119
Si Si7 0.391398 0.819827 0.998155
Si Si8 0.276784 0.242328 0.962397
O O1 0.372405 0.790764 0.326798
O O2 0.529550 0.924396 0.361775
O O3 0.284543 0.818154 0.498339
O O4 0.020738 0.200601 0.455593
O O5 0.382438 0.622496 0.211020
O O6 0.489945 0.870090 0.156138
O O7 0.988820 0.079649 0.307301
O O8 0.133338 0.442927 0.609420
O O9 0.976156 0.329700 0.766366
O O10 0.239138 0.065379 0.591921
O O11 0.772257 0.198693 0.898389
O O12 0.481374 0.656223 0.915255
O O13 0.548861 0.620701 0.574431
O O14 0.000000 0.500000 0.500000
O O15 0.641414 0.739260 0.980085
O O16 0.218478 0.083968 0.995006
O O17 0.000000 0.500000 0.000000
#
# Coordination Sequence:
#
# PCOD8002419 Si02
#       8
#     2   2   2   2   2   2   2   2
#     4  11  21  36  59  88 126 171 209 262 315 370
#     4  10  23  39  60  93 129 163 213 263 314 382
#     4  10  20  35  61  89 124 166 213 261 310 378
#     4   9  20  41  65  90 125 171 211 260 321 377
#     4  10  20  40  57  84 130 166 207 264 311 370
#     4  11  19  35  61  89 120 169 217 257 315 372
#     4   9  20  43  67  87 129 165 203 272 325 373
#     4  10  22  42  68  97 126 161 212 263 329 387
#
# _framework density 22.299648999999999
#
# number of rings (size 3 to 8) (size 9 to 14) (size 15 to 20)
#    0.000    2.000    2.500    1.125    3.500    0.500 
#    0.000   14.375    0.000    0.000    0.000    0.000 
#    0.000    0.000    0.000    0.000    0.000    0.000 
#
# Total GULP energy -198314.114210 kJ/mol
# GULP energy per Si atom -12394.632138 kJ/mol
# Density = 2.224889 g / cm^3
# Si number density = 22.299649 Si / 1000 Ang^3
#
#
#
# Elastic Constant Matrix: (Units=GPa)
#
#
# Indices 1 2 3 4 5 6 
#
# 1 96.0546 29.5117 57.6761 5.1190 6.8912 -8.5951
# 2 29.5117 90.3302 26.9414 10.5203 -5.1278 -21.0788
# 3 57.6761 26.9414 120.7177 6.8626 -0.2606 -10.2927
# 4 5.1190 10.5203 6.8626 14.5624 3.7807 -1.8054
# 5 6.8912 -5.1278 -0.2606 3.7807 54.6490 3.2009
# 6 -8.5951 -21.0788 -10.2927 -1.8054 3.2009 22.5151
#
#
#
# Elastic Compliance Matrix: (Units=1/GPa)
#
#
# Indices 1 2 3 4 5 6 
#
# 1 0.015624 -0.003250 -0.006765 0.000685 -0.002368 0.000221
# 2 -0.003250 0.016507 -0.000486 -0.009426 0.001849 0.012973
# 3 -0.006765 -0.000486 0.011967 -0.002900 0.000944 0.002067
# 4 0.000685 -0.009426 -0.002900 0.077875 -0.006210 -0.002761
# 5 -0.002368 0.001849 0.000944 -0.006210 0.019321 -0.001986
# 6 0.000221 0.012973 0.002067 -0.002761 -0.001986 0.057650
#
#
# Mechanical properties :
#
#
# Convention : Reuss Voigt Hill
#
# Bulk Modulus (GPa) = 43.29248 59.48455 51.38852
# Shear Modulus (GPa) = 21.96408 31.21018 26.58713
#
# Velocity S-wave (km/s) = 3.14180 3.74516 3.45667
# Velocity P-wave (km/s) = 5.71116 6.74052 6.24708
#
# Compressibility (1/GPa) = 0.02309870
#
# Stress axis : x y z
#
# Youngs Moduli (GPa) = 64.00301 60.58084 83.56049
#
# Poissons Ratio (x) = 0.19686 0.56528
# Poissons Ratio (y) = 0.20798 0.04057
# Poissons Ratio (z) = 0.43297 0.02941
#
# Static dielectric constant tensor:
#      x y z
#    x 4.277960 0.019070 -0.042390 
#    y 0.019070 3.731520 0.072840 
#    z -0.042390 0.072840 4.207200 
# 
# 
# High freq. dielectric constant tensor:
#      x y z
#    x 1.896030 0.007700 -0.002910 
#    y 0.007700 1.845190 0.004110 
#    z -0.002910 0.004110 1.877430 
# 
# From -- ./inp_files/90080.got.cif
#   From: 2010.06.25/outbox.cif.g09.slc.cpg/sg2_46_cif.got.tgz:90080.got - 2010.06.27 13:26:56.
