data_PCOD8002927
_publ_section_title
;
Structure prediction by ZEFSAII (Michael W. Deem and Ramdas Pophale) SiO2 
 PCOD8002927
Probable space group: P -1
;
_chemical_formula_sum "Si O2"
_cell_formula_units_Z 14
_cell_length_a 9.427859
_cell_length_b 9.628655
_cell_length_c 24.217297
_cell_angle_alpha 145.209614
_cell_angle_beta 148.842364
_cell_angle_gamma 46.318083
_cell_volume 648.444630
_symmetry_space_group_name_H-M "P -1"
_symmetry_group_IT_number 2
_symmetry_cell_setting 'triclinic'
loop_
_space_group_symop_operation_xyz
x,y,z
-x,-y,-z
loop_
_atom_site_type_symbol
_atom_site_label
_atom_site_fract_x
_atom_site_fract_y
_atom_site_fract_z
Si Si1 0.102945 0.604818 0.126173
Si Si2 0.253969 0.360580 0.804641
Si Si3 0.201474 0.325156 0.281501
Si Si4 0.227743 0.673413 0.498192
Si Si5 0.121980 0.089383 0.011790
Si Si6 0.646184 0.811740 0.104370
Si Si7 0.330078 0.161930 0.642791
O O1 0.406090 0.722827 0.261199
O O2 0.912737 0.817052 0.155132
O O3 0.000000 0.500000 0.000000
O O4 0.102717 0.378195 0.094667
O O5 0.259442 0.165919 0.792814
O O6 0.300323 0.234758 0.720791
O O7 0.966795 0.498368 0.756450
O O8 0.504701 0.550453 0.959390
O O9 0.186938 0.412534 0.369012
O O10 0.527376 0.329857 0.375527
O O11 0.064663 0.051069 0.143031
O O12 0.935993 0.748201 0.450624
O O13 0.325181 0.869073 0.546396
O O14 0.441752 0.025227 0.091189
O O15 0.000000 0.000000 0.000000
#
# Coordination Sequence:
#
# PCOD8002927 Si02
#       7
#     2   2   2   2   2   2   2
#     4  12  23  38  61  98 132 158 200 269 320 361
#     4   9  17  35  58  83 119 158 202 247 300 385
#     4   9  18  34  58  89 113 155 217 247 295 367
#     4   9  19  36  57  87 120 166 205 260 297 367
#     4  11  24  40  66  95 128 168 203 251 324 386
#     4  10  21  37  56  90 128 164 193 242 326 377
#     4  10  20  36  60  89 122 158 213 255 310 361
#
# _framework density 21.590122999999998
#
# number of rings (size 3 to 8) (size 9 to 14) (size 15 to 20)
#    0.000    2.000    1.429    3.429    2.000    0.571 
#    7.714    0.000    0.000   17.143    0.000    0.000 
#    0.000    0.000    0.000    0.000    0.000    0.000 
#
# Total GULP energy -173504.179209 kJ/mol
# GULP energy per Si atom -12393.155658 kJ/mol
# Density = 2.154098 g / cm^3
# Si number density = 21.590123 Si / 1000 Ang^3
#
#
#
# Elastic Constant Matrix: (Units=GPa)
#
#
# Indices 1 2 3 4 5 6 
#
# 1 91.1592 34.0756 33.1811 -12.4310 22.0499 -13.1585
# 2 34.0756 71.8441 35.9044 -20.0253 18.2287 -20.5990
# 3 33.1811 35.9044 107.0232 -22.8811 28.2681 -9.2257
# 4 -12.4310 -20.0253 -22.8811 43.2800 -9.9420 6.9202
# 5 22.0499 18.2287 28.2681 -9.9420 33.7793 -6.1025
# 6 -13.1585 -20.5990 -9.2257 6.9202 -6.1025 29.8471
#
#
#
# Elastic Compliance Matrix: (Units=1/GPa)
#
#
# Indices 1 2 3 4 5 6 
#
# 1 0.014769 -0.004283 -0.001481 -0.000164 -0.005786 0.001953
# 2 -0.004283 0.023155 -0.003539 0.005087 -0.003225 0.011159
# 3 -0.001481 -0.003539 0.013699 0.003602 -0.007759 -0.001282
# 4 -0.000164 0.005087 0.003602 0.028093 0.002348 -0.001481
# 5 -0.005786 -0.003225 -0.007759 0.002348 0.042480 0.000966
# 6 0.001953 0.011159 -0.001282 -0.001481 0.000966 0.042211
#
#
# Mechanical properties :
#
#
# Convention : Reuss Voigt Hill
#
# Bulk Modulus (GPa) = 30.28603 52.92765 41.60684
# Shear Modulus (GPa) = 25.77103 32.50564 29.13834
#
# Velocity S-wave (km/s) = 3.45867 3.88439 3.67770
# Velocity P-wave (km/s) = 5.47796 6.68475 6.11122
#
# Compressibility (1/GPa) = 0.03301852
#
# Stress axis : x y z
#
# Youngs Moduli (GPa) = 67.71128 43.18781 72.99750
#
# Poissons Ratio (x) = 0.18496 0.10808
# Poissons Ratio (y) = 0.28998 0.25832
# Poissons Ratio (z) = 0.10025 0.15283
#
# Static dielectric constant tensor:
#      x y z
#    x 3.600870 -0.356910 -0.059200 
#    y -0.356910 4.142350 -0.296990 
#    z -0.059200 -0.296990 4.269750 
# 
# 
# High freq. dielectric constant tensor:
#      x y z
#    x 1.804390 -0.035950 -0.005450 
#    y -0.035950 1.852170 -0.023580 
#    z -0.005450 -0.023580 1.852430 
# 
# From -- ./inp_files/392148.got.cif
#   From: 2010.06.25/outbox.cif.g09.slc.cpg/sg2_197_cif.got.tgz:392148.got - 2010.06.27 13:26:56.
