data_PCOD8002649
_publ_section_title
;
Structure prediction by ZEFSAII (Michael W. Deem and Ramdas Pophale) SiO2 
 PCOD8002649
Probable space group: P -1
;
_chemical_formula_sum "Si O2"
_cell_formula_units_Z 16
_cell_length_a 20.234646
_cell_length_b 22.722214
_cell_length_c 28.089840
_cell_angle_alpha 10.014811
_cell_angle_beta 19.238492
_cell_angle_gamma 19.930333
_cell_volume 727.900283
_symmetry_space_group_name_H-M "P -1"
_symmetry_group_IT_number 2
_symmetry_cell_setting 'triclinic'
loop_
_space_group_symop_operation_xyz
x,y,z
-x,-y,-z
loop_
_atom_site_type_symbol
_atom_site_label
_atom_site_fract_x
_atom_site_fract_y
_atom_site_fract_z
Si Si1 0.914355 0.497273 0.913942
Si Si2 0.734099 0.867788 0.133594
Si Si3 0.658485 0.837817 0.313791
Si Si4 0.827257 0.383569 0.961195
Si Si5 0.580939 0.542292 0.859428
Si Si6 0.058381 0.277234 0.480967
Si Si7 0.295525 0.709956 0.451315
Si Si8 0.413719 0.317532 0.929600
O O1 0.805030 0.573282 0.876299
O O2 0.108233 0.687831 0.632197
O O3 0.757339 0.630536 0.955451
O O4 0.005624 0.093146 0.180941
O O5 0.622641 0.948410 0.195168
O O6 0.744582 0.460129 0.436985
O O7 0.971404 0.920180 0.933605
O O8 0.621951 0.111397 0.975159
O O9 0.463288 0.673185 0.593053
O O10 0.868018 0.570351 0.390357
O O11 0.665873 0.170179 0.075447
O O12 0.612347 0.249919 0.204732
O O13 0.852092 0.650945 0.688881
O O14 0.500000 0.500000 0.000000
O O15 0.770809 0.740510 0.578789
O O16 0.500000 0.500000 0.500000
O O17 0.330198 0.106510 0.111034
#
# Coordination Sequence:
#
# PCOD8002649 Si02
#       8
#     2   2   2   2   2   2   2   2
#     4  11  21  37  59  83 114 148 184 229 277 326
#     4   9  20  37  58  82 113 149 185 229 275 327
#     4  11  21  37  59  82 113 149 185 226 279 332
#     4   9  19  36  56  79 111 145 184 229 273 322
#     4  10  20  36  57  83 113 144 185 232 276 329
#     4  10  21  37  58  81 111 150 187 229 277 326
#     4   9  19  37  58  82 112 145 185 229 274 328
#     4  11  21  35  58  85 113 148 185 226 278 330
#
# _framework density 21.981034000000001
#
# number of rings (size 3 to 8) (size 9 to 14) (size 15 to 20)
#    0.000    2.000    0.000    5.250    0.000    1.000 
#    0.000    6.250    0.000   27.000    0.000    0.000 
#    0.000    0.000    0.000    0.000    0.000    0.000 
#
# Total GULP energy -198255.676029 kJ/mol
# GULP energy per Si atom -12390.979752 kJ/mol
# Density = 2.193100 g / cm^3
# Si number density = 21.981034 Si / 1000 Ang^3
#
#
#
# Elastic Constant Matrix: (Units=GPa)
#
#
# Indices 1 2 3 4 5 6 
#
# 1 59.6250 19.3521 -2.5675 -2.7438 -8.9770 14.9514
# 2 19.3521 90.8257 0.4438 4.3001 -9.0961 2.8702
# 3 -2.5675 0.4438 51.0919 4.0658 -14.1109 3.2507
# 4 -2.7438 4.3001 4.0658 35.1787 1.9715 -5.9552
# 5 -8.9770 -9.0961 -14.1109 1.9715 21.7731 -0.8235
# 6 14.9514 2.8702 3.2507 -5.9552 -0.8235 43.1226
#
#
#
# Elastic Compliance Matrix: (Units=1/GPa)
#
#
# Indices 1 2 3 4 5 6 
#
# 1 0.021378 -0.003333 0.004347 -0.000233 0.009981 -0.007359
# 2 -0.003333 0.012290 0.001204 -0.002160 0.004737 0.000039
# 3 0.004347 0.001204 0.025682 -0.004492 0.019203 -0.003777
# 4 -0.000233 -0.002160 -0.004492 0.030338 -0.006481 0.004629
# 5 0.009981 0.004737 0.019203 -0.006481 0.064870 -0.004880
# 6 -0.007359 0.000039 -0.003777 0.004629 -0.004880 0.026570
#
#
# Mechanical properties :
#
#
# Convention : Reuss Voigt Hill
#
# Bulk Modulus (GPa) = 15.67783 26.22215 20.94999
# Shear Modulus (GPa) = 25.25832 32.30250 28.78041
#
# Velocity S-wave (km/s) = 3.39351 3.83765 3.62239
# Velocity P-wave (km/s) = 4.74368 5.62068 5.20070
#
# Compressibility (1/GPa) = 0.06378434
#
# Stress axis : x y z
#
# Youngs Moduli (GPa) = 46.77715 81.36803 38.93790
#
# Poissons Ratio (x) = 0.27120 -0.16925
# Poissons Ratio (y) = 0.15591 -0.04686
# Poissons Ratio (z) = -0.20333 -0.09793
#
# Static dielectric constant tensor:
#      x y z
#    x 4.373320 -0.482350 -0.354780 
#    y -0.482350 6.340550 -0.153830 
#    z -0.354780 -0.153830 4.078720 
# 
# 
# High freq. dielectric constant tensor:
#      x y z
#    x 1.861520 0.001090 -0.010530 
#    y 0.001090 1.884480 0.016780 
#    z -0.010530 0.016780 1.839210 
# 
# From -- ./inp_files/390223.got.cif
#   From: 2010.06.25/outbox.cif.g09.slc.cpg/sg2_196_cif.got.tgz:390223.got - 2010.06.27 13:26:56.
