data_PCOD8002063
_publ_section_title
;
Structure prediction by ZEFSAII (Michael W. Deem and Ramdas Pophale) SiO2 
 PCOD8002063
Probable space group: P -1
;
_chemical_formula_sum "Si O2"
_cell_formula_units_Z 14
_cell_length_a 20.501513
_cell_length_b 14.386028
_cell_length_c 8.433959
_cell_angle_alpha 147.676332
_cell_angle_beta 136.109450
_cell_angle_gamma 30.650805
_cell_volume 677.886088
_symmetry_space_group_name_H-M "P -1"
_symmetry_group_IT_number 2
_symmetry_cell_setting 'triclinic'
loop_
_space_group_symop_operation_xyz
x,y,z
-x,-y,-z
loop_
_atom_site_type_symbol
_atom_site_label
_atom_site_fract_x
_atom_site_fract_y
_atom_site_fract_z
Si Si1 0.281344 0.167103 0.200256
Si Si2 0.101446 0.700926 0.583202
Si Si3 0.287159 0.994987 0.285192
Si Si4 0.348411 0.718420 0.528669
Si Si5 0.717324 0.352272 0.386333
Si Si6 0.831673 0.071100 0.759299
Si Si7 0.519947 0.878554 0.693867
O O1 0.167554 0.428951 0.309348
O O2 0.420644 0.077860 0.280072
O O3 0.248786 0.182558 0.352599
O O4 0.289246 0.976857 0.846764
O O5 0.141673 0.759922 0.581709
O O6 0.145868 0.761706 0.898125
O O7 0.948509 0.867809 0.557071
O O8 0.175876 0.063924 0.307633
O O9 0.389325 0.958732 0.523368
O O10 0.333755 0.768360 0.943249
O O11 0.500000 0.500000 0.500000
O O12 0.284047 0.651668 0.431246
O O13 0.302474 0.748536 0.311385
O O14 0.618504 0.604612 0.500721
O O15 0.500000 0.000000 0.000000
#
# Coordination Sequence:
#
# PCOD8002063 Si02
#       7
#     2   2   2   2   2   2   2
#     4  10  22  36  55  82 113 143 183 228 273 329
#     4   9  21  40  58  81 108 148 190 224 272 324
#     4  10  20  35  54  78 109 149 180 221 278 327
#     4  11  22  37  57  85 114 145 182 227 280 328
#     4   9  20  36  54  76 110 146 182 222 273 332
#     4  10  21  39  60  79 111 148 186 228 270 329
#     4  11  20  33  53  81 112 142 183 229 272 322
#
# _framework density 20.652436999999999
#
# number of rings (size 3 to 8) (size 9 to 14) (size 15 to 20)
#    0.000    2.000    0.000    3.429    0.000    9.714 
#    0.000    0.000    0.000    0.000    0.000    0.000 
#    0.000    0.000    0.000    0.000    0.000    0.000 
#
# Total GULP energy -173463.139924 kJ/mol
# GULP energy per Si atom -12390.224280 kJ/mol
# Density = 2.060543 g / cm^3
# Si number density = 20.652437 Si / 1000 Ang^3
#
#
#
# Elastic Constant Matrix: (Units=GPa)
#
#
# Indices 1 2 3 4 5 6 
#
# 1 141.6415 44.5784 28.5964 3.6248 2.5293 11.3877
# 2 44.5784 68.9794 16.6993 -0.1858 -0.7959 -6.5135
# 3 28.5964 16.6993 38.0906 -0.7346 0.0898 1.7447
# 4 3.6248 -0.1858 -0.7346 24.0129 -1.4027 -4.1782
# 5 2.5293 -0.7959 0.0898 -1.4027 27.0945 2.8898
# 6 11.3877 -6.5135 1.7447 -4.1782 2.8898 31.1253
#
#
#
# Elastic Compliance Matrix: (Units=1/GPa)
#
#
# Indices 1 2 3 4 5 6 
#
# 1 0.010472 -0.006049 -0.005026 -0.002714 -0.000734 -0.005112
# 2 -0.006049 0.020183 -0.004584 0.002167 0.000545 0.006934
# 3 -0.005026 -0.004584 0.032100 0.001599 0.000390 -0.000741
# 4 -0.002714 0.002167 0.001599 0.043447 0.001812 0.007021
# 5 -0.000734 0.000545 0.000390 0.001812 0.037391 -0.002867
# 6 -0.005112 0.006934 -0.000741 0.007021 -0.002867 0.036700
#
#
# Mechanical properties :
#
#
# Convention : Reuss Voigt Hill
#
# Bulk Modulus (GPa) = 31.81051 47.60663 39.70857
# Shear Modulus (GPa) = 22.51321 27.03571 24.77446
#
# Velocity S-wave (km/s) = 3.30525 3.62205 3.46727
# Velocity P-wave (km/s) = 5.47745 6.37132 5.94122
#
# Compressibility (1/GPa) = 0.03143615
#
# Stress axis : x y z
#
# Youngs Moduli (GPa) = 95.48983 49.54618 31.15234
#
# Poissons Ratio (x) = 0.29973 0.15658
# Poissons Ratio (y) = 0.57766 0.14280
# Poissons Ratio (z) = 0.47997 0.22712
#
# Static dielectric constant tensor:
#      x y z
#    x 4.530080 0.008740 0.172930 
#    y 0.008740 3.467440 0.071430 
#    z 0.172930 0.071430 3.694150 
# 
# 
# High freq. dielectric constant tensor:
#      x y z
#    x 1.836460 0.003670 0.005960 
#    y 0.003670 1.775370 0.008360 
#    z 0.005960 0.008360 1.802940 
# 
# From -- ./inp_files/158806.got.cif
#   From: 2010.06.25/outbox.cif.g09.slc.cpg/sg2_80_cif.got.tgz:158806.got - 2010.06.27 13:26:56.
