data_PCOD8002800
_publ_section_title
;
Structure prediction by ZEFSAII (Michael W. Deem and Ramdas Pophale) SiO2 
 PCOD8002800
Probable space group: P -1
;
_chemical_formula_sum "Si O2"
_cell_formula_units_Z 14
_cell_length_a 5.072799
_cell_length_b 10.056820
_cell_length_c 17.520285
_cell_angle_alpha 104.069604
_cell_angle_beta 127.690736
_cell_angle_gamma 85.192104
_cell_volume 683.630281
_symmetry_space_group_name_H-M "P -1"
_symmetry_group_IT_number 2
_symmetry_cell_setting 'triclinic'
loop_
_space_group_symop_operation_xyz
x,y,z
-x,-y,-z
loop_
_atom_site_type_symbol
_atom_site_label
_atom_site_fract_x
_atom_site_fract_y
_atom_site_fract_z
Si Si1 0.439597 0.932419 0.243166
Si Si2 0.250271 0.779197 0.660678
Si Si3 0.122271 0.231221 0.808252
Si Si4 0.208003 0.100109 0.955778
Si Si5 0.709154 0.705304 0.865466
Si Si6 0.341555 0.385486 0.400067
Si Si7 0.879375 0.459670 0.194355
O O1 0.656041 0.821305 0.227343
O O2 0.245460 0.854923 0.269285
O O3 0.150595 0.982363 0.141083
O O4 0.684101 0.062325 0.332520
O O5 0.449193 0.769519 0.772870
O O6 0.361939 0.679644 0.600741
O O7 0.863130 0.735474 0.604488
O O8 0.298118 0.209326 0.918451
O O9 0.078891 0.390413 0.812977
O O10 0.147875 0.177171 0.034884
O O11 0.500000 0.000000 0.000000
O O12 0.011713 0.649095 0.864225
O O13 0.506463 0.581267 0.858808
O O14 0.500000 0.500000 0.500000
O O15 0.105535 0.457827 0.309651
#
# Coordination Sequence:
#
# PCOD8002800 Si02
#       7
#     2   2   2   2   2   2   2
#     4  10  22  37  56  82 113 155 191 227 277 322
#     4  10  20  36  59  85 115 141 183 234 283 332
#     4  10  22  37  55  79 114 160 186 228 276 328
#     4  10  24  35  56  83 114 153 197 236 263 319
#     4  10  22  34  56  81 114 150 191 229 278 321
#     4  10  21  38  63  88 108 140 183 236 288 338
#     4  10  22  39  56  81 114 152 183 232 287 336
#
# _framework density 20.478904
#
# number of rings (size 3 to 8) (size 9 to 14) (size 15 to 20)
#    0.857    1.143    0.000    3.000    8.000    2.286 
#    0.000    0.000    0.000    5.143    0.000    0.000 
#    0.000    0.000    0.000    0.000    0.000    0.000 
#
# Total GULP energy -173550.263942 kJ/mol
# GULP energy per Si atom -12396.447424 kJ/mol
# Density = 2.043229 g / cm^3
# Si number density = 20.478904 Si / 1000 Ang^3
#
#
#
# Elastic Constant Matrix: (Units=GPa)
#
#
# Indices 1 2 3 4 5 6 
#
# 1 96.8406 3.7570 18.3613 -1.6534 -3.3262 7.2438
# 2 3.7570 55.4578 17.1367 7.8658 0.3147 2.9791
# 3 18.3613 17.1367 90.4024 21.7848 -9.6528 -2.8259
# 4 -1.6534 7.8658 21.7848 19.6258 3.9054 1.9444
# 5 -3.3262 0.3147 -9.6528 3.9054 22.3831 8.2371
# 6 7.2438 2.9791 -2.8259 1.9444 8.2371 32.9247
#
#
#
# Elastic Compliance Matrix: (Units=1/GPa)
#
#
# Indices 1 2 3 4 5 6 
#
# 1 0.011359 -0.000239 -0.003590 0.005275 0.000399 -0.003197
# 2 -0.000239 0.019617 -0.002528 -0.004926 0.000071 -0.001666
# 3 -0.003590 -0.002528 0.018974 -0.022698 0.011209 0.001183
# 4 0.005275 -0.004926 -0.022698 0.083286 -0.022774 -0.001884
# 5 0.000399 0.000071 0.011209 -0.022774 0.058075 -0.012317
# 6 -0.003197 -0.001666 0.001183 -0.001884 -0.012317 0.034521
#
#
# Mechanical properties :
#
#
# Convention : Reuss Voigt Hill
#
# Bulk Modulus (GPa) = 26.85576 35.69010 31.27293
# Shear Modulus (GPa) = 19.92376 28.54976 24.23676
#
# Velocity S-wave (km/s) = 3.12251 3.73782 3.44393
# Velocity P-wave (km/s) = 5.11296 6.00783 5.57837
#
# Compressibility (1/GPa) = 0.03723596
#
# Stress axis : x y z
#
# Youngs Moduli (GPa) = 88.03445 50.97703 52.70478
#
# Poissons Ratio (x) = 0.01217 0.18923
# Poissons Ratio (y) = 0.02103 0.13321
# Poissons Ratio (z) = 0.31608 0.12884
#
# Static dielectric constant tensor:
#      x y z
#    x 3.968090 0.195860 -0.015430 
#    y 0.195860 3.425020 0.114600 
#    z -0.015430 0.114600 3.431550 
# 
# 
# High freq. dielectric constant tensor:
#      x y z
#    x 1.821810 0.012150 -0.009910 
#    y 0.012150 1.783500 0.024350 
#    z -0.009910 0.024350 1.771890 
# 
# From -- ./inp_files/76717.got.cif
#   From: 2010.06.25/outbox.cif.g09.slc.cpg/sg2_39_cif.got.tgz:76717.got - 2010.06.27 13:26:56.
