data_PCOD8002009
_publ_section_title
;
Structure prediction by ZEFSAII (Michael W. Deem and Ramdas Pophale) SiO2 
 PCOD8002009
Probable space group: P -1
;
_chemical_formula_sum "Si O2"
_cell_formula_units_Z 16
_cell_length_a 13.981514
_cell_length_b 11.567264
_cell_length_c 8.992550
_cell_angle_alpha 84.810991
_cell_angle_beta 87.001654
_cell_angle_gamma 147.474837
_cell_volume 755.974230
_symmetry_space_group_name_H-M "P -1"
_symmetry_group_IT_number 2
_symmetry_cell_setting 'triclinic'
loop_
_space_group_symop_operation_xyz
x,y,z
-x,-y,-z
loop_
_atom_site_type_symbol
_atom_site_label
_atom_site_fract_x
_atom_site_fract_y
_atom_site_fract_z
Si Si1 0.640956 0.386493 0.860802
Si Si2 0.027219 0.121016 0.266087
Si Si3 0.921489 0.525591 0.327316
Si Si4 0.546775 0.406935 0.390892
Si Si5 0.954885 0.803325 0.410568
Si Si6 0.369800 0.257223 0.721198
Si Si7 0.253113 0.717682 0.325234
Si Si8 0.416915 0.770570 0.797986
O O1 0.460099 0.261607 0.827748
O O2 0.723409 0.385326 0.731768
O O3 0.796858 0.642576 0.857277
O O4 0.583969 0.257258 0.025088
O O5 0.994328 0.143330 0.427410
O O6 0.058085 0.014278 0.291475
O O7 0.847045 0.961821 0.200698
O O8 0.015256 0.744603 0.339450
O O9 0.798627 0.347276 0.490747
O O10 0.787681 0.401709 0.211859
O O11 0.089007 0.613465 0.262779
O O12 0.737525 0.595153 0.440542
O O13 0.392281 0.239609 0.549818
O O14 0.536926 0.519550 0.292265
O O15 0.516047 0.272387 0.292975
O O16 0.444242 0.981674 0.269271
#
# Coordination Sequence:
#
# PCOD8002009 Si02
#       8
#     2   2   2   2   2   2   2   2
#     4  12  24  41  55  90 126 158 198 237 291 369
#     4  10  20  34  64  90 115 159 186 240 304 344
#     4  10  22  42  64  90 113 147 207 260 280 349
#     4   9  19  39  60  93 115 152 200 243 293 349
#     4   9  17  37  61  92 117 141 197 250 294 342
#     4  10  21  36  65  88 119 150 198 247 288 355
#     4  11  24  41  63  86 114 158 210 246 289 339
#     4  11  25  40  62  83 127 161 188 246 302 346
#
# _framework density 21.164742
#
# number of rings (size 3 to 8) (size 9 to 14) (size 15 to 20)
#    0.000    1.750    2.500    1.500    3.500    3.000 
#    0.000    5.625    0.000    0.000    0.000    0.000 
#    0.000    0.000    0.000    0.000    0.000    0.000 
#
# Total GULP energy -198458.067692 kJ/mol
# GULP energy per Si atom -12403.629231 kJ/mol
# Density = 2.111657 g / cm^3
# Si number density = 21.164742 Si / 1000 Ang^3
#
#
#
# Elastic Constant Matrix: (Units=GPa)
#
#
# Indices 1 2 3 4 5 6 
#
# 1 111.6087 30.8356 15.8785 5.7093 22.6407 4.3016
# 2 30.8356 94.3330 20.3020 -11.7378 12.3980 -5.9871
# 3 15.8785 20.3020 36.5479 2.1263 17.1871 5.5890
# 4 5.7093 -11.7378 2.1263 19.0433 4.6746 8.9191
# 5 22.6407 12.3980 17.1871 4.6746 23.1473 2.4325
# 6 4.3016 -5.9871 5.5890 8.9191 2.4325 27.3993
#
#
#
# Elastic Compliance Matrix: (Units=1/GPa)
#
#
# Indices 1 2 3 4 5 6 
#
# 1 0.011959 -0.003347 0.002071 -0.002670 -0.010777 -0.001206
# 2 -0.003347 0.014836 -0.006762 0.010494 -0.001971 0.001906
# 3 0.002071 -0.006762 0.046874 0.002323 -0.032709 -0.009216
# 4 -0.002670 0.010494 0.002323 0.073179 -0.017407 -0.020038
# 5 -0.010777 -0.001971 -0.032709 -0.017407 0.081935 0.006325
# 6 -0.001206 0.001906 -0.009216 -0.020038 0.006325 0.044944
#
#
# Mechanical properties :
#
#
# Convention : Reuss Voigt Hill
#
# Bulk Modulus (GPa) = 17.36341 41.83574 29.59957
# Shear Modulus (GPa) = 16.18116 25.61622 20.89869
#
# Velocity S-wave (km/s) = 2.76802 3.48275 3.14575
# Velocity P-wave (km/s) = 4.29391 5.99853 5.21632
#
# Compressibility (1/GPa) = 0.05759239
#
# Stress axis : x y z
#
# Youngs Moduli (GPa) = 83.61771 67.40345 21.33393
#
# Poissons Ratio (x) = 0.22562 -0.04419
# Poissons Ratio (y) = 0.27990 0.14426
# Poissons Ratio (z) = -0.17319 0.45579
#
# Static dielectric constant tensor:
#      x y z
#    x 4.080680 -0.105790 0.075760 
#    y -0.105790 3.850910 -0.047400 
#    z 0.075760 -0.047400 3.385420 
# 
# 
# High freq. dielectric constant tensor:
#      x y z
#    x 1.842400 -0.002040 0.010340 
#    y -0.002040 1.835190 -0.005200 
#    z 0.010340 -0.005200 1.792660 
# 
# From -- ./inp_files/307536.got.cif
#   From: 2010.06.25/outbox.cif.g09.slc.cpg/sg2_154_cif.got.tgz:307536.got - 2010.06.27 13:26:56.
