data_PCOD8002062
_publ_section_title
;
Structure prediction by ZEFSAII (Michael W. Deem and Ramdas Pophale) SiO2 
 PCOD8002062
Probable space group: P -1
;
_chemical_formula_sum "Si O2"
_cell_formula_units_Z 16
_cell_length_a 18.408473
_cell_length_b 24.502289
_cell_length_c 11.676069
_cell_angle_alpha 152.396136
_cell_angle_beta 142.699629
_cell_angle_gamma 18.683992
_cell_volume 746.596082
_symmetry_space_group_name_H-M "P -1"
_symmetry_group_IT_number 2
_symmetry_cell_setting 'triclinic'
loop_
_space_group_symop_operation_xyz
x,y,z
-x,-y,-z
loop_
_atom_site_type_symbol
_atom_site_label
_atom_site_fract_x
_atom_site_fract_y
_atom_site_fract_z
Si Si1 0.650959 0.234241 0.988111
Si Si2 0.158547 0.402003 0.844293
Si Si3 0.254295 0.336071 0.331183
Si Si4 0.357394 0.013019 0.427533
Si Si5 0.724375 0.926978 0.039658
Si Si6 0.004946 0.985434 0.168506
Si Si7 0.133335 0.667431 0.229960
Si Si8 0.894707 0.836079 0.845291
O O1 0.377629 0.494327 0.151912
O O2 0.789121 0.164392 0.141852
O O3 0.697640 0.054011 0.688270
O O4 0.743988 0.223224 0.972215
O O5 0.230141 0.244517 0.741395
O O6 0.897329 0.592143 0.828376
O O7 0.359211 0.207454 0.635270
O O8 0.172646 0.531423 0.125189
O O9 0.117780 0.560353 0.634452
O O10 0.501031 0.172725 0.283437
O O11 0.301961 0.193456 0.219575
O O12 0.254023 0.071644 0.280860
O O13 0.966475 0.757984 0.090682
O O14 0.722797 0.976229 0.999999
O O15 0.981956 0.121199 0.467102
O O16 0.003134 0.874733 0.042911
#
# Coordination Sequence:
#
# PCOD8002062 Si02
#       8
#     2   2   2   2   2   2   2   2
#     4   9  19  37  57  77 106 139 173 220 264 308
#     4   8  15  32  54  78 106 132 167 221 265 306
#     4   9  19  37  56  76 105 139 177 217 261 311
#     4   8  15  32  56  81 107 135 174 217 266 316
#     4  10  21  36  55  79 107 139 177 216 258 313
#     4  10  21  36  56  80 104 138 180 214 261 318
#     4  10  20  35  54  78 109 139 172 217 263 309
#     4  10  20  35  55  77 107 144 175 214 261 308
#
# _framework density 21.430598
#
# number of rings (size 3 to 8) (size 9 to 14) (size 15 to 20)
#    0.000    2.750    0.000    0.750    0.000    2.500 
#    0.000   30.000    0.000    0.000    0.000    0.000 
#    0.000    0.000    0.000    0.000    0.000    0.000 
#
# Total GULP energy -198261.060430 kJ/mol
# GULP energy per Si atom -12391.316277 kJ/mol
# Density = 2.138182 g / cm^3
# Si number density = 21.430598 Si / 1000 Ang^3
#
#
#
# Elastic Constant Matrix: (Units=GPa)
#
#
# Indices 1 2 3 4 5 6 
#
# 1 120.0194 16.4949 23.6194 -1.8754 5.0098 -10.8171
# 2 16.4949 67.0705 -2.4719 9.6981 -11.8003 -20.0039
# 3 23.6194 -2.4719 83.3141 -4.8815 11.8552 2.1406
# 4 -1.8754 9.6981 -4.8815 15.5358 -5.5254 4.3118
# 5 5.0098 -11.8003 11.8552 -5.5254 26.5862 5.3023
# 6 -10.8171 -20.0039 2.1406 4.3118 5.3023 20.9209
#
#
#
# Elastic Compliance Matrix: (Units=1/GPa)
#
#
# Indices 1 2 3 4 5 6 
#
# 1 0.009531 -0.001281 -0.002585 -0.001037 -0.002382 0.004785
# 2 -0.001281 0.029078 -0.001437 -0.027176 0.001666 0.032466
# 3 -0.002585 -0.001437 0.013699 0.004320 -0.004596 -0.003838
# 4 -0.001037 -0.027176 0.004320 0.103803 0.018352 -0.053008
# 5 -0.002382 0.001666 -0.004596 0.018352 0.047663 -0.015031
# 6 0.004785 0.032466 -0.003838 -0.053008 -0.015031 0.096443
#
#
# Mechanical properties :
#
#
# Convention : Reuss Voigt Hill
#
# Bulk Modulus (GPa) = 23.98083 38.40988 31.19536
# Shear Modulus (GPa) = 15.39770 28.12602 21.76186
#
# Velocity S-wave (km/s) = 2.68338 3.62667 3.19008
# Velocity P-wave (km/s) = 4.56234 5.95809 5.30631
#
# Compressibility (1/GPa) = 0.04169997
#
# Stress axis : x y z
#
# Youngs Moduli (GPa) = 104.91803 34.39082 72.99987
#
# Poissons Ratio (x) = 0.04407 0.18869
# Poissons Ratio (y) = 0.13445 0.10493
# Poissons Ratio (z) = 0.27120 0.04943
#
# Static dielectric constant tensor:
#      x y z
#    x 3.919970 -0.225000 0.533920 
#    y -0.225000 3.736290 0.146780 
#    z 0.533920 0.146780 3.865120 
# 
# 
# High freq. dielectric constant tensor:
#      x y z
#    x 1.829600 -0.026060 0.027490 
#    y -0.026060 1.833910 0.012560 
#    z 0.027490 0.012560 1.826070 
# 
# From -- ./inp_files/366941.got.cif
#   From: 2010.06.25/outbox.cif.g09.slc.cpg/sg2_184_cif.got.tgz:366941.got - 2010.06.27 13:26:56.
