data_PCOD8002922
_publ_section_title
;
Structure prediction by ZEFSAII (Michael W. Deem and Ramdas Pophale) SiO2 
 PCOD8002922
Probable space group: P -1
;
_chemical_formula_sum "Si O2"
_cell_formula_units_Z 16
_cell_length_a 13.796989
_cell_length_b 7.492873
_cell_length_c 26.798740
_cell_angle_alpha 130.902866
_cell_angle_beta 157.925829
_cell_angle_gamma 47.869463
_cell_volume 766.658258
_symmetry_space_group_name_H-M "P -1"
_symmetry_group_IT_number 2
_symmetry_cell_setting 'triclinic'
loop_
_space_group_symop_operation_xyz
x,y,z
-x,-y,-z
loop_
_atom_site_type_symbol
_atom_site_label
_atom_site_fract_x
_atom_site_fract_y
_atom_site_fract_z
Si Si1 0.657163 0.762173 0.226798
Si Si2 0.794455 0.223715 0.342612
Si Si3 0.892209 0.957668 0.155023
Si Si4 0.029978 0.542956 0.283513
Si Si5 0.673392 0.747377 0.349695
Si Si6 0.659792 0.996765 0.680543
Si Si7 0.397458 0.384321 0.989774
Si Si8 0.148572 0.003320 0.385755
O O1 0.939678 0.621573 0.311813
O O2 0.648492 0.737291 0.277151
O O3 0.608269 0.047306 0.240649
O O4 0.427088 0.639446 0.073518
O O5 0.635395 0.501192 0.313654
O O6 0.041257 0.197955 0.493252
O O7 0.893977 0.152074 0.321132
O O8 0.100817 0.870269 0.193454
O O9 0.767854 0.736551 0.071454
O O10 0.676556 0.195691 0.078960
O O11 0.072597 0.044189 0.299494
O O12 0.753802 0.564572 0.125412
O O13 0.223947 0.285368 0.324892
O O14 0.197015 0.722208 0.372910
O O15 0.440678 0.953993 0.301339
O O16 0.412355 0.093684 0.542555
#
# Coordination Sequence:
#
# PCOD8002922 Si02
#       8
#     2   2   2   2   2   2   2   2
#     4  11  20  38  64  85 110 162 206 241 289 351
#     4   9  20  38  62  85 120 159 202 241 290 360
#     4  10  20  36  60  89 119 154 196 249 303 345
#     4  10  21  37  61  89 116 152 200 248 295 348
#     4  10  22  40  57  88 124 156 197 245 297 363
#     4  11  21  37  58  89 127 148 185 254 313 346
#     4  10  21  38  61  87 116 154 208 248 279 358
#     4   9  19  36  60  93 116 149 197 248 299 359
#
# _framework density 20.869795
#
# number of rings (size 3 to 8) (size 9 to 14) (size 15 to 20)
#    0.000    2.000    1.250    2.250    0.000    1.000 
#    6.750    1.250    0.000    0.000    0.000    0.000 
#    0.000    0.000    0.000    0.000    0.000    0.000 
#
# Total GULP energy -198344.365653 kJ/mol
# GULP energy per Si atom -12396.522853 kJ/mol
# Density = 2.082229 g / cm^3
# Si number density = 20.869795 Si / 1000 Ang^3
#
#
#
# Elastic Constant Matrix: (Units=GPa)
#
#
# Indices 1 2 3 4 5 6 
#
# 1 105.1774 29.7013 42.4611 -2.8428 1.0718 -11.1497
# 2 29.7013 79.1669 24.1781 10.4164 5.6423 -0.0887
# 3 42.4611 24.1781 83.2743 9.6038 12.8487 1.1602
# 4 -2.8428 10.4164 9.6038 34.7365 1.2384 6.0255
# 5 1.0718 5.6423 12.8487 1.2384 25.4213 5.9282
# 6 -11.1497 -0.0887 1.1602 6.0255 5.9282 26.1737
#
#
#
# Elastic Compliance Matrix: (Units=1/GPa)
#
#
# Indices 1 2 3 4 5 6 
#
# 1 0.013890 -0.003716 -0.006807 0.003193 0.002373 0.004934
# 2 -0.003716 0.015272 -0.001705 -0.004341 -0.002168 0.000035
# 3 -0.006807 -0.001705 0.017721 -0.004514 -0.007869 -0.000869
# 4 0.003193 -0.004341 -0.004514 0.032646 0.003075 -0.006666
# 5 0.002373 -0.002168 -0.007869 0.003075 0.045815 -0.009732
# 6 0.004934 0.000035 -0.000869 -0.006666 -0.009732 0.044086
#
#
# Mechanical properties :
#
#
# Convention : Reuss Voigt Hill
#
# Bulk Modulus (GPa) = 44.58654 51.14440 47.86547
# Shear Modulus (GPa) = 24.83103 28.68484 26.75793
#
# Velocity S-wave (km/s) = 3.45310 3.71140 3.58458
# Velocity P-wave (km/s) = 6.10811 6.55177 6.33383
#
# Compressibility (1/GPa) = 0.02242829
#
# Stress axis : x y z
#
# Youngs Moduli (GPa) = 71.99310 65.47891 56.43039
#
# Poissons Ratio (x) = 0.24333 0.38411
# Poissons Ratio (y) = 0.26754 0.09619
# Poissons Ratio (z) = 0.49004 0.11162
#
# Static dielectric constant tensor:
#      x y z
#    x 3.805320 0.062380 0.159320 
#    y 0.062380 3.748610 0.252470 
#    z 0.159320 0.252470 3.853510 
# 
# 
# High freq. dielectric constant tensor:
#      x y z
#    x 1.818300 0.011620 0.006370 
#    y 0.011620 1.803960 0.016730 
#    z 0.006370 0.016730 1.807710 
# 
# From -- ./inp_files/326190.got.cif
#   From: 2010.06.25/outbox.cif.g09.slc.cpg/sg2_164_cif.got.tgz:326190.got - 2010.06.27 13:26:56.
