data_PCOD8002356
_publ_section_title
;
Structure prediction by ZEFSAII (Michael W. Deem and Ramdas Pophale) SiO2 
 PCOD8002356
Probable space group: P -1
;
_chemical_formula_sum "Si O2"
_cell_formula_units_Z 14
_cell_length_a 21.269715
_cell_length_b 10.106370
_cell_length_c 5.531644
_cell_angle_alpha 78.984218
_cell_angle_beta 83.894550
_cell_angle_gamma 141.522433
_cell_volume 659.376576
_symmetry_space_group_name_H-M "P -1"
_symmetry_group_IT_number 2
_symmetry_cell_setting 'triclinic'
loop_
_space_group_symop_operation_xyz
x,y,z
-x,-y,-z
loop_
_atom_site_type_symbol
_atom_site_label
_atom_site_fract_x
_atom_site_fract_y
_atom_site_fract_z
Si Si1 0.851110 0.812656 0.310407
Si Si2 0.139734 0.952571 0.386938
Si Si3 0.672950 0.633810 0.165247
Si Si4 0.460834 0.281437 0.139041
Si Si5 0.951535 0.712861 0.246493
Si Si6 0.875793 0.321927 0.183488
Si Si7 0.349753 0.122443 0.749118
O O1 0.838010 0.869720 0.542479
O O2 0.732642 0.616637 0.288675
O O3 0.874891 0.697243 0.391889
O O4 0.952804 0.057126 0.039715
O O5 0.162981 0.854632 0.543123
O O6 0.231247 0.110799 0.088853
O O7 0.011994 0.734244 0.425288
O O8 0.576782 0.404323 0.109602
O O9 0.622153 0.666165 0.341916
O O10 0.386449 0.131411 0.465254
O O11 0.500000 0.500000 0.000000
O O12 0.404110 0.139157 0.955137
O O13 0.873226 0.471817 0.220666
O O14 0.782774 0.143932 0.075548
O O15 0.000000 0.500000 0.000000
#
# Coordination Sequence:
#
# PCOD8002356 Si02
#       7
#     2   2   2   2   2   2   2
#     4  10  20  37  56  83 119 149 200 239 288 362
#     4  11  20  35  59  86 117 151 201 242 293 353
#     4  10  20  35  60  86 115 152 197 246 298 342
#     4  10  21  35  59  87 122 150 194 254 302 338
#     4  10  22  36  54  84 119 158 190 241 295 350
#     4  12  21  37  58  85 119 156 192 242 297 352
#     4  11  22  36  56  90 122 151 195 249 297 353
#
# _framework density 21.232178000000001
#
# number of rings (size 3 to 8) (size 9 to 14) (size 15 to 20)
#    0.000    1.429    2.857    5.143    2.000    1.143 
#    0.000    0.000    0.000    1.714    0.000    0.000 
#    0.000    0.000    0.000    0.000    0.000    0.000 
#
# Total GULP energy -173433.478623 kJ/mol
# GULP energy per Si atom -12388.105616 kJ/mol
# Density = 2.118385 g / cm^3
# Si number density = 21.232178 Si / 1000 Ang^3
#
#
#
# Elastic Constant Matrix: (Units=GPa)
#
#
# Indices 1 2 3 4 5 6 
#
# 1 94.5060 52.6853 9.3544 3.2946 0.6466 15.2756
# 2 52.6853 112.6047 13.5639 11.3741 12.3775 26.5270
# 3 9.3544 13.5639 53.8054 18.7684 -2.8679 11.3684
# 4 3.2946 11.3741 18.7684 22.2479 8.4520 0.9979
# 5 0.6466 12.3775 -2.8679 8.4520 13.6721 3.9692
# 6 15.2756 26.5270 11.3684 0.9979 3.9692 55.4398
#
#
#
# Elastic Compliance Matrix: (Units=1/GPa)
#
#
# Indices 1 2 3 4 5 6 
#
# 1 0.014841 -0.007381 0.000465 -0.001570 0.007383 -0.001153
# 2 -0.007381 0.014869 -0.002792 0.001068 -0.013320 -0.003574
# 3 0.000465 -0.002792 0.040891 -0.049621 0.044509 -0.009471
# 4 -0.001570 0.001068 -0.049621 0.119883 -0.089580 0.014353
# 5 0.007383 -0.013320 0.044509 -0.089580 0.153682 -0.014178
# 6 -0.001153 -0.003574 -0.009471 0.014353 -0.014178 0.022764
#
#
# Mechanical properties :
#
#
# Convention : Reuss Voigt Hill
#
# Bulk Modulus (GPa) = 19.53736 45.79149 32.66442
# Shear Modulus (GPa) = 12.39445 30.62613 21.51029
#
# Velocity S-wave (km/s) = 2.41873 3.80207 3.18637
# Velocity P-wave (km/s) = 4.12578 6.39438 5.38099
#
# Compressibility (1/GPa) = 0.05118399
#
# Stress axis : x y z
#
# Youngs Moduli (GPa) = 67.38252 67.25625 24.45531
#
# Poissons Ratio (x) = 0.49642 -0.01138
# Poissons Ratio (y) = 0.49735 0.06829
# Poissons Ratio (z) = -0.03136 0.18781
#
# Static dielectric constant tensor:
#      x y z
#    x 4.317160 0.559840 0.030600 
#    y 0.559840 4.130740 0.273630 
#    z 0.030600 0.273630 3.777850 
# 
# 
# High freq. dielectric constant tensor:
#      x y z
#    x 1.821590 0.039090 -0.009950 
#    y 0.039090 1.817150 0.017280 
#    z -0.009950 0.017280 1.817170 
# 
# From -- ./inp_files/68145.got.cif
#   From: 2010.06.25/outbox.cif.g09.slc.cpg/sg2_35_cif.got.tgz:68145.got - 2010.06.27 13:26:56.
