data_PCOD8002757
_publ_section_title
;
Structure prediction by ZEFSAII (Michael W. Deem and Ramdas Pophale) SiO2 
 PCOD8002757
Probable space group: P -1
;
_chemical_formula_sum "Si O2"
_cell_formula_units_Z 14
_cell_length_a 9.545526
_cell_length_b 5.172819
_cell_length_c 16.781295
_cell_angle_alpha 131.304564
_cell_angle_beta 99.756506
_cell_angle_gamma 78.319248
_cell_volume 608.850925
_symmetry_space_group_name_H-M "P -1"
_symmetry_group_IT_number 2
_symmetry_cell_setting 'triclinic'
loop_
_space_group_symop_operation_xyz
x,y,z
-x,-y,-z
loop_
_atom_site_type_symbol
_atom_site_label
_atom_site_fract_x
_atom_site_fract_y
_atom_site_fract_z
Si Si1 0.679986 0.516242 0.306634
Si Si2 0.314710 0.295387 0.834272
Si Si3 0.578138 0.641642 0.914384
Si Si4 0.367167 0.691029 0.301606
Si Si5 0.189081 0.218095 0.272944
Si Si6 0.041795 0.376540 0.566489
Si Si7 0.153309 0.624286 0.028404
O O1 0.725314 0.633797 0.247383
O O2 0.524993 0.727841 0.360564
O O3 0.788367 0.638095 0.407169
O O4 0.694191 0.100303 0.224846
O O5 0.480591 0.352778 0.877985
O O6 0.203949 0.572065 0.930529
O O7 0.592121 0.632727 0.819157
O O8 0.733415 0.632722 0.964819
O O9 0.500000 0.000000 0.000000
O O10 0.258480 0.569484 0.331116
O O11 0.294363 0.009212 0.305390
O O12 0.036658 0.340741 0.322522
O O13 0.160256 0.004336 0.146148
O O14 0.000000 0.500000 0.500000
O O15 0.000000 0.000000 0.500000
O O16 0.000000 0.500000 0.000000
#
# Coordination Sequence:
#
# PCOD8002757 Si02
#       7
#     2   2   2   2   2   2   2
#     4  11  23  43  69  97 129 170 219 258 309 390
#     4  11  22  39  64  96 133 179 216 254 305 377
#     4  10  20  36  58  89 133 181 219 249 297 372
#     4  10  21  40  65  93 127 168 210 265 313 363
#     4  11  24  43  64  94 132 166 211 270 321 371
#     4  12  27  49  71  94 125 167 211 269 339 396
#     4  11  22  36  59  95 133 171 211 257 309 369
#
# _framework density 22.994138
#
# number of rings (size 3 to 8) (size 9 to 14) (size 15 to 20)
#    0.000    1.143    0.000    8.143    0.000    3.429 
#    0.000   10.714    0.000    0.000    0.000    0.000 
#    0.000    0.000    0.000    0.000    0.000    0.000 
#
# Total GULP energy -173492.174582 kJ/mol
# GULP energy per Si atom -12392.298184 kJ/mol
# Density = 2.294180 g / cm^3
# Si number density = 22.994138 Si / 1000 Ang^3
#
#
#
# Elastic Constant Matrix: (Units=GPa)
#
#
# Indices 1 2 3 4 5 6 
#
# 1 154.8315 25.6916 27.4262 -13.4827 28.2099 -5.0360
# 2 25.6916 108.9741 18.2332 -5.2926 16.8383 9.3286
# 3 27.4262 18.2332 50.6188 1.4883 15.1834 -2.6871
# 4 -13.4827 -5.2926 1.4883 34.1596 -5.1543 -3.5574
# 5 28.2099 16.8383 15.1834 -5.1543 46.1907 -7.4784
# 6 -5.0360 9.3286 -2.6871 -3.5574 -7.4784 31.0224
#
#
#
# Elastic Compliance Matrix: (Units=1/GPa)
#
#
# Indices 1 2 3 4 5 6 
#
# 1 0.007985 -0.000815 -0.003140 0.002782 -0.003101 0.000841
# 2 -0.000815 0.010701 -0.002713 0.000534 -0.003145 -0.004282
# 3 -0.003140 -0.002713 0.024164 -0.003437 -0.005302 0.000727
# 4 0.002782 0.000534 -0.003437 0.031594 0.003483 0.004456
# 5 -0.003101 -0.003145 -0.005302 0.003483 0.027975 0.007126
# 6 0.000841 -0.004282 0.000727 0.004456 0.007126 0.035951
#
#
# Mechanical properties :
#
#
# Convention : Reuss Voigt Hill
#
# Bulk Modulus (GPa) = 33.88111 50.79182 42.33647
# Shear Modulus (GPa) = 30.95167 38.47942 34.71554
#
# Velocity S-wave (km/s) = 3.67286 4.09521 3.88977
# Velocity P-wave (km/s) = 5.72304 6.67068 6.21495
#
# Compressibility (1/GPa) = 0.02951497
#
# Stress axis : x y z
#
# Youngs Moduli (GPa) = 125.24236 93.44956 41.38412
#
# Poissons Ratio (x) = 0.07615 0.12993
# Poissons Ratio (y) = 0.10205 0.11226
# Poissons Ratio (z) = 0.39322 0.25349
#
# Static dielectric constant tensor:
#      x y z
#    x 4.498710 -0.198360 -0.020430 
#    y -0.198360 3.901150 -0.131990 
#    z -0.020430 -0.131990 4.183890 
# 
# 
# High freq. dielectric constant tensor:
#      x y z
#    x 1.923420 -0.003240 -0.002950 
#    y -0.003240 1.909070 -0.003640 
#    z -0.002950 -0.003640 1.896660 
# 
# From -- ./inp_files/553106.got.cif
#   From: 2010.06.25/outbox.cif.g09.slc.cpg/sg2_277_cif.got.tgz:553106.got - 2010.06.27 13:26:56.
