data_PCOD8002817
_publ_section_title
;
Structure prediction by ZEFSAII (Michael W. Deem and Ramdas Pophale) SiO2 
 PCOD8002817
Probable space group: P -1
;
_chemical_formula_sum "Si O2"
_cell_formula_units_Z 16
_cell_length_a 9.296221
_cell_length_b 17.978031
_cell_length_c 20.436928
_cell_angle_alpha 150.107672
_cell_angle_beta 150.032680
_cell_angle_gamma 39.213712
_cell_volume 846.399494
_symmetry_space_group_name_H-M "P -1"
_symmetry_group_IT_number 2
_symmetry_cell_setting 'triclinic'
loop_
_space_group_symop_operation_xyz
x,y,z
-x,-y,-z
loop_
_atom_site_type_symbol
_atom_site_label
_atom_site_fract_x
_atom_site_fract_y
_atom_site_fract_z
Si Si1 0.170279 0.749093 0.893888
Si Si2 0.497911 0.238285 0.700269
Si Si3 0.993620 0.962498 0.879575
Si Si4 0.269174 0.459951 0.027574
Si Si5 0.144555 0.037074 0.324437
Si Si6 0.474331 0.912323 0.856834
Si Si7 0.208752 0.417861 0.828448
Si Si8 0.741543 0.595517 0.697722
O O1 0.479751 0.655510 0.929280
O O2 0.001841 0.808802 0.806967
O O3 0.967110 0.636393 0.762241
O O4 0.219790 0.896975 0.070076
O O5 0.604905 0.385264 0.822847
O O6 0.380593 0.142853 0.522369
O O7 0.256977 0.274509 0.689879
O O8 0.759369 0.138625 0.762600
O O9 0.912692 0.926494 0.746381
O O10 0.317192 0.015878 0.057776
O O11 0.164625 0.380806 0.859405
O O12 0.000000 0.500000 0.000000
O O13 0.859979 0.072358 0.284253
O O14 0.577308 0.739334 0.776655
O O15 0.500000 0.000000 0.000000
O O16 0.919267 0.513259 0.763801
O O17 0.500000 0.500000 0.000000
O O18 0.500000 0.500000 0.500000
#
# Coordination Sequence:
#
# PCOD8002817 Si02
#       8
#     2   2   2   2   2   2   2   2
#     4  10  20  39  58  86 118 157 197 249 296 369
#     4  10  21  37  62  85 117 157 200 245 299 358
#     4   9  20  36  60  82 116 156 194 242 305 348
#     4  11  24  37  61  87 118 153 200 247 299 357
#     4  10  20  36  59  86 118 150 198 251 295 354
#     4   9  20  31  57  84 110 149 200 240 287 356
#     4  10  20  38  63  81 114 160 200 238 294 360
#     4  11  21  37  61  90 118 155 206 252 301 360
#
# _framework density 18.903603
#
# number of rings (size 3 to 8) (size 9 to 14) (size 15 to 20)
#    0.000    2.000    2.500    1.500   10.500    1.000 
#    2.250    0.625    0.000    2.250    0.000    0.000 
#    0.000    0.000    0.000    0.000    0.000    0.000 
#
# Total GULP energy -198281.831967 kJ/mol
# GULP energy per Si atom -12392.614498 kJ/mol
# Density = 1.886058 g / cm^3
# Si number density = 18.903603 Si / 1000 Ang^3
#
#
#
# Elastic Constant Matrix: (Units=GPa)
#
#
# Indices 1 2 3 4 5 6 
#
# 1 101.1773 52.3455 25.9127 -2.7141 -10.0060 -11.5201
# 2 52.3455 145.1958 37.2344 -1.6508 -2.0599 -14.1349
# 3 25.9127 37.2344 68.1700 -3.8065 -9.9976 -0.0444
# 4 -2.7141 -1.6508 -3.8065 25.7401 -1.6959 -6.1604
# 5 -10.0060 -2.0599 -9.9976 -1.6959 23.5650 -3.4613
# 6 -11.5201 -14.1349 -0.0444 -6.1604 -3.4613 37.2276
#
#
#
# Elastic Compliance Matrix: (Units=1/GPa)
#
#
# Indices 1 2 3 4 5 6 
#
# 1 0.013369 -0.003841 -0.002121 0.002019 0.005098 0.003484
# 2 -0.003841 0.009493 -0.004046 -0.000011 -0.002195 0.002205
# 3 -0.002121 -0.004046 0.018811 0.002471 0.006737 -0.001135
# 4 0.002019 -0.000011 0.002471 0.041769 0.006101 0.008103
# 5 0.005098 -0.002195 0.006737 0.006101 0.048629 0.006283
# 6 0.003484 0.002205 -0.001135 0.008103 0.006283 0.030701
#
#
# Mechanical properties :
#
#
# Convention : Reuss Voigt Hill
#
# Bulk Modulus (GPa) = 46.17612 60.61425 53.39518
# Shear Modulus (GPa) = 26.31473 30.57656 28.44565
#
# Velocity S-wave (km/s) = 3.73506 4.02618 3.88335
# Velocity P-wave (km/s) = 6.56362 7.33130 6.95806
#
# Compressibility (1/GPa) = 0.02165622
#
# Stress axis : x y z
#
# Youngs Moduli (GPa) = 74.79767 105.33947 53.16130
#
# Poissons Ratio (x) = 0.40466 0.11276
# Poissons Ratio (y) = 0.28733 0.21509
# Poissons Ratio (z) = 0.15865 0.42620
#
# Static dielectric constant tensor:
#      x y z
#    x 3.767070 -0.291800 0.003410 
#    y -0.291800 3.677310 -0.085120 
#    z 0.003410 -0.085120 3.448760 
# 
# 
# High freq. dielectric constant tensor:
#      x y z
#    x 1.727000 -0.015030 -0.011830 
#    y -0.015030 1.751920 -0.000730 
#    z -0.011830 -0.000730 1.713980 
# 
# From -- ./inp_files/477019.got.cif
#   From: 2010.06.25/outbox.cif.g09.slc.cpg/sg2_239_cif.got.tgz:477019.got - 2010.06.27 13:26:56.
