data_PCOD8002929
_publ_section_title
;
Structure prediction by ZEFSAII (Michael W. Deem and Ramdas Pophale) SiO2 
 PCOD8002929
Probable space group: P -1
;
_chemical_formula_sum "Si O2"
_cell_formula_units_Z 16
_cell_length_a 10.655132
_cell_length_b 9.229509
_cell_length_c 11.254123
_cell_angle_alpha 114.078546
_cell_angle_beta 58.187025
_cell_angle_gamma 102.278409
_cell_volume 858.647078
_symmetry_space_group_name_H-M "P -1"
_symmetry_group_IT_number 2
_symmetry_cell_setting 'triclinic'
loop_
_space_group_symop_operation_xyz
x,y,z
-x,-y,-z
loop_
_atom_site_type_symbol
_atom_site_label
_atom_site_fract_x
_atom_site_fract_y
_atom_site_fract_z
Si Si1 0.998970 0.870324 0.174230
Si Si2 0.999905 0.776925 0.649436
Si Si3 0.229595 0.436669 0.184615
Si Si4 0.240895 0.657235 0.875744
Si Si5 0.770283 0.438489 0.414775
Si Si6 0.521002 0.500365 0.739523
Si Si7 0.999360 0.707021 0.366163
Si Si8 0.242154 0.342820 0.882450
O O1 0.000161 0.827001 0.297092
O O2 0.849854 0.808829 0.164912
O O3 0.998269 0.059589 0.224510
O O4 0.147711 0.808828 0.015115
O O5 0.855908 0.674789 0.717891
O O6 0.999615 0.810836 0.520634
O O7 0.142276 0.670703 0.572566
O O8 0.385415 0.478630 0.180454
O O9 0.144676 0.598622 0.252780
O O10 0.246847 0.342259 0.022209
O O11 0.245459 0.657229 0.731128
O O12 0.412368 0.655467 0.834126
O O13 0.162016 0.500030 0.918936
O O14 0.613937 0.479385 0.565985
O O15 0.852880 0.601230 0.399017
O O16 0.413574 0.345068 0.753008
#
# Coordination Sequence:
#
# PCOD8002929 Si02
#       8
#     2   2   2   2   2   2   2   2
#     4  12  22  40  54  88 119 143 194 225 292 334
#     4  11  24  34  61  86 116 150 177 246 281 328
#     4  11  19  38  62  86 111 144 199 230 277 330
#     4  10  22  34  61  85 108 154 183 239 271 329
#     4  11  19  38  62  86 111 144 199 230 277 330
#     4  10  20  36  60  90 110 140 200 232 274 328
#     4  11  18  37  63  81 111 154 187 240 264 336
#     4  10  22  34  61  85 108 154 183 239 271 329
#
# _framework density 18.633965
#
# number of rings (size 3 to 8) (size 9 to 14) (size 15 to 20)
#    0.750    0.500    5.000    3.750    0.000    2.000 
#    0.000    1.250    0.000    0.000    0.000    0.000 
#    0.000    0.000    0.000    0.000    0.000    0.000 
#
# Total GULP energy -198337.051409 kJ/mol
# GULP energy per Si atom -12396.065713 kJ/mol
# Density = 1.859155 g / cm^3
# Si number density = 18.633965 Si / 1000 Ang^3
#
#
#
# Elastic Constant Matrix: (Units=GPa)
#
#
# Indices 1 2 3 4 5 6 
#
# 1 98.2163 21.4973 38.9816 -10.0123 -7.3145 18.4083
# 2 21.4973 44.3352 13.6330 10.4346 -8.6357 1.2122
# 3 38.9816 13.6330 89.2162 -10.0614 3.9956 4.4528
# 4 -10.0123 10.4346 -10.0614 28.7451 -4.2854 9.1020
# 5 -7.3145 -8.6357 3.9956 -4.2854 35.9205 -9.5001
# 6 18.4083 1.2122 4.4528 9.1020 -9.5001 13.0971
#
#
#
# Elastic Compliance Matrix: (Units=1/GPa)
#
#
# Indices 1 2 3 4 5 6 
#
# 1 0.052214 -0.045455 0.001243 0.076329 -0.029407 -0.143980
# 2 -0.045455 0.071304 -0.009877 -0.086454 0.037864 0.148195
# 3 0.001243 -0.009877 0.015383 0.015339 -0.007951 -0.022490
# 4 0.076329 -0.086454 0.015339 0.174095 -0.056688 -0.266604
# 5 -0.029407 0.037864 -0.007951 -0.056688 0.057184 0.121406
# 6 -0.143980 0.148195 -0.022490 -0.266604 0.121406 0.545992
#
#
# Mechanical properties :
#
#
# Convention : Reuss Voigt Hill
#
# Bulk Modulus (GPa) = 32.54949 42.22126 37.38538
# Shear Modulus (GPa) = 4.83282 26.06292 15.44787
#
# Velocity S-wave (km/s) = 1.61220 3.74395 2.88239
# Velocity P-wave (km/s) = 4.57945 6.43405 5.58428
#
# Compressibility (1/GPa) = 0.03072245
#
# Stress axis : x y z
#
# Youngs Moduli (GPa) = 19.15197 14.02448 65.00566
#
# Poissons Ratio (x) = 0.63749 -0.08080
# Poissons Ratio (y) = 0.87056 0.64205
# Poissons Ratio (z) = -0.02381 0.13852
#
# Static dielectric constant tensor:
#      x y z
#    x 3.438900 0.009560 0.069600 
#    y 0.009560 3.072940 -0.185790 
#    z 0.069600 -0.185790 3.439330 
# 
# 
# High freq. dielectric constant tensor:
#      x y z
#    x 1.728050 -0.000440 0.012000 
#    y -0.000440 1.688950 -0.021140 
#    z 0.012000 -0.021140 1.733330 
# 
# From -- ./inp_files/418057.got.cif
#   From: 2010.06.25/outbox.cif.g09.slc.cpg/sg2_210_cif.got.tgz:418057.got - 2010.06.27 13:26:56.
