data_PCOD8002391
_publ_section_title
;
Structure prediction by ZEFSAII (Michael W. Deem and Ramdas Pophale) SiO2 
 PCOD8002391
Probable space group: P -1
;
_chemical_formula_sum "Si O2"
_cell_formula_units_Z 16
_cell_length_a 13.291410
_cell_length_b 14.196746
_cell_length_c 7.352612
_cell_angle_alpha 100.373025
_cell_angle_beta 63.324996
_cell_angle_gamma 142.389516
_cell_volume 716.311728
_symmetry_space_group_name_H-M "P -1"
_symmetry_group_IT_number 2
_symmetry_cell_setting 'triclinic'
loop_
_space_group_symop_operation_xyz
x,y,z
-x,-y,-z
loop_
_atom_site_type_symbol
_atom_site_label
_atom_site_fract_x
_atom_site_fract_y
_atom_site_fract_z
Si Si1 0.439178 0.084070 0.187323
Si Si2 0.614910 0.370234 0.306551
Si Si3 0.489096 0.383199 0.756005
Si Si4 0.265605 0.415796 0.028867
Si Si5 0.821539 0.245657 0.829885
Si Si6 0.557866 0.854159 0.197098
Si Si7 0.873699 0.209240 0.154265
Si Si8 0.161728 0.603150 0.618082
O O1 0.438099 0.171472 0.362133
O O2 0.270936 0.890190 0.294169
O O3 0.648044 0.178604 0.053525
O O4 0.396891 0.096674 0.029363
O O5 0.571493 0.426116 0.500832
O O6 0.791233 0.425282 0.247653
O O7 0.652774 0.438760 0.101574
O O8 0.667851 0.525678 0.796456
O O9 0.374687 0.207679 0.838216
O O10 0.341602 0.368445 0.870883
O O11 0.037292 0.259249 0.138680
O O12 0.957296 0.412482 0.662091
O O13 0.927212 0.260718 0.913922
O O14 0.330334 0.703500 0.370002
O O15 0.676521 0.013933 0.273524
O O16 0.861580 0.301788 0.296399
#
# Coordination Sequence:
#
# PCOD8002391 Si02
#       8
#     2   2   2   2   2   2   2   2
#     4  10  20  37  61  88 130 173 194 255 312 363
#     4  11  20  40  65  90 125 163 203 255 317 366
#     4  10  24  41  63  94 119 163 217 258 307 375
#     4  11  22  42  67  89 123 165 209 263 313 361
#     4  10  20  35  60  93 126 169 209 240 307 383
#     4  10  23  39  58  92 130 164 206 254 311 366
#     4  11  21  38  63  92 126 168 202 256 314 368
#     4  11  21  37  60  96 129 156 209 251 301 386
#
# _framework density 22.336644
#
# number of rings (size 3 to 8) (size 9 to 14) (size 15 to 20)
#    0.000    1.500    3.750    1.875    0.000    1.000 
#    2.250    0.000    0.000    3.000    0.000    0.000 
#    0.000    0.000    0.000    0.000    0.000    0.000 
#
# Total GULP energy -198308.243503 kJ/mol
# GULP energy per Si atom -12394.265219 kJ/mol
# Density = 2.228580 g / cm^3
# Si number density = 22.336644 Si / 1000 Ang^3
#
#
#
# Elastic Constant Matrix: (Units=GPa)
#
#
# Indices 1 2 3 4 5 6 
#
# 1 68.4894 11.1127 5.9462 0.3932 -29.1463 -1.1927
# 2 11.1127 157.6532 38.8188 -5.8604 -19.0186 -9.3685
# 3 5.9462 38.8188 48.6484 2.7095 -9.3226 6.7176
# 4 0.3932 -5.8604 2.7095 39.1231 -7.1669 4.2606
# 5 -29.1463 -19.0186 -9.3226 -7.1669 25.5462 -0.5153
# 6 -1.1927 -9.3685 6.7176 4.2606 -0.5153 22.9785
#
#
#
# Elastic Compliance Matrix: (Units=1/GPa)
#
#
# Indices 1 2 3 4 5 6 
#
# 1 0.031013 0.002769 0.000956 0.007112 0.039830 0.002034
# 2 0.002769 0.009367 -0.007144 0.002790 0.008423 0.005723
# 3 0.000956 -0.007144 0.028824 -0.000807 0.005842 -0.011009
# 4 0.007112 0.002790 -0.000807 0.029652 0.018148 -0.003348
# 5 0.039830 0.008423 0.005842 0.018148 0.098135 0.002629
# 6 0.002034 0.005723 -0.011009 -0.003348 0.002629 0.049856
#
#
# Mechanical properties :
#
#
# Convention : Reuss Voigt Hill
#
# Bulk Modulus (GPa) = 16.03461 42.94961 29.49211
# Shear Modulus (GPa) = 18.21661 32.12378 25.17019
#
# Velocity S-wave (km/s) = 2.85888 3.79643 3.36051
# Velocity P-wave (km/s) = 4.25344 6.20381 5.31879
#
# Compressibility (1/GPa) = 0.06236509
#
# Stress axis : x y z
#
# Youngs Moduli (GPa) = 32.24428 106.75886 34.69312
#
# Poissons Ratio (x) = -0.29558 -0.03316
# Poissons Ratio (y) = -0.08927 0.24785
# Poissons Ratio (z) = -0.03082 0.76270
#
# Static dielectric constant tensor:
#      x y z
#    x 4.097280 -0.057240 0.125110 
#    y -0.057240 4.521210 0.121940 
#    z 0.125110 0.121940 3.616300 
# 
# 
# High freq. dielectric constant tensor:
#      x y z
#    x 1.876200 -0.005830 0.021220 
#    y -0.005830 1.899350 0.013230 
#    z 0.021220 0.013230 1.848470 
# 
# From -- ./inp_files/314357.got.cif
#   From: 2010.06.25/outbox.cif.g09.slc.cpg/sg2_158_cif.got.tgz:314357.got - 2010.06.27 13:26:56.
