data_PCOD8002466
_publ_section_title
;
Structure prediction by ZEFSAII (Michael W. Deem and Ramdas Pophale) SiO2 
 PCOD8002466
Probable space group: P -1
;
_chemical_formula_sum "Si O2"
_cell_formula_units_Z 14
_cell_length_a 9.046876
_cell_length_b 22.119415
_cell_length_c 5.259505
_cell_angle_alpha 45.708944
_cell_angle_beta 125.528539
_cell_angle_gamma 125.364628
_cell_volume 585.457714
_symmetry_space_group_name_H-M "P -1"
_symmetry_group_IT_number 2
_symmetry_cell_setting 'triclinic'
loop_
_space_group_symop_operation_xyz
x,y,z
-x,-y,-z
loop_
_atom_site_type_symbol
_atom_site_label
_atom_site_fract_x
_atom_site_fract_y
_atom_site_fract_z
Si Si1 0.625764 0.027405 0.292177
Si Si2 0.270180 0.130299 0.194719
Si Si3 0.897564 0.518561 0.092561
Si Si4 0.309013 0.804558 0.416222
Si Si5 0.789224 0.774305 0.640894
Si Si6 0.372220 0.656752 0.595037
Si Si7 0.061120 0.704372 0.848739
O O1 0.790566 0.977362 0.585332
O O2 0.500000 0.000000 0.500000
O O3 0.500000 0.000000 0.000000
O O4 0.714204 0.134211 0.029814
O O5 0.499081 0.153502 0.354291
O O6 0.196322 0.164072 0.279827
O O7 0.194617 0.168540 0.764453
O O8 0.684709 0.448334 0.089306
O O9 0.000000 0.500000 0.500000
O O10 0.900192 0.621297 0.801430
O O11 0.000000 0.500000 0.000000
O O12 0.315219 0.708769 0.617383
O O13 0.127107 0.786794 0.474753
O O14 0.597076 0.692935 0.670269
O O15 0.966698 0.733705 0.920414
O O16 0.248194 0.674362 0.182791
#
# Coordination Sequence:
#
# PCOD8002466 Si02
#       7
#     2   2   2   2   2   2   2
#     4  10  20  35  62  93 118 158 207 245 299 364
#     4  10  21  41  57  91 124 157 202 253 298 358
#     4  10  21  37  62  88 121 157 200 252 297 357
#     4  10  20  36  67  85 121 162 204 247 304 361
#     4  11  24  38  64  88 126 160 202 250 298 362
#     4  10  21  41  62  87 125 161 203 246 307 357
#     4  11  23  39  62  93 121 160 207 248 305 359
#
# _framework density 23.912911000000001
#
# number of rings (size 3 to 8) (size 9 to 14) (size 15 to 20)
#    0.000    1.714    2.857    2.571    4.000    0.571 
#    0.000    1.429    0.000    6.000    0.000    0.000 
#    0.000    0.000    0.000    0.000    0.000    0.000 
#
# Total GULP energy -173436.313932 kJ/mol
# GULP energy per Si atom -12388.308138 kJ/mol
# Density = 2.385848 g / cm^3
# Si number density = 23.912911 Si / 1000 Ang^3
#
#
#
# Elastic Constant Matrix: (Units=GPa)
#
#
# Indices 1 2 3 4 5 6 
#
# 1 146.3090 33.3377 42.4647 -17.4038 -21.9228 -22.0950
# 2 33.3377 54.9623 16.9477 -9.6304 -8.8598 -16.5039
# 3 42.4647 16.9477 69.7835 -5.8026 -27.6283 -2.0354
# 4 -17.4038 -9.6304 -5.8026 35.7934 -8.8247 -8.2185
# 5 -21.9228 -8.8598 -27.6283 -8.8247 30.9691 4.7297
# 6 -22.0950 -16.5039 -2.0354 -8.2185 4.7297 40.1003
#
#
#
# Elastic Compliance Matrix: (Units=1/GPa)
#
#
# Indices 1 2 3 4 5 6 
#
# 1 0.010621 -0.001676 -0.003280 0.006781 0.005164 0.005777
# 2 -0.001676 0.025635 -0.001892 0.009635 0.005548 0.010851
# 3 -0.003280 -0.001892 0.026554 0.007380 0.023308 -0.002474
# 4 0.006781 0.009635 0.007380 0.044366 0.024604 0.014267
# 5 0.005164 0.005548 0.023308 0.024604 0.064770 0.003715
# 6 0.005777 0.010851 -0.002474 0.014267 0.003715 0.034947
#
#
# Mechanical properties :
#
#
# Convention : Reuss Voigt Hill
#
# Bulk Modulus (GPa) = 20.35967 50.72833 35.54400
# Shear Modulus (GPa) = 21.10059 33.25953 27.18006
#
# Velocity S-wave (km/s) = 2.97373 3.73347 3.37505
# Velocity P-wave (km/s) = 4.50814 6.31228 5.48490
#
# Compressibility (1/GPa) = 0.04911672
#
# Stress axis : x y z
#
# Youngs Moduli (GPa) = 94.15016 39.00890 37.65840
#
# Poissons Ratio (x) = 0.06538 0.12350
# Poissons Ratio (y) = 0.15779 0.07124
# Poissons Ratio (z) = 0.30877 0.07379
#
# Static dielectric constant tensor:
#      x y z
#    x 4.195820 -0.008710 -0.190080 
#    y -0.008710 5.214640 -0.865060 
#    z -0.190080 -0.865060 4.655550 
# 
# 
# High freq. dielectric constant tensor:
#      x y z
#    x 1.934070 -0.011670 -0.023120 
#    y -0.011670 1.960150 -0.014380 
#    z -0.023120 -0.014380 1.936140 
# 
# From -- ./inp_files/44076.got.cif
#   From: 2010.06.25/outbox.cif.g09.slc.cpg/sg2_23_cif.got.tgz:44076.got - 2010.06.27 13:26:56.
