data_PCOD8002577
_publ_section_title
;
Structure prediction by ZEFSAII (Michael W. Deem and Ramdas Pophale) SiO2 
 PCOD8002577
Probable space group: P -1
;
_chemical_formula_sum "Si O2"
_cell_formula_units_Z 16
_cell_length_a 9.079164
_cell_length_b 11.903436
_cell_length_c 8.016775
_cell_angle_alpha 86.174699
_cell_angle_beta 80.886349
_cell_angle_gamma 101.926810
_cell_volume 832.547542
_symmetry_space_group_name_H-M "P -1"
_symmetry_group_IT_number 2
_symmetry_cell_setting 'triclinic'
loop_
_space_group_symop_operation_xyz
x,y,z
-x,-y,-z
loop_
_atom_site_type_symbol
_atom_site_label
_atom_site_fract_x
_atom_site_fract_y
_atom_site_fract_z
Si Si1 0.266312 0.013395 0.915924
Si Si2 0.695029 0.745776 0.027748
Si Si3 0.551017 0.728663 0.573697
Si Si4 0.388053 0.444119 0.172495
Si Si5 0.155630 0.175789 0.692968
Si Si6 0.457049 0.034942 0.322493
Si Si7 0.185949 0.860271 0.236781
Si Si8 0.623129 0.324141 0.729121
O O1 0.432961 0.999406 0.832993
O O2 0.177867 0.048682 0.765324
O O3 0.714388 0.881128 0.962204
O O4 0.177007 0.899721 0.040051
O O5 0.807545 0.736199 0.164151
O O6 0.520055 0.707717 0.120557
O O7 0.731748 0.665227 0.878442
O O8 0.524910 0.608803 0.691135
O O9 0.725667 0.773151 0.477616
O O10 0.522349 0.826932 0.696258
O O11 0.429663 0.707214 0.447580
O O12 0.307618 0.538562 0.265072
O O13 0.500000 0.500000 0.000000
O O14 0.985427 0.166929 0.656273
O O15 0.500000 0.000000 0.500000
O O16 0.287736 0.962075 0.317815
O O17 0.247099 0.743454 0.241470
#
# Coordination Sequence:
#
# PCOD8002577 Si02
#       8
#     2   2   2   2   2   2   2   2
#     4  10  20  36  57  81 119 147 179 228 274 323
#     4   8  17  38  54  81 110 141 187 220 281 314
#     4  11  21  39  56  81 118 146 177 230 286 323
#     4  10  21  35  62  85 102 140 194 237 273 321
#     4   9  21  38  53  81 116 156 174 218 280 343
#     4  12  20  35  57  86 116 141 183 232 271 329
#     4  12  21  34  58  83 115 149 188 218 272 331
#     4  10  20  36  55  85 107 142 192 232 268 318
#
# _framework density 19.218122000000001
#
# number of rings (size 3 to 8) (size 9 to 14) (size 15 to 20)
#    0.750    1.000    3.750    1.875    3.500    0.500 
#    0.000    1.250    0.000    0.000    0.000    0.000 
#    0.000    0.000    0.000    0.000    0.000    0.000 
#
# Total GULP energy -198222.067275 kJ/mol
# GULP energy per Si atom -12388.879205 kJ/mol
# Density = 1.917438 g / cm^3
# Si number density = 19.218122 Si / 1000 Ang^3
#
#
#
# Elastic Constant Matrix: (Units=GPa)
#
#
# Indices 1 2 3 4 5 6 
#
# 1 98.9019 35.6012 24.4318 0.3830 5.3625 -6.1874
# 2 35.6012 152.2846 35.0994 7.9336 7.8251 -21.7120
# 3 24.4318 35.0994 69.5347 -13.7855 2.1222 -7.5389
# 4 0.3830 7.9336 -13.7855 41.0349 1.1723 5.5567
# 5 5.3625 7.8251 2.1222 1.1723 13.8459 -5.5004
# 6 -6.1874 -21.7120 -7.5389 5.5567 -5.5004 13.6085
#
#
#
# Elastic Compliance Matrix: (Units=1/GPa)
#
#
# Indices 1 2 3 4 5 6 
#
# 1 0.011732 -0.001846 -0.003279 -0.000714 -0.003090 -0.000385
# 2 -0.001846 0.010543 -0.004038 -0.005784 0.002696 0.017197
# 3 -0.003279 -0.004038 0.018965 0.007247 -0.000145 -0.000445
# 4 -0.000714 -0.005784 0.007247 0.031140 -0.008879 -0.021841
# 5 -0.003090 0.002696 -0.000145 -0.008879 0.089620 0.042666
# 6 -0.000385 0.017197 -0.000445 -0.021841 0.042666 0.126663
#
#
# Mechanical properties :
#
#
# Convention : Reuss Voigt Hill
#
# Bulk Modulus (GPa) = 43.64181 56.77621 50.20901
# Shear Modulus (GPa) = 15.89186 28.73713 22.31449
#
# Velocity S-wave (km/s) = 2.87874 3.87112 3.41121
# Velocity P-wave (km/s) = 5.81442 7.04187 6.45738
#
# Compressibility (1/GPa) = 0.02291381
#
# Stress axis : x y z
#
# Youngs Moduli (GPa) = 85.23864 94.84541 52.72955
#
# Poissons Ratio (x) = 0.17506 0.17292
# Poissons Ratio (y) = 0.15733 0.21292
# Poissons Ratio (z) = 0.27953 0.38298
#
# Static dielectric constant tensor:
#      x y z
#    x 3.118920 -0.023740 0.095460 
#    y -0.023740 4.117190 0.150330 
#    z 0.095460 0.150330 3.552490 
# 
# 
# High freq. dielectric constant tensor:
#      x y z
#    x 1.703980 -0.006010 0.013740 
#    y -0.006010 1.751670 0.000220 
#    z 0.013740 0.000220 1.748650 
# 
# From -- ./inp_files/177820.got.cif
#   From: 2010.06.25/outbox.cif.g09.slc.cpg/sg2_89_cif.got.tgz:177820.got - 2010.06.27 13:26:56.
