data_PCOD8002177
_publ_section_title
;
Structure prediction by ZEFSAII (Michael W. Deem and Ramdas Pophale) SiO2 
 PCOD8002177
Probable space group: P -1
;
_chemical_formula_sum "Si O2"
_cell_formula_units_Z 12
_cell_length_a 11.773856
_cell_length_b 9.744117
_cell_length_c 11.991923
_cell_angle_alpha 102.429190
_cell_angle_beta 33.857634
_cell_angle_gamma 119.678548
_cell_volume 608.942130
_symmetry_space_group_name_H-M "P -1"
_symmetry_group_IT_number 2
_symmetry_cell_setting 'triclinic'
loop_
_space_group_symop_operation_xyz
x,y,z
-x,-y,-z
loop_
_atom_site_type_symbol
_atom_site_label
_atom_site_fract_x
_atom_site_fract_y
_atom_site_fract_z
Si Si1 0.871574 0.828609 0.229052
Si Si2 0.246189 0.247704 0.433548
Si Si3 0.681353 0.633349 0.132953
Si Si4 0.183255 0.906290 0.404852
Si Si5 0.846237 0.131234 0.333884
Si Si6 0.565333 0.894801 0.210702
O O1 0.799243 0.753715 0.398588
O O2 0.713151 0.670172 0.245548
O O3 0.801999 0.962697 0.281794
O O4 0.165283 0.923424 0.981836
O O5 0.490592 0.431655 0.231048
O O6 0.004506 0.214392 0.561038
O O7 0.292160 0.106751 0.330938
O O8 0.582186 0.733680 0.169444
O O9 0.950480 0.698370 0.872009
O O10 0.039039 0.852543 0.632688
O O11 0.411012 0.884715 0.224442
O O12 0.582929 0.109169 0.558139
#
# Coordination Sequence:
#
# PCOD8002177 Si02
#       6
#     2   2   2   2   2   2
#     4  10  20  35  57  80 112 147 171 215 277 323
#     4  10  20  38  54  81 114 139 178 224 269 322
#     4  11  21  33  58  85 110 136 178 231 266 306
#     4   8  19  39  59  74 104 153 179 212 277 316
#     4   8  18  37  55  81 103 142 180 220 262 315
#     4   9  19  38  57  83  99 147 188 212 267 318
#
# _framework density 19.706305
#
# number of rings (size 3 to 8) (size 9 to 14) (size 15 to 20)
#    1.000    1.667    0.000    2.500    0.000    4.667 
#    3.000    0.833    0.000    0.000    0.000    0.000 
#    0.000    0.000    0.000    0.000    0.000    0.000 
#
# Total GULP energy -148725.907374 kJ/mol
# GULP energy per Si atom -12393.825615 kJ/mol
# Density = 1.966145 g / cm^3
# Si number density = 19.706305 Si / 1000 Ang^3
#
#
#
# Elastic Constant Matrix: (Units=GPa)
#
#
# Indices 1 2 3 4 5 6 
#
# 1 66.8245 8.0027 -6.8617 -6.2598 -3.8841 1.9380
# 2 8.0027 56.4794 28.9640 -23.0304 0.9581 12.0486
# 3 -6.8617 28.9640 73.3731 -6.7935 -15.9464 -12.2028
# 4 -6.2598 -23.0304 -6.7935 27.0643 -4.4128 -7.6786
# 5 -3.8841 0.9581 -15.9464 -4.4128 22.3385 0.0840
# 6 1.9380 12.0486 -12.2028 -7.6786 0.0840 19.2080
#
#
#
# Elastic Compliance Matrix: (Units=1/GPa)
#
#
# Indices 1 2 3 4 5 6 
#
# 1 0.017657 -0.008082 0.009514 0.004548 0.011065 0.011103
# 2 -0.008082 0.053546 -0.032949 0.018501 -0.023394 -0.046207
# 3 0.009514 -0.032949 0.043820 0.004890 0.035129 0.049348
# 4 0.004548 0.018501 0.004890 0.061999 0.015677 0.015759
# 5 0.011065 -0.023394 0.035129 0.015677 0.075710 0.041811
# 6 0.011103 -0.046207 0.049348 0.015759 0.041811 0.117393
#
#
# Mechanical properties :
#
#
# Convention : Reuss Voigt Hill
#
# Bulk Modulus (GPa) = 19.23524 28.54300 23.88912
# Shear Modulus (GPa) = 11.09904 24.82696 17.96300
#
# Velocity S-wave (km/s) = 2.37581 3.55329 3.02244
# Velocity P-wave (km/s) = 4.16030 5.59911 4.93245
#
# Compressibility (1/GPa) = 0.05198793
#
# Stress axis : x y z
#
# Youngs Moduli (GPa) = 56.63586 18.67547 22.82053
#
# Poissons Ratio (x) = 0.15094 -0.21712
# Poissons Ratio (y) = 0.45776 0.75192
# Poissons Ratio (z) = -0.53884 0.61534
#
# Static dielectric constant tensor:
#      x y z
#    x 3.564920 -0.056210 0.031150 
#    y -0.056210 3.207760 -0.010840 
#    z 0.031150 -0.010840 3.483950 
# 
# 
# High freq. dielectric constant tensor:
#      x y z
#    x 1.772840 0.000700 0.002190 
#    y 0.000700 1.737160 -0.001710 
#    z 0.002190 -0.001710 1.762150 
# 
# From -- ./inp_files/155382.got.cif
#   From: 2010.06.25/outbox.cif.g09.slc.cpg/sg2_78_cif.got.tgz:155382.got - 2010.06.27 13:26:56.
