data_PCOD8002440
_publ_section_title
;
Structure prediction by ZEFSAII (Michael W. Deem and Ramdas Pophale) SiO2 
 PCOD8002440
Probable space group: P -1
;
_chemical_formula_sum "Si O2"
_cell_formula_units_Z 16
_cell_length_a 8.128273
_cell_length_b 13.623471
_cell_length_c 12.565919
_cell_angle_alpha 60.226118
_cell_angle_beta 85.137102
_cell_angle_gamma 43.892329
_cell_volume 746.192235
_symmetry_space_group_name_H-M "P -1"
_symmetry_group_IT_number 2
_symmetry_cell_setting 'triclinic'
loop_
_space_group_symop_operation_xyz
x,y,z
-x,-y,-z
loop_
_atom_site_type_symbol
_atom_site_label
_atom_site_fract_x
_atom_site_fract_y
_atom_site_fract_z
Si Si1 0.784848 0.835941 0.700523
Si Si2 0.578536 0.300081 0.178643
Si Si3 0.393851 0.209562 0.088786
Si Si4 0.003318 0.471080 0.637984
Si Si5 0.770420 0.883780 0.107793
Si Si6 0.533560 0.163430 0.426699
Si Si7 0.726029 0.553737 0.188201
Si Si8 0.756716 0.305414 0.960381
O O1 0.746492 0.826203 0.833127
O O2 0.576937 0.872382 0.627053
O O3 0.089051 0.648180 0.753661
O O4 0.725411 0.000036 0.591039
O O5 0.399639 0.306332 0.121964
O O6 0.700106 0.166690 0.345624
O O7 0.379825 0.500198 0.127323
O O8 0.792274 0.236389 0.116675
O O9 0.688209 0.016847 0.133240
O O10 0.213931 0.358502 0.922860
O O11 0.093464 0.294710 0.746123
O O12 0.208204 0.451906 0.690129
O O13 0.000000 0.500000 0.500000
O O14 0.707348 0.643981 0.606070
O O15 0.961237 0.839299 0.034743
O O16 0.500000 0.000000 0.000000
O O17 0.424146 0.679256 0.112823
#
# Coordination Sequence:
#
# PCOD8002440 Si02
#       8
#     2   2   2   2   2   2   2   2
#     4   9  18  32  61  93 119 162 213 257 317 375
#     4   9  19  38  64  88 123 171 205 259 324 373
#     4  10  20  35  61  96 127 162 212 265 313 372
#     4  11  22  40  63  90 131 175 215 261 322 378
#     4  12  24  40  65  96 129 168 218 262 315 390
#     4   9  17  35  60  88 122 164 212 263 306 379
#     4  10  21  38  62  92 131 168 215 269 320 368
#     4  10  22  40  64  93 132 168 208 268 325 378
#
# _framework density 21.442195999999999
#
# number of rings (size 3 to 8) (size 9 to 14) (size 15 to 20)
#    0.000    2.000    2.500    1.125    0.000    7.000 
#    0.000    1.250    2.750    0.000    0.000    0.000 
#    0.000    0.000    0.000    0.000    0.000    0.000 
#
# Total GULP energy -198284.056368 kJ/mol
# GULP energy per Si atom -12392.753523 kJ/mol
# Density = 2.139339 g / cm^3
# Si number density = 21.442196 Si / 1000 Ang^3
#
#
#
# Elastic Constant Matrix: (Units=GPa)
#
#
# Indices 1 2 3 4 5 6 
#
# 1 66.5519 41.4163 47.4256 7.0916 -15.4618 -15.7339
# 2 41.4163 88.7950 54.9832 0.8994 -5.1219 3.3818
# 3 47.4256 54.9832 162.2623 -0.9674 -33.9515 -4.5132
# 4 7.0916 0.8994 -0.9674 41.5374 4.5302 -5.4511
# 5 -15.4618 -5.1219 -33.9515 4.5302 31.3880 1.0269
# 6 -15.7339 3.3818 -4.5132 -5.4511 1.0269 32.0690
#
#
#
# Elastic Compliance Matrix: (Units=1/GPa)
#
#
# Indices 1 2 3 4 5 6 
#
# 1 0.031483 -0.013421 -0.001857 -0.004341 0.011429 0.015497
# 2 -0.013421 0.020489 -0.005076 0.001505 -0.008684 -0.008926
# 3 -0.001857 -0.005076 0.010448 -0.000277 0.009574 0.000741
# 4 -0.004341 0.001505 -0.000277 0.025722 -0.005977 0.002236
# 5 0.011429 -0.008684 0.009574 -0.005977 0.047116 0.005346
# 6 0.015497 -0.008926 0.000741 0.002236 0.005346 0.040040
#
#
# Mechanical properties :
#
#
# Convention : Reuss Voigt Hill
#
# Bulk Modulus (GPa) = 46.06184 67.25103 56.65644
# Shear Modulus (GPa) = 22.39681 32.58449 27.49065
#
# Velocity S-wave (km/s) = 3.23541 3.90249 3.58450
# Velocity P-wave (km/s) = 5.95699 7.19290 6.60392
#
# Compressibility (1/GPa) = 0.02170994
#
# Stress axis : x y z
#
# Youngs Moduli (GPa) = 31.76282 48.80620 95.71168
#
# Poissons Ratio (x) = 0.65505 0.17778
# Poissons Ratio (y) = 0.42630 0.48587
# Poissons Ratio (z) = 0.05900 0.24776
#
# Static dielectric constant tensor:
#      x y z
#    x 3.677970 0.153230 -0.408960 
#    y 0.153230 4.108140 0.125650 
#    z -0.408960 0.125650 4.369030 
# 
# 
# High freq. dielectric constant tensor:
#      x y z
#    x 1.815900 0.014080 -0.021730 
#    y 0.014080 1.839120 0.001200 
#    z -0.021730 0.001200 1.848590 
# 
# From -- ./inp_files/320708.got.cif
#   From: 2010.06.25/outbox.cif.g09.slc.cpg/sg2_161_cif.got.tgz:320708.got - 2010.06.27 13:26:56.
