data_PCOD8002602
_publ_section_title
;
Structure prediction by ZEFSAII (Michael W. Deem and Ramdas Pophale) SiO2 
 PCOD8002602
Probable space group: P -1
;
_chemical_formula_sum "Si O2"
_cell_formula_units_Z 14
_cell_length_a 19.245463
_cell_length_b 15.635199
_cell_length_c 8.286215
_cell_angle_alpha 78.941507
_cell_angle_beta 68.775565
_cell_angle_gamma 20.107513
_cell_volume 708.531548
_symmetry_space_group_name_H-M "P -1"
_symmetry_group_IT_number 2
_symmetry_cell_setting 'triclinic'
loop_
_space_group_symop_operation_xyz
x,y,z
-x,-y,-z
loop_
_atom_site_type_symbol
_atom_site_label
_atom_site_fract_x
_atom_site_fract_y
_atom_site_fract_z
Si Si1 0.440658 0.094950 0.758864
Si Si2 0.577849 0.317816 0.053726
Si Si3 0.983145 0.889826 0.644225
Si Si4 0.666932 0.943246 0.342041
Si Si5 0.302051 0.458909 0.270180
Si Si6 0.629515 0.407377 0.562667
Si Si7 0.815023 0.571352 0.827963
O O1 0.284717 0.193289 0.765938
O O2 0.500715 0.101556 0.575128
O O3 0.683269 0.784385 0.740959
O O4 0.288283 0.310046 0.948030
O O5 0.376868 0.468174 0.122101
O O6 0.579397 0.318447 0.247981
O O7 0.500000 0.500000 0.000000
O O8 0.836841 0.005019 0.871276
O O9 0.088484 0.704999 0.492226
O O10 0.200162 0.704729 0.607268
O O11 0.793185 0.161126 0.616035
O O12 0.909094 0.710294 0.297669
O O13 0.538306 0.160485 0.268118
O O14 0.211843 0.496680 0.190304
O O15 0.500000 0.500000 0.500000
#
# Coordination Sequence:
#
# PCOD8002602 Si02
#       7
#     2   2   2   2   2   2   2
#     4   9  20  37  58  83 108 144 184 215 266 328
#     4   9  19  38  57  74 106 147 182 222 272 319
#     4   9  19  36  52  73 110 139 168 226 276 313
#     4  10  20  36  56  81 113 143 178 223 268 320
#     4  10  22  35  52  83 112 141 183 225 269 322
#     4   9  18  34  57  79  97 132 184 225 268 326
#     4  10  20  36  58  82 112 144 179 223 267 319
#
# _framework density 19.759174999999999
#
# number of rings (size 3 to 8) (size 9 to 14) (size 15 to 20)
#    0.000    2.571    0.000    1.714    0.000    5.143 
#    0.000    8.571    0.000    0.000    0.000    0.000 
#    0.000    0.000    0.000    0.000    0.000    0.000 
#
# Total GULP energy -173530.503822 kJ/mol
# GULP energy per Si atom -12395.035987 kJ/mol
# Density = 1.971420 g / cm^3
# Si number density = 19.759175 Si / 1000 Ang^3
#
#
#
# Elastic Constant Matrix: (Units=GPa)
#
#
# Indices 1 2 3 4 5 6 
#
# 1 145.6475 27.6513 71.0844 3.3392 5.2258 -10.4169
# 2 27.6513 29.0600 19.2053 0.8366 -10.6409 -7.6980
# 3 71.0844 19.2053 136.7555 18.6874 7.7437 -8.0504
# 4 3.3392 0.8366 18.6874 25.2157 1.7312 3.2825
# 5 5.2258 -10.6409 7.7437 1.7312 32.2015 -0.0602
# 6 -10.4169 -7.6980 -8.0504 3.2825 -0.0602 28.8053
#
#
#
# Elastic Compliance Matrix: (Units=1/GPa)
#
#
# Indices 1 2 3 4 5 6 
#
# 1 0.010800 -0.008698 -0.004518 0.002455 -0.003672 0.000031
# 2 -0.008698 0.055636 -0.003726 -0.000765 0.020754 0.010812
# 3 -0.004518 -0.003726 0.011496 -0.007794 -0.002841 0.001465
# 4 0.002455 -0.000765 -0.007794 0.046100 -0.001268 -0.006751
# 5 -0.003672 0.020754 -0.002841 -0.001268 0.039267 0.003651
# 6 0.000031 0.010812 0.001465 -0.006751 0.003651 0.038803
#
#
# Mechanical properties :
#
#
# Convention : Reuss Voigt Hill
#
# Bulk Modulus (GPa) = 22.70257 60.81612 41.75935
# Shear Modulus (GPa) = 19.94674 30.14597 25.04635
#
# Velocity S-wave (km/s) = 3.18070 3.91022 3.56417
# Velocity P-wave (km/s) = 5.00037 7.15765 6.17396
#
# Compressibility (1/GPa) = 0.04404787
#
# Stress axis : x y z
#
# Youngs Moduli (GPa) = 92.59410 17.97404 86.98599
#
# Poissons Ratio (x) = 0.15633 0.39299
# Poissons Ratio (y) = 0.80535 0.32415
# Poissons Ratio (z) = 0.41833 0.06698
#
# Static dielectric constant tensor:
#      x y z
#    x 3.738940 0.007310 0.140150 
#    y 0.007310 3.348090 0.104250 
#    z 0.140150 0.104250 4.127190 
# 
# 
# High freq. dielectric constant tensor:
#      x y z
#    x 1.777380 -0.000240 0.005440 
#    y -0.000240 1.742950 0.008610 
#    z 0.005440 0.008610 1.779450 
# 
# From -- ./inp_files/104597.got.cif
#   From: 2010.06.25/outbox.cif.g09.slc.cpg/sg2_53_cif.got.tgz:104597.got - 2010.06.27 13:26:56.
