data_PCOD8002187
_publ_section_title
;
Structure prediction by ZEFSAII (Michael W. Deem and Ramdas Pophale) SiO2 
 PCOD8002187
Probable space group: P -1
;
_chemical_formula_sum "Si O2"
_cell_formula_units_Z 14
_cell_length_a 8.588092
_cell_length_b 7.555063
_cell_length_c 12.635140
_cell_angle_alpha 85.737383
_cell_angle_beta 64.621291
_cell_angle_gamma 109.838471
_cell_volume 673.037853
_symmetry_space_group_name_H-M "P -1"
_symmetry_group_IT_number 2
_symmetry_cell_setting 'triclinic'
loop_
_space_group_symop_operation_xyz
x,y,z
-x,-y,-z
loop_
_atom_site_type_symbol
_atom_site_label
_atom_site_fract_x
_atom_site_fract_y
_atom_site_fract_z
Si Si1 0.427705 0.065055 0.743848
Si Si2 0.386954 0.425683 0.709179
Si Si3 0.786126 0.735769 0.591097
Si Si4 0.195478 0.692608 0.702452
Si Si5 0.804978 0.147747 0.530135
Si Si6 0.220220 0.362024 0.164786
Si Si7 0.588747 0.710753 0.076179
O O1 0.347890 0.203948 0.695115
O O2 0.654818 0.151251 0.659577
O O3 0.397781 0.091094 0.877487
O O4 0.326611 0.843485 0.745930
O O5 0.603668 0.559335 0.605479
O O6 0.240747 0.501692 0.697728
O O7 0.368623 0.425420 0.842790
O O8 0.780185 0.744398 0.720248
O O9 0.979387 0.711651 0.503848
O O10 0.790943 0.930927 0.529977
O O11 0.249760 0.791404 0.568728
O O12 0.979326 0.629513 0.799198
O O13 0.375983 0.584349 0.102206
O O14 0.261544 0.235943 0.065456
#
# Coordination Sequence:
#
# PCOD8002187 Si02
#       7
#     2   2   2   2   2   2   2
#     4  10  21  36  57  85 115 141 190 227 270 341
#     4   9  20  36  55  83 112 145 182 223 286 318
#     4   9  18  36  58  80 107 154 181 222 279 322
#     4  11  21  36  59  84 114 150 176 231 286 321
#     4  10  20  35  57  82 115 146 189 224 270 339
#     4   9  18  38  62  78 113 148 184 230 281 318
#     4   8  19  39  59  80 111 146 188 231 265 338
#
# _framework density 20.801205
#
# number of rings (size 3 to 8) (size 9 to 14) (size 15 to 20)
#    0.857    1.714    1.429    0.429    0.000    2.286 
#    0.000    3.571    0.000    0.000    0.000    0.000 
#    0.000    0.000    0.000    0.000    0.000    0.000 
#
# Total GULP energy -173473.249215 kJ/mol
# GULP energy per Si atom -12390.946372 kJ/mol
# Density = 2.075386 g / cm^3
# Si number density = 20.801205 Si / 1000 Ang^3
#
#
#
# Elastic Constant Matrix: (Units=GPa)
#
#
# Indices 1 2 3 4 5 6 
#
# 1 80.8914 4.9948 33.0222 4.4552 -20.2870 -12.0009
# 2 4.9948 36.5050 -4.8139 5.7036 -2.7833 -15.7538
# 3 33.0222 -4.8139 43.1160 1.5329 -18.9149 -10.7856
# 4 4.4552 5.7036 1.5329 26.3318 -2.2001 -1.9495
# 5 -20.2870 -2.7833 -18.9149 -2.2001 26.9068 1.1914
# 6 -12.0009 -15.7538 -10.7856 -1.9495 1.1914 25.5288
#
#
#
# Elastic Compliance Matrix: (Units=1/GPa)
#
#
# Indices 1 2 3 4 5 6 
#
# 1 0.019198 -0.002815 -0.012114 -0.001341 0.005478 0.001811
# 2 -0.002815 0.051358 0.026844 -0.007591 0.019659 0.040213
# 3 -0.012114 0.026844 0.058568 -0.001893 0.033159 0.033923
# 4 -0.001341 -0.007591 -0.001893 0.039751 0.000260 -0.003091
# 5 0.005478 0.019659 0.033159 0.000260 0.065523 0.025678
# 6 0.001811 0.040213 0.033923 -0.003091 0.025678 0.077736
#
#
# Mechanical properties :
#
#
# Convention : Reuss Voigt Hill
#
# Bulk Modulus (GPa) = 6.53793 25.21319 15.87556
# Shear Modulus (GPa) = 14.73675 24.24078 19.48876
#
# Velocity S-wave (km/s) = 2.66457 3.41743 3.06421
# Velocity P-wave (km/s) = 3.55197 5.26490 4.49086
#
# Compressibility (1/GPa) = 0.15295366
#
# Stress axis : x y z
#
# Youngs Moduli (GPa) = 52.08966 19.47128 17.07418
#
# Poissons Ratio (x) = 0.05481 0.20683
# Poissons Ratio (y) = 0.14664 -0.45834
# Poissons Ratio (z) = 0.63100 -0.52269
#
# Static dielectric constant tensor:
#      x y z
#    x 3.696090 -0.053750 -0.188950 
#    y -0.053750 3.404700 -0.000230 
#    z -0.188950 -0.000230 3.730810 
# 
# 
# High freq. dielectric constant tensor:
#      x y z
#    x 1.808100 -0.004580 -0.013700 
#    y -0.004580 1.788570 0.001970 
#    z -0.013700 0.001970 1.807350 
# 
# From -- ./inp_files/281470.got.cif
#   From: 2010.06.25/outbox.cif.g09.slc.cpg/sg2_141_cif.got.tgz:281470.got - 2010.06.27 13:26:56.
