data_PCOD8002566
_publ_section_title
;
Structure prediction by ZEFSAII (Michael W. Deem and Ramdas Pophale) SiO2 
 PCOD8002566
Probable space group: P -1
;
_chemical_formula_sum "Si O2"
_cell_formula_units_Z 14
_cell_length_a 7.285960
_cell_length_b 12.113211
_cell_length_c 14.687802
_cell_angle_alpha 29.315780
_cell_angle_beta 77.530326
_cell_angle_gamma 92.059665
_cell_volume 547.340778
_symmetry_space_group_name_H-M "P -1"
_symmetry_group_IT_number 2
_symmetry_cell_setting 'triclinic'
loop_
_space_group_symop_operation_xyz
x,y,z
-x,-y,-z
loop_
_atom_site_type_symbol
_atom_site_label
_atom_site_fract_x
_atom_site_fract_y
_atom_site_fract_z
Si Si1 0.611017 0.812975 0.986959
Si Si2 0.290889 0.852522 0.718078
Si Si3 0.409997 0.321213 0.262993
Si Si4 0.269680 0.219822 0.812412
Si Si5 0.136679 0.667554 0.195824
Si Si6 0.254789 0.633481 0.403267
Si Si7 0.050183 0.451501 0.173110
O O1 0.586660 0.616287 0.050637
O O2 0.738276 0.765981 0.088382
O O3 0.379869 0.749370 0.092006
O O4 0.732549 0.113294 0.731845
O O5 0.496085 0.802399 0.731379
O O6 0.163106 0.719382 0.735211
O O7 0.354955 0.152139 0.484837
O O8 0.163935 0.734291 0.909843
O O9 0.199928 0.315061 0.247447
O O10 0.174499 0.405689 0.651682
O O11 0.509922 0.314190 0.686288
O O12 0.116677 0.928959 0.005252
O O13 0.101809 0.545531 0.391255
O O14 0.999818 0.477320 0.265866
#
# Coordination Sequence:
#
# PCOD8002566 Si02
#       7
#     2   2   2   2   2   2   2
#     4   8  15  25  42  69  98 128 162 201 249 297
#     4  10  22  36  54  78 102 136 178 214 260 306
#     4  10  20  36  55  77 105 136 172 216 258 304
#     4   8  13  23  40  67  98 124 161 203 238 301
#     4   8  15  25  42  69  98 128 162 201 249 297
#     4   8  13  23  40  67  98 128 160 199 246 297
#     4  10  20  36  55  77 105 136 172 216 258 304
#
# _framework density 25.578216999999999
#
# number of rings (size 3 to 8) (size 9 to 14) (size 15 to 20)
#    0.000    3.143    0.000    2.571    0.000    6.857 
#    0.000    0.000    0.000    3.429    0.000    2.000 
#    0.000    0.000    0.000    5.143    0.000    0.000 
#
# Total GULP energy -173550.114719 kJ/mol
# GULP energy per Si atom -12396.436766 kJ/mol
# Density = 2.552000 g / cm^3
# Si number density = 25.578217 Si / 1000 Ang^3
#
#
#
# Elastic Constant Matrix: (Units=GPa)
#
#
# Indices 1 2 3 4 5 6 
#
# 1 96.6805 18.8083 25.7403 -3.5534 22.9869 2.9479
# 2 18.8083 82.2104 43.7450 4.7609 6.8180 14.0052
# 3 25.7403 43.7450 165.0602 -0.2068 18.8001 2.9307
# 4 -3.5534 4.7609 -0.2068 38.0858 -3.0510 0.8464
# 5 22.9869 6.8180 18.8001 -3.0510 37.7819 0.0912
# 6 2.9479 14.0052 2.9307 0.8464 0.0912 21.1518
#
#
#
# Elastic Compliance Matrix: (Units=1/GPa)
#
#
# Indices 1 2 3 4 5 6 
#
# 1 0.012581 -0.001944 -0.000652 0.000868 -0.006908 -0.000381
# 2 -0.001944 0.016511 -0.003897 -0.002043 0.000002 -0.010040
# 3 -0.000652 -0.003897 0.007460 0.000222 -0.002598 0.001640
# 4 0.000868 -0.002043 0.000222 0.026743 0.001889 0.000123
# 5 -0.006908 0.000002 -0.002598 0.001889 0.032113 0.001108
# 6 -0.000381 -0.010040 0.001640 0.000123 0.001108 0.053741
#
#
# Mechanical properties :
#
#
# Convention : Reuss Voigt Hill
#
# Bulk Modulus (GPa) = 42.43425 57.83759 50.13592
# Shear Modulus (GPa) = 29.41346 36.44774 32.93060
#
# Velocity S-wave (km/s) = 3.39476 3.77895 3.59199
# Velocity P-wave (km/s) = 5.65613 6.45769 6.07016
#
# Compressibility (1/GPa) = 0.02356587
#
# Stress axis : x y z
#
# Youngs Moduli (GPa) = 79.48396 60.56624 134.04824
#
# Poissons Ratio (x) = 0.11773 0.08742
# Poissons Ratio (y) = 0.15450 0.52240
# Poissons Ratio (z) = 0.05183 0.23603
#
# Static dielectric constant tensor:
#      x y z
#    x 4.923200 -0.080940 0.227370 
#    y -0.080940 4.927600 -0.142760 
#    z 0.227370 -0.142760 5.076540 
# 
# 
# High freq. dielectric constant tensor:
#      x y z
#    x 2.068360 -0.004930 0.005410 
#    y -0.004930 1.984680 0.003590 
#    z 0.005410 0.003590 2.033770 
# 
# From -- ./inp_files/224769.got.cif
#   From: 2010.06.25/outbox.cif.g09.slc.cpg/sg2_113_cif.got.tgz:224769.got - 2010.06.27 13:26:56.
