data_PCOD8002982
_publ_section_title
;
Structure prediction by ZEFSAII (Michael W. Deem and Ramdas Pophale) SiO2 
 PCOD8002982
Probable space group: P -1
;
_chemical_formula_sum "Si O2"
_cell_formula_units_Z 16
_cell_length_a 12.090103
_cell_length_b 15.824536
_cell_length_c 17.099873
_cell_angle_alpha 25.646258
_cell_angle_beta 142.634769
_cell_angle_gamma 128.115285
_cell_volume 795.655753
_symmetry_space_group_name_H-M "P -1"
_symmetry_group_IT_number 2
_symmetry_cell_setting 'triclinic'
loop_
_space_group_symop_operation_xyz
x,y,z
-x,-y,-z
loop_
_atom_site_type_symbol
_atom_site_label
_atom_site_fract_x
_atom_site_fract_y
_atom_site_fract_z
Si Si1 0.213872 0.644039 0.755722
Si Si2 0.617446 0.030243 0.933007
Si Si3 0.510235 0.957197 0.311387
Si Si4 0.270034 0.614189 0.261666
Si Si5 0.787996 0.176285 0.233488
Si Si6 0.200888 0.504896 0.143076
Si Si7 0.475985 0.171242 0.274756
Si Si8 0.216462 0.273519 0.592502
O O1 0.240139 0.660187 0.848936
O O2 0.328425 0.772395 0.667327
O O3 0.985791 0.760622 0.507350
O O4 0.293336 0.393069 0.995208
O O5 0.651075 0.017844 0.868114
O O6 0.764760 0.140673 0.956390
O O7 0.386025 0.148999 0.727586
O O8 0.701769 0.801059 0.212287
O O9 0.627211 0.713831 0.599388
O O10 0.639885 0.060330 0.252373
O O11 0.428906 0.073856 0.249450
O O12 0.500000 0.500000 0.500000
O O13 0.186015 0.553232 0.186086
O O14 0.170106 0.524241 0.349123
O O15 0.746426 0.308869 0.020168
O O16 0.000000 0.000000 0.500000
O O17 0.000000 0.500000 0.000000
O O18 0.500000 0.000000 0.500000
#
# Coordination Sequence:
#
# PCOD8002982 Si02
#       8
#     2   2   2   2   2   2   2   2
#     4  10  22  41  60  90 116 158 208 250 310 372
#     4  10  22  36  58  91 124 165 194 239 310 381
#     4  11  22  38  57  86 118 156 207 249 302 363
#     4  10  21  35  53  86 128 166 192 227 304 378
#     4  11  22  33  57  89 123 149 186 251 314 366
#     4  12  22  33  55  89 126 156 199 249 297 366
#     4  10  23  43  64  82 116 162 209 263 312 348
#     4  10  20  36  61  85 126 157 197 243 299 375
#
# _framework density 20.109197999999999
#
# number of rings (size 3 to 8) (size 9 to 14) (size 15 to 20)
#    0.000    1.500    3.750    2.250    7.000    1.000 
#    0.000    0.625    0.000    1.500    0.000    0.000 
#    0.000    0.000    0.000    0.000    0.000    0.000 
#
# Total GULP energy -198256.385956 kJ/mol
# GULP energy per Si atom -12391.024122 kJ/mol
# Density = 2.006343 g / cm^3
# Si number density = 20.109198 Si / 1000 Ang^3
#
#
#
# Elastic Constant Matrix: (Units=GPa)
#
#
# Indices 1 2 3 4 5 6 
#
# 1 71.5483 34.9817 46.2293 -7.1248 -23.1229 3.4070
# 2 34.9817 109.1875 48.1701 1.1106 -5.6062 -11.9386
# 3 46.2293 48.1701 108.3761 -6.8742 -31.0059 -1.4133
# 4 -7.1248 1.1106 -6.8742 37.9047 3.4991 1.3405
# 5 -23.1229 -5.6062 -31.0059 3.4991 34.9156 1.6739
# 6 3.4070 -11.9386 -1.4133 1.3405 1.6739 33.9533
#
#
#
# Elastic Compliance Matrix: (Units=1/GPa)
#
#
# Indices 1 2 3 4 5 6 
#
# 1 0.023597 -0.005703 -0.004309 0.003005 0.010834 -0.005205
# 2 -0.005703 0.013767 -0.005645 -0.002084 -0.006638 0.005588
# 3 -0.004309 -0.005645 0.016823 0.001433 0.011106 -0.001456
# 4 0.003005 -0.002084 0.001433 0.027314 0.000290 -0.002067
# 5 0.010834 -0.006638 0.011106 0.000290 0.044831 -0.005180
# 6 -0.005205 0.005588 -0.001456 -0.002067 -0.005180 0.032216
#
#
# Mechanical properties :
#
#
# Convention : Reuss Voigt Hill
#
# Bulk Modulus (GPa) = 43.71627 60.87489 52.29558
# Shear Modulus (GPa) = 25.31823 32.00347 28.66085
#
# Velocity S-wave (km/s) = 3.55214 3.99367 3.77936
# Velocity P-wave (km/s) = 6.21371 7.18357 6.71617
#
# Compressibility (1/GPa) = 0.02287478
#
# Stress axis : x y z
#
# Youngs Moduli (GPa) = 42.37824 72.63585 59.44094
#
# Poissons Ratio (x) = 0.41421 0.25612
# Poissons Ratio (y) = 0.24167 0.33555
# Poissons Ratio (z) = 0.18260 0.41003
#
# Static dielectric constant tensor:
#      x y z
#    x 3.697780 0.321480 -0.368240 
#    y 0.321480 4.107660 -0.181770 
#    z -0.368240 -0.181770 3.644870 
# 
# 
# High freq. dielectric constant tensor:
#      x y z
#    x 1.761010 0.011980 -0.032760 
#    y 0.011980 1.792950 -0.003100 
#    z -0.032760 -0.003100 1.785210 
# 
# From -- ./inp_files/454522.got.cif
#   From: 2010.06.25/outbox.cif.g09.slc.cpg/sg2_228_cif.got.tgz:454522.got - 2010.06.27 13:26:56.
