data_PCOD8002088
_publ_section_title
;
Structure prediction by ZEFSAII (Michael W. Deem and Ramdas Pophale) SiO2 
 PCOD8002088
Probable space group: P -1
;
_chemical_formula_sum "Si O2"
_cell_formula_units_Z 16
_cell_length_a 6.922219
_cell_length_b 18.453567
_cell_length_c 12.196274
_cell_angle_alpha 38.208812
_cell_angle_beta 127.911620
_cell_angle_gamma 117.999953
_cell_volume 759.985891
_symmetry_space_group_name_H-M "P -1"
_symmetry_group_IT_number 2
_symmetry_cell_setting 'triclinic'
loop_
_space_group_symop_operation_xyz
x,y,z
-x,-y,-z
loop_
_atom_site_type_symbol
_atom_site_label
_atom_site_fract_x
_atom_site_fract_y
_atom_site_fract_z
Si Si1 0.477538 0.813279 0.491137
Si Si2 0.542201 0.538928 0.623841
Si Si3 0.847440 0.170954 0.035169
Si Si4 0.405544 0.193269 0.705232
Si Si5 0.977797 0.135332 0.351943
Si Si6 0.386887 0.551293 0.788831
Si Si7 0.109761 0.571828 0.286967
Si Si8 0.082383 0.924806 0.362472
O O1 0.471919 0.843839 0.324026
O O2 0.757423 0.806918 0.636037
O O3 0.354330 0.690689 0.621364
O O4 0.320080 0.912835 0.382405
O O5 0.637075 0.666799 0.471069
O O6 0.563179 0.519611 0.784835
O O7 0.258944 0.526357 0.500668
O O8 0.710879 0.441022 0.740474
O O9 0.808366 0.188236 0.132668
O O10 0.585049 0.147486 0.918250
O O11 0.959372 0.290511 0.884692
O O12 0.035969 0.062979 0.204509
O O13 0.152214 0.129562 0.713706
O O14 0.868470 0.150232 0.418685
O O15 0.000000 0.000000 0.500000
O O16 0.124802 0.501832 0.730305
O O17 0.500000 0.500000 0.000000
#
# Coordination Sequence:
#
# PCOD8002088 Si02
#       8
#     2   2   2   2   2   2   2   2
#     4  10  21  37  56  79 107 142 178 212 265 320
#     4   9  20  37  57  77 104 142 179 216 265 314
#     4  10  20  35  55  80 109 138 178 221 258 312
#     4   9  19  37  56  79 107 136 177 224 261 308
#     4   9  20  37  54  76 108 141 174 216 260 311
#     4  11  22  35  55  82 109 137 176 223 263 311
#     4  10  20  37  56  77 107 142 177 218 263 310
#     4  10  20  36  57  78 108 144 173 214 267 315
#
# _framework density 21.053021000000001
#
# number of rings (size 3 to 8) (size 9 to 14) (size 15 to 20)
#    0.000    2.250    0.000    2.250    0.000    4.000 
#    0.000    5.000    0.000    0.000    0.000    0.000 
#    0.000    0.000    0.000    0.000    0.000    0.000 
#
# Total GULP energy -198363.437894 kJ/mol
# GULP energy per Si atom -12397.714868 kJ/mol
# Density = 2.100510 g / cm^3
# Si number density = 21.053021 Si / 1000 Ang^3
#
#
#
# Elastic Constant Matrix: (Units=GPa)
#
#
# Indices 1 2 3 4 5 6 
#
# 1 80.2336 23.0489 35.7033 7.9945 -0.3118 -12.7330
# 2 23.0489 98.0671 27.2519 10.5692 -2.2467 2.0215
# 3 35.7033 27.2519 93.2487 17.9313 -14.0933 -11.9670
# 4 7.9945 10.5692 17.9313 34.6596 -9.3040 -6.2016
# 5 -0.3118 -2.2467 -14.0933 -9.3040 16.7693 -0.2650
# 6 -12.7330 2.0215 -11.9670 -6.2016 -0.2650 30.5072
#
#
#
# Elastic Compliance Matrix: (Units=1/GPa)
#
#
# Indices 1 2 3 4 5 6 
#
# 1 0.016451 -0.002444 -0.005623 -0.000663 -0.005042 0.004644
# 2 -0.002444 0.011879 -0.002804 -0.002903 -0.002476 -0.003518
# 3 -0.005623 -0.002804 0.016495 -0.002434 0.012094 0.003920
# 4 -0.000663 -0.002903 -0.002434 0.037270 0.018337 0.006697
# 5 -0.005042 -0.002476 0.012094 0.018337 0.079660 0.007223
# 6 0.004644 -0.003518 0.003920 0.006697 0.007223 0.037912
#
#
# Mechanical properties :
#
#
# Convention : Reuss Voigt Hill
#
# Bulk Modulus (GPa) = 43.31902 49.28415 46.30159
# Shear Modulus (GPa) = 21.82413 28.75690 25.29051
#
# Velocity S-wave (km/s) = 3.22316 3.69985 3.46970
# Velocity P-wave (km/s) = 5.87133 6.45850 6.17190
#
# Compressibility (1/GPa) = 0.02308455
#
# Stress axis : x y z
#
# Youngs Moduli (GPa) = 60.78505 84.18087 60.62285
#
# Poissons Ratio (x) = 0.20572 0.34090
# Poissons Ratio (y) = 0.14854 0.16996
# Poissons Ratio (z) = 0.34182 0.23601
#
# Static dielectric constant tensor:
#      x y z
#    x 3.603290 -0.178410 -0.320800 
#    y -0.178410 4.036930 0.087700 
#    z -0.320800 0.087700 3.710790 
# 
# 
# High freq. dielectric constant tensor:
#      x y z
#    x 1.798100 -0.006620 -0.014140 
#    y -0.006620 1.848390 0.009830 
#    z -0.014140 0.009830 1.814150 
# 
# From -- ./inp_files/77791.got.cif
#   From: 2010.06.25/outbox.cif.g09.slc.cpg/sg2_39_cif.got.tgz:77791.got - 2010.06.27 13:26:56.
