data_PCOD8002219
_publ_section_title
;
Structure prediction by ZEFSAII (Michael W. Deem and Ramdas Pophale) SiO2 
 PCOD8002219
Probable space group: P -1
;
_chemical_formula_sum "Si O2"
_cell_formula_units_Z 14
_cell_length_a 11.447694
_cell_length_b 5.573871
_cell_length_c 13.928166
_cell_angle_alpha 69.930579
_cell_angle_beta 65.571099
_cell_angle_gamma 59.584050
_cell_volume 687.597961
_symmetry_space_group_name_H-M "P -1"
_symmetry_group_IT_number 2
_symmetry_cell_setting 'triclinic'
loop_
_space_group_symop_operation_xyz
x,y,z
-x,-y,-z
loop_
_atom_site_type_symbol
_atom_site_label
_atom_site_fract_x
_atom_site_fract_y
_atom_site_fract_z
Si Si1 0.883234 0.593595 0.158228
Si Si2 0.209058 0.404492 0.361205
Si Si3 0.706546 0.408836 0.365419
Si Si4 0.858643 0.887463 0.936670
Si Si5 0.052531 0.094215 0.562715
Si Si6 0.446224 0.307270 0.433688
Si Si7 0.839041 0.497009 0.844275
O O1 0.742586 0.625887 0.259768
O O2 0.971002 0.285954 0.118478
O O3 0.988953 0.639962 0.192245
O O4 0.829498 0.840626 0.063636
O O5 0.151542 0.242121 0.476131
O O6 0.362573 0.356783 0.355221
O O7 0.224104 0.317676 0.256438
O O8 0.090433 0.725086 0.355480
O O9 0.582338 0.366546 0.357794
O O10 0.659892 0.487365 0.480142
O O11 0.857101 0.140638 0.359381
O O12 0.780451 0.736759 0.916155
O O13 0.798128 0.228749 0.898972
O O14 0.000000 0.000000 0.500000
O O15 0.500000 0.000000 0.500000
#
# Coordination Sequence:
#
# PCOD8002219 Si02
#       7
#     2   2   2   2   2   2   2
#     4   9  20  34  60  89 118 157 196 253 309 359
#     4  11  23  34  59  86 119 158 200 254 307 355
#     4  11  22  39  60  83 123 162 205 243 301 367
#     4   9  20  36  59  93 124 146 197 260 311 361
#     4  11  21  35  57  87 115 150 204 256 299 362
#     4  11  24  41  53  84 124 168 204 240 291 378
#     4  10  20  35  57  91 119 153 192 251 311 355
#
# _framework density 20.360733
#
# number of rings (size 3 to 8) (size 9 to 14) (size 15 to 20)
#    0.857    0.857    2.857    2.143    4.000    1.143 
#    0.000    0.000    0.000    1.714    0.000    0.000 
#    0.000    0.000    0.000    0.000    0.000    0.000 
#
# Total GULP energy -173442.365532 kJ/mol
# GULP energy per Si atom -12388.740395 kJ/mol
# Density = 2.031439 g / cm^3
# Si number density = 20.360733 Si / 1000 Ang^3
#
#
#
# Elastic Constant Matrix: (Units=GPa)
#
#
# Indices 1 2 3 4 5 6 
#
# 1 137.5272 30.4656 57.5276 1.2111 23.8664 5.7436
# 2 30.4656 60.1473 2.5003 -13.4905 -0.0444 9.4059
# 3 57.5276 2.5003 97.8808 -8.4494 11.8886 -0.7161
# 4 1.2111 -13.4905 -8.4494 17.5187 3.1870 1.3141
# 5 23.8664 -0.0444 11.8886 3.1870 32.4760 -1.8212
# 6 5.7436 9.4059 -0.7161 1.3141 -1.8212 29.6463
#
#
#
# Elastic Compliance Matrix: (Units=1/GPa)
#
#
# Indices 1 2 3 4 5 6 
#
# 1 0.013819 -0.009095 -0.008068 -0.010739 -0.006154 0.000111
# 2 -0.009095 0.027984 0.006634 0.025739 0.001318 -0.008016
# 3 -0.008068 0.006634 0.016137 0.013761 -0.001367 -0.000846
# 4 -0.010739 0.025739 0.013761 0.086142 -0.006122 -0.009948
# 5 -0.006154 0.001318 -0.001367 -0.006122 0.036600 0.003261
# 6 0.000111 -0.008016 -0.000846 -0.009948 0.003261 0.036874
#
#
# Mechanical properties :
#
#
# Convention : Reuss Voigt Hill
#
# Bulk Modulus (GPa) = 27.11402 52.94913 40.03157
# Shear Modulus (GPa) = 19.92765 29.59899 24.76332
#
# Velocity S-wave (km/s) = 3.13186 3.81692 3.49123
# Velocity P-wave (km/s) = 5.14041 6.74441 5.99629
#
# Compressibility (1/GPa) = 0.03688129
#
# Stress axis : x y z
#
# Youngs Moduli (GPa) = 72.36522 35.73428 61.97068
#
# Poissons Ratio (x) = 0.32499 0.49999
# Poissons Ratio (y) = 0.65814 -0.41108
# Poissons Ratio (z) = 0.58385 -0.23704
#
# Static dielectric constant tensor:
#      x y z
#    x 3.470430 0.382430 0.877710 
#    y 0.382430 3.697260 -0.467570 
#    z 0.877710 -0.467570 0.608770 
# 
# 
# High freq. dielectric constant tensor:
#      x y z
#    x 1.781360 0.019610 0.016550 
#    y 0.019610 1.772720 -0.011370 
#    z 0.016550 -0.011370 1.789090 
# 
# From -- ./inp_files/74912.got.cif
#   From: 2010.06.25/outbox.cif.g09.slc.cpg/sg2_38_cif.got.tgz:74912.got - 2010.06.27 13:26:56.
