data_PCOD8002307
_publ_section_title
;
Structure prediction by ZEFSAII (Michael W. Deem and Ramdas Pophale) SiO2 
 PCOD8002307
Probable space group: P -1
;
_chemical_formula_sum "Si O2"
_cell_formula_units_Z 16
_cell_length_a 9.085334
_cell_length_b 17.201116
_cell_length_c 16.196448
_cell_angle_alpha 145.113750
_cell_angle_beta 50.153886
_cell_angle_gamma 145.894085
_cell_volume 805.891040
_symmetry_space_group_name_H-M "P -1"
_symmetry_group_IT_number 2
_symmetry_cell_setting 'triclinic'
loop_
_space_group_symop_operation_xyz
x,y,z
-x,-y,-z
loop_
_atom_site_type_symbol
_atom_site_label
_atom_site_fract_x
_atom_site_fract_y
_atom_site_fract_z
Si Si1 0.156621 0.772831 0.191149
Si Si2 0.162355 0.110792 0.864328
Si Si3 0.554982 0.016936 0.398320
Si Si4 0.706741 0.718985 0.748304
Si Si5 0.319117 0.711612 0.790530
Si Si6 0.222370 0.895036 0.101150
Si Si7 0.996952 0.585888 0.491491
Si Si8 0.592513 0.392133 0.074159
O O1 0.212957 0.903895 0.211013
O O2 0.840602 0.613692 0.173662
O O3 0.278698 0.877886 0.326193
O O4 0.295465 0.704401 0.049476
O O5 0.021705 0.137990 0.873284
O O6 0.288268 0.046413 0.716008
O O7 0.389675 0.310915 0.000512
O O8 0.949567 0.945022 0.861268
O O9 0.719969 0.218739 0.470954
O O10 0.500000 0.000000 0.500000
O O11 0.489798 0.663513 0.712053
O O12 0.794959 0.611422 0.598158
O O13 0.576358 0.651469 0.824658
O O14 0.091658 0.554810 0.673521
O O15 0.493467 0.908267 0.852818
O O16 0.195813 0.727098 0.929029
O O17 0.000000 0.500000 0.500000
#
# Coordination Sequence:
#
# PCOD8002307 Si02
#       8
#     2   2   2   2   2   2   2   2
#     4  10  21  38  59  86 119 155 198 240 292 357
#     4   9  21  37  61  90 116 153 195 248 295 345
#     4  10  23  43  63  83 123 163 196 241 302 362
#     4  10  20  38  59  88 118 155 197 241 295 353
#     4  10  21  36  62  88 117 159 192 242 303 350
#     4  10  20  38  60  90 121 147 196 252 295 343
#     4  11  24  39  61  90 121 155 204 250 289 352
#     4  10  20  35  59  87 116 156 198 236 293 355
#
# _framework density 19.8538
#
# number of rings (size 3 to 8) (size 9 to 14) (size 15 to 20)
#    0.000    2.000    1.250    1.500    3.500    1.500 
#    2.250    0.625    0.000    0.000    0.000    0.000 
#    0.000    0.000    0.000    0.000    0.000    0.000 
#
# Total GULP energy -198335.652443 kJ/mol
# GULP energy per Si atom -12395.978278 kJ/mol
# Density = 1.980861 g / cm^3
# Si number density = 19.853800 Si / 1000 Ang^3
#
#
#
# Elastic Constant Matrix: (Units=GPa)
#
#
# Indices 1 2 3 4 5 6 
#
# 1 95.2750 49.0065 44.1535 6.1274 13.7878 -5.9756
# 2 49.0065 106.9167 43.2551 -10.8624 16.4893 -10.0375
# 3 44.1535 43.2551 95.3096 1.4577 21.7984 -4.0366
# 4 6.1274 -10.8624 1.4577 29.2248 0.1905 6.8423
# 5 13.7878 16.4893 21.7984 0.1905 34.2528 2.0348
# 6 -5.9756 -10.0375 -4.0366 6.8423 2.0348 32.1873
#
#
#
# Elastic Compliance Matrix: (Units=1/GPa)
#
#
# Indices 1 2 3 4 5 6 
#
# 1 0.016225 -0.005902 -0.004454 -0.005814 -0.000936 0.001908
# 2 -0.005902 0.014644 -0.003311 0.006428 -0.002713 0.001861
# 3 -0.004454 -0.003311 0.015617 -0.001214 -0.006591 0.000774
# 4 -0.005814 0.006428 -0.001214 0.039682 0.000254 -0.007679
# 5 -0.000936 -0.002713 -0.006591 0.000254 0.035316 -0.004133
# 6 0.001908 0.001861 0.000774 -0.007679 -0.004133 0.033993
#
#
# Mechanical properties :
#
#
# Convention : Reuss Voigt Hill
#
# Bulk Modulus (GPa) = 52.21329 63.37016 57.79173
# Shear Modulus (GPa) = 26.42768 29.87204 28.14986
#
# Velocity S-wave (km/s) = 3.65240 3.88313 3.76953
# Velocity P-wave (km/s) = 6.64400 7.21752 6.93669
#
# Compressibility (1/GPa) = 0.01915221
#
# Stress axis : x y z
#
# Youngs Moduli (GPa) = 61.63327 68.28769 64.03355
#
# Poissons Ratio (x) = 0.40304 0.28520
# Poissons Ratio (y) = 0.36377 0.21200
# Poissons Ratio (z) = 0.27451 0.22608
#
# Static dielectric constant tensor:
#      x y z
#    x 3.689950 0.131000 0.062830 
#    y 0.131000 3.639710 0.091130 
#    z 0.062830 0.091130 3.569610 
# 
# 
# High freq. dielectric constant tensor:
#      x y z
#    x 1.779810 0.002650 0.008470 
#    y 0.002650 1.773720 -0.001900 
#    z 0.008470 -0.001900 1.764990 
# 
# From -- ./inp_files/256978.got.cif
#   From: 2010.06.25/outbox.cif.g09.slc.cpg/sg2_129_cif.got.tgz:256978.got - 2010.06.27 13:26:56.
