data_PCOD8002766
_publ_section_title
;
Structure prediction by ZEFSAII (Michael W. Deem and Ramdas Pophale) SiO2 
 PCOD8002766
Probable space group: P -1
;
_chemical_formula_sum "Si O2"
_cell_formula_units_Z 16
_cell_length_a 10.008710
_cell_length_b 8.705267
_cell_length_c 26.517436
_cell_angle_alpha 130.583876
_cell_angle_beta 154.383007
_cell_angle_gamma 61.058306
_cell_volume 720.575926
_symmetry_space_group_name_H-M "P -1"
_symmetry_group_IT_number 2
_symmetry_cell_setting 'triclinic'
loop_
_space_group_symop_operation_xyz
x,y,z
-x,-y,-z
loop_
_atom_site_type_symbol
_atom_site_label
_atom_site_fract_x
_atom_site_fract_y
_atom_site_fract_z
Si Si1 0.637812 0.175604 0.042500
Si Si2 0.581096 0.602248 0.145014
Si Si3 0.334016 0.950532 0.088649
Si Si4 0.639204 0.684368 0.293298
Si Si5 0.352176 0.810514 0.446873
Si Si6 0.368867 0.909565 0.583428
Si Si7 0.672020 0.389719 0.333724
Si Si8 0.634744 0.614858 0.673259
O O1 0.481581 0.369708 0.034397
O O2 0.012076 0.277725 0.206003
O O3 0.606613 0.066670 0.954199
O O4 0.500000 0.000000 0.000000
O O5 0.351120 0.733075 0.073353
O O6 0.490407 0.564007 0.165469
O O7 0.960385 0.730774 0.292468
O O8 0.635674 0.147499 0.253971
O O9 0.000000 0.000000 0.000000
O O10 0.644314 0.513835 0.300526
O O11 0.985144 0.850558 0.432019
O O12 0.454066 0.846593 0.285964
O O13 0.506970 0.884359 0.570115
O O14 0.502787 0.625657 0.443919
O O15 0.500000 0.000000 0.500000
O O16 0.406985 0.743947 0.602393
O O17 0.372143 0.383290 0.267657
O O18 0.000000 0.500000 0.500000
#
# Coordination Sequence:
#
# PCOD8002766 Si02
#       8
#     2   2   2   2   2   2   2   2
#     4  11  25  49  70  96 138 188 237 286 352 417
#     4  10  24  44  70  97 139 185 234 289 347 419
#     4  12  26  47  73 100 142 185 235 294 348 413
#     4  10  21  37  63  99 134 175 220 274 349 407
#     4  10  22  36  60  96 137 178 226 280 355 417
#     4  10  20  36  58  92 139 172 216 279 340 406
#     4  12  24  41  72 102 138 176 229 289 351 413
#     4  11  22  40  64  97 134 176 234 286 340 423
#
# _framework density 22.204460999999998
#
# number of rings (size 3 to 8) (size 9 to 14) (size 15 to 20)
#    0.000    1.250    2.500    3.000    5.250    1.000 
#    2.250    1.250    0.000    0.000    0.000    0.000 
#    0.000    0.000    0.000    0.000    0.000    0.000 
#
# Total GULP energy -198345.525769 kJ/mol
# GULP energy per Si atom -12396.595361 kJ/mol
# Density = 2.215392 g / cm^3
# Si number density = 22.204461 Si / 1000 Ang^3
#
#
#
# Elastic Constant Matrix: (Units=GPa)
#
#
# Indices 1 2 3 4 5 6 
#
# 1 164.8792 71.6976 39.4292 16.6848 -35.4453 11.0353
# 2 71.6976 172.2047 45.1876 15.9717 -14.8176 -5.2610
# 3 39.4292 45.1876 67.3087 15.4840 -16.1457 -4.8487
# 4 16.6848 15.9717 15.4840 39.3291 -2.9988 -8.9474
# 5 -35.4453 -14.8176 -16.1457 -2.9988 37.0606 9.1184
# 6 11.0353 -5.2610 -4.8487 -8.9474 9.1184 44.7996
#
#
#
# Elastic Compliance Matrix: (Units=1/GPa)
#
#
# Indices 1 2 3 4 5 6 
#
# 1 0.010420 -0.003019 -0.001546 -0.003157 0.009206 -0.005593
# 2 -0.003019 0.007992 -0.003859 -0.000221 -0.001780 0.001583
# 3 -0.001546 -0.003859 0.021010 -0.005633 0.005696 -0.000083
# 4 -0.003157 -0.000221 -0.005633 0.030338 -0.004877 0.007194
# 5 0.009206 -0.001780 0.005696 -0.004877 0.039856 -0.010947
# 6 -0.005593 0.001583 -0.000083 0.007194 -0.010947 0.027541
#
#
# Mechanical properties :
#
#
# Convention : Reuss Voigt Hill
#
# Bulk Modulus (GPa) = 44.29838 79.66904 61.98371
# Shear Modulus (GPa) = 30.95390 40.77640 35.86515
#
# Velocity S-wave (km/s) = 3.73773 4.28998 4.02334
# Velocity P-wave (km/s) = 6.21459 7.77793 7.03979
#
# Compressibility (1/GPa) = 0.02257419
#
# Stress axis : x y z
#
# Youngs Moduli (GPa) = 95.96585 125.11999 47.59702
#
# Poissons Ratio (x) = 0.37771 0.07358
# Poissons Ratio (y) = 0.28970 0.18370
# Poissons Ratio (z) = 0.14836 0.48289
#
# Static dielectric constant tensor:
#      x y z
#    x 4.423040 -0.385320 -0.269550 
#    y -0.385320 4.177140 0.292470 
#    z -0.269550 0.292470 3.891410 
# 
# 
# High freq. dielectric constant tensor:
#      x y z
#    x 1.891380 -0.004650 -0.017070 
#    y -0.004650 1.884280 0.016380 
#    z -0.017070 0.016380 1.851660 
# 
# From -- ./inp_files/606841.got.cif
#   From: 2010.06.25/outbox.cif.g09.slc.cpg/sg2_304_cif.got.tgz:606841.got - 2010.06.27 13:26:56.
