data_PCOD8002174
_publ_section_title
;
Structure prediction by ZEFSAII (Michael W. Deem and Ramdas Pophale) SiO2 
 PCOD8002174
Probable space group: P -1
;
_chemical_formula_sum "Si O2"
_cell_formula_units_Z 16
_cell_length_a 9.502457
_cell_length_b 15.437272
_cell_length_c 9.336361
_cell_angle_alpha 117.771893
_cell_angle_beta 134.039506
_cell_angle_gamma 64.752574
_cell_volume 859.709150
_symmetry_space_group_name_H-M "P -1"
_symmetry_group_IT_number 2
_symmetry_cell_setting 'triclinic'
loop_
_space_group_symop_operation_xyz
x,y,z
-x,-y,-z
loop_
_atom_site_type_symbol
_atom_site_label
_atom_site_fract_x
_atom_site_fract_y
_atom_site_fract_z
Si Si1 0.868508 0.198848 0.091295
Si Si2 0.373220 0.740836 0.311445
Si Si3 0.733286 0.590041 0.444223
Si Si4 0.911066 0.375704 0.456912
Si Si5 0.114954 0.765261 0.419729
Si Si6 0.260259 0.221110 0.260494
Si Si7 0.708138 0.092418 0.142651
Si Si8 0.738441 0.880387 0.110265
O O1 0.833756 0.301817 0.232782
O O2 0.815998 0.111126 0.085747
O O3 0.097487 0.167336 0.183556
O O4 0.731031 0.208102 0.861992
O O5 0.501550 0.632863 0.278289
O O6 0.208721 0.728569 0.305180
O O7 0.525679 0.811187 0.535366
O O8 0.753443 0.477132 0.422840
O O9 0.802036 0.658871 0.673666
O O10 0.870844 0.600583 0.410646
O O11 0.917223 0.330586 0.585513
O O12 0.259243 0.828543 0.652110
O O13 0.901352 0.833543 0.303557
O O14 0.271707 0.196839 0.083901
O O15 0.798479 0.982286 0.172973
O O16 0.474850 0.099530 0.948789
#
# Coordination Sequence:
#
# PCOD8002174 Si02
#       8
#     2   2   2   2   2   2   2   2
#     4  10  20  36  59  81 107 147 182 221 273 323
#     4  10  20  35  57  79 114 144 181 218 273 321
#     4   8  18  36  57  77 115 141 179 226 269 312
#     4   9  19  36  58  81 110 143 182 227 266 317
#     4  11  21  37  59  81 109 147 183 220 274 325
#     4   9  19  37  55  77 117 144 170 233 268 315
#     4  10  23  37  57  85 107 139 190 224 270 326
#     4  11  21  38  59  78 114 144 176 232 276 315
#
# _framework density 18.610945999999998
#
# number of rings (size 3 to 8) (size 9 to 14) (size 15 to 20)
#    0.750    1.500    2.500    0.375    1.750    1.500 
#    0.000    1.250    0.000    0.000    0.000    0.000 
#    0.000    0.000    0.000    0.000    0.000    0.000 
#
# Total GULP energy -198330.118669 kJ/mol
# GULP energy per Si atom -12395.632417 kJ/mol
# Density = 1.856859 g / cm^3
# Si number density = 18.610946 Si / 1000 Ang^3
#
#
#
# Elastic Constant Matrix: (Units=GPa)
#
#
# Indices 1 2 3 4 5 6 
#
# 1 70.7668 28.3352 28.8623 -15.2533 5.7179 11.2618
# 2 28.3352 77.9095 22.9775 -10.3661 7.9571 22.0992
# 3 28.8623 22.9775 62.7479 -17.2536 4.7315 15.1253
# 4 -15.2533 -10.3661 -17.2536 25.7483 -4.6912 -3.4067
# 5 5.7179 7.9571 4.7315 -4.6912 28.5793 -2.8951
# 6 11.2618 22.0992 15.1253 -3.4067 -2.8951 26.3329
#
#
#
# Elastic Compliance Matrix: (Units=1/GPa)
#
#
# Indices 1 2 3 4 5 6 
#
# 1 0.019618 -0.004381 -0.005523 0.005874 -0.000916 -0.000882
# 2 -0.004381 0.019583 -0.000719 0.001861 -0.005623 -0.014525
# 3 -0.005523 -0.000719 0.024279 0.011074 -0.001885 -0.009755
# 4 0.005874 0.001861 0.011074 0.050858 0.004481 -0.003362
# 5 -0.000916 -0.005623 -0.001885 0.004481 0.038906 0.011050
# 6 -0.000882 -0.014525 -0.009755 -0.003362 0.011050 0.056926
#
#
# Mechanical properties :
#
#
# Convention : Reuss Voigt Hill
#
# Bulk Modulus (GPa) = 23.67741 41.30825 32.49283
# Shear Modulus (GPa) = 20.36723 24.88204 22.62464
#
# Velocity S-wave (km/s) = 3.31171 3.66041 3.49042
# Velocity P-wave (km/s) = 5.23194 6.33314 5.80869
#
# Compressibility (1/GPa) = 0.04223435
#
# Stress axis : x y z
#
# Youngs Moduli (GPa) = 50.97399 51.06553 41.18821
#
# Poissons Ratio (x) = 0.22371 0.22747
# Poissons Ratio (y) = 0.22331 0.02961
# Poissons Ratio (z) = 0.28151 0.03672
#
# Static dielectric constant tensor:
#      x y z
#    x 3.506520 -0.035440 0.093630 
#    y -0.035440 3.238570 0.028610 
#    z 0.093630 0.028610 3.254300 
# 
# 
# High freq. dielectric constant tensor:
#      x y z
#    x 1.731260 -0.005150 0.005140 
#    y -0.005150 1.704100 0.001200 
#    z 0.005140 0.001200 1.710070 
# 
# From -- ./inp_files/206176.got.cif
#   From: 2010.06.25/outbox.cif.g09.slc.cpg/sg2_104_cif.got.tgz:206176.got - 2010.06.27 13:26:56.
