data_PCOD8002010
_publ_section_title
;
Structure prediction by ZEFSAII (Michael W. Deem and Ramdas Pophale) SiO2 
 PCOD8002010
Probable space group: P -1
;
_chemical_formula_sum "Si O2"
_cell_formula_units_Z 16
_cell_length_a 11.319983
_cell_length_b 8.180890
_cell_length_c 23.207175
_cell_angle_alpha 56.282619
_cell_angle_beta 28.252466
_cell_angle_gamma 46.597900
_cell_volume 731.229751
_symmetry_space_group_name_H-M "P -1"
_symmetry_group_IT_number 2
_symmetry_cell_setting 'triclinic'
loop_
_space_group_symop_operation_xyz
x,y,z
-x,-y,-z
loop_
_atom_site_type_symbol
_atom_site_label
_atom_site_fract_x
_atom_site_fract_y
_atom_site_fract_z
Si Si1 0.609725 0.011888 0.224223
Si Si2 0.971428 0.209321 0.254475
Si Si3 0.065687 0.113985 0.504482
Si Si4 0.053995 0.472442 0.887385
Si Si5 0.989376 0.214862 0.647611
Si Si6 0.874357 0.788244 0.686162
Si Si7 0.346177 0.582217 0.842050
Si Si8 0.305398 0.451459 0.492554
O O1 0.399702 0.014107 0.363846
O O2 0.436159 0.160598 0.213129
O O3 0.767934 0.145047 0.156839
O O4 0.815773 0.755214 0.163176
O O5 0.091578 0.307381 0.134973
O O6 0.632138 0.388385 0.372519
O O7 0.151422 0.173244 0.242631
O O8 0.021972 0.959551 0.266780
O O9 0.055478 0.093867 0.581572
O O10 0.844514 0.370936 0.530123
O O11 0.944503 0.939619 0.578707
O O12 0.284123 0.500770 0.823004
O O13 0.799218 0.490550 0.032073
O O14 0.690121 0.454051 0.729481
O O15 0.267215 0.238460 0.536185
O O16 0.137422 0.537848 0.608917
#
# Coordination Sequence:
#
# PCOD8002010 Si02
#       8
#     2   2   2   2   2   2   2   2
#     4  11  21  42  68  93 123 161 217 259 309 366
#     4  11  23  37  57  89 132 165 196 254 320 371
#     4  10  20  34  64  93 120 166 203 255 313 369
#     4  11  25  44  66  93 124 163 215 267 307 358
#     4  11  22  38  59  93 129 161 204 253 315 380
#     4  10  20  36  58  90 127 165 197 250 321 376
#     4  11  24  45  69  90 120 167 220 263 300 366
#     4  11  19  34  57  89 127 158 205 253 304 375
#
# _framework density 21.880946999999999
#
# number of rings (size 3 to 8) (size 9 to 14) (size 15 to 20)
#    0.000    1.250    2.500    6.750    1.750    1.500 
#    2.250    0.625    0.000    0.000    0.000    0.000 
#    0.000    0.000    0.000    0.000    0.000    0.000 
#
# Total GULP energy -198273.138266 kJ/mol
# GULP energy per Si atom -12392.071142 kJ/mol
# Density = 2.183114 g / cm^3
# Si number density = 21.880947 Si / 1000 Ang^3
#
#
#
# Elastic Constant Matrix: (Units=GPa)
#
#
# Indices 1 2 3 4 5 6 
#
# 1 55.4230 34.2517 28.0571 -18.1556 3.6974 7.8177
# 2 34.2517 98.5430 14.6485 -20.3140 17.1687 16.0742
# 3 28.0571 14.6485 62.0265 -15.0917 8.5986 0.1065
# 4 -18.1556 -20.3140 -15.0917 33.6334 -1.7323 -2.1199
# 5 3.6974 17.1687 8.5986 -1.7323 25.2634 -7.5546
# 6 7.8177 16.0742 0.1065 -2.1199 -7.5546 29.6032
#
#
#
# Elastic Compliance Matrix: (Units=1/GPa)
#
#
# Indices 1 2 3 4 5 6 
#
# 1 0.030898 -0.008156 -0.011004 0.006927 0.004640 -0.002011
# 2 -0.008156 0.018377 0.003087 0.006586 -0.015261 -0.011258
# 3 -0.011004 0.003087 0.022883 0.005748 -0.008028 -0.000489
# 4 0.006927 0.006586 0.005748 0.039461 -0.005973 -0.004125
# 5 0.004640 -0.015261 -0.008028 -0.005973 0.058017 0.021468
# 6 -0.002011 -0.011258 -0.000489 -0.004125 0.021468 0.045609
#
#
# Mechanical properties :
#
#
# Convention : Reuss Voigt Hill
#
# Bulk Modulus (GPa) = 24.99365 41.10078 33.04721
# Shear Modulus (GPa) = 19.17698 26.96901 23.07300
#
# Velocity S-wave (km/s) = 2.96366 3.51455 3.25080
# Velocity P-wave (km/s) = 4.81232 5.94088 5.40613
#
# Compressibility (1/GPa) = 0.04001017
#
# Stress axis : x y z
#
# Youngs Moduli (GPa) = 32.36489 54.41650 43.70033
#
# Poissons Ratio (x) = 0.44382 0.48090
# Poissons Ratio (y) = 0.26396 -0.13489
# Poissons Ratio (z) = 0.35616 -0.16796
#
# Static dielectric constant tensor:
#      x y z
#    x 4.005310 0.243930 0.046100 
#    y 0.243930 3.954650 -0.185060 
#    z 0.046100 -0.185060 3.681210 
# 
# 
# High freq. dielectric constant tensor:
#      x y z
#    x 1.860540 0.020450 0.005720 
#    y 0.020450 1.859700 -0.012520 
#    z 0.005720 -0.012520 1.841610 
# 
# From -- ./inp_files/203681.got.cif
#   From: 2010.06.25/outbox.cif.g09.slc.cpg/sg2_102_cif.got.tgz:203681.got - 2010.06.27 13:26:56.
