data_PCOD8002698
_publ_section_title
;
Structure prediction by ZEFSAII (Michael W. Deem and Ramdas Pophale) SiO2 
 PCOD8002698
Probable space group: P -1
;
_chemical_formula_sum "Si O2"
_cell_formula_units_Z 16
_cell_length_a 9.110582
_cell_length_b 22.363794
_cell_length_c 5.150396
_cell_angle_alpha 127.407414
_cell_angle_beta 73.250150
_cell_angle_gamma 120.502264
_cell_volume 717.891050
_symmetry_space_group_name_H-M "P -1"
_symmetry_group_IT_number 2
_symmetry_cell_setting 'triclinic'
loop_
_space_group_symop_operation_xyz
x,y,z
-x,-y,-z
loop_
_atom_site_type_symbol
_atom_site_label
_atom_site_fract_x
_atom_site_fract_y
_atom_site_fract_z
Si Si1 0.417085 0.204520 0.707489
Si Si2 0.210984 0.748960 0.248457
Si Si3 0.765294 0.384736 0.434234
Si Si4 0.851765 0.618505 0.164190
Si Si5 0.397245 0.295477 0.473813
Si Si6 0.678398 0.979143 0.618465
Si Si7 0.868015 0.527322 0.394036
Si Si8 0.717167 0.068859 0.336714
O O1 0.615881 0.226073 0.608446
O O2 0.342779 0.224241 0.534077
O O3 0.307654 0.107164 0.573803
O O4 0.394673 0.258008 0.093274
O O5 0.188227 0.831507 0.403676
O O6 0.042493 0.686574 0.324923
O O7 0.228216 0.703587 0.856354
O O8 0.589545 0.366859 0.622001
O O9 0.774260 0.429907 0.267442
O O10 0.928571 0.446261 0.684245
O O11 0.727715 0.661941 0.342895
O O12 0.788158 0.545661 0.223231
O O13 0.847801 0.581230 0.784822
O O14 0.483822 0.962184 0.652886
O O15 0.769941 0.023931 0.423872
O O16 0.775101 0.042727 0.970058
#
# Coordination Sequence:
#
# PCOD8002698 Si02
#       8
#     2   2   2   2   2   2   2   2
#     4  10  20  36  58  81 109 144 182 224 267 321
#     4   9  20  36  58  82 109 143 183 224 269 322
#     4   9  21  38  59  83 109 143 185 224 270 323
#     4  11  23  38  56  81 112 145 181 224 274 322
#     4  11  22  36  57  82 110 145 183 224 269 320
#     4   9  17  30  50  79 107 134 174 221 268 311
#     4  10  22  39  58  80 111 145 180 226 272 322
#     4   9  17  29  50  79 107 134 172 223 267 311
#
# _framework density 22.287504999999999
#
# number of rings (size 3 to 8) (size 9 to 14) (size 15 to 20)
#    0.000    2.250    0.000    2.250    0.000   15.500 
#    0.000    0.000    0.000    4.500    0.000    0.000 
#    0.000    0.000    0.000    0.000    0.000    0.000 
#
# Total GULP energy -198381.049943 kJ/mol
# GULP energy per Si atom -12398.815621 kJ/mol
# Density = 2.223678 g / cm^3
# Si number density = 22.287505 Si / 1000 Ang^3
#
#
#
# Elastic Constant Matrix: (Units=GPa)
#
#
# Indices 1 2 3 4 5 6 
#
# 1 64.5435 28.6873 28.7599 -3.5978 -20.0573 -17.7009
# 2 28.6873 105.5606 34.0046 2.1127 -0.4016 -27.6650
# 3 28.7599 34.0046 78.8499 4.0687 -6.2366 1.9933
# 4 -3.5978 2.1127 4.0687 39.9936 -5.7562 6.0293
# 5 -20.0573 -0.4016 -6.2366 -5.7562 26.4277 -1.4863
# 6 -17.7009 -27.6650 1.9933 6.0293 -1.4863 30.5622
#
#
#
# Elastic Compliance Matrix: (Units=1/GPa)
#
#
# Indices 1 2 3 4 5 6 
#
# 1 0.034669 -0.000360 -0.011219 0.004872 0.025889 0.020783
# 2 -0.000360 0.015828 -0.007052 -0.002621 -0.001422 0.015027
# 3 -0.011219 -0.007052 0.019842 -0.001239 -0.005007 -0.014174
# 4 0.004872 -0.002621 -0.001239 0.027700 0.009146 -0.004490
# 5 0.025889 -0.001422 -0.005007 0.009146 0.059126 0.015104
# 6 0.020783 0.015027 -0.014174 -0.004490 0.015104 0.060905
#
#
# Mechanical properties :
#
#
# Convention : Reuss Voigt Hill
#
# Bulk Modulus (GPa) = 30.23232 47.98418 39.10825
# Shear Modulus (GPa) = 18.77180 29.89685 24.33433
#
# Velocity S-wave (km/s) = 2.90531 3.66651 3.30788
# Velocity P-wave (km/s) = 4.98484 6.28496 5.67227
#
# Compressibility (1/GPa) = 0.03307718
#
# Stress axis : x y z
#
# Youngs Moduli (GPa) = 28.84411 63.17964 50.39847
#
# Poissons Ratio (x) = 0.02273 0.56543
# Poissons Ratio (y) = 0.01038 0.35540
# Poissons Ratio (z) = 0.32361 0.44553
#
# Static dielectric constant tensor:
#      x y z
#    x 3.708520 -0.062630 -0.029740 
#    y -0.062630 4.211130 0.112120 
#    z -0.029740 0.112120 3.936390 
# 
# 
# High freq. dielectric constant tensor:
#      x y z
#    x 1.837160 -0.016830 -0.001850 
#    y -0.016830 1.884050 0.007600 
#    z -0.001850 0.007600 1.879410 
# 
# From -- ./inp_files/53925.got.cif
#   From: 2010.06.25/outbox.cif.g09.slc.cpg/sg2_27_cif.got.tgz:53925.got - 2010.06.27 13:26:56.
