data_PCOD8002755
_publ_section_title
;
Structure prediction by ZEFSAII (Michael W. Deem and Ramdas Pophale) SiO2 
 PCOD8002755
Probable space group: P -1
;
_chemical_formula_sum "Si O2"
_cell_formula_units_Z 12
_cell_length_a 10.554334
_cell_length_b 16.277385
_cell_length_c 18.592956
_cell_angle_alpha 21.367749
_cell_angle_beta 34.457218
_cell_angle_gamma 31.963925
_cell_volume 606.182712
_symmetry_space_group_name_H-M "P -1"
_symmetry_group_IT_number 2
_symmetry_cell_setting 'triclinic'
loop_
_space_group_symop_operation_xyz
x,y,z
-x,-y,-z
loop_
_atom_site_type_symbol
_atom_site_label
_atom_site_fract_x
_atom_site_fract_y
_atom_site_fract_z
Si Si1 0.453262 0.956586 0.883545
Si Si2 0.369893 0.377508 0.057673
Si Si3 0.112771 0.968272 0.156462
Si Si4 0.180438 0.335226 0.934214
Si Si5 0.457260 0.478140 0.454525
Si Si6 0.444409 0.817008 0.726108
O O1 0.217177 0.961042 0.033386
O O2 0.700372 0.817964 0.925633
O O3 0.461021 0.816179 0.920237
O O4 0.429682 0.227311 0.653631
O O5 0.369296 0.250908 0.238547
O O6 0.098313 0.497019 0.056043
O O7 0.481559 0.581117 0.852431
O O8 0.210463 0.700163 0.364936
O O9 0.823881 0.069576 0.206873
O O10 0.208715 0.143913 0.013260
O O11 0.316788 0.510689 0.705163
O O12 0.500000 0.500000 0.500000
O O13 0.500000 0.000000 0.500000
#
# Coordination Sequence:
#
# PCOD8002755 Si02
#       6
#     2   2   2   2   2   2
#     4  11  21  37  59  91 122 143 188 241 286 342
#     4  10  24  40  59  86 116 153 191 241 289 330
#     4  10  21  37  59  86 115 153 193 235 280 340
#     4  10  20  36  58  89 120 150 187 230 289 344
#     4  11  19  32  60  88 116 153 184 223 288 344
#     4  10  24  43  62  78 111 158 201 237 283 340
#
# _framework density 19.796011
#
# number of rings (size 3 to 8) (size 9 to 14) (size 15 to 20)
#    0.000    1.667    3.333    1.500    2.333    5.333 
#    0.000    1.667    0.000    0.000    0.000    0.000 
#    0.000    0.000    0.000    0.000    0.000    0.000 
#
# Total GULP energy -148841.503373 kJ/mol
# GULP energy per Si atom -12403.458614 kJ/mol
# Density = 1.975095 g / cm^3
# Si number density = 19.796011 Si / 1000 Ang^3
#
#
#
# Elastic Constant Matrix: (Units=GPa)
#
#
# Indices 1 2 3 4 5 6 
#
# 1 53.8954 33.0048 37.7989 -10.9475 -1.1565 5.6962
# 2 33.0048 98.6848 56.1201 -16.1919 -11.8542 16.0604
# 3 37.7989 56.1201 139.3159 -14.7784 19.5430 10.8287
# 4 -10.9475 -16.1919 -14.7784 26.1704 -0.3779 -4.6066
# 5 -1.1565 -11.8542 19.5430 -0.3779 22.3231 -3.9415
# 6 5.6962 16.0604 10.8287 -4.6066 -3.9415 36.7873
#
#
#
# Elastic Compliance Matrix: (Units=1/GPa)
#
#
# Indices 1 2 3 4 5 6 
#
# 1 0.026114 -0.004491 -0.005285 0.005311 0.003781 0.000543
# 2 -0.004491 0.019838 -0.008384 0.005385 0.017207 -0.002980
# 3 -0.005285 -0.008384 0.014661 0.000322 -0.017858 -0.001710
# 4 0.005311 0.005385 0.000322 0.044488 0.004090 0.002741
# 5 0.003781 0.017207 -0.017858 0.004090 0.070760 0.005253
# 6 0.000543 -0.002980 -0.001710 0.002741 0.005253 0.029809
#
#
# Mechanical properties :
#
#
# Convention : Reuss Voigt Hill
#
# Bulk Modulus (GPa) = 41.16316 60.63818 50.90067
# Shear Modulus (GPa) = 19.99283 28.05432 24.02357
#
# Velocity S-wave (km/s) = 3.18141 3.76862 3.48739
# Velocity P-wave (km/s) = 5.85952 7.04519 6.47953
#
# Compressibility (1/GPa) = 0.02429357
#
# Stress axis : x y z
#
# Youngs Moduli (GPa) = 38.29368 50.40727 68.20640
#
# Poissons Ratio (x) = 0.22637 0.36050
# Poissons Ratio (y) = 0.17197 0.57183
# Poissons Ratio (z) = 0.20240 0.42261
#
# Static dielectric constant tensor:
#      x y z
#    x 3.524330 -0.099570 0.134090 
#    y -0.099570 3.646270 -0.140380 
#    z 0.134090 -0.140380 3.699420 
# 
# 
# High freq. dielectric constant tensor:
#      x y z
#    x 1.766850 -0.002700 0.012840 
#    y -0.002700 1.773260 -0.009420 
#    z 0.012840 -0.009420 1.773310 
# 
# From -- ./inp_files/18872.got.cif
#   From: 2010.06.25/outbox.cif.g09.slc.cpg/sg2_10_cif.got.tgz:18872.got - 2010.06.27 13:26:56.
