data_PCOD8002920
_publ_section_title
;
Structure prediction by ZEFSAII (Michael W. Deem and Ramdas Pophale) SiO2 
 PCOD8002920
Probable space group: P -1
;
_chemical_formula_sum "Si O2"
_cell_formula_units_Z 16
_cell_length_a 11.348238
_cell_length_b 9.393987
_cell_length_c 8.430971
_cell_angle_alpha 113.613168
_cell_angle_beta 72.726608
_cell_angle_gamma 83.423398
_cell_volume 757.874749
_symmetry_space_group_name_H-M "P -1"
_symmetry_group_IT_number 2
_symmetry_cell_setting 'triclinic'
loop_
_space_group_symop_operation_xyz
x,y,z
-x,-y,-z
loop_
_atom_site_type_symbol
_atom_site_label
_atom_site_fract_x
_atom_site_fract_y
_atom_site_fract_z
Si Si1 0.487087 0.531595 0.702534
Si Si2 0.267072 0.421618 0.217531
Si Si3 0.116370 0.644184 0.137099
Si Si4 0.694587 0.653203 0.171285
Si Si5 0.156729 0.145830 0.639977
Si Si6 0.915749 0.105185 0.216817
Si Si7 0.158356 0.156008 0.278287
Si Si8 0.256390 0.823640 0.956525
O O1 0.500000 0.500000 0.500000
O O2 0.626412 0.514793 0.708473
O O3 0.430736 0.392193 0.735721
O O4 0.400065 0.710634 0.860219
O O5 0.162568 0.583652 0.270146
O O6 0.203461 0.318219 0.313747
O O7 0.325705 0.309937 0.992171
O O8 0.963843 0.699291 0.216062
O O9 0.178582 0.498545 0.924369
O O10 0.169350 0.792757 0.124365
O O11 0.718054 0.806277 0.322609
O O12 0.175533 0.100061 0.428510
O O13 0.138854 0.993238 0.674164
O O14 0.796668 0.215333 0.213309
O O15 0.007935 0.199150 0.307717
O O16 0.000000 0.000000 0.000000
O O17 0.247110 0.013448 0.069157
#
# Coordination Sequence:
#
# PCOD8002920 Si02
#       8
#     2   2   2   2   2   2   2   2
#     4  11  23  43  64  88 118 157 208 260 297 355
#     4  10  23  40  63  89 121 163 206 247 304 350
#     4   9  21  35  65  88 122 161 199 240 302 361
#     4   9  21  37  61  85 121 157 199 244 301 353
#     4  12  20  37  62  95 128 158 201 246 300 365
#     4  10  20  36  60  88 126 162 194 243 301 365
#     4  11  23  37  61  93 128 159 198 250 301 365
#     4  10  22  41  63  87 122 166 199 243 315 354
#
# _framework density 21.111668000000002
#
# number of rings (size 3 to 8) (size 9 to 14) (size 15 to 20)
#    0.750    1.000    2.500    3.375    0.000    3.000 
#    0.000    0.000    0.000    3.000    0.000    0.000 
#    0.000    0.000    0.000    0.000    0.000    0.000 
#
# Total GULP energy -198284.406357 kJ/mol
# GULP energy per Si atom -12392.775397 kJ/mol
# Density = 2.106362 g / cm^3
# Si number density = 21.111668 Si / 1000 Ang^3
#
#
#
# Elastic Constant Matrix: (Units=GPa)
#
#
# Indices 1 2 3 4 5 6 
#
# 1 95.6330 49.4633 13.7818 -6.8691 17.6041 27.2601
# 2 49.4633 99.6168 22.4827 -30.1279 -5.3681 11.5227
# 3 13.7818 22.4827 68.1261 -22.4068 16.0695 12.3791
# 4 -6.8691 -30.1279 -22.4068 34.3676 -1.5151 2.8314
# 5 17.6041 -5.3681 16.0695 -1.5151 27.0835 -4.6391
# 6 27.2601 11.5227 12.3791 2.8314 -4.6391 31.7047
#
#
#
# Elastic Compliance Matrix: (Units=1/GPa)
#
#
# Indices 1 2 3 4 5 6 
#
# 1 0.038169 -0.019987 0.017897 0.003005 -0.045995 -0.039540
# 2 -0.019987 0.025587 -0.009184 0.012448 0.026652 0.014260
# 3 0.017897 -0.009184 0.036195 0.020161 -0.039587 -0.033775
# 4 0.003005 0.012448 0.020161 0.055007 -0.012081 -0.021660
# 5 -0.045995 0.026652 -0.039587 -0.012081 0.105505 0.061834
# 6 -0.039540 0.014260 -0.033775 -0.021660 0.061834 0.084525
#
#
# Mechanical properties :
#
#
# Convention : Reuss Voigt Hill
#
# Bulk Modulus (GPa) = 12.91961 48.31463 30.61712
# Shear Modulus (GPa) = 12.71171 30.47437 21.59304
#
# Velocity S-wave (km/s) = 2.45647 3.80344 3.20160
# Velocity P-wave (km/s) = 3.76545 6.49794 5.31045
#
# Compressibility (1/GPa) = 0.07740170
#
# Stress axis : x y z
#
# Youngs Moduli (GPa) = 26.19941 39.08197 27.62806
#
# Poissons Ratio (x) = 0.78115 -0.49446
# Poissons Ratio (y) = 0.52366 0.25375
# Poissons Ratio (z) = -0.46889 0.35894
#
# Static dielectric constant tensor:
#      x y z
#    x 4.038070 -0.095870 0.205430 
#    y -0.095870 3.771060 -0.269850 
#    z 0.205430 -0.269850 3.601900 
# 
# 
# High freq. dielectric constant tensor:
#      x y z
#    x 1.816910 0.005290 0.013050 
#    y 0.005290 1.821910 -0.021230 
#    z 0.013050 -0.021230 1.813230 
# 
# From -- ./inp_files/240253.got.cif
#   From: 2010.06.25/outbox.cif.g09.slc.cpg/sg2_121_cif.got.tgz:240253.got - 2010.06.27 13:26:56.
