data_PCOD8002994
_publ_section_title
;
Structure prediction by ZEFSAII (Michael W. Deem and Ramdas Pophale) SiO2 
 PCOD8002994
Probable space group: P -1
;
_chemical_formula_sum "Si O2"
_cell_formula_units_Z 14
_cell_length_a 24.038394
_cell_length_b 27.761512
_cell_length_c 9.989932
_cell_angle_alpha 146.540966
_cell_angle_beta 25.526065
_cell_angle_gamma 164.532325
_cell_volume 728.859229
_symmetry_space_group_name_H-M "P -1"
_symmetry_group_IT_number 2
_symmetry_cell_setting 'triclinic'
loop_
_space_group_symop_operation_xyz
x,y,z
-x,-y,-z
loop_
_atom_site_type_symbol
_atom_site_label
_atom_site_fract_x
_atom_site_fract_y
_atom_site_fract_z
Si Si1 0.347977 0.723111 0.608561
Si Si2 0.167602 0.477913 0.641725
Si Si3 0.161489 0.528076 0.305350
Si Si4 0.114001 0.860820 0.662492
Si Si5 0.698148 0.564634 0.315209
Si Si6 0.461622 0.414992 0.760648
Si Si7 0.210539 0.844063 0.696577
O O1 0.335792 0.635184 0.532567
O O2 0.363427 0.698550 0.365643
O O3 0.630577 0.949552 0.543460
O O4 0.070832 0.613710 0.974480
O O5 0.405750 0.597424 0.511359
O O6 0.019655 0.305831 0.497010
O O7 0.000000 0.500000 0.500000
O O8 0.930771 0.334835 0.444602
O O9 0.344932 0.567248 0.913010
O O10 0.238301 0.915810 0.667031
O O11 0.867674 0.786465 0.031903
O O12 0.500000 0.500000 0.500000
O O13 0.638852 0.557402 0.579292
O O14 0.016889 0.778995 0.075280
O O15 0.500000 0.500000 0.000000
O O16 0.500000 0.000000 0.500000
#
# Coordination Sequence:
#
# PCOD8002994 Si02
#       7
#     2   2   2   2   2   2   2
#     4  11  22  38  63  88 126 161 208 265 307 372
#     4  10  22  40  60  89 126 167 204 254 321 370
#     4  10  20  36  61  87 124 161 207 261 316 360
#     4  11  21  40  62  91 122 162 214 254 311 377
#     4  10  20  39  65  88 128 171 205 257 322 375
#     4  10  21  38  63  89 123 168 205 252 314 373
#     4  10  21  36  64  89 122 159 212 256 315 370
#
# _framework density 19.208099000000001
#
# number of rings (size 3 to 8) (size 9 to 14) (size 15 to 20)
#    0.857    0.857    2.857    2.143    4.000    0.571 
#    0.000    0.714    3.143    0.000    0.000    0.000 
#    0.000    0.000    0.000    0.000    0.000    0.000 
#
# Total GULP energy -173478.028976 kJ/mol
# GULP energy per Si atom -12391.287784 kJ/mol
# Density = 1.916438 g / cm^3
# Si number density = 19.208099 Si / 1000 Ang^3
#
#
#
# Elastic Constant Matrix: (Units=GPa)
#
#
# Indices 1 2 3 4 5 6 
#
# 1 150.8728 43.4304 61.6294 -11.0682 -17.0561 -1.3126
# 2 43.4304 93.3097 30.8171 -14.4179 -6.7204 -15.9845
# 3 61.6294 30.8171 98.6312 -7.4550 -7.2549 -1.0862
# 4 -11.0682 -14.4179 -7.4550 28.2402 3.2442 -1.1750
# 5 -17.0561 -6.7204 -7.2549 3.2442 45.9228 -3.0932
# 6 -1.3126 -15.9845 -1.0862 -1.1750 -3.0932 28.7393
#
#
#
# Elastic Compliance Matrix: (Units=1/GPa)
#
#
# Indices 1 2 3 4 5 6 
#
# 1 0.009795 -0.002782 -0.005033 0.000782 0.002312 -0.001009
# 2 -0.002782 0.015347 -0.002409 0.006359 0.000968 0.008682
# 3 -0.005033 -0.002409 0.014053 0.000476 -0.000105 -0.001031
# 4 0.000782 0.006359 0.000476 0.039433 -0.001147 0.005079
# 5 0.002312 0.000968 -0.000105 -0.001147 0.023048 0.003074
# 6 -0.001009 0.008682 -0.001031 0.005079 0.003074 0.040078
#
#
# Mechanical properties :
#
#
# Convention : Reuss Voigt Hill
#
# Bulk Modulus (GPa) = 53.34330 68.28528 60.81429
# Shear Modulus (GPa) = 29.68220 34.37623 32.02921
#
# Velocity S-wave (km/s) = 3.93529 4.23504 4.08791
# Velocity P-wave (km/s) = 6.96277 7.71632 7.34921
#
# Compressibility (1/GPa) = 0.01874650
#
# Stress axis : x y z
#
# Youngs Moduli (GPa) = 102.09396 65.15840 71.15770
#
# Poissons Ratio (x) = 0.18129 0.35813
# Poissons Ratio (y) = 0.28406 0.17144
# Poissons Ratio (z) = 0.51383 0.15698
#
# Static dielectric constant tensor:
#      x y z
#    x 3.889040 -0.132990 -0.191030 
#    y -0.132990 3.291300 -0.107840 
#    z -0.191030 -0.107840 3.811400 
# 
# 
# High freq. dielectric constant tensor:
#      x y z
#    x 1.763670 -0.005030 -0.011170 
#    y -0.005030 1.715980 -0.007290 
#    z -0.011170 -0.007290 1.752580 
# 
# From -- ./inp_files/261419.got.cif
#   From: 2010.06.25/outbox.cif.g09.slc.cpg/sg2_131_cif.got.tgz:261419.got - 2010.06.27 13:26:56.
