data_PCOD8002232
_publ_section_title
;
Structure prediction by ZEFSAII (Michael W. Deem and Ramdas Pophale) SiO2 
 PCOD8002232
Probable space group: P -1
;
_chemical_formula_sum "Si O2"
_cell_formula_units_Z 16
_cell_length_a 18.687708
_cell_length_b 18.504743
_cell_length_c 12.153706
_cell_angle_alpha 26.631650
_cell_angle_beta 152.183615
_cell_angle_gamma 146.273387
_cell_volume 862.005880
_symmetry_space_group_name_H-M "P -1"
_symmetry_group_IT_number 2
_symmetry_cell_setting 'triclinic'
loop_
_space_group_symop_operation_xyz
x,y,z
-x,-y,-z
loop_
_atom_site_type_symbol
_atom_site_label
_atom_site_fract_x
_atom_site_fract_y
_atom_site_fract_z
Si Si1 0.682381 0.039560 0.671950
Si Si2 0.305085 0.416854 0.231140
Si Si3 0.830692 0.919024 0.420757
Si Si4 0.786773 0.792136 0.309924
Si Si5 0.347244 0.557345 0.334442
Si Si6 0.146312 0.823004 0.728036
Si Si7 0.123515 0.892514 0.350124
Si Si8 0.863839 0.375793 0.422723
O O1 0.712713 0.029657 0.595230
O O2 0.770663 0.224828 0.578415
O O3 0.500000 0.000000 0.500000
O O4 0.762817 0.902982 0.023767
O O5 0.171577 0.253054 0.285054
O O6 0.311752 0.528118 0.197333
O O7 0.470830 0.361976 0.510532
O O8 0.263088 0.520082 0.930886
O O9 0.731409 0.876700 0.230462
O O10 0.767127 0.038861 0.256578
O O11 0.000000 0.000000 0.500000
O O12 0.683236 0.610310 0.407751
O O13 0.965852 0.769388 0.590078
O O14 0.235108 0.673985 0.066992
O O15 0.156446 0.895282 0.520284
O O16 0.065352 0.706402 0.475450
O O17 0.000000 0.000000 0.000000
O O18 0.000000 0.500000 0.500000
#
# Coordination Sequence:
#
# PCOD8002232 Si02
#       8
#     2   2   2   2   2   2   2   2
#     4  10  21  38  63  89 117 159 202 244 299 364
#     4  10  20  37  55  83 117 152 199 243 301 359
#     4   9  22  34  58  82 117 152 189 247 302 350
#     4  10  20  36  58  84 121 150 198 244 300 361
#     4  10  20  35  58  83 114 154 196 251 296 353
#     4  11  19  38  58  86 115 152 207 241 299 356
#     4  10  21  37  61  91 111 160 201 251 290 353
#     4  10  22  36  63  89 117 160 203 243 299 359
#
# _framework density 18.561357000000001
#
# number of rings (size 3 to 8) (size 9 to 14) (size 15 to 20)
#    0.750    1.250    2.500    1.125    5.250    1.500 
#    0.000    0.000    0.000    0.750    0.000    0.000 
#    0.000    0.000    0.000    0.000    0.000    0.000 
#
# Total GULP energy -198231.017084 kJ/mol
# GULP energy per Si atom -12389.438568 kJ/mol
# Density = 1.851911 g / cm^3
# Si number density = 18.561357 Si / 1000 Ang^3
#
#
#
# Elastic Constant Matrix: (Units=GPa)
#
#
# Indices 1 2 3 4 5 6 
#
# 1 100.7329 50.1660 35.5547 -7.3354 0.0892 -2.1086
# 2 50.1660 103.6321 55.7959 -10.4735 3.6437 6.1541
# 3 35.5547 55.7959 111.4261 -9.2885 0.4807 4.1870
# 4 -7.3354 -10.4735 -9.2885 19.7941 7.6312 0.9361
# 5 0.0892 3.6437 0.4807 7.6312 34.7448 -4.7905
# 6 -2.1086 6.1541 4.1870 0.9361 -4.7905 35.4035
#
#
#
# Elastic Compliance Matrix: (Units=1/GPa)
#
#
# Indices 1 2 3 4 5 6 
#
# 1 0.013412 -0.005805 -0.001378 0.000894 0.000678 0.002039
# 2 -0.005805 0.016400 -0.005799 0.005180 -0.003187 -0.003079
# 3 -0.001378 -0.005799 0.012543 0.002407 -0.000180 -0.000646
# 4 0.000894 0.005180 0.002407 0.060543 -0.014524 -0.004698
# 5 0.000678 -0.003187 -0.000180 -0.014524 0.033061 0.005473
# 6 0.002039 -0.003079 -0.000646 -0.004698 0.005473 0.029844
#
#
# Mechanical properties :
#
#
# Convention : Reuss Voigt Hill
#
# Bulk Modulus (GPa) = 61.00397 66.53604 63.77000
# Shear Modulus (GPa) = 25.35116 29.60680 27.47898
#
# Velocity S-wave (km/s) = 3.69969 3.99817 3.85182
# Velocity P-wave (km/s) = 7.15456 7.56560 7.36295
#
# Compressibility (1/GPa) = 0.01639238
#
# Stress axis : x y z
#
# Youngs Moduli (GPa) = 74.56179 60.97548 79.72279
#
# Poissons Ratio (x) = 0.35397 0.10983
# Poissons Ratio (y) = 0.43284 0.46229
# Poissons Ratio (z) = 0.10272 0.35358
#
# Static dielectric constant tensor:
#      x y z
#    x 3.546660 -0.076530 -0.009620 
#    y -0.076530 3.497090 -0.161230 
#    z -0.009620 -0.161230 3.324680 
# 
# 
# High freq. dielectric constant tensor:
#      x y z
#    x 1.716050 0.010050 -0.002850 
#    y 0.010050 1.708570 -0.014950 
#    z -0.002850 -0.014950 1.716910 
# 
# From -- ./inp_files/466416.got.cif
#   From: 2010.06.25/outbox.cif.g09.slc.cpg/sg2_234_cif.got.tgz:466416.got - 2010.06.27 13:26:56.
