data_PCOD8002653
_publ_section_title
;
Structure prediction by ZEFSAII (Michael W. Deem and Ramdas Pophale) SiO2 
 PCOD8002653
Probable space group: P -1
;
_chemical_formula_sum "Si O2"
_cell_formula_units_Z 16
_cell_length_a 12.598614
_cell_length_b 8.697296
_cell_length_c 17.292600
_cell_angle_alpha 55.557821
_cell_angle_beta 138.192500
_cell_angle_gamma 92.317149
_cell_volume 750.729831
_symmetry_space_group_name_H-M "P -1"
_symmetry_group_IT_number 2
_symmetry_cell_setting 'triclinic'
loop_
_space_group_symop_operation_xyz
x,y,z
-x,-y,-z
loop_
_atom_site_type_symbol
_atom_site_label
_atom_site_fract_x
_atom_site_fract_y
_atom_site_fract_z
Si Si1 0.032074 0.451600 0.723565
Si Si2 0.985580 0.710260 0.392387
Si Si3 0.757764 0.532230 0.872525
Si Si4 0.435485 0.286942 0.578205
Si Si5 0.845009 0.964951 0.394831
Si Si6 0.247972 0.061923 0.285406
Si Si7 0.378510 0.626327 0.573230
Si Si8 0.383573 0.225901 0.109284
O O1 0.113498 0.234162 0.764318
O O2 0.823228 0.537659 0.633144
O O3 0.949897 0.694951 0.562906
O O4 0.227582 0.350323 0.914839
O O5 0.226478 0.609710 0.543905
O O6 0.000000 0.500000 0.500000
O O7 0.843246 0.958345 0.301374
O O8 0.691538 0.767775 0.716628
O O9 0.590911 0.499609 0.776465
O O10 0.754422 0.594480 0.942807
O O11 0.000499 0.262403 0.058969
O O12 0.459736 0.464208 0.584250
O O13 0.580746 0.173109 0.612960
O O14 0.523295 0.056737 0.749225
O O15 0.590645 0.197432 0.216603
O O16 0.000000 0.000000 0.500000
O O17 0.254979 0.925107 0.404033
#
# Coordination Sequence:
#
# PCOD8002653 Si02
#       8
#     2   2   2   2   2   2   2   2
#     4   9  20  38  58  80 114 155 191 233 292 351
#     4   9  20  39  59  83 115 151 192 242 293 338
#     4  10  23  38  57  89 124 152 191 241 288 349
#     4   9  21  38  59  86 115 149 193 242 284 340
#     4  10  20  36  57  84 115 147 193 246 290 341
#     4  10  22  39  58  87 120 158 195 232 292 353
#     4  11  21  38  63  86 116 155 195 243 295 346
#     4  10  21  38  58  83 116 155 193 236 292 347
#
# _framework density 21.312595000000002
#
# number of rings (size 3 to 8) (size 9 to 14) (size 15 to 20)
#    0.000    2.250    0.000    2.250    0.000   10.500 
#    0.000    2.500    0.000    0.000    0.000    0.000 
#    0.000    0.000    0.000    0.000    0.000    0.000 
#
# Total GULP energy -198310.985600 kJ/mol
# GULP energy per Si atom -12394.436600 kJ/mol
# Density = 2.126409 g / cm^3
# Si number density = 21.312595 Si / 1000 Ang^3
#
#
#
# Elastic Constant Matrix: (Units=GPa)
#
#
# Indices 1 2 3 4 5 6 
#
# 1 106.8013 40.7066 36.7886 6.7879 19.8475 9.2885
# 2 40.7066 95.0797 31.7116 21.7799 14.9402 8.3367
# 3 36.7886 31.7116 81.8767 19.1966 13.5693 4.7996
# 4 6.7879 21.7799 19.1966 35.6131 0.6843 8.2068
# 5 19.8475 14.9402 13.5693 0.6843 22.8843 2.2143
# 6 9.2885 8.3367 4.7996 8.2068 2.2143 27.7624
#
#
#
# Elastic Compliance Matrix: (Units=1/GPa)
#
#
# Indices 1 2 3 4 5 6 
#
# 1 0.013487 -0.003756 -0.003946 0.002663 -0.006698 -0.002955
# 2 -0.003756 0.015280 -0.001497 -0.007629 -0.005566 -0.000374
# 3 -0.003946 -0.001497 0.017281 -0.007900 -0.005764 0.001577
# 4 0.002663 -0.007629 -0.007900 0.038473 0.007092 -0.009173
# 5 -0.006698 -0.005566 -0.005764 0.007092 0.056511 -0.001695
# 6 -0.002955 -0.000374 0.001577 -0.009173 -0.001695 0.039695
#
#
# Mechanical properties :
#
#
# Convention : Reuss Voigt Hill
#
# Bulk Modulus (GPa) = 36.16850 55.79680 45.98265
# Shear Modulus (GPa) = 23.99893 28.88871 26.44382
#
# Velocity S-wave (km/s) = 3.35930 3.68567 3.52626
# Velocity P-wave (km/s) = 5.66161 6.65953 6.18074
#
# Compressibility (1/GPa) = 0.02764837
#
# Stress axis : x y z
#
# Youngs Moduli (GPa) = 74.14721 65.44533 57.86567
#
# Poissons Ratio (x) = 0.24584 0.22834
# Poissons Ratio (y) = 0.27853 0.08665
# Poissons Ratio (z) = 0.29259 0.09800
#
# Static dielectric constant tensor:
#      x y z
#    x 4.053570 0.024160 0.194490 
#    y 0.024160 4.441890 0.078830 
#    z 0.194490 0.078830 3.568370 
# 
# 
# High freq. dielectric constant tensor:
#      x y z
#    x 1.845220 0.004490 0.014060 
#    y 0.004490 1.839940 0.005190 
#    z 0.014060 0.005190 1.810750 
# 
# From -- ./inp_files/46318.got.cif
#   From: 2010.06.25/outbox.cif.g09.slc.cpg/sg2_24_cif.got.tgz:46318.got - 2010.06.27 13:26:56.
