data_PCOD8002531
_publ_section_title
;
Structure prediction by ZEFSAII (Michael W. Deem and Ramdas Pophale) SiO2 
 PCOD8002531
Probable space group: P -1
;
_chemical_formula_sum "Si O2"
_cell_formula_units_Z 16
_cell_length_a 9.543861
_cell_length_b 8.158327
_cell_length_c 11.651855
_cell_angle_alpha 61.718754
_cell_angle_beta 114.104232
_cell_angle_gamma 114.026190
_cell_volume 703.045283
_symmetry_space_group_name_H-M "P -1"
_symmetry_group_IT_number 2
_symmetry_cell_setting 'triclinic'
loop_
_space_group_symop_operation_xyz
x,y,z
-x,-y,-z
loop_
_atom_site_type_symbol
_atom_site_label
_atom_site_fract_x
_atom_site_fract_y
_atom_site_fract_z
Si Si1 0.719166 0.230687 0.208526
Si Si2 0.770072 0.912172 0.155722
Si Si3 0.822432 0.978438 0.491736
Si Si4 0.881200 0.894675 0.773589
Si Si5 0.026381 0.463467 0.152324
Si Si6 0.368863 0.108145 0.133088
Si Si7 0.675284 0.327269 0.679774
Si Si8 0.346725 0.373307 0.596941
O O1 0.761975 0.156684 0.368739
O O2 0.542559 0.260117 0.149066
O O3 0.851798 0.432220 0.161993
O O4 0.722091 0.072616 0.163791
O O5 0.735881 0.709748 0.282236
O O6 0.671719 0.899185 0.011437
O O7 0.955768 0.973544 0.162527
O O8 0.810526 0.007533 0.615419
O O9 0.708958 0.777678 0.475318
O O10 0.000000 0.000000 0.500000
O O11 0.915792 0.729181 0.758987
O O12 0.758468 0.813993 0.862102
O O13 0.159817 0.626506 0.207582
O O14 0.000000 0.500000 0.000000
O O15 0.376552 0.905091 0.260390
O O16 0.536892 0.405410 0.668270
O O17 0.696176 0.428699 0.525623
#
# Coordination Sequence:
#
# PCOD8002531 Si02
#       8
#     2   2   2   2   2   2   2   2
#     4  10  21  38  64  94 116 169 212 248 299 378
#     4  10  20  38  64  87 122 171 213 240 300 387
#     4  11  16  38  66  87 115 163 216 244 293 378
#     4  11  23  39  65  93 125 164 200 262 314 368
#     4  11  23  39  67  90 123 163 214 249 303 373
#     4  12  24  39  64  96 130 156 208 261 317 365
#     4  11  21  38  63  98 120 155 213 263 300 358
#     4  10  20  35  65  91 117 158 216 255 293 353
#
# _framework density 22.758136
#
# number of rings (size 3 to 8) (size 9 to 14) (size 15 to 20)
#    0.000    1.250    7.500    2.250    1.750    0.500 
#    0.000    1.250    5.500    0.000    0.000    0.000 
#    0.000    0.000    0.000    0.000    0.000    0.000 
#
# Total GULP energy -198290.404503 kJ/mol
# GULP energy per Si atom -12393.150281 kJ/mol
# Density = 2.270634 g / cm^3
# Si number density = 22.758136 Si / 1000 Ang^3
#
#
#
# Elastic Constant Matrix: (Units=GPa)
#
#
# Indices 1 2 3 4 5 6 
#
# 1 135.8096 18.0967 27.5160 13.6344 4.7284 40.2441
# 2 18.0967 30.7007 1.7452 -2.2743 6.2647 25.7524
# 3 27.5160 1.7452 106.7823 4.7138 2.8877 13.9372
# 4 13.6344 -2.2743 4.7138 25.8600 11.5567 5.6627
# 5 4.7284 6.2647 2.8877 11.5567 27.0374 8.8255
# 6 40.2441 25.7524 13.9372 5.6627 8.8255 34.1935
#
#
#
# Elastic Compliance Matrix: (Units=1/GPa)
#
#
# Indices 1 2 3 4 5 6 
#
# 1 0.013621 0.013574 -0.000249 -0.001877 0.004081 -0.026895
# 2 0.013574 0.128256 0.008790 0.032158 -0.007778 -0.119471
# 3 -0.000249 0.008790 0.010644 0.001429 -0.000199 -0.010851
# 4 -0.001877 0.032158 0.001429 0.058580 -0.023776 -0.026158
# 5 0.004081 -0.007778 -0.000199 -0.023776 0.050890 -0.008061
# 6 -0.026895 -0.119471 -0.010851 -0.026158 -0.008061 0.161714
#
#
# Mechanical properties :
#
#
# Convention : Reuss Voigt Hill
#
# Bulk Modulus (GPa) = 5.08255 40.88981 22.98618
# Shear Modulus (GPa) = 11.23449 32.48050 21.85749
#
# Velocity S-wave (km/s) = 2.22423 3.78193 3.10244
# Velocity P-wave (km/s) = 2.97227 6.08907 4.79120
#
# Compressibility (1/GPa) = 0.19675164
#
# Stress axis : x y z
#
# Youngs Moduli (GPa) = 73.41558 7.79689 93.95045
#
# Poissons Ratio (x) = -0.10583 0.02338
# Poissons Ratio (y) = -0.99653 -0.82585
# Poissons Ratio (z) = 0.01827 -0.06854
#
# Static dielectric constant tensor:
#      x y z
#    x 4.187780 0.260190 0.531860 
#    y 0.260190 5.568880 -3.349610 
#    z 0.531860 -3.349610 10.339690 
# 
# 
# High freq. dielectric constant tensor:
#      x y z
#    x 1.888320 0.042690 0.001730 
#    y 0.042690 1.855930 -0.001300 
#    z 0.001730 -0.001300 1.921560 
# 
# From -- ./inp_files/381479.got.cif
#   From: 2010.06.25/outbox.cif.g09.slc.cpg/sg2_191_cif.got.tgz:381479.got - 2010.06.27 13:26:56.
