data_PCOD8002776
_publ_section_title
;
Structure prediction by ZEFSAII (Michael W. Deem and Ramdas Pophale) SiO2 
 PCOD8002776
Probable space group: P -1
;
_chemical_formula_sum "Si O2"
_cell_formula_units_Z 16
_cell_length_a 7.319959
_cell_length_b 13.666086
_cell_length_c 14.729096
_cell_angle_alpha 39.608205
_cell_angle_beta 104.121867
_cell_angle_gamma 77.638704
_cell_volume 692.060683
_symmetry_space_group_name_H-M "P -1"
_symmetry_group_IT_number 2
_symmetry_cell_setting 'triclinic'
loop_
_space_group_symop_operation_xyz
x,y,z
-x,-y,-z
loop_
_atom_site_type_symbol
_atom_site_label
_atom_site_fract_x
_atom_site_fract_y
_atom_site_fract_z
Si Si1 0.032423 0.104794 0.071109
Si Si2 0.080452 0.708196 0.889707
Si Si3 0.503871 0.295769 0.027111
Si Si4 0.284137 0.461421 0.695093
Si Si5 0.145084 0.500286 0.316484
Si Si6 0.952795 0.581973 0.816415
Si Si7 0.862399 0.890666 0.274923
Si Si8 0.549555 0.771994 0.293316
O O1 0.074743 0.122712 0.170794
O O2 0.278918 0.980651 0.130473
O O3 0.916883 0.994628 0.132419
O O4 0.852863 0.328781 0.845741
O O5 0.922556 0.761012 0.738917
O O6 0.329371 0.669812 0.922549
O O7 0.161532 0.494948 0.083383
O O8 0.462515 0.391313 0.853059
O O9 0.249033 0.392478 0.976446
O O10 0.666609 0.054268 0.209468
O O11 0.449618 0.340497 0.712623
O O12 0.111414 0.403477 0.732717
O O13 0.117757 0.702174 0.488368
O O14 0.371521 0.366201 0.509118
O O15 0.174821 0.355875 0.342552
O O16 0.738892 0.810805 0.267392
#
# Coordination Sequence:
#
# PCOD8002776 Si02
#       8
#     2   2   2   2   2   2   2   2
#     4  10  22  37  58  85 112 147 192 231 275 334
#     4   9  18  34  56  84 111 139 184 232 272 329
#     4  10  20  36  59  81 111 148 182 228 281 326
#     4  10  22  38  58  83 113 152 191 227 278 337
#     4   9  19  37  59  83 113 149 187 232 278 330
#     4   9  17  33  59  83 107 145 184 221 279 337
#     4  10  21  37  57  82 113 146 188 234 274 326
#     4  11  22  40  58  78 117 155 184 231 283 325
#
# _framework density 23.119358999999999
#
# number of rings (size 3 to 8) (size 9 to 14) (size 15 to 20)
#    0.000    2.250    0.000    4.125    0.000    6.500 
#    0.000   10.625    0.000   45.750    0.000    0.000 
#    0.000    0.000    0.000    0.000    0.000    0.000 
#
# Total GULP energy -198282.992007 kJ/mol
# GULP energy per Si atom -12392.687000 kJ/mol
# Density = 2.306674 g / cm^3
# Si number density = 23.119359 Si / 1000 Ang^3
#
#
#
# Elastic Constant Matrix: (Units=GPa)
#
#
# Indices 1 2 3 4 5 6 
#
# 1 56.1930 10.9230 25.1150 -3.1061 -23.9003 8.5025
# 2 10.9230 99.9868 18.6607 5.8270 -3.8287 -4.2357
# 3 25.1150 18.6607 71.8476 -3.2832 -22.5370 10.3784
# 4 -3.1061 5.8270 -3.2832 27.1460 -0.8234 -1.5173
# 5 -23.9003 -3.8287 -22.5370 -0.8234 25.3807 -2.5806
# 6 8.5025 -4.2357 10.3784 -1.5173 -2.5806 22.2302
#
#
#
# Elastic Compliance Matrix: (Units=1/GPa)
#
#
# Indices 1 2 3 4 5 6 
#
# 1 0.032593 -0.003166 0.000332 0.004822 0.029705 -0.009447
# 2 -0.003166 0.011304 -0.004039 -0.003162 -0.004507 0.004511
# 3 0.000332 -0.004039 0.022114 0.003650 0.018562 -0.008817
# 4 0.004822 -0.003162 0.003650 0.038739 0.008509 -0.000519
# 5 0.029705 -0.004507 0.018562 0.008509 0.082358 -0.010745
# 6 -0.009447 0.004511 -0.008817 -0.000519 -0.010745 0.052290
#
#
# Mechanical properties :
#
#
# Convention : Reuss Voigt Hill
#
# Bulk Modulus (GPa) = 19.13346 37.49164 28.31255
# Shear Modulus (GPa) = 18.47976 26.50663 22.49320
#
# Velocity S-wave (km/s) = 2.83029 3.38969 3.12254
# Velocity P-wave (km/s) = 4.35599 5.61888 5.02725
#
# Compressibility (1/GPa) = 0.05226445
#
# Stress axis : x y z
#
# Youngs Moduli (GPa) = 30.68126 88.46574 45.22005
#
# Poissons Ratio (x) = 0.28011 -0.01501
# Poissons Ratio (y) = 0.09715 0.18264
# Poissons Ratio (z) = -0.01018 0.35730
#
# Static dielectric constant tensor:
#      x y z
#    x 4.071180 0.083220 -0.040060 
#    y 0.083220 4.384970 0.079380 
#    z -0.040060 0.079380 3.919230 
# 
# 
# High freq. dielectric constant tensor:
#      x y z
#    x 1.918660 0.001290 -0.006770 
#    y 0.001290 1.916000 0.002900 
#    z -0.006770 0.002900 1.873340 
# 
# From -- ./inp_files/505275.got.cif
#   From: 2010.06.25/outbox.cif.g09.slc.cpg/sg2_253_cif.got.tgz:505275.got - 2010.06.27 13:26:56.
