data_PCOD8002625
_publ_section_title
;
Structure prediction by ZEFSAII (Michael W. Deem and Ramdas Pophale) SiO2 
 PCOD8002625
Probable space group: P -1
;
_chemical_formula_sum "Si O2"
_cell_formula_units_Z 16
_cell_length_a 9.332977
_cell_length_b 10.820462
_cell_length_c 8.639231
_cell_angle_alpha 111.950111
_cell_angle_beta 98.450165
_cell_angle_gamma 73.787070
_cell_volume 776.136638
_symmetry_space_group_name_H-M "P -1"
_symmetry_group_IT_number 2
_symmetry_cell_setting 'triclinic'
loop_
_space_group_symop_operation_xyz
x,y,z
-x,-y,-z
loop_
_atom_site_type_symbol
_atom_site_label
_atom_site_fract_x
_atom_site_fract_y
_atom_site_fract_z
Si Si1 0.172438 0.436857 0.003777
Si Si2 0.841155 0.077505 0.447381
Si Si3 0.359900 0.609935 0.969048
Si Si4 0.981295 0.723691 0.529201
Si Si5 0.854740 0.567664 0.660858
Si Si6 0.271408 0.163551 0.692808
Si Si7 0.402729 0.469979 0.608559
Si Si8 0.423547 0.794215 0.303907
O O1 0.221545 0.565821 0.002276
O O2 0.235250 0.298339 0.854530
O O3 0.226795 0.397851 0.170947
O O4 0.000000 0.500000 0.000000
O O5 0.722070 0.127500 0.589567
O O6 0.879194 0.201524 0.410404
O O7 0.770551 0.967694 0.288939
O O8 0.000000 0.000000 0.500000
O O9 0.354284 0.602813 0.777215
O O10 0.500000 0.500000 0.000000
O O11 0.367767 0.758673 0.107181
O O12 0.943779 0.683054 0.679787
O O13 0.831370 0.813753 0.467372
O O14 0.033124 0.582367 0.374162
O O15 0.742489 0.567700 0.501179
O O16 0.448048 0.122084 0.658265
O O17 0.500000 0.500000 0.500000
O O18 0.499415 0.343947 0.659497
#
# Coordination Sequence:
#
# PCOD8002625 Si02
#       8
#     2   2   2   2   2   2   2   2
#     4  12  22  36  60  91 127 157 200 249 305 360
#     4  10  23  39  63  88 117 164 214 251 294 363
#     4  10  20  36  56  88 125 149 197 249 300 360
#     4  10  20  39  57  91 122 155 205 247 303 364
#     4  11  21  34  63  90 127 157 191 256 313 352
#     4  11  21  40  61  88 121 164 210 245 295 366
#     4  11  21  34  59  94 128 156 187 246 321 366
#     4  11  21  40  60  87 124 156 210 253 297 362
#
# _framework density 20.614924999999999
#
# number of rings (size 3 to 8) (size 9 to 14) (size 15 to 20)
#    0.000    1.250    5.000    3.375    3.500    0.000 
#    0.000    0.625    0.000    5.250    0.000    0.000 
#    0.000    0.000    0.000    0.000    0.000    0.000 
#
# Total GULP energy -198211.748144 kJ/mol
# GULP energy per Si atom -12388.234259 kJ/mol
# Density = 2.056800 g / cm^3
# Si number density = 20.614925 Si / 1000 Ang^3
#
#
#
# Elastic Constant Matrix: (Units=GPa)
#
#
# Indices 1 2 3 4 5 6 
#
# 1 156.5155 40.4053 41.6733 7.6660 -3.2547 23.5916
# 2 40.4053 65.3621 27.3684 6.5253 4.1643 27.5050
# 3 41.6733 27.3684 85.6670 -8.5803 -1.0758 9.2565
# 4 7.6660 6.5253 -8.5803 26.1658 8.4968 -1.7558
# 5 -3.2547 4.1643 -1.0758 8.4968 27.7059 4.3048
# 6 23.5916 27.5050 9.2565 -1.7558 4.3048 51.3679
#
#
#
# Elastic Compliance Matrix: (Units=1/GPa)
#
#
# Indices 1 2 3 4 5 6 
#
# 1 0.008605 -0.002699 -0.003450 -0.004067 0.002882 -0.002266
# 2 -0.002699 0.025281 -0.006366 -0.008361 -0.000023 -0.011434
# 3 -0.003450 -0.006366 0.015946 0.008606 -0.001868 0.002570
# 4 -0.004067 -0.008361 0.008606 0.049833 -0.015380 0.007786
# 5 0.002882 -0.000023 -0.001868 -0.015380 0.041858 -0.005008
# 6 -0.002266 -0.011434 0.002570 0.007786 -0.005008 0.026853
#
#
# Mechanical properties :
#
#
# Convention : Reuss Voigt Hill
#
# Bulk Modulus (GPa) = 40.31924 58.49317 49.40621
# Shear Modulus (GPa) = 24.79250 34.25443 29.52347
#
# Velocity S-wave (km/s) = 3.47168 4.08073 3.78847
# Velocity P-wave (km/s) = 5.97251 7.11611 6.56924
#
# Compressibility (1/GPa) = 0.02480206
#
# Stress axis : x y z
#
# Youngs Moduli (GPa) = 116.20895 39.55525 62.71154
#
# Poissons Ratio (x) = 0.10676 0.21636
# Poissons Ratio (y) = 0.31365 0.39922
# Poissons Ratio (z) = 0.40094 0.25181
#
# Static dielectric constant tensor:
#      x y z
#    x 4.426310 0.363330 0.204760 
#    y 0.363330 3.748950 0.247130 
#    z 0.204760 0.247130 3.727510 
# 
# 
# High freq. dielectric constant tensor:
#      x y z
#    x 1.836500 0.014390 -0.000090 
#    y 0.014390 1.777520 0.009060 
#    z -0.000090 0.009060 1.788180 
# 
# From -- ./inp_files/182682.got.cif
#   From: 2010.06.25/outbox.cif.g09.slc.cpg/sg2_92_cif.got.tgz:182682.got - 2010.06.27 13:26:56.
