data_PCOD8002641
_publ_section_title
;
Structure prediction by ZEFSAII (Michael W. Deem and Ramdas Pophale) SiO2 
 PCOD8002641
Probable space group: P -1
;
_chemical_formula_sum "Si O2"
_cell_formula_units_Z 16
_cell_length_a 15.538271
_cell_length_b 9.419016
_cell_length_c 8.852905
_cell_angle_alpha 54.180725
_cell_angle_beta 48.184570
_cell_angle_gamma 73.649204
_cell_volume 770.255370
_symmetry_space_group_name_H-M "P -1"
_symmetry_group_IT_number 2
_symmetry_cell_setting 'triclinic'
loop_
_space_group_symop_operation_xyz
x,y,z
-x,-y,-z
loop_
_atom_site_type_symbol
_atom_site_label
_atom_site_fract_x
_atom_site_fract_y
_atom_site_fract_z
Si Si1 0.689090 0.608325 0.448041
Si Si2 0.904782 0.647408 0.351447
Si Si3 0.177976 0.861170 0.173683
Si Si4 0.643326 0.962923 0.732625
Si Si5 0.780681 0.945039 0.290622
Si Si6 0.606940 0.230955 0.851799
Si Si7 0.935162 0.597009 0.677896
Si Si8 0.236013 0.225427 0.042916
O O1 0.813169 0.554311 0.389498
O O2 0.677014 0.787703 0.443888
O O3 0.592328 0.435663 0.710425
O O4 0.685273 0.648393 0.249109
O O5 0.899550 0.859112 0.228007
O O6 0.031600 0.595692 0.195631
O O7 0.867306 0.575632 0.610289
O O8 0.292183 0.783214 0.136907
O O9 0.059408 0.728702 0.431642
O O10 0.170495 0.047103 0.149130
O O11 0.189240 0.891575 0.961225
O O12 0.735902 0.011866 0.458746
O O13 0.682554 0.819662 0.889443
O O14 0.637819 0.146875 0.708891
O O15 0.515397 0.875980 0.873294
O O16 0.860518 0.665536 0.852412
#
# Coordination Sequence:
#
# PCOD8002641 Si02
#       8
#     2   2   2   2   2   2   2   2
#     4   9  19  39  54  82 110 143 182 223 272 320
#     4   9  20  36  53  77 116 142 177 229 271 320
#     4  10  20  36  57  81 110 145 183 222 270 325
#     4  10  21  39  58  80 111 143 182 228 273 322
#     4   9  19  39  54  82 110 143 182 223 272 320
#     4  10  21  39  58  80 111 143 182 228 273 322
#     4  11  19  36  56  80 113 145 180 222 273 322
#     4  10  20  36  57  81 110 145 183 222 270 325
#
# _framework density 20.772333
#
# number of rings (size 3 to 8) (size 9 to 14) (size 15 to 20)
#    0.750    1.500    2.500    0.375    0.000    2.500 
#    4.500    0.000    0.000    0.000    0.000    0.000 
#    0.000    0.000    0.000    0.000    0.000    0.000 
#
# Total GULP energy -198238.636613 kJ/mol
# GULP energy per Si atom -12389.914788 kJ/mol
# Density = 2.072505 g / cm^3
# Si number density = 20.772333 Si / 1000 Ang^3
#
#
#
# Elastic Constant Matrix: (Units=GPa)
#
#
# Indices 1 2 3 4 5 6 
#
# 1 55.1752 0.4060 19.2587 5.4189 10.2819 -3.1742
# 2 0.4060 55.5618 15.7490 10.6496 -2.1258 -5.1670
# 3 19.2587 15.7490 48.0351 3.4223 16.3354 -5.6076
# 4 5.4189 10.6496 3.4223 27.9235 6.4450 -1.2264
# 5 10.2819 -2.1258 16.3354 6.4450 24.9170 1.3883
# 6 -3.1742 -5.1670 -5.6076 -1.2264 1.3883 16.3175
#
#
#
# Elastic Compliance Matrix: (Units=1/GPa)
#
#
# Indices 1 2 3 4 5 6 
#
# 1 0.022011 0.003080 -0.008481 -0.003750 -0.002416 0.002266
# 2 0.003080 0.024074 -0.011910 -0.010814 0.011257 0.002359
# 3 -0.008481 -0.011910 0.037008 0.007704 -0.024326 0.009945
# 4 -0.003750 -0.010814 0.007704 0.043516 -0.015856 0.003113
# 5 -0.002416 0.011257 -0.024326 -0.015856 0.062797 -0.011799
# 6 0.002266 0.002359 0.009945 0.003113 -0.011799 0.067127
#
#
# Mechanical properties :
#
#
# Convention : Reuss Voigt Hill
#
# Bulk Modulus (GPa) = 20.63138 25.51105 23.07122
# Shear Modulus (GPa) = 16.27003 22.05548 19.16275
#
# Velocity S-wave (km/s) = 2.80170 3.26202 3.04059
# Velocity P-wave (km/s) = 4.51882 5.14739 4.84331
#
# Compressibility (1/GPa) = 0.04846984
#
# Stress axis : x y z
#
# Youngs Moduli (GPa) = 45.43259 41.53802 27.02107
#
# Poissons Ratio (x) = -0.12795 0.22918
# Poissons Ratio (y) = -0.13994 0.32183
# Poissons Ratio (z) = 0.38533 0.49474
#
# Static dielectric constant tensor:
#      x y z
#    x 3.739210 -0.077110 0.213290 
#    y -0.077110 3.862540 -0.052100 
#    z 0.213290 -0.052100 3.370980 
# 
# 
# High freq. dielectric constant tensor:
#      x y z
#    x 1.808240 0.000560 0.019780 
#    y 0.000560 1.814840 -0.008870 
#    z 0.019780 -0.008870 1.781550 
# 
# From -- ./inp_files/327294.got.cif
#   From: 2010.06.25/outbox.cif.g09.slc.cpg/sg2_164_cif.got.tgz:327294.got - 2010.06.27 13:26:56.
