data_PCOD8002891
_publ_section_title
;
Structure prediction by ZEFSAII (Michael W. Deem and Ramdas Pophale) SiO2 
 PCOD8002891
Probable space group: P -1
;
_chemical_formula_sum "Si O2"
_cell_formula_units_Z 16
_cell_length_a 21.356635
_cell_length_b 8.373934
_cell_length_c 11.339382
_cell_angle_alpha 105.152912
_cell_angle_beta 136.323306
_cell_angle_gamma 43.919714
_cell_volume 816.451421
_symmetry_space_group_name_H-M "P -1"
_symmetry_group_IT_number 2
_symmetry_cell_setting 'triclinic'
loop_
_space_group_symop_operation_xyz
x,y,z
-x,-y,-z
loop_
_atom_site_type_symbol
_atom_site_label
_atom_site_fract_x
_atom_site_fract_y
_atom_site_fract_z
Si Si1 0.197532 0.253335 0.345386
Si Si2 0.461268 0.821395 0.010667
Si Si3 0.844183 0.242962 0.988686
Si Si4 0.511214 0.617241 0.638999
Si Si5 0.297510 0.276499 0.706475
Si Si6 0.615269 0.342782 0.967037
Si Si7 0.978390 0.295162 0.997658
Si Si8 0.132992 0.785380 0.728434
O O1 0.184768 0.388803 0.469992
O O2 0.146624 0.429083 0.195769
O O3 0.369567 0.945800 0.504769
O O4 0.084132 0.265258 0.209719
O O5 0.568349 0.525466 0.047385
O O6 0.339731 0.047743 0.789903
O O7 0.556893 0.846646 0.178715
O O8 0.386480 0.847754 0.031045
O O9 0.664068 0.498935 0.807868
O O10 0.884043 0.323219 0.964206
O O11 0.919464 0.185444 0.205186
O O12 0.911218 0.970265 0.986609
O O13 0.500000 0.500000 0.500000
O O14 0.510603 0.520948 0.744452
O O15 0.233708 0.491994 0.758939
O O16 0.783571 0.158682 0.131911
O O17 0.000000 0.000000 0.500000
#
# Coordination Sequence:
#
# PCOD8002891 Si02
#       8
#     2   2   2   2   2   2   2   2
#     4  11  22  40  62  87 119 155 199 241 296 351
#     4   9  18  35  57  86 109 146 189 231 287 338
#     4  10  22  42  62  86 119 155 202 243 289 351
#     4  11  21  38  61  90 117 151 199 250 289 337
#     4  10  20  36  60  84 119 151 185 238 292 348
#     4   9  19  36  58  81 114 147 190 237 282 344
#     4  10  23  42  62  84 117 162 198 239 294 356
#     4  10  21  38  58  85 116 154 191 236 290 346
#
# _framework density 19.597002
#
# number of rings (size 3 to 8) (size 9 to 14) (size 15 to 20)
#    0.000    2.000    2.500    0.750    1.750    2.500 
#    4.500    1.250    0.000    0.000    0.000    0.000 
#    0.000    0.000    0.000    0.000    0.000    0.000 
#
# Total GULP energy -198354.983725 kJ/mol
# GULP energy per Si atom -12397.186483 kJ/mol
# Density = 1.955240 g / cm^3
# Si number density = 19.597002 Si / 1000 Ang^3
#
#
#
# Elastic Constant Matrix: (Units=GPa)
#
#
# Indices 1 2 3 4 5 6 
#
# 1 113.0976 47.1831 51.5538 -3.5126 -7.6015 10.9520
# 2 47.1831 57.9031 34.1532 9.1473 -3.3948 7.8815
# 3 51.5538 34.1532 130.4829 4.5142 -12.7986 6.1259
# 4 -3.5126 9.1473 4.5142 39.6253 -3.5164 -6.9548
# 5 -7.6015 -3.3948 -12.7986 -3.5164 19.0851 0.3911
# 6 10.9520 7.8815 6.1259 -6.9548 0.3911 26.2492
#
#
#
# Elastic Compliance Matrix: (Units=1/GPa)
#
#
# Indices 1 2 3 4 5 6 
#
# 1 0.015223 -0.011000 -0.002933 0.004260 0.002951 -0.001279
# 2 -0.011000 0.030208 -0.003234 -0.008878 -0.002689 -0.006038
# 3 -0.002933 -0.003234 0.010189 -0.000285 0.005044 -0.000334
# 4 0.004260 -0.008878 -0.000285 0.029694 0.005218 0.008745
# 5 0.002951 -0.002689 0.005044 0.005218 0.057460 -0.001074
# 6 -0.001279 -0.006038 -0.000334 0.008745 -0.001074 0.042854
#
#
# Mechanical properties :
#
#
# Convention : Reuss Voigt Hill
#
# Bulk Modulus (GPa) = 46.97919 63.02934 55.00426
# Shear Modulus (GPa) = 22.02089 28.23150 25.12620
#
# Velocity S-wave (km/s) = 3.35578 3.79965 3.58459
# Velocity P-wave (km/s) = 6.24818 7.17512 6.72763
#
# Compressibility (1/GPa) = 0.02128602
#
# Stress axis : x y z
#
# Youngs Moduli (GPa) = 65.69186 33.10380 98.14114
#
# Poissons Ratio (x) = 0.36415 0.28786
# Poissons Ratio (y) = 0.72262 0.31736
# Poissons Ratio (z) = 0.19268 0.10705
#
# Static dielectric constant tensor:
#      x y z
#    x 5.779000 -3.543470 0.662530 
#    y -3.543470 9.888280 -1.105630 
#    z 0.662530 -1.105630 3.863460 
# 
# 
# High freq. dielectric constant tensor:
#      x y z
#    x 1.760050 0.003540 -0.008640 
#    y 0.003540 1.757990 0.005180 
#    z -0.008640 0.005180 1.767600 
# 
# From -- ./inp_files/308039.got.cif
#   From: 2010.06.25/outbox.cif.g09.slc.cpg/sg2_155_cif.got.tgz:308039.got - 2010.06.27 13:26:56.
