data_PCOD8002034
_publ_section_title
;
Structure prediction by ZEFSAII (Michael W. Deem and Ramdas Pophale) SiO2 
 PCOD8002034
Probable space group: P -1
;
_chemical_formula_sum "Si O2"
_cell_formula_units_Z 16
_cell_length_a 6.859633
_cell_length_b 11.288755
_cell_length_c 13.766767
_cell_angle_alpha 93.426715
_cell_angle_beta 118.655607
_cell_angle_gamma 115.578297
_cell_volume 794.414843
_symmetry_space_group_name_H-M "P -1"
_symmetry_group_IT_number 2
_symmetry_cell_setting 'triclinic'
loop_
_space_group_symop_operation_xyz
x,y,z
-x,-y,-z
loop_
_atom_site_type_symbol
_atom_site_label
_atom_site_fract_x
_atom_site_fract_y
_atom_site_fract_z
Si Si1 0.420771 0.222454 0.888118
Si Si2 0.790727 0.515394 0.665909
Si Si3 0.760137 0.762002 0.949302
Si Si4 0.769193 0.491381 0.883279
Si Si5 0.893651 0.089665 0.273721
Si Si6 0.770011 0.137151 0.047332
Si Si7 0.322319 0.742321 0.711824
Si Si8 0.451252 0.304209 0.426256
O O1 0.497312 0.347849 0.838277
O O2 0.248934 0.075349 0.784184
O O3 0.253401 0.226584 0.937717
O O4 0.696851 0.247079 0.996137
O O5 0.834715 0.490415 0.786286
O O6 0.631385 0.364526 0.567600
O O7 0.617915 0.585001 0.623791
O O8 0.063479 0.603247 0.679140
O O9 0.721169 0.615110 0.901756
O O10 0.550375 0.785566 0.846993
O O11 0.053845 0.881912 0.991436
O O12 0.000000 0.500000 0.000000
O O13 0.931471 0.180884 0.188278
O O14 0.723112 0.127769 0.303691
O O15 0.189394 0.155967 0.385555
O O16 0.500000 0.000000 0.000000
O O17 0.391902 0.718892 0.620740
#
# Coordination Sequence:
#
# PCOD8002034 Si02
#       8
#     2   2   2   2   2   2   2   2
#     4  11  24  37  56  86 123 164 199 236 296 361
#     4  10  22  38  62  91 119 156 199 250 299 344
#     4  12  21  37  62  89 117 163 195 245 304 354
#     4  12  23  42  59  84 126 159 198 246 295 362
#     4  10  21  37  57  88 122 156 197 249 294 348
#     4  10  20  35  52  84 118 151 190 238 293 345
#     4  11  19  35  65  90 120 149 202 250 300 351
#     4  10  20  39  62  89 120 151 202 253 299 346
#
# _framework density 20.140611
#
# number of rings (size 3 to 8) (size 9 to 14) (size 15 to 20)
#    0.000    1.250    5.000    2.250    0.000    4.000 
#    0.000    0.625    0.000    0.750    0.000    0.000 
#    0.000    0.000    0.000    0.000    0.000    0.000 
#
# Total GULP energy -198351.186791 kJ/mol
# GULP energy per Si atom -12396.949174 kJ/mol
# Density = 2.009477 g / cm^3
# Si number density = 20.140611 Si / 1000 Ang^3
#
#
#
# Elastic Constant Matrix: (Units=GPa)
#
#
# Indices 1 2 3 4 5 6 
#
# 1 152.7709 41.0494 49.1022 16.2755 -13.3410 9.6738
# 2 41.0494 72.5782 39.2624 18.5253 -3.3745 12.0006
# 3 49.1022 39.2624 110.7668 20.8434 -10.0372 3.4997
# 4 16.2755 18.5253 20.8434 29.8519 0.6566 1.8781
# 5 -13.3410 -3.3745 -10.0372 0.6566 33.1069 6.4524
# 6 9.6738 12.0006 3.4997 1.8781 6.4524 18.4583
#
#
#
# Elastic Compliance Matrix: (Units=1/GPa)
#
#
# Indices 1 2 3 4 5 6 
#
# 1 0.008603 -0.002597 -0.002237 -0.001375 0.003210 -0.003378
# 2 -0.002597 0.021871 -0.004438 -0.008355 0.002338 -0.011984
# 3 -0.002237 -0.004438 0.012710 -0.005036 0.002338 0.001343
# 4 -0.001375 -0.008355 -0.005036 0.042777 -0.004634 0.004375
# 5 0.003210 0.002338 0.002338 -0.004634 0.035580 -0.015612
# 6 -0.003378 -0.011984 0.001343 0.004375 -0.015612 0.068496
#
#
# Mechanical properties :
#
#
# Convention : Reuss Voigt Hill
#
# Bulk Modulus (GPa) = 40.58516 66.10488 53.34502
# Shear Modulus (GPa) = 23.06334 30.06354 26.56344
#
# Velocity S-wave (km/s) = 3.38763 3.86772 3.63561
# Velocity P-wave (km/s) = 5.95785 7.26901 6.64585
#
# Compressibility (1/GPa) = 0.02463955
#
# Stress axis : x y z
#
# Youngs Moduli (GPa) = 116.23541 45.72282 78.67874
#
# Poissons Ratio (x) = 0.11874 0.17599
# Poissons Ratio (y) = 0.30186 0.34921
# Poissons Ratio (z) = 0.26000 0.20294
#
# Static dielectric constant tensor:
#      x y z
#    x 3.951480 -0.020520 0.062730 
#    y -0.020520 3.758270 -0.014110 
#    z 0.062730 -0.014110 3.896190 
# 
# 
# High freq. dielectric constant tensor:
#      x y z
#    x 1.803480 0.008430 -0.002760 
#    y 0.008430 1.762310 0.027580 
#    z -0.002760 0.027580 1.775480 
# 
# From -- ./inp_files/482248.got.cif
#   From: 2010.06.25/outbox.cif.g09.slc.cpg/sg2_242_cif.got.tgz:482248.got - 2010.06.27 13:26:56.
