data_PCOD8002252
_publ_section_title
;
Structure prediction by ZEFSAII (Michael W. Deem and Ramdas Pophale) SiO2 
 PCOD8002252
Probable space group: P -1
;
_chemical_formula_sum "Si O2"
_cell_formula_units_Z 14
_cell_length_a 11.680212
_cell_length_b 13.883826
_cell_length_c 11.558505
_cell_angle_alpha 117.734165
_cell_angle_beta 154.860556
_cell_angle_gamma 61.999014
_cell_volume 698.991991
_symmetry_space_group_name_H-M "P -1"
_symmetry_group_IT_number 2
_symmetry_cell_setting 'triclinic'
loop_
_space_group_symop_operation_xyz
x,y,z
-x,-y,-z
loop_
_atom_site_type_symbol
_atom_site_label
_atom_site_fract_x
_atom_site_fract_y
_atom_site_fract_z
Si Si1 0.708591 0.033344 0.300347
Si Si2 0.407615 0.548793 0.771271
Si Si3 0.520816 0.736051 0.834740
Si Si4 0.687150 0.825816 0.280601
Si Si5 0.805396 0.274991 0.161305
Si Si6 0.008285 0.588114 0.776130
Si Si7 0.256023 0.425533 0.235437
O O1 0.660146 0.164844 0.343690
O O2 0.686178 0.958470 0.352475
O O3 0.000000 0.000000 0.500000
O O4 0.500000 0.000000 0.000000
O O5 0.340105 0.644334 0.665154
O O6 0.368577 0.608911 0.893445
O O7 0.181743 0.467551 0.517460
O O8 0.711968 0.491489 0.990257
O O9 0.711591 0.680028 0.877081
O O10 0.678665 0.777772 0.114401
O O11 0.958217 0.768322 0.557100
O O12 0.416047 0.809556 0.095681
O O13 0.925937 0.298038 0.158488
O O14 0.819939 0.617196 0.731713
O O15 0.500000 0.500000 0.500000
O O16 0.000000 0.500000 0.000000
#
# Coordination Sequence:
#
# PCOD8002252 Si02
#       7
#     2   2   2   2   2   2   2
#     4  10  20  35  58  87 112 141 184 237 295 336
#     4  11  20  34  54  81 113 143 189 232 274 336
#     4  10  21  37  59  83 117 147 184 232 291 328
#     4  10  21  37  58  85 112 143 187 241 287 329
#     4  11  22  35  57  80 114 149 186 234 284 324
#     4  12  22  37  53  80 113 154 191 221 271 339
#     4  12  24  39  56  80 118 156 189 228 268 341
#
# _framework density 20.028841
#
# number of rings (size 3 to 8) (size 9 to 14) (size 15 to 20)
#    0.000    1.143    2.857    6.000    0.000    3.429 
#    0.000    0.000    0.000    1.714    0.000    0.000 
#    0.000    0.000    0.000    0.000    0.000    0.000 
#
# Total GULP energy -173459.479246 kJ/mol
# GULP energy per Si atom -12389.962803 kJ/mol
# Density = 1.998325 g / cm^3
# Si number density = 20.028841 Si / 1000 Ang^3
#
#
#
# Elastic Constant Matrix: (Units=GPa)
#
#
# Indices 1 2 3 4 5 6 
#
# 1 115.7444 39.9718 15.0597 -1.8320 22.3360 15.0646
# 2 39.9718 92.8168 22.4984 -16.6667 13.9561 9.1548
# 3 15.0597 22.4984 103.7382 -14.0511 29.1133 3.7106
# 4 -1.8320 -16.6667 -14.0511 25.9994 4.4422 7.9871
# 5 22.3360 13.9561 29.1133 4.4422 30.5009 6.1914
# 6 15.0646 9.1548 3.7106 7.9871 6.1914 30.3024
#
#
#
# Elastic Compliance Matrix: (Units=1/GPa)
#
#
# Indices 1 2 3 4 5 6 
#
# 1 0.011740 -0.003476 0.001799 0.002177 -0.008250 -0.003895
# 2 -0.003476 0.015906 0.000791 0.013097 -0.006312 -0.005337
# 3 0.001799 0.000791 0.016409 0.013593 -0.018734 -0.002898
# 4 0.002177 0.013097 0.013593 0.064473 -0.026230 -0.018339
# 5 -0.008250 -0.006312 -0.018734 -0.026230 0.062939 0.002356
# 6 -0.003895 -0.005337 -0.002898 -0.018339 0.002356 0.041256
#
#
# Mechanical properties :
#
#
# Convention : Reuss Voigt Hill
#
# Bulk Modulus (GPa) = 23.64976 51.92879 37.78927
# Shear Modulus (GPa) = 21.87326 33.01186 27.44256
#
# Velocity S-wave (km/s) = 3.30826 4.06423 3.70557
# Velocity P-wave (km/s) = 5.14065 6.92872 6.10055
#
# Compressibility (1/GPa) = 0.04228373
#
# Stress axis : x y z
#
# Youngs Moduli (GPa) = 85.18195 62.86753 60.94166
#
# Poissons Ratio (x) = 0.21854 -0.10965
# Poissons Ratio (y) = 0.29611 -0.04822
# Poissons Ratio (z) = -0.15326 -0.04974
#
# Static dielectric constant tensor:
#      x y z
#    x 4.183940 -0.023800 0.315480 
#    y -0.023800 4.484280 -0.155890 
#    z 0.315480 -0.155890 3.608430 
# 
# 
# High freq. dielectric constant tensor:
#      x y z
#    x 1.767660 0.032950 0.024340 
#    y 0.032950 1.767840 -0.013060 
#    z 0.024340 -0.013060 1.785800 
# 
# From -- ./inp_files/371007.got.cif
#   From: 2010.06.25/outbox.cif.g09.slc.cpg/sg2_186_cif.got.tgz:371007.got - 2010.06.27 13:26:56.
