data_PCOD8002528
_publ_section_title
;
Structure prediction by ZEFSAII (Michael W. Deem and Ramdas Pophale) SiO2 
 PCOD8002528
Probable space group: P -1
;
_chemical_formula_sum "Si O2"
_cell_formula_units_Z 16
_cell_length_a 9.760946
_cell_length_b 9.430006
_cell_length_c 10.939112
_cell_angle_alpha 80.395615
_cell_angle_beta 98.428841
_cell_angle_gamma 128.224333
_cell_volume 778.704407
_symmetry_space_group_name_H-M "P -1"
_symmetry_group_IT_number 2
_symmetry_cell_setting 'triclinic'
loop_
_space_group_symop_operation_xyz
x,y,z
-x,-y,-z
loop_
_atom_site_type_symbol
_atom_site_label
_atom_site_fract_x
_atom_site_fract_y
_atom_site_fract_z
Si Si1 0.364954 0.864752 0.202224
Si Si2 0.817852 0.893657 0.556847
Si Si3 0.319629 0.379832 0.213029
Si Si4 0.881505 0.240827 0.602605
Si Si5 0.196873 0.568965 0.026357
Si Si6 0.499129 0.687516 0.373887
Si Si7 0.751310 0.428442 0.428446
Si Si8 0.548178 0.280201 0.178716
O O1 0.187389 0.759793 0.272832
O O2 0.313149 0.762791 0.080929
O O3 0.502169 0.850152 0.294633
O O4 0.450113 0.072235 0.160249
O O5 0.809931 0.781298 0.686687
O O6 0.676396 0.765547 0.454784
O O7 0.788238 0.033954 0.584512
O O8 0.000000 0.000000 0.500000
O O9 0.200856 0.420176 0.120464
O O10 0.475845 0.557841 0.281138
O O11 0.411345 0.325850 0.138875
O O12 0.829740 0.320684 0.479286
O O13 0.092337 0.364749 0.619482
O O14 0.281914 0.594759 0.901528
O O15 0.000000 0.500000 0.000000
O O16 0.337770 0.564477 0.463346
O O17 0.605639 0.317882 0.321665
#
# Coordination Sequence:
#
# PCOD8002528 Si02
#       8
#     2   2   2   2   2   2   2   2
#     4  10  21  41  67  89 120 159 210 257 305 378
#     4  12  23  35  60  95 137 157 200 252 318 370
#     4  11  24  42  64  92 128 165 210 256 313 377
#     4  10  20  36  57  98 125 160 203 253 308 372
#     4  11  26  46  65  87 122 168 218 261 312 365
#     4  10  21  39  60  92 128 168 197 241 318 384
#     4  10  20  35  65  88 128 166 203 245 310 378
#     4  12  22  40  68  90 122 164 215 261 308 358
#
# _framework density 20.546949999999999
#
# number of rings (size 3 to 8) (size 9 to 14) (size 15 to 20)
#    0.000    1.250    2.500    3.375    1.750    6.000 
#    0.000    0.625    0.000    0.000    0.000    0.000 
#    0.000    0.000    0.000    0.000    0.000    0.000 
#
# Total GULP energy -198466.297788 kJ/mol
# GULP energy per Si atom -12404.143612 kJ/mol
# Density = 2.050018 g / cm^3
# Si number density = 20.546950 Si / 1000 Ang^3
#
#
#
# Elastic Constant Matrix: (Units=GPa)
#
#
# Indices 1 2 3 4 5 6 
#
# 1 123.4121 43.4812 44.7580 -15.3938 1.2395 0.7707
# 2 43.4812 95.9522 31.2942 -19.2335 9.6249 -9.8388
# 3 44.7580 31.2942 83.5194 -8.3579 2.0503 -4.6721
# 4 -15.3938 -19.2335 -8.3579 23.7978 1.4736 -3.1459
# 5 1.2395 9.6249 2.0503 1.4736 33.5753 -0.0908
# 6 0.7707 -9.8388 -4.6721 -3.1459 -0.0908 37.6960
#
#
#
# Elastic Compliance Matrix: (Units=1/GPa)
#
#
# Indices 1 2 3 4 5 6 
#
# 1 0.011285 -0.003247 -0.004645 0.002815 0.000671 -0.001417
# 2 -0.003247 0.015902 -0.002765 0.010702 -0.004727 0.004756
# 3 -0.004645 -0.002765 0.015616 0.000423 -0.000004 0.001344
# 4 0.002815 0.010702 0.000423 0.053945 -0.005546 0.007277
# 5 0.000671 -0.004727 -0.000004 -0.005546 0.031353 -0.001635
# 6 -0.001417 0.004756 0.001344 0.007277 -0.001635 0.028568
#
#
# Mechanical properties :
#
#
# Convention : Reuss Voigt Hill
#
# Bulk Modulus (GPa) = 46.53626 60.21671 53.37649
# Shear Modulus (GPa) = 27.00555 31.23717 29.12136
#
# Velocity S-wave (km/s) = 3.62931 3.90331 3.76880
# Velocity P-wave (km/s) = 6.34511 7.04875 6.70617
#
# Compressibility (1/GPa) = 0.02148862
#
# Stress axis : x y z
#
# Youngs Moduli (GPa) = 88.61465 62.88437 64.03610
#
# Poissons Ratio (x) = 0.20420 0.29744
# Poissons Ratio (y) = 0.28775 0.17708
# Poissons Ratio (z) = 0.41160 0.17389
#
# Static dielectric constant tensor:
#      x y z
#    x 3.951480 -0.228770 -0.076200 
#    y -0.228770 3.758820 -0.045850 
#    z -0.076200 -0.045850 3.668850 
# 
# 
# High freq. dielectric constant tensor:
#      x y z
#    x 1.811310 -0.012650 -0.008120 
#    y -0.012650 1.805330 -0.005000 
#    z -0.008120 -0.005000 1.794480 
# 
# From -- ./inp_files/180731.got.cif
#   From: 2010.06.25/outbox.cif.g09.slc.cpg/sg2_91_cif.got.tgz:180731.got - 2010.06.27 13:26:56.
