data_PCOD8002844
_publ_section_title
;
Structure prediction by ZEFSAII (Michael W. Deem and Ramdas Pophale) SiO2 
 PCOD8002844
Probable space group: P -1
;
_chemical_formula_sum "Si O2"
_cell_formula_units_Z 16
_cell_length_a 9.273258
_cell_length_b 14.396024
_cell_length_c 14.062028
_cell_angle_alpha 130.974111
_cell_angle_beta 46.365481
_cell_angle_gamma 92.115994
_cell_volume 666.114116
_symmetry_space_group_name_H-M "P -1"
_symmetry_group_IT_number 2
_symmetry_cell_setting 'triclinic'
loop_
_space_group_symop_operation_xyz
x,y,z
-x,-y,-z
loop_
_atom_site_type_symbol
_atom_site_label
_atom_site_fract_x
_atom_site_fract_y
_atom_site_fract_z
Si Si1 0.962246 0.173369 0.457445
Si Si2 0.576660 0.762224 0.824085
Si Si3 0.719494 0.614243 0.273141
Si Si4 0.818741 0.393225 0.495509
Si Si5 0.682760 0.798677 0.589419
Si Si6 0.013710 0.250335 0.949110
Si Si7 0.024076 0.134187 0.064809
Si Si8 0.599358 0.123514 0.571048
O O1 0.061139 0.214779 0.527114
O O2 0.770392 0.342023 0.580957
O O3 0.743737 0.168389 0.596005
O O4 0.257792 0.975686 0.138699
O O5 0.561690 0.621832 0.756186
O O6 0.637359 0.751495 0.677888
O O7 0.846571 0.698295 0.719147
O O8 0.785540 0.649996 0.366395
O O9 0.432379 0.808011 0.477877
O O10 0.000000 0.500000 0.000000
O O11 0.711044 0.469295 0.199051
O O12 0.803236 0.305276 0.355232
O O13 0.373778 0.010991 0.838697
O O14 0.918030 0.219667 0.064712
O O15 0.286912 0.222364 0.828094
O O16 0.148786 0.103164 0.703916
O O17 0.000000 0.000000 0.000000
#
# Coordination Sequence:
#
# PCOD8002844 Si02
#       8
#     2   2   2   2   2   2   2   2
#     4  11  21  40  61  94 130 163 202 257 315 370
#     4  10  20  36  61  90 127 165 201 252 318 363
#     4  10  22  42  66  88 122 169 211 261 309 362
#     4  10  20  36  59  89 126 166 202 251 309 372
#     4  11  21  39  62  90 131 162 202 263 312 367
#     4  10  22  41  64  86 125 162 213 261 307 364
#     4  12  22  38  64  94 125 166 206 258 314 370
#     4  10  22  41  65  88 121 169 210 257 310 369
#
# _framework density 24.019908999999998
#
# number of rings (size 3 to 8) (size 9 to 14) (size 15 to 20)
#    0.000    1.500    3.750    2.250    0.000    1.000 
#    0.000    4.375    0.000    0.000    0.000    0.000 
#    0.000    0.000    0.000    0.000    0.000    0.000 
#
# Total GULP energy -198390.527835 kJ/mol
# GULP energy per Si atom -12399.407990 kJ/mol
# Density = 2.396524 g / cm^3
# Si number density = 24.019909 Si / 1000 Ang^3
#
#
#
# Elastic Constant Matrix: (Units=GPa)
#
#
# Indices 1 2 3 4 5 6 
#
# 1 48.0624 13.0072 4.8751 14.1701 15.2367 4.5096
# 2 13.0072 103.8719 14.8726 26.5164 4.2939 10.3257
# 3 4.8751 14.8726 79.8151 28.3382 10.7861 -13.7104
# 4 14.1701 26.5164 28.3382 40.0761 3.6285 0.8780
# 5 15.2367 4.2939 10.7861 3.6285 32.9361 5.1665
# 6 4.5096 10.3257 -13.7104 0.8780 5.1665 44.0181
#
#
#
# Elastic Compliance Matrix: (Units=1/GPa)
#
#
# Indices 1 2 3 4 5 6 
#
# 1 0.027997 -0.000744 0.004252 -0.011239 -0.013070 0.000389
# 2 -0.000744 0.011906 0.000102 -0.007630 -0.000003 -0.002532
# 3 0.004252 0.000102 0.019858 -0.015048 -0.007917 0.006955
# 4 -0.011239 -0.007630 -0.015048 0.044074 0.006803 -0.003423
# 5 -0.013070 -0.000003 -0.007917 0.006803 0.039171 -0.005859
# 6 0.000389 -0.002532 0.006955 -0.003423 -0.005859 0.026194
#
#
# Mechanical properties :
#
#
# Convention : Reuss Voigt Hill
#
# Bulk Modulus (GPa) = 14.93009 33.02880 23.97944
# Shear Modulus (GPa) = 27.12866 36.67234 31.90050
#
# Velocity S-wave (km/s) = 3.36434 3.91160 3.64824
# Velocity P-wave (km/s) = 4.61745 5.84648 5.26793
#
# Compressibility (1/GPa) = 0.06697885
#
# Stress axis : x y z
#
# Youngs Moduli (GPa) = 35.71835 83.99395 50.35874
#
# Poissons Ratio (x) = 0.06249 -0.21412
# Poissons Ratio (y) = 0.02658 -0.00511
# Poissons Ratio (z) = -0.15187 -0.00853
#
# Static dielectric constant tensor:
#      x y z
#    x 4.564280 0.059000 -0.243800 
#    y 0.059000 4.817740 0.513400 
#    z -0.243800 0.513400 4.345660 
# 
# 
# High freq. dielectric constant tensor:
#      x y z
#    x 1.950040 0.020080 -0.011740 
#    y 0.020080 1.956730 0.023510 
#    z -0.011740 0.023510 1.946700 
# 
# From -- ./inp_files/399250.got.cif
#   From: 2010.06.25/outbox.cif.g09.slc.cpg/sg2_200_cif.got.tgz:399250.got - 2010.06.27 13:26:56.
