data_PCOD8002117
_publ_section_title
;
Structure prediction by ZEFSAII (Michael W. Deem and Ramdas Pophale) SiO2 
 PCOD8002117
Probable space group: P -1
;
_chemical_formula_sum "Si O2"
_cell_formula_units_Z 16
_cell_length_a 16.215766
_cell_length_b 12.054337
_cell_length_c 5.447989
_cell_angle_alpha 71.789470
_cell_angle_beta 78.854537
_cell_angle_gamma 58.606811
_cell_volume 862.888724
_symmetry_space_group_name_H-M "P -1"
_symmetry_group_IT_number 2
_symmetry_cell_setting 'triclinic'
loop_
_space_group_symop_operation_xyz
x,y,z
-x,-y,-z
loop_
_atom_site_type_symbol
_atom_site_label
_atom_site_fract_x
_atom_site_fract_y
_atom_site_fract_z
Si Si1 0.056055 0.038046 0.747626
Si Si2 0.449513 0.117761 0.255712
Si Si3 0.868523 0.193662 0.525945
Si Si4 0.234540 0.913962 0.000497
Si Si5 0.313953 0.560471 0.665064
Si Si6 0.401185 0.728860 0.667921
Si Si7 0.388965 0.939888 0.162438
Si Si8 0.610699 0.600712 0.765738
O O1 0.108090 0.920693 0.604088
O O2 0.145819 0.043151 0.823799
O O3 0.971976 0.176011 0.575909
O O4 0.000000 0.000000 0.000000
O O5 0.383481 0.261863 0.319066
O O6 0.500000 0.000000 0.500000
O O7 0.383739 0.079225 0.148955
O O8 0.532165 0.129316 0.048906
O O9 0.806962 0.172805 0.787570
O O10 0.802332 0.340890 0.348372
O O11 0.282097 0.975581 0.112297
O O12 0.314722 0.807325 0.849781
O O13 0.370549 0.645397 0.559993
O O14 0.342791 0.465410 0.476477
O O15 0.334884 0.486264 0.966357
O O16 0.422921 0.832597 0.436007
O O17 0.500516 0.629080 0.818634
#
# Coordination Sequence:
#
# PCOD8002117 Si02
#       8
#     2   2   2   2   2   2   2   2
#     4   9  19  33  57  81 117 152 197 238 305 359
#     4  11  23  40  57  77 113 161 217 260 285 330
#     4  10  20  35  55  85 120 156 191 247 294 370
#     4  11  18  34  58  86 120 152 197 246 302 356
#     4  12  25  38  59  86 131 159 201 236 303 376
#     4  12  22  37  55  89 123 161 200 238 300 359
#     4  11  21  35  62  80 115 157 205 260 295 335
#     4  12  26  39  57  86 120 175 202 240 295 359
#
# _framework density 18.542366999999999
#
# number of rings (size 3 to 8) (size 9 to 14) (size 15 to 20)
#    0.000    1.000    5.000    2.250    3.500    0.000 
#    0.000    0.000    0.000    0.000    0.000    1.750 
#    0.000    0.000    0.000    0.000    0.000    0.000 
#
# Total GULP energy -198294.470225 kJ/mol
# GULP energy per Si atom -12393.404389 kJ/mol
# Density = 1.850016 g / cm^3
# Si number density = 18.542367 Si / 1000 Ang^3
#
#
#
# Elastic Constant Matrix: (Units=GPa)
#
#
# Indices 1 2 3 4 5 6 
#
# 1 105.1634 51.2188 16.9339 -9.2711 33.7540 -25.5115
# 2 51.2188 106.9417 37.1362 -0.6081 13.0046 -10.5064
# 3 16.9339 37.1362 101.0064 5.2765 9.2340 -15.8539
# 4 -9.2711 -0.6081 5.2765 26.8855 -4.5960 5.8228
# 5 33.7540 13.0046 9.2340 -4.5960 30.3153 -8.1671
# 6 -25.5115 -10.5064 -15.8539 5.8228 -8.1671 37.0619
#
#
#
# Elastic Compliance Matrix: (Units=1/GPa)
#
#
# Indices 1 2 3 4 5 6 
#
# 1 0.021112 -0.007812 0.002335 0.001574 -0.018187 0.009062
# 2 -0.007812 0.014007 -0.004525 -0.000368 0.003324 -0.002552
# 3 0.002335 -0.004525 0.012540 -0.003548 -0.003544 0.005465
# 4 0.001574 -0.000368 -0.003548 0.040409 0.003994 -0.006007
# 5 -0.018187 0.003324 -0.003544 0.003994 0.052943 -0.002054
# 6 0.009062 -0.002552 0.005465 -0.006007 -0.002054 0.035325
#
#
# Mechanical properties :
#
#
# Convention : Reuss Voigt Hill
#
# Bulk Modulus (GPa) = 36.15915 58.18771 47.17343
# Shear Modulus (GPa) = 24.32413 32.70736 28.51574
#
# Velocity S-wave (km/s) = 3.62583 4.20447 3.92582
# Velocity P-wave (km/s) = 6.08868 7.41749 6.78569
#
# Compressibility (1/GPa) = 0.02765552
#
# Stress axis : x y z
#
# Youngs Moduli (GPa) = 47.36618 71.39517 79.74648
#
# Poissons Ratio (x) = 0.55771 -0.18624
# Poissons Ratio (y) = 0.37000 0.36088
# Poissons Ratio (z) = -0.11062 0.32308
#
# Static dielectric constant tensor:
#      x y z
#    x 3.958950 -0.164120 0.409010 
#    y -0.164120 3.482050 0.017670 
#    z 0.409010 0.017670 3.471250 
# 
# 
# High freq. dielectric constant tensor:
#      x y z
#    x 1.713630 -0.013600 0.028490 
#    y -0.013600 1.696950 0.017680 
#    z 0.028490 0.017680 1.729240 
# 
# From -- ./inp_files/74980.got.cif
#   From: 2010.06.25/outbox.cif.g09.slc.cpg/sg2_38_cif.got.tgz:74980.got - 2010.06.27 13:26:56.
