data_PCOD8002467
_publ_section_title
;
Structure prediction by ZEFSAII (Michael W. Deem and Ramdas Pophale) SiO2 
 PCOD8002467
Probable space group: P -1
;
_chemical_formula_sum "Si O2"
_cell_formula_units_Z 16
_cell_length_a 14.195250
_cell_length_b 21.636905
_cell_length_c 9.890836
_cell_angle_alpha 41.221769
_cell_angle_beta 41.403711
_cell_angle_gamma 23.980917
_cell_volume 790.928246
_symmetry_space_group_name_H-M "P -1"
_symmetry_group_IT_number 2
_symmetry_cell_setting 'triclinic'
loop_
_space_group_symop_operation_xyz
x,y,z
-x,-y,-z
loop_
_atom_site_type_symbol
_atom_site_label
_atom_site_fract_x
_atom_site_fract_y
_atom_site_fract_z
Si Si1 0.475554 0.121742 0.362461
Si Si2 0.669222 0.796115 0.053624
Si Si3 0.729230 0.069440 0.934604
Si Si4 0.718954 0.526380 0.748534
Si Si5 0.046236 0.469669 0.291363
Si Si6 0.212880 0.726428 0.880725
Si Si7 0.914562 0.124164 0.489500
Si Si8 0.628982 0.022599 0.660751
O O1 0.214722 0.303065 0.312486
O O2 0.500000 0.000000 0.500000
O O3 0.515953 0.111680 0.494149
O O4 0.662880 0.085067 0.135735
O O5 0.460140 0.875063 0.052416
O O6 0.899665 0.606796 0.111627
O O7 0.580899 0.850015 0.214984
O O8 0.738114 0.861143 0.815771
O O9 0.738254 0.175299 0.710697
O O10 0.983909 0.889709 0.929917
O O11 0.787546 0.543627 0.784672
O O12 0.434665 0.669488 0.794504
O O13 0.847694 0.517945 0.508410
O O14 0.802639 0.374841 0.902485
O O15 0.211686 0.732347 0.707046
O O16 0.146405 0.031882 0.470367
O O17 0.000000 0.000000 0.500000
#
# Coordination Sequence:
#
# PCOD8002467 Si02
#       8
#     2   2   2   2   2   2   2   2
#     4  12  26  44  61  93 134 173 211 260 326 386
#     4  11  22  40  69  97 121 166 220 271 309 369
#     4  11  23  40  64  92 131 169 211 255 321 385
#     4  10  21  37  63  97 128 160 205 277 318 366
#     4  11  24  37  65  93 128 163 220 261 317 371
#     4  10  20  39  64  94 130 161 209 263 326 368
#     4  10  20  35  62  93 120 157 215 262 305 367
#     4  11  22  39  68  94 127 165 213 263 318 371
#
# _framework density 20.229393999999999
#
# number of rings (size 3 to 8) (size 9 to 14) (size 15 to 20)
#    0.000    1.250    3.750    3.750    7.000    1.000 
#    0.000    0.000    0.000    1.500    0.000    0.000 
#    0.000    0.000    0.000    0.000    0.000    0.000 
#
# Total GULP energy -198296.629708 kJ/mol
# GULP energy per Si atom -12393.539357 kJ/mol
# Density = 2.018335 g / cm^3
# Si number density = 20.229394 Si / 1000 Ang^3
#
#
#
# Elastic Constant Matrix: (Units=GPa)
#
#
# Indices 1 2 3 4 5 6 
#
# 1 82.4246 26.7497 23.8604 1.3792 -10.7957 -14.3779
# 2 26.7497 127.6494 37.8539 -19.1483 -1.2716 -23.6940
# 3 23.8604 37.8539 121.0522 -1.2344 4.8014 -8.3402
# 4 1.3792 -19.1483 -1.2344 32.5507 -0.0571 6.8503
# 5 -10.7957 -1.2716 4.8014 -0.0571 38.9075 -0.7421
# 6 -14.3779 -23.6940 -8.3402 6.8503 -0.7421 28.6091
#
#
#
# Elastic Compliance Matrix: (Units=1/GPa)
#
#
# Indices 1 2 3 4 5 6 
#
# 1 0.015087 -0.001748 -0.002200 -0.003079 0.004517 0.006348
# 2 -0.001748 0.010879 -0.002593 0.005078 0.000316 0.006168
# 3 -0.002200 -0.002593 0.009551 -0.001016 -0.001881 -0.000275
# 4 -0.003079 0.005078 -0.001016 0.035073 -0.000627 -0.006052
# 5 0.004517 0.000316 -0.001881 -0.000627 0.027251 0.002840
# 6 0.006348 0.006168 -0.000275 -0.006052 0.002840 0.044695
#
#
# Mechanical properties :
#
#
# Convention : Reuss Voigt Hill
#
# Bulk Modulus (GPa) = 44.57518 56.45047 50.51282
# Shear Modulus (GPa) = 30.65674 36.19092 33.42383
#
# Velocity S-wave (km/s) = 3.89711 4.23428 4.06919
# Velocity P-wave (km/s) = 6.50635 7.20217 6.86308
#
# Compressibility (1/GPa) = 0.02243401
#
# Stress axis : x y z
#
# Youngs Moduli (GPa) = 66.28280 91.92073 104.70265
#
# Poissons Ratio (x) = 0.16064 0.23040
# Poissons Ratio (y) = 0.11584 0.27152
# Poissons Ratio (z) = 0.14585 0.23837
#
# Static dielectric constant tensor:
#      x y z
#    x 8.466860 -2.511070 3.304870 
#    y -2.511070 4.777700 -1.815490 
#    z 3.304870 -1.815490 6.482850 
# 
# 
# High freq. dielectric constant tensor:
#      x y z
#    x 1.782540 -0.021590 -0.010980 
#    y -0.021590 1.775040 -0.019120 
#    z -0.010980 -0.019120 1.810850 
# 
# From -- ./inp_files/278954.got.cif
#   From: 2010.06.25/outbox.cif.g09.slc.cpg/sg2_140_cif.got.tgz:278954.got - 2010.06.27 13:26:56.
