data_PCOD8002215
_publ_section_title
;
Structure prediction by ZEFSAII (Michael W. Deem and Ramdas Pophale) SiO2 
 PCOD8002215
Probable space group: P -1
;
_chemical_formula_sum "Si O2"
_cell_formula_units_Z 16
_cell_length_a 8.102134
_cell_length_b 10.153900
_cell_length_c 17.156119
_cell_angle_alpha 41.163929
_cell_angle_beta 87.893330
_cell_angle_gamma 68.449140
_cell_volume 795.033076
_symmetry_space_group_name_H-M "P -1"
_symmetry_group_IT_number 2
_symmetry_cell_setting 'triclinic'
loop_
_space_group_symop_operation_xyz
x,y,z
-x,-y,-z
loop_
_atom_site_type_symbol
_atom_site_label
_atom_site_fract_x
_atom_site_fract_y
_atom_site_fract_z
Si Si1 0.305893 0.217415 0.003080
Si Si2 0.960824 0.145329 0.050059
Si Si3 0.780238 0.321889 0.819389
Si Si4 0.701092 0.376699 0.093057
Si Si5 0.598883 0.799233 0.525351
Si Si6 0.822978 0.029457 0.383300
Si Si7 0.582530 0.719506 0.188953
Si Si8 0.749279 0.236539 0.465367
O O1 0.513393 0.972384 0.116962
O O2 0.271494 0.410577 0.980136
O O3 0.281365 0.315644 0.871558
O O4 0.145947 0.161207 0.053284
O O5 0.821835 0.334942 0.904055
O O6 0.859178 0.190836 0.114470
O O7 0.028863 0.884776 0.134462
O O8 0.735034 0.557970 0.674154
O O9 0.604508 0.278162 0.840638
O O10 0.709772 0.238314 0.231952
O O11 0.500000 0.500000 0.000000
O O12 0.740099 0.855617 0.447555
O O13 0.429554 0.784662 0.486403
O O14 0.500000 0.000000 0.500000
O O15 0.056167 0.898694 0.426158
O O16 0.776650 0.138523 0.421288
O O17 0.694480 0.506820 0.342592
#
# Coordination Sequence:
#
# PCOD8002215 Si02
#       8
#     2   2   2   2   2   2   2   2
#     4  10  20  35  57  89 114 154 201 239 298 360
#     4  10  22  36  61  86 117 161 194 254 293 359
#     4   9  19  38  60  91 118 146 207 247 300 346
#     4  12  25  41  56  80 130 160 195 246 305 362
#     4   9  19  33  61  87 116 149 193 252 291 349
#     4  10  21  37  56  90 114 158 200 239 303 354
#     4   9  17  34  62  87 117 147 193 253 298 344
#     4   9  18  36  61  85 118 147 198 258 284 349
#
# _framework density 20.124948
#
# number of rings (size 3 to 8) (size 9 to 14) (size 15 to 20)
#    0.000    2.250    1.250    1.125    5.250    2.000 
#    2.250    0.625    0.000    2.250    0.000    0.000 
#    0.000    0.000    0.000    0.000    0.000    0.000 
#
# Total GULP energy -198301.008297 kJ/mol
# GULP energy per Si atom -12393.813019 kJ/mol
# Density = 2.007914 g / cm^3
# Si number density = 20.124948 Si / 1000 Ang^3
#
#
#
# Elastic Constant Matrix: (Units=GPa)
#
#
# Indices 1 2 3 4 5 6 
#
# 1 86.8909 10.9327 44.8176 -2.4706 0.0278 -3.4586
# 2 10.9327 68.4501 22.7342 -8.8108 -5.9585 -1.5496
# 3 44.8176 22.7342 106.0220 -19.2393 9.2697 12.7634
# 4 -2.4706 -8.8108 -19.2393 27.2139 4.6831 -3.4914
# 5 0.0278 -5.9585 9.2697 4.6831 29.8385 -6.0123
# 6 -3.4586 -1.5496 12.7634 -3.4914 -6.0123 20.7187
#
#
#
# Elastic Compliance Matrix: (Units=1/GPa)
#
#
# Indices 1 2 3 4 5 6 
#
# 1 0.016730 0.000685 -0.009813 -0.004961 0.005917 0.009770
# 2 0.000685 0.017030 -0.004882 0.001933 0.005910 0.006436
# 3 -0.009813 -0.004882 0.019647 0.011478 -0.012027 -0.015662
# 4 -0.004961 0.001933 0.011478 0.046546 -0.011112 -0.003136
# 5 0.005917 0.005910 -0.012027 -0.011112 0.044154 0.019779
# 6 0.009770 0.006436 -0.015662 -0.003136 0.019779 0.065237
#
#
# Mechanical properties :
#
#
# Convention : Reuss Voigt Hill
#
# Bulk Modulus (GPa) = 39.39050 46.48134 42.93592
# Shear Modulus (GPa) = 20.33955 27.74612 24.04284
#
# Velocity S-wave (km/s) = 3.18254 3.71710 3.46016
# Velocity P-wave (km/s) = 5.75502 6.44740 6.11102
#
# Compressibility (1/GPa) = 0.02538683
#
# Stress axis : x y z
#
# Youngs Moduli (GPa) = 59.77406 58.71877 50.89923
#
# Poissons Ratio (x) = -0.04020 0.49945
# Poissons Ratio (y) = -0.04092 0.24849
# Poissons Ratio (z) = 0.58653 0.28666
#
# Static dielectric constant tensor:
#      x y z
#    x 4.315610 -0.321130 -0.068420 
#    y -0.321130 3.621250 -0.274990 
#    z -0.068420 -0.274990 3.634920 
# 
# 
# High freq. dielectric constant tensor:
#      x y z
#    x 1.794690 0.000380 -0.000150 
#    y 0.000380 1.759540 -0.032260 
#    z -0.000150 -0.032260 1.775790 
# 
# From -- ./inp_files/259130.got.cif
#   From: 2010.06.25/outbox.cif.g09.slc.cpg/sg2_130_cif.got.tgz:259130.got - 2010.06.27 13:26:56.
