data_PCOD8002266
_publ_section_title
;
Structure prediction by ZEFSAII (Michael W. Deem and Ramdas Pophale) SiO2 
 PCOD8002266
Probable space group: P -1
;
_chemical_formula_sum "Si O2"
_cell_formula_units_Z 16
_cell_length_a 15.070624
_cell_length_b 10.553750
_cell_length_c 5.068138
_cell_angle_alpha 112.150114
_cell_angle_beta 81.785418
_cell_angle_gamma 102.805564
_cell_volume 726.463586
_symmetry_space_group_name_H-M "P -1"
_symmetry_group_IT_number 2
_symmetry_cell_setting 'triclinic'
loop_
_space_group_symop_operation_xyz
x,y,z
-x,-y,-z
loop_
_atom_site_type_symbol
_atom_site_label
_atom_site_fract_x
_atom_site_fract_y
_atom_site_fract_z
Si Si1 0.313706 0.148325 0.823815
Si Si2 0.207106 0.176360 0.384833
Si Si3 0.097719 0.547479 0.251890
Si Si4 0.060927 0.921208 0.097309
Si Si5 0.539764 0.898318 0.590386
Si Si6 0.642223 0.101532 0.121388
Si Si7 0.945565 0.691598 0.284293
Si Si8 0.173308 0.700964 0.818699
O O1 0.237497 0.172635 0.670710
O O2 0.413108 0.210055 0.692003
O O3 0.320878 0.984464 0.722617
O O4 0.289428 0.215190 0.165375
O O5 0.141929 0.290850 0.490774
O O6 0.150687 0.024320 0.233702
O O7 0.161646 0.579373 0.507069
O O8 0.998967 0.595467 0.368586
O O9 0.082859 0.386093 0.044516
O O10 0.144550 0.640154 0.065757
O O11 0.000903 0.847030 0.311083
O O12 0.105483 0.804291 0.833966
O O13 0.000000 0.000000 0.000000
O O14 0.448702 0.829564 0.736629
O O15 0.500000 0.000000 0.500000
O O16 0.618887 0.984688 0.810467
O O17 0.721734 0.229678 0.126821
#
# Coordination Sequence:
#
# PCOD8002266 Si02
#       8
#     2   2   2   2   2   2   2   2
#     4  11  21  35  53  87 125 149 183 228 300 370
#     4  12  23  35  58  86 118 156 192 242 305 358
#     4  10  25  43  58  81 113 167 214 255 279 331
#     4  11  22  36  58  89 121 155 195 247 313 359
#     4   9  19  34  57  87 129 154 181 222 303 375
#     4  10  20  35  58  88 126 155 186 236 291 372
#     4  10  24  41  59  81 119 161 214 251 292 339
#     4  11  23  37  62  84 120 156 201 245 294 343
#
# _framework density 22.024502999999999
#
# number of rings (size 3 to 8) (size 9 to 14) (size 15 to 20)
#    0.000    1.500    2.500    1.875    7.000    7.500 
#    0.000    0.000    0.000    0.000    0.000    5.250 
#    0.000    0.000    0.000    0.000    0.000    0.000 
#
# Total GULP energy -198217.325462 kJ/mol
# GULP energy per Si atom -12388.582841 kJ/mol
# Density = 2.197437 g / cm^3
# Si number density = 22.024503 Si / 1000 Ang^3
#
#
#
# Elastic Constant Matrix: (Units=GPa)
#
#
# Indices 1 2 3 4 5 6 
#
# 1 100.7120 20.7679 46.6895 -5.0525 -17.9557 17.8731
# 2 20.7679 27.3898 3.1719 4.2694 -7.9229 0.6762
# 3 46.6895 3.1719 98.1862 -5.5445 -20.1450 5.9517
# 4 -5.0525 4.2694 -5.5445 20.9159 -0.8918 3.7103
# 5 -17.9557 -7.9229 -20.1450 -0.8918 46.0149 -2.2455
# 6 17.8731 0.6762 5.9517 3.7103 -2.2455 23.3692
#
#
#
# Elastic Compliance Matrix: (Units=1/GPa)
#
#
# Indices 1 2 3 4 5 6 
#
# 1 0.019272 -0.014312 -0.007118 0.008177 0.001431 -0.013673
# 2 -0.014312 0.050318 0.004831 -0.014172 0.005458 0.011034
# 3 -0.007118 0.004831 0.014251 0.000914 0.004406 0.001953
# 4 0.008177 -0.014172 0.000914 0.055603 0.001508 -0.014759
# 5 0.001431 0.005458 0.004406 0.001508 0.025179 -0.000195
# 6 -0.013673 0.011034 0.001953 -0.014759 -0.000195 0.054757
#
#
# Mechanical properties :
#
#
# Convention : Reuss Voigt Hill
#
# Bulk Modulus (GPa) = 19.74617 40.83851 30.29234
# Shear Modulus (GPa) = 18.55576 28.43724 23.49650
#
# Velocity S-wave (km/s) = 2.90574 3.59718 3.26979
# Velocity P-wave (km/s) = 4.49920 5.98627 5.29520
#
# Compressibility (1/GPa) = 0.05064272
#
# Stress axis : x y z
#
# Youngs Moduli (GPa) = 51.88808 19.87378 70.17273
#
# Poissons Ratio (x) = 0.28443 0.49948
# Poissons Ratio (y) = 0.74260 -0.33898
# Poissons Ratio (z) = 0.36933 -0.09600
#
# Static dielectric constant tensor:
#      x y z
#    x -18.101670 31.991620 -14.691310 
#    y 31.991620 -40.145400 19.437350 
#    z -14.691310 19.437350 -4.611220 
# 
# 
# High freq. dielectric constant tensor:
#      x y z
#    x 1.873870 -0.000640 -0.012620 
#    y -0.000640 1.823080 -0.029690 
#    z -0.012620 -0.029690 1.871660 
# 
# From -- ./inp_files/95480.got.cif
#   From: 2010.06.25/outbox.cif.g09.slc.cpg/sg2_48_cif.got.tgz:95480.got - 2010.06.27 13:26:56.
