data_PCOD8002451
_publ_section_title
;
Structure prediction by ZEFSAII (Michael W. Deem and Ramdas Pophale) SiO2 
 PCOD8002451
Probable space group: P -1
;
_chemical_formula_sum "Si O2"
_cell_formula_units_Z 16
_cell_length_a 12.369474
_cell_length_b 8.808717
_cell_length_c 22.783225
_cell_angle_alpha 29.365500
_cell_angle_beta 42.132074
_cell_angle_gamma 53.883697
_cell_volume 804.338819
_symmetry_space_group_name_H-M "P -1"
_symmetry_group_IT_number 2
_symmetry_cell_setting 'triclinic'
loop_
_space_group_symop_operation_xyz
x,y,z
-x,-y,-z
loop_
_atom_site_type_symbol
_atom_site_label
_atom_site_fract_x
_atom_site_fract_y
_atom_site_fract_z
Si Si1 0.044977 0.701125 0.550703
Si Si2 0.121802 0.450577 0.918045
Si Si3 0.461542 0.798161 0.993526
Si Si4 0.974149 0.260361 0.256881
Si Si5 0.770035 0.680932 0.581395
Si Si6 0.742334 0.108225 0.702757
Si Si7 0.449535 0.442050 0.846542
Si Si8 0.090985 0.724853 0.150981
O O1 0.218691 0.816465 0.407728
O O2 0.912831 0.567597 0.599789
O O3 0.033366 0.424447 0.696679
O O4 0.000000 0.000000 0.500000
O O5 0.084250 0.673144 0.806335
O O6 0.297112 0.571705 0.836390
O O7 0.000000 0.500000 0.000000
O O8 0.100752 0.095912 0.022441
O O9 0.554154 0.585235 0.071382
O O10 0.273796 0.633872 0.112316
O O11 0.566400 0.880479 0.863008
O O12 0.456751 0.110326 0.926411
O O13 0.018161 0.583525 0.166496
O O14 0.818112 0.041728 0.421762
O O15 0.121755 0.062440 0.263712
O O16 0.737072 0.445803 0.619365
O O17 0.611291 0.684382 0.683569
#
# Coordination Sequence:
#
# PCOD8002451 Si02
#       8
#     2   2   2   2   2   2   2   2
#     4  11  19  35  55  90 117 146 181 230 302 334
#     4  11  25  38  58  81 111 157 196 232 273 341
#     4   9  18  34  58  87 115 144 186 239 288 330
#     4  11  22  38  55  85 118 152 187 224 287 346
#     4  10  20  35  62  87 114 143 188 246 282 334
#     4  10  21  34  59  90 117 142 189 243 280 333
#     4   9  18  35  57  85 113 146 188 238 288 326
#     4  11  22  38  61  82 118 153 185 234 290 341
#
# _framework density 19.892113999999999
#
# number of rings (size 3 to 8) (size 9 to 14) (size 15 to 20)
#    0.000    1.750    3.750    2.625    5.250    1.000 
#    0.000    0.000    0.000    0.750    0.000    0.000 
#    0.000    0.000    0.000    0.000    0.000    0.000 
#
# Total GULP energy -198279.211177 kJ/mol
# GULP energy per Si atom -12392.450699 kJ/mol
# Density = 1.984684 g / cm^3
# Si number density = 19.892114 Si / 1000 Ang^3
#
#
#
# Elastic Constant Matrix: (Units=GPa)
#
#
# Indices 1 2 3 4 5 6 
#
# 1 81.1365 11.4554 30.8130 14.4932 10.7685 -4.1786
# 2 11.4554 50.1319 23.9529 19.5735 -6.5302 2.1881
# 3 30.8130 23.9529 103.9811 29.2508 -1.9763 -0.5691
# 4 14.4932 19.5735 29.2508 40.8544 7.3893 4.2651
# 5 10.7685 -6.5302 -1.9763 7.3893 17.6842 -4.3354
# 6 -4.1786 2.1881 -0.5691 4.2651 -4.3354 26.4425
#
#
#
# Elastic Compliance Matrix: (Units=1/GPa)
#
#
# Indices 1 2 3 4 5 6 
#
# 1 0.015914 -0.003632 -0.004510 0.001443 -0.012012 0.000516
# 2 -0.003632 0.030331 -0.000754 -0.016846 0.021121 0.003080
# 3 -0.004510 -0.000754 0.014144 -0.010066 0.008927 0.002741
# 4 0.001443 -0.016846 -0.010066 0.045816 -0.030043 -0.010910
# 5 -0.012012 0.021121 0.008927 -0.030043 0.089136 0.016006
# 6 0.000516 0.003080 0.002741 -0.010910 0.016006 0.042088
#
#
# Mechanical properties :
#
#
# Convention : Reuss Voigt Hill
#
# Bulk Modulus (GPa) = 23.47581 40.85466 32.16524
# Shear Modulus (GPa) = 18.55842 28.26477 23.41159
#
# Velocity S-wave (km/s) = 3.05774 3.77358 3.43436
# Velocity P-wave (km/s) = 4.92885 6.29041 5.65079
#
# Compressibility (1/GPa) = 0.04259704
#
# Stress axis : x y z
#
# Youngs Moduli (GPa) = 62.83906 32.96911 70.70275
#
# Poissons Ratio (x) = 0.11973 0.31890
# Poissons Ratio (y) = 0.22821 0.05330
# Poissons Ratio (z) = 0.28343 0.02485
#
# Static dielectric constant tensor:
#      x y z
#    x 3.581420 0.124700 -0.136010 
#    y 0.124700 3.441340 0.309440 
#    z -0.136010 0.309440 4.176060 
# 
# 
# High freq. dielectric constant tensor:
#      x y z
#    x 1.755350 0.020170 -0.002280 
#    y 0.020170 1.754760 0.012760 
#    z -0.002280 0.012760 1.791850 
# 
# From -- ./inp_files/305841.got.cif
#   From: 2010.06.25/outbox.cif.g09.slc.cpg/sg2_153_cif.got.tgz:305841.got - 2010.06.27 13:26:56.
