data_PCOD8002426
_publ_section_title
;
Structure prediction by ZEFSAII (Michael W. Deem and Ramdas Pophale) SiO2 
 PCOD8002426
Probable space group: P -1
;
_chemical_formula_sum "Si O2"
_cell_formula_units_Z 16
_cell_length_a 9.671049
_cell_length_b 14.175727
_cell_length_c 8.144219
_cell_angle_alpha 134.794787
_cell_angle_beta 110.477291
_cell_angle_gamma 80.012385
_cell_volume 737.763998
_symmetry_space_group_name_H-M "P -1"
_symmetry_group_IT_number 2
_symmetry_cell_setting 'triclinic'
loop_
_space_group_symop_operation_xyz
x,y,z
-x,-y,-z
loop_
_atom_site_type_symbol
_atom_site_label
_atom_site_fract_x
_atom_site_fract_y
_atom_site_fract_z
Si Si1 0.940341 0.692186 0.669398
Si Si2 0.486377 0.296344 0.293750
Si Si3 0.434977 0.443245 0.142031
Si Si4 0.686134 0.868566 0.723384
Si Si5 0.054523 0.480594 0.250354
Si Si6 0.203058 0.600194 0.173761
Si Si7 0.727061 0.170328 0.040197
Si Si8 0.426606 0.760569 0.256063
O O1 0.937700 0.562344 0.395300
O O2 0.833185 0.793133 0.675717
O O3 0.878474 0.629010 0.740611
O O4 0.108687 0.759426 0.840421
O O5 0.396670 0.344617 0.159376
O O6 0.500763 0.410105 0.581443
O O7 0.394364 0.168162 0.181634
O O8 0.642799 0.256144 0.240883
O O9 0.285646 0.466532 0.008095
O O10 0.547202 0.383157 0.989185
O O11 0.578483 0.835824 0.482034
O O12 0.738876 0.024999 0.941572
O O13 0.179595 0.586728 0.346690
O O14 0.956831 0.396576 0.969159
O O15 0.308595 0.732462 0.322505
O O16 0.639868 0.153219 0.808738
#
# Coordination Sequence:
#
# PCOD8002426 Si02
#       8
#     2   2   2   2   2   2   2   2
#     4  11  23  41  62  92 121 163 203 260 306 364
#     4  10  22  37  62  92 122 157 204 258 308 357
#     4  10  20  35  61  92 123 148 196 261 318 352
#     4  12  24  40  64  91 123 167 212 246 297 366
#     4  10  23  36  63  89 127 154 202 253 326 362
#     4  11  19  37  57  93 123 158 189 252 316 378
#     4  11  24  44  61  85 128 172 207 245 297 369
#     4  11  23  38  64  92 125 159 205 255 308 363
#
# _framework density 21.687151
#
# number of rings (size 3 to 8) (size 9 to 14) (size 15 to 20)
#    0.000    1.250    2.500    3.750    1.750    2.000 
#    0.000    0.000    0.000    0.750    0.000    0.000 
#    0.000    0.000    0.000    0.000    0.000    0.000 
#
# Total GULP energy -198261.174115 kJ/mol
# GULP energy per Si atom -12391.323382 kJ/mol
# Density = 2.163779 g / cm^3
# Si number density = 21.687151 Si / 1000 Ang^3
#
#
#
# Elastic Constant Matrix: (Units=GPa)
#
#
# Indices 1 2 3 4 5 6 
#
# 1 76.7757 22.7655 9.0290 -3.1236 -1.2714 13.0790
# 2 22.7655 104.0997 12.0181 5.9292 0.7846 8.1258
# 3 9.0290 12.0181 47.8989 2.5082 3.1535 4.9443
# 4 -3.1236 5.9292 2.5082 25.3541 -5.0869 1.5325
# 5 -1.2714 0.7846 3.1535 -5.0869 21.2108 -8.0784
# 6 13.0790 8.1258 4.9443 1.5325 -8.0784 40.9789
#
#
#
# Elastic Compliance Matrix: (Units=1/GPa)
#
#
# Indices 1 2 3 4 5 6 
#
# 1 0.014917 -0.002914 -0.001862 0.003043 0.000495 -0.003975
# 2 -0.002914 0.010715 -0.001772 -0.002910 -0.001446 -0.001157
# 3 -0.001862 -0.001772 0.022434 -0.002894 -0.005087 -0.002655
# 4 0.003043 -0.002910 -0.002894 0.043006 0.011249 0.000564
# 5 0.000495 -0.001446 -0.005087 0.011249 0.054930 0.011150
# 6 -0.003975 -0.001157 -0.002655 0.000564 0.011150 0.028398
#
#
# Mechanical properties :
#
#
# Convention : Reuss Voigt Hill
#
# Bulk Modulus (GPa) = 28.59710 35.15550 31.87630
# Shear Modulus (GPa) = 25.10632 29.83954 27.47293
#
# Velocity S-wave (km/s) = 3.40613 3.71335 3.56305
# Velocity P-wave (km/s) = 5.35572 5.88479 5.62648
#
# Compressibility (1/GPa) = 0.03496858
#
# Stress axis : x y z
#
# Youngs Moduli (GPa) = 67.03692 93.32732 44.57603
#
# Poissons Ratio (x) = 0.27196 0.08302
# Poissons Ratio (y) = 0.19535 0.07900
# Poissons Ratio (z) = 0.12485 0.16539
#
# Static dielectric constant tensor:
#      x y z
#    x 3.926830 0.073280 -0.059740 
#    y 0.073280 4.120480 -0.281250 
#    z -0.059740 -0.281250 3.553680 
# 
# 
# High freq. dielectric constant tensor:
#      x y z
#    x 1.856180 0.006910 0.003180 
#    y 0.006910 1.867880 -0.025290 
#    z 0.003180 -0.025290 1.818830 
# 
# From -- ./inp_files/209113.got.cif
#   From: 2010.06.25/outbox.cif.g09.slc.cpg/sg2_105_cif.got.tgz:209113.got - 2010.06.27 13:26:56.
