data_PCOD8002301
_publ_section_title
;
Structure prediction by ZEFSAII (Michael W. Deem and Ramdas Pophale) SiO2 
 PCOD8002301
Probable space group: P -1
;
_chemical_formula_sum "Si O2"
_cell_formula_units_Z 12
_cell_length_a 12.535486
_cell_length_b 11.964809
_cell_length_c 15.773088
_cell_angle_alpha 35.946211
_cell_angle_beta 153.045513
_cell_angle_gamma 129.257329
_cell_volume 593.387904
_symmetry_space_group_name_H-M "P -1"
_symmetry_group_IT_number 2
_symmetry_cell_setting 'triclinic'
loop_
_space_group_symop_operation_xyz
x,y,z
-x,-y,-z
loop_
_atom_site_type_symbol
_atom_site_label
_atom_site_fract_x
_atom_site_fract_y
_atom_site_fract_z
Si Si1 0.464072 0.898710 0.655335
Si Si2 0.483571 0.706263 0.610634
Si Si3 0.265446 0.721692 0.898989
Si Si4 0.187583 0.281857 0.742265
Si Si5 0.958330 0.817669 0.131406
Si Si6 0.983157 0.117523 0.543097
O O1 0.392225 0.819603 0.565429
O O2 0.280475 0.875773 0.610959
O O3 0.436909 0.136739 0.487640
O O4 0.749064 0.756973 0.967808
O O5 0.239983 0.654313 0.434721
O O6 0.709204 0.496477 0.908761
O O7 0.070235 0.763583 0.657048
O O8 0.530876 0.720948 0.053367
O O9 0.160806 0.887831 0.795571
O O10 0.000000 0.500000 0.500000
O O11 0.151648 0.129080 0.883310
O O12 0.126062 0.221261 0.642804
O O13 0.000000 0.000000 0.000000
#
# Coordination Sequence:
#
# PCOD8002301 Si02
#       6
#     2   2   2   2   2   2
#     4  10  20  37  61  84 112 144 192 238 277 330
#     4  10  21  37  60  86 109 148 191 237 279 327
#     4  11  24  39  56  84 120 153 187 228 284 344
#     4  12  22  38  62  85 110 149 193 238 281 328
#     4  10  20  35  59  86 111 140 188 240 280 325
#     4  11  24  39  56  84 119 154 187 229 284 339
#
# _framework density 20.222857999999999
#
# number of rings (size 3 to 8) (size 9 to 14) (size 15 to 20)
#    0.000    1.333    5.000    0.500    2.333    2.000 
#    0.000    0.000    0.000    2.000    0.000    0.000 
#    0.000    0.000    0.000    0.000    0.000    0.000 
#
# Total GULP energy -148722.432558 kJ/mol
# GULP energy per Si atom -12393.536047 kJ/mol
# Density = 2.017683 g / cm^3
# Si number density = 20.222858 Si / 1000 Ang^3
#
#
#
# Elastic Constant Matrix: (Units=GPa)
#
#
# Indices 1 2 3 4 5 6 
#
# 1 34.9213 9.7099 -3.6144 1.2304 -7.7045 -8.1373
# 2 9.7099 69.6518 26.4550 -2.1281 -8.2804 -10.2094
# 3 -3.6144 26.4550 84.3712 -6.0102 -9.9544 -3.4744
# 4 1.2304 -2.1281 -6.0102 32.4191 -2.5388 3.7180
# 5 -7.7045 -8.2804 -9.9544 -2.5388 30.5528 3.7277
# 6 -8.1373 -10.2094 -3.4744 3.7180 3.7277 25.8655
#
#
#
# Elastic Compliance Matrix: (Units=1/GPa)
#
#
# Indices 1 2 3 4 5 6 
#
# 1 0.033900 -0.004072 0.003889 -0.001236 0.007552 0.008669
# 2 -0.004072 0.017860 -0.005412 -0.000119 0.001448 0.004850
# 3 0.003889 -0.005412 0.014417 0.002513 0.004417 0.000026
# 4 -0.001236 -0.000119 0.002513 0.032254 0.003799 -0.005282
# 5 0.007552 0.001448 0.004417 0.003799 0.037068 -0.002348
# 6 0.008669 0.004850 0.000026 -0.005282 -0.002348 0.044404
#
#
# Mechanical properties :
#
#
# Convention : Reuss Voigt Hill
#
# Bulk Modulus (GPa) = 18.18636 28.22728 23.20682
# Shear Modulus (GPa) = 23.87494 28.19373 26.03433
#
# Velocity S-wave (km/s) = 3.43970 3.73788 3.59189
# Velocity P-wave (km/s) = 4.97874 5.71117 5.35749
#
# Compressibility (1/GPa) = 0.05498626
#
# Stress axis : x y z
#
# Youngs Moduli (GPa) = 29.49818 55.99103 69.36125
#
# Poissons Ratio (x) = 0.22802 -0.26975
# Poissons Ratio (y) = 0.12013 0.37541
# Poissons Ratio (z) = -0.11472 0.30305
#
# Static dielectric constant tensor:
#      x y z
#    x 3.776600 0.066850 -0.320730 
#    y 0.066850 3.598030 0.303620 
#    z -0.320730 0.303620 4.214090 
# 
# 
# High freq. dielectric constant tensor:
#      x y z
#    x 1.782650 0.013420 -0.018720 
#    y 0.013420 1.774270 0.022260 
#    z -0.018720 0.022260 1.801410 
# 
# From -- ./inp_files/166717.got.cif
#   From: 2010.06.25/outbox.cif.g09.slc.cpg/sg2_84_cif.got.tgz:166717.got - 2010.06.27 13:26:56.
