data_PCOD8002857
_publ_section_title
;
Structure prediction by ZEFSAII (Michael W. Deem and Ramdas Pophale) SiO2 
 PCOD8002857
Probable space group: P -1
;
_chemical_formula_sum "Si O2"
_cell_formula_units_Z 16
_cell_length_a 14.436042
_cell_length_b 10.527914
_cell_length_c 13.266623
_cell_angle_alpha 35.997837
_cell_angle_beta 39.634098
_cell_angle_gamma 53.024135
_cell_volume 754.686072
_symmetry_space_group_name_H-M "P -1"
_symmetry_group_IT_number 2
_symmetry_cell_setting 'triclinic'
loop_
_space_group_symop_operation_xyz
x,y,z
-x,-y,-z
loop_
_atom_site_type_symbol
_atom_site_label
_atom_site_fract_x
_atom_site_fract_y
_atom_site_fract_z
Si Si1 0.343254 0.056590 0.868008
Si Si2 0.158458 0.165320 0.228771
Si Si3 0.101640 0.911257 0.621098
Si Si4 0.735999 0.245122 0.701948
Si Si5 0.133372 0.273746 0.749194
Si Si6 0.382082 0.811336 0.538879
Si Si7 0.862472 0.070036 0.200325
Si Si8 0.438447 0.340076 0.796298
O O1 0.222754 0.157805 0.834744
O O2 0.488277 0.007400 0.712239
O O3 0.392923 0.230111 0.800485
O O4 0.279146 0.834467 0.117286
O O5 0.175391 0.923672 0.326066
O O6 0.022891 0.251180 0.221871
O O7 0.119269 0.134379 0.398823
O O8 0.300426 0.321479 0.999386
O O9 0.256787 0.798290 0.565306
O O10 0.058289 0.975772 0.729770
O O11 0.816989 0.479198 0.472258
O O12 0.574461 0.232681 0.799552
O O13 0.154200 0.150677 0.705852
O O14 0.962456 0.252441 0.939102
O O15 0.301175 0.852459 0.687462
O O16 0.471067 0.595794 0.596556
#
# Coordination Sequence:
#
# PCOD8002857 Si02
#       8
#     2   2   2   2   2   2   2   2
#     4  11  22  40  63  93 129 159 203 253 302 372
#     4  10  20  36  59  92 130 155 199 251 305 376
#     4   9  20  38  58  87 125 159 195 254 310 354
#     4  11  23  38  64  93 122 166 203 248 307 372
#     4  11  23  44  64  86 120 169 216 246 307 360
#     4  10  21  38  63  89 124 165 198 256 308 356
#     4   9  23  42  62  86 123 161 210 264 291 361
#     4  11  21  36  61  96 126 160 199 248 313 371
#
# _framework density 21.200868
#
# number of rings (size 3 to 8) (size 9 to 14) (size 15 to 20)
#    0.750    1.000    1.250    4.875    1.750    3.000 
#    0.000    7.500    0.000    0.000    0.000    0.000 
#    0.000    0.000    0.000    0.000    0.000    0.000 
#
# Total GULP energy -198225.633630 kJ/mol
# GULP energy per Si atom -12389.102102 kJ/mol
# Density = 2.115261 g / cm^3
# Si number density = 21.200868 Si / 1000 Ang^3
#
#
#
# Elastic Constant Matrix: (Units=GPa)
#
#
# Indices 1 2 3 4 5 6 
#
# 1 42.8978 13.9130 25.1076 -6.8720 17.3572 4.3523
# 2 13.9130 46.6245 28.8955 9.6130 12.5811 -3.7750
# 3 25.1076 28.8955 134.1334 5.0438 10.6468 4.8434
# 4 -6.8720 9.6130 5.0438 32.8863 -0.4143 -2.8501
# 5 17.3572 12.5811 10.6468 -0.4143 26.9636 5.7127
# 6 4.3523 -3.7750 4.8434 -2.8501 5.7127 32.8434
#
#
#
# Elastic Compliance Matrix: (Units=1/GPa)
#
#
# Indices 1 2 3 4 5 6 
#
# 1 0.037141 -0.004961 -0.004679 0.009633 -0.019476 -0.000579
# 2 -0.004961 0.031199 -0.004807 -0.009031 -0.010889 0.006063
# 3 -0.004679 -0.004807 0.009319 -0.001128 0.001927 -0.001740
# 4 0.009633 -0.009031 -0.001128 0.035316 -0.001239 0.001132
# 5 -0.019476 -0.010889 0.001927 -0.001239 0.055782 -0.008765
# 6 -0.000579 0.006063 -0.001740 0.001132 -0.008765 0.033100
#
#
# Mechanical properties :
#
#
# Convention : Reuss Voigt Hill
#
# Bulk Modulus (GPa) = 20.50696 39.94312 30.22504
# Shear Modulus (GPa) = 20.24241 28.92129 24.58185
#
# Velocity S-wave (km/s) = 3.09332 3.69746 3.40880
# Velocity P-wave (km/s) = 4.73834 6.09175 5.45717
#
# Compressibility (1/GPa) = 0.04876394
#
# Stress axis : x y z
#
# Youngs Moduli (GPa) = 26.92458 32.05256 107.30733
#
# Poissons Ratio (x) = 0.15901 0.50208
# Poissons Ratio (y) = 0.13357 0.51587
# Poissons Ratio (z) = 0.12598 0.15409
#
# Static dielectric constant tensor:
#      x y z
#    x 3.755130 -0.154810 0.069680 
#    y -0.154810 3.567720 0.404340 
#    z 0.069680 0.404340 4.108780 
# 
# 
# High freq. dielectric constant tensor:
#      x y z
#    x 1.819840 -0.020290 0.005270 
#    y -0.020290 1.806990 0.036180 
#    z 0.005270 0.036180 1.845070 
# 
# From -- ./inp_files/532237.got.cif
#   From: 2010.06.25/outbox.cif.g09.slc.cpg/sg2_267_cif.got.tgz:532237.got - 2010.06.27 13:26:56.
