data_PCOD8002955
_publ_section_title
;
Structure prediction by ZEFSAII (Michael W. Deem and Ramdas Pophale) SiO2 
 PCOD8002955
Probable space group: P -1
;
_chemical_formula_sum "Si O2"
_cell_formula_units_Z 14
_cell_length_a 11.736063
_cell_length_b 7.872258
_cell_length_c 8.807452
_cell_angle_alpha 117.057789
_cell_angle_beta 75.038456
_cell_angle_gamma 122.938355
_cell_volume 608.104663
_symmetry_space_group_name_H-M "P -1"
_symmetry_group_IT_number 2
_symmetry_cell_setting 'triclinic'
loop_
_space_group_symop_operation_xyz
x,y,z
-x,-y,-z
loop_
_atom_site_type_symbol
_atom_site_label
_atom_site_fract_x
_atom_site_fract_y
_atom_site_fract_z
Si Si1 0.706181 0.178813 0.801298
Si Si2 0.216419 0.262111 0.134931
Si Si3 0.778305 0.176569 0.107676
Si Si4 0.452706 0.086716 0.693800
Si Si5 0.040672 0.462825 0.307127
Si Si6 0.431429 0.325451 0.321232
Si Si7 0.390836 0.444552 0.887925
O O1 0.587558 0.230555 0.810837
O O2 0.837716 0.307807 0.702992
O O3 0.646830 0.919499 0.687541
O O4 0.738796 0.247956 0.993380
O O5 0.084063 0.274911 0.233395
O O6 0.329738 0.376156 0.275537
O O7 0.253846 0.384818 0.004254
O O8 0.189042 0.017672 0.020287
O O9 0.913621 0.384072 0.207063
O O10 0.658503 0.111262 0.244641
O O11 0.384313 0.229539 0.720337
O O12 0.500000 0.000000 0.500000
O O13 0.000000 0.500000 0.500000
O O14 0.500000 0.500000 0.500000
O O15 0.556381 0.363640 0.179694
O O16 0.500000 0.500000 0.000000
#
# Coordination Sequence:
#
# PCOD8002955 Si02
#       7
#     2   2   2   2   2   2   2
#     4  11  23  39  61  94 126 159 206 260 309 362
#     4   9  21  42  63  85 120 169 208 240 301 385
#     4  10  23  42  64  90 126 168 206 248 308 373
#     4  11  21  37  64  95 123 156 202 254 300 355
#     4  12  25  43  64  90 122 163 211 262 310 364
#     4  10  20  36  60  94 128 157 196 255 312 360
#     4   9  18  35  57  84 118 158 194 231 294 367
#
# _framework density 23.022354
#
# number of rings (size 3 to 8) (size 9 to 14) (size 15 to 20)
#    0.000    1.714    0.000    5.571    0.000    3.429 
#    0.000    4.286    0.000    0.000    0.000    0.000 
#    0.000    0.000    0.000    0.000    0.000    0.000 
#
# Total GULP energy -173496.127683 kJ/mol
# GULP energy per Si atom -12392.580549 kJ/mol
# Density = 2.296995 g / cm^3
# Si number density = 23.022354 Si / 1000 Ang^3
#
#
#
# Elastic Constant Matrix: (Units=GPa)
#
#
# Indices 1 2 3 4 5 6 
#
# 1 93.0451 38.7341 60.9763 -6.6217 1.2039 18.8070
# 2 38.7341 135.9273 50.8686 -20.4868 3.4557 16.7193
# 3 60.9763 50.8686 148.1785 -8.8928 -6.6823 10.2679
# 4 -6.6217 -20.4868 -8.8928 37.2303 10.8565 2.7247
# 5 1.2039 3.4557 -6.6823 10.8565 45.1391 1.2262
# 6 18.8070 16.7193 10.2679 2.7247 1.2262 34.1782
#
#
#
# Elastic Compliance Matrix: (Units=1/GPa)
#
#
# Indices 1 2 3 4 5 6 
#
# 1 0.016711 -0.001433 -0.005875 0.001695 -0.001428 -0.006813
# 2 -0.001433 0.010023 -0.002355 0.005655 -0.002335 -0.003773
# 3 -0.005875 -0.002355 0.009928 -0.000631 0.001921 0.001384
# 4 0.001695 0.005655 -0.000631 0.032983 -0.008346 -0.005839
# 5 -0.001428 -0.002335 0.001921 -0.008346 0.024631 0.001133
# 6 -0.006813 -0.003773 0.001384 -0.005839 0.001133 0.034862
#
#
# Mechanical properties :
#
#
# Convention : Reuss Voigt Hill
#
# Bulk Modulus (GPa) = 57.69237 75.36765 66.53001
# Shear Modulus (GPa) = 32.41642 38.41433 35.41538
#
# Velocity S-wave (km/s) = 3.75646 4.08924 3.92638
# Velocity P-wave (km/s) = 6.62784 7.42318 7.03676
#
# Compressibility (1/GPa) = 0.01733331
#
# Stress axis : x y z
#
# Youngs Moduli (GPa) = 59.84255 99.77482 100.72924
#
# Poissons Ratio (x) = 0.14302 0.59178
# Poissons Ratio (y) = 0.08578 0.23724
# Poissons Ratio (z) = 0.35157 0.23500
#
# Static dielectric constant tensor:
#      x y z
#    x 4.155360 0.064100 -0.023570 
#    y 0.064100 3.868580 -0.112780 
#    z -0.023570 -0.112780 4.381040 
# 
# 
# High freq. dielectric constant tensor:
#      x y z
#    x 1.892250 -0.007620 -0.003920 
#    y -0.007620 1.915430 -0.003930 
#    z -0.003920 -0.003930 1.921780 
# 
# From -- ./inp_files/245452.got.cif
#   From: 2010.06.25/outbox.cif.g09.slc.cpg/sg2_123_cif.got.tgz:245452.got - 2010.06.27 13:26:56.
