data_PCOD8002830
_publ_section_title
;
Structure prediction by ZEFSAII (Michael W. Deem and Ramdas Pophale) SiO2 
 PCOD8002830
Probable space group: P -1
;
_chemical_formula_sum "Si O2"
_cell_formula_units_Z 16
_cell_length_a 15.538532
_cell_length_b 22.298259
_cell_length_c 12.258847
_cell_angle_alpha 151.505022
_cell_angle_beta 44.573613
_cell_angle_gamma 155.072212
_cell_volume 774.735292
_symmetry_space_group_name_H-M "P -1"
_symmetry_group_IT_number 2
_symmetry_cell_setting 'triclinic'
loop_
_space_group_symop_operation_xyz
x,y,z
-x,-y,-z
loop_
_atom_site_type_symbol
_atom_site_label
_atom_site_fract_x
_atom_site_fract_y
_atom_site_fract_z
Si Si1 0.174215 0.648860 0.805955
Si Si2 0.193249 0.147204 0.148151
Si Si3 0.384728 0.534798 0.184524
Si Si4 0.640433 0.062644 0.104271
Si Si5 0.275907 0.105730 0.375397
Si Si6 0.019829 0.747787 0.746420
Si Si7 0.681882 0.624296 0.384550
Si Si8 0.855901 0.603792 0.027090
O O1 0.374453 0.851332 0.036318
O O2 0.104245 0.441120 0.537734
O O3 0.967143 0.563492 0.878014
O O4 0.279864 0.762581 0.772344
O O5 0.423437 0.387872 0.271094
O O6 0.164932 0.204565 0.376551
O O7 0.184937 0.993141 0.938503
O O8 0.000000 0.000000 0.000000
O O9 0.566503 0.771764 0.465047
O O10 0.153754 0.331832 0.141036
O O11 0.500000 0.500000 0.000000
O O12 0.335810 0.565602 0.164468
O O13 0.646887 0.928117 0.836136
O O14 0.815421 0.215229 0.289402
O O15 0.295993 0.258932 0.547900
O O16 0.023694 0.858862 0.245625
O O17 0.760340 0.558235 0.159267
#
# Coordination Sequence:
#
# PCOD8002830 Si02
#       8
#     2   2   2   2   2   2   2   2
#     4  10  22  36  60  91 124 164 202 238 302 369
#     4  11  26  41  65  89 115 165 210 257 302 356
#     4  12  23  32  59  94 127 159 193 242 317 366
#     4  10  20  36  59  87 124 162 199 237 302 365
#     4  11  20  36  61  89 123 161 190 250 313 362
#     4  12  22  40  62  89 127 163 204 250 296 368
#     4  11  23  42  60  88 124 153 207 254 306 362
#     4  11  24  38  59  93 128 159 195 254 307 369
#
# _framework density 20.652214000000001
#
# number of rings (size 3 to 8) (size 9 to 14) (size 15 to 20)
#    0.000    1.000    6.250    1.500    1.750    0.000 
#    0.000    0.625    0.000    1.500    0.000    0.000 
#    0.000    0.000    0.000    0.000    0.000    0.000 
#
# Total GULP energy -198315.413227 kJ/mol
# GULP energy per Si atom -12394.713327 kJ/mol
# Density = 2.060521 g / cm^3
# Si number density = 20.652214 Si / 1000 Ang^3
#
#
#
# Elastic Constant Matrix: (Units=GPa)
#
#
# Indices 1 2 3 4 5 6 
#
# 1 74.3542 32.4304 19.2941 -1.2865 22.0147 17.1496
# 2 32.4304 57.7277 31.7942 -15.2568 5.2001 8.1761
# 3 19.2941 31.7942 85.5141 -0.4420 12.3673 -0.9859
# 4 -1.2865 -15.2568 -0.4420 27.9566 5.6316 -3.2881
# 5 22.0147 5.2001 12.3673 5.6316 41.7195 2.4165
# 6 17.1496 8.1761 -0.9859 -3.2881 2.4165 27.4367
#
#
#
# Elastic Compliance Matrix: (Units=1/GPa)
#
#
# Indices 1 2 3 4 5 6 
#
# 1 0.024390 -0.012928 0.000609 -0.005196 -0.010095 -0.011104
# 2 -0.012928 0.034746 -0.010394 0.017446 0.003266 -0.000844
# 3 0.000609 -0.010394 0.015916 -0.004361 -0.003332 0.003059
# 4 -0.005196 0.017446 -0.004361 0.046367 -0.004622 0.003856
# 5 -0.010095 0.003266 -0.003332 -0.004622 0.030386 0.001987
# 6 -0.011104 -0.000844 0.003059 0.003856 0.001987 0.044037
#
#
# Mechanical properties :
#
#
# Convention : Reuss Voigt Hill
#
# Bulk Modulus (GPa) = 33.75480 42.73704 38.24592
# Shear Modulus (GPa) = 19.90896 28.36102 24.13499
#
# Velocity S-wave (km/s) = 3.10822 3.70978 3.42225
# Velocity P-wave (km/s) = 5.40937 6.25209 5.84593
#
# Compressibility (1/GPa) = 0.02962541
#
# Stress axis : x y z
#
# Youngs Moduli (GPa) = 41.00006 28.78036 62.83153
#
# Poissons Ratio (x) = 0.37209 -0.03825
# Poissons Ratio (y) = 0.53007 0.65304
# Poissons Ratio (z) = -0.02496 0.29913
#
# Static dielectric constant tensor:
#      x y z
#    x 3.936410 0.258830 0.255790 
#    y 0.258830 3.698720 0.122650 
#    z 0.255790 0.122650 3.920640 
# 
# 
# High freq. dielectric constant tensor:
#      x y z
#    x 1.799610 0.029540 0.011720 
#    y 0.029540 1.776790 0.006180 
#    z 0.011720 0.006180 1.821780 
# 
# From -- ./inp_files/433099.got.cif
#   From: 2010.06.25/outbox.cif.g09.slc.cpg/sg2_217_cif.got.tgz:433099.got - 2010.06.27 13:26:56.
