data_PCOD8002031
_publ_section_title
;
Structure prediction by ZEFSAII (Michael W. Deem and Ramdas Pophale) SiO2 
 PCOD8002031
Probable space group: P -1
;
_chemical_formula_sum "Si O2"
_cell_formula_units_Z 16
_cell_length_a 17.318632
_cell_length_b 8.681329
_cell_length_c 9.120004
_cell_angle_alpha 79.874628
_cell_angle_beta 50.390530
_cell_angle_gamma 110.233710
_cell_volume 828.948173
_symmetry_space_group_name_H-M "P -1"
_symmetry_group_IT_number 2
_symmetry_cell_setting 'triclinic'
loop_
_space_group_symop_operation_xyz
x,y,z
-x,-y,-z
loop_
_atom_site_type_symbol
_atom_site_label
_atom_site_fract_x
_atom_site_fract_y
_atom_site_fract_z
Si Si1 0.651066 0.572316 0.935663
Si Si2 0.962120 0.187918 0.447065
Si Si3 0.167149 0.146025 0.125688
Si Si4 0.111371 0.707811 0.770292
Si Si5 0.134128 0.400940 0.464274
Si Si6 0.524074 0.774949 0.977631
Si Si7 0.063150 0.916815 0.019229
Si Si8 0.314829 0.775559 0.346618
O O1 0.708833 0.633084 0.021725
O O2 0.772211 0.659019 0.668060
O O3 0.583859 0.673391 0.978752
O O4 0.551575 0.338168 0.063927
O O5 0.913960 0.262337 0.371213
O O6 0.038708 0.124291 0.281435
O O7 0.054134 0.363007 0.421439
O O8 0.846241 0.001632 0.708394
O O9 0.175037 0.079442 0.965258
O O10 0.132788 0.872609 0.825009
O O11 0.237957 0.719918 0.602828
O O12 0.000000 0.500000 0.000000
O O13 0.216486 0.631964 0.362388
O O14 0.044476 0.277237 0.729837
O O15 0.631395 0.002023 0.785879
O O16 0.426260 0.751932 0.221697
O O17 0.000000 0.000000 0.000000
#
# Coordination Sequence:
#
# PCOD8002031 Si02
#       8
#     2   2   2   2   2   2   2   2
#     4   9  17  33  59  83  99 134 194 244 272 298
#     4   9  18  32  54  81 115 146 179 224 275 336
#     4   9  17  33  56  84 111 138 188 237 269 321
#     4  12  23  36  52  84 122 154 174 216 287 348
#     4   9  19  35  54  85 114 139 183 230 275 335
#     4   9  19  34  56  83 101 144 192 244 264 306
#     4  11  21  34  54  85 118 152 177 216 284 346
#     4  10  20  35  52  79 114 144 185 225 272 329
#
# _framework density 19.301568
#
# number of rings (size 3 to 8) (size 9 to 14) (size 15 to 20)
#    0.000    2.250    2.500    1.500    1.750    0.500 
#    2.250    0.000    0.000    1.500    0.000    0.000 
#    0.000    0.000    0.000    0.000    0.000    0.000 
#
# Total GULP energy -198210.740716 kJ/mol
# GULP energy per Si atom -12388.171295 kJ/mol
# Density = 1.925764 g / cm^3
# Si number density = 19.301568 Si / 1000 Ang^3
#
#
#
# Elastic Constant Matrix: (Units=GPa)
#
#
# Indices 1 2 3 4 5 6 
#
# 1 61.9083 42.7098 33.9341 7.6241 5.7318 11.2010
# 2 42.7098 141.0386 50.1371 12.0655 -7.1738 18.4365
# 3 33.9341 50.1371 88.0931 16.4977 -9.4317 3.8458
# 4 7.6241 12.0655 16.4977 36.6063 -3.2681 -5.4816
# 5 5.7318 -7.1738 -9.4317 -3.2681 25.5867 2.1477
# 6 11.2010 18.4365 3.8458 -5.4816 2.1477 33.9799
#
#
#
# Elastic Compliance Matrix: (Units=1/GPa)
#
#
# Indices 1 2 3 4 5 6 
#
# 1 0.025605 -0.004760 -0.007638 -0.001892 -0.009734 -0.004683
# 2 -0.004760 0.010558 -0.003435 -0.001302 0.002944 -0.004167
# 3 -0.007638 -0.003435 0.017746 -0.004500 0.006611 0.001229
# 4 -0.001892 -0.001302 -0.004500 0.031348 0.001835 0.006781
# 5 -0.009734 0.002944 0.006611 0.001835 0.044901 -0.001679
# 6 -0.004683 -0.004167 0.001229 0.006781 -0.001679 0.034295
#
#
# Mechanical properties :
#
#
# Convention : Reuss Voigt Hill
#
# Bulk Modulus (GPa) = 44.95485 60.51133 52.73309
# Shear Modulus (GPa) = 24.56618 30.18518 27.37568
#
# Velocity S-wave (km/s) = 3.57144 3.95887 3.77014
# Velocity P-wave (km/s) = 6.35203 7.23294 6.80675
#
# Compressibility (1/GPa) = 0.02224454
#
# Stress axis : x y z
#
# Youngs Moduli (GPa) = 39.05544 94.71070 56.35205
#
# Poissons Ratio (x) = 0.45079 0.43039
# Poissons Ratio (y) = 0.18589 0.19356
# Poissons Ratio (z) = 0.29829 0.32532
#
# Static dielectric constant tensor:
#      x y z
#    x 3.388530 0.232440 -0.285170 
#    y 0.232440 4.049270 0.194370 
#    z -0.285170 0.194370 3.505150 
# 
# 
# High freq. dielectric constant tensor:
#      x y z
#    x 1.723430 0.008600 -0.027490 
#    y 0.008600 1.783490 0.013530 
#    z -0.027490 0.013530 1.717900 
# 
# From -- ./inp_files/217348.got.cif
#   From: 2010.06.25/outbox.cif.g09.slc.cpg/sg2_109_cif.got.tgz:217348.got - 2010.06.27 13:26:56.
