data_PCOD8002810
_publ_section_title
;
Structure prediction by ZEFSAII (Michael W. Deem and Ramdas Pophale) SiO2 
 PCOD8002810
Probable space group: P -1
;
_chemical_formula_sum "Si O2"
_cell_formula_units_Z 16
_cell_length_a 22.327091
_cell_length_b 14.274667
_cell_length_c 8.911436
_cell_angle_alpha 75.638772
_cell_angle_beta 116.525618
_cell_angle_gamma 157.884187
_cell_volume 832.950626
_symmetry_space_group_name_H-M "P -1"
_symmetry_group_IT_number 2
_symmetry_cell_setting 'triclinic'
loop_
_space_group_symop_operation_xyz
x,y,z
-x,-y,-z
loop_
_atom_site_type_symbol
_atom_site_label
_atom_site_fract_x
_atom_site_fract_y
_atom_site_fract_z
Si Si1 0.163562 0.316936 0.170457
Si Si2 0.218256 0.764521 0.091628
Si Si3 0.357283 0.121528 0.899422
Si Si4 0.069623 0.387439 0.919309
Si Si5 0.128278 0.767797 0.493541
Si Si6 0.330266 0.182149 0.141698
Si Si7 0.449266 0.164820 0.445368
Si Si8 0.733678 0.692792 0.949590
O O1 0.330372 0.572357 0.374830
O O2 0.144029 0.377681 0.002574
O O3 0.233052 0.312735 0.170599
O O4 0.951994 0.010427 0.138223
O O5 0.356394 0.957165 0.315858
O O6 0.229519 0.673944 0.065380
O O7 0.000000 0.500000 0.000000
O O8 0.302661 0.947975 0.985103
O O9 0.215851 0.941820 0.667764
O O10 0.332828 0.178016 0.964767
O O11 0.590373 0.432469 0.993339
O O12 0.013349 0.348555 0.705569
O O13 0.883271 0.143550 0.916209
O O14 0.000000 0.500000 0.500000
O O15 0.314163 0.988944 0.512145
O O16 0.478663 0.307837 0.336356
O O17 0.378007 0.355959 0.179122
#
# Coordination Sequence:
#
# PCOD8002810 Si02
#       8
#     2   2   2   2   2   2   2   2
#     4  10  22  40  56  80 121 156 190 223 287 347
#     4  11  18  36  61  86 116 143 184 240 286 335
#     4  11  19  34  62  90 112 139 193 247 282 319
#     4  10  20  37  59  85 116 153 182 229 290 345
#     4  11  19  33  59  91 113 143 190 240 276 332
#     4   9  20  36  61  84 109 147 198 237 281 323
#     4  10  20  36  59  86 108 157 191 225 285 347
#     4  10  21  39  58  79 116 156 189 242 276 327
#
# _framework density 19.208821
#
# number of rings (size 3 to 8) (size 9 to 14) (size 15 to 20)
#    0.000    1.750    6.250    0.375    0.000    1.000 
#    4.500    5.000   11.000    0.000    0.000    0.000 
#    0.000    0.000    0.000    0.000    0.000    0.000 
#
# Total GULP energy -198302.728357 kJ/mol
# GULP energy per Si atom -12393.920522 kJ/mol
# Density = 1.916510 g / cm^3
# Si number density = 19.208821 Si / 1000 Ang^3
#
#
#
# Elastic Constant Matrix: (Units=GPa)
#
#
# Indices 1 2 3 4 5 6 
#
# 1 77.9802 29.2299 39.4626 -5.0837 -4.8183 -15.0444
# 2 29.2299 119.5902 51.1576 4.3569 0.4380 -4.9089
# 3 39.4626 51.1576 138.6484 8.6638 -6.4919 -1.2655
# 4 -5.0837 4.3569 8.6638 26.1163 3.4134 -4.7662
# 5 -4.8183 0.4380 -6.4919 3.4134 23.8642 -1.8404
# 6 -15.0444 -4.9089 -1.2655 -4.7662 -1.8404 24.4302
#
#
#
# Elastic Compliance Matrix: (Units=1/GPa)
#
#
# Indices 1 2 3 4 5 6 
#
# 1 0.019340 -0.002409 -0.004869 0.007806 0.002502 0.012885
# 2 -0.002409 0.010336 -0.003132 -0.000948 -0.001382 0.000142
# 3 -0.004869 -0.003132 0.010121 -0.004778 0.002213 -0.003869
# 4 0.007806 -0.000948 -0.004778 0.044532 -0.005098 0.012673
# 5 0.002502 -0.001382 0.002213 -0.005098 0.044051 0.003701
# 6 0.012885 0.000142 -0.003869 0.012673 0.003701 0.051447
#
#
# Mechanical properties :
#
#
# Convention : Reuss Voigt Hill
#
# Bulk Modulus (GPa) = 52.69596 63.99097 58.34346
# Shear Modulus (GPa) = 24.15778 29.30671 26.73224
#
# Velocity S-wave (km/s) = 3.55017 3.91025 3.73455
# Velocity P-wave (km/s) = 6.65565 7.33296 7.00250
#
# Compressibility (1/GPa) = 0.01897679
#
# Stress axis : x y z
#
# Youngs Moduli (GPa) = 51.70640 96.74932 98.80600
#
# Poissons Ratio (x) = 0.23306 0.48107
# Poissons Ratio (y) = 0.12456 0.30948
# Poissons Ratio (z) = 0.25175 0.30304
#
# Static dielectric constant tensor:
#      x y z
#    x 3.490380 -0.171160 -0.100120 
#    y -0.171160 3.749400 0.033740 
#    z -0.100120 0.033740 3.557870 
# 
# 
# High freq. dielectric constant tensor:
#      x y z
#    x 1.732850 -0.014010 -0.014860 
#    y -0.014010 1.757440 0.006160 
#    z -0.014860 0.006160 1.729760 
# 
# From -- ./inp_files/171347.got.cif
#   From: 2010.06.25/outbox.cif.g09.slc.cpg/sg2_86_cif.got.tgz:171347.got - 2010.06.27 13:26:56.
