data_PCOD8002760
_publ_section_title
;
Structure prediction by ZEFSAII (Michael W. Deem and Ramdas Pophale) SiO2 
 PCOD8002760
Probable space group: P -1
;
_chemical_formula_sum "Si O2"
_cell_formula_units_Z 16
_cell_length_a 10.979369
_cell_length_b 14.453085
_cell_length_c 8.076881
_cell_angle_alpha 51.113124
_cell_angle_beta 121.196469
_cell_angle_gamma 92.172203
_cell_volume 769.868317
_symmetry_space_group_name_H-M "P -1"
_symmetry_group_IT_number 2
_symmetry_cell_setting 'triclinic'
loop_
_space_group_symop_operation_xyz
x,y,z
-x,-y,-z
loop_
_atom_site_type_symbol
_atom_site_label
_atom_site_fract_x
_atom_site_fract_y
_atom_site_fract_z
Si Si1 0.803537 0.491215 0.097962
Si Si2 0.101530 0.521529 0.338022
Si Si3 0.318363 0.830770 0.764524
Si Si4 0.950379 0.187684 0.572091
Si Si5 0.329089 0.573741 0.222400
Si Si6 0.895945 0.921362 0.527866
Si Si7 0.671220 0.701929 0.039497
Si Si8 0.915824 0.786215 0.038918
O O1 0.851655 0.342636 0.352128
O O2 0.691768 0.592629 0.040140
O O3 0.960604 0.511717 0.143973
O O4 0.689618 0.519067 0.828483
O O5 0.190041 0.596467 0.225243
O O6 0.229239 0.376433 0.642341
O O7 0.015561 0.624788 0.312169
O O8 0.177726 0.872266 0.479730
O O9 0.282605 0.962279 0.701775
O O10 0.300952 0.718910 0.986516
O O11 0.487834 0.781968 0.857616
O O12 0.075438 0.156623 0.540037
O O13 0.039910 0.137351 0.868382
O O14 0.500000 0.500000 0.500000
O O15 0.942056 0.826458 0.827353
O O16 0.000000 0.000000 0.500000
O O17 0.733922 0.809008 0.906224
#
# Coordination Sequence:
#
# PCOD8002760 Si02
#       8
#     2   2   2   2   2   2   2   2
#     4  10  20  36  58  90 120 154 198 248 301 361
#     4  11  19  37  60  90 121 152 199 247 302 364
#     4  10  23  40  56  85 128 156 195 252 301 351
#     4  10  20  39  65  89 115 161 206 246 293 360
#     4  11  22  35  58  89 121 159 194 247 308 357
#     4  10  23  42  61  86 121 160 208 249 288 356
#     4  11  21  38  60  89 125 152 192 252 308 362
#     4  11  21  39  66  89 115 162 206 243 300 357
#
# _framework density 20.782774
#
# number of rings (size 3 to 8) (size 9 to 14) (size 15 to 20)
#    0.000    1.500    3.750    3.375    0.000    6.500 
#    0.000    1.875    0.000    0.000    0.000    0.000 
#    0.000    0.000    0.000    0.000    0.000    0.000 
#
# Total GULP energy -198222.077042 kJ/mol
# GULP energy per Si atom -12388.879815 kJ/mol
# Density = 2.073547 g / cm^3
# Si number density = 20.782774 Si / 1000 Ang^3
#
#
#
# Elastic Constant Matrix: (Units=GPa)
#
#
# Indices 1 2 3 4 5 6 
#
# 1 115.4035 17.5489 37.2124 6.3516 19.6721 -5.2202
# 2 17.5489 64.5081 41.9840 17.2277 16.1391 -16.2059
# 3 37.2124 41.9840 79.6423 12.5889 11.5781 -10.7409
# 4 6.3516 17.2277 12.5889 31.8843 -4.6354 -0.3614
# 5 19.6721 16.1391 11.5781 -4.6354 38.7512 -3.8007
# 6 -5.2202 -16.2059 -10.7409 -0.3614 -3.8007 34.5716
#
#
#
# Elastic Compliance Matrix: (Units=1/GPa)
#
#
# Indices 1 2 3 4 5 6 
#
# 1 0.011034 0.002490 -0.005270 -0.002222 -0.005271 0.000593
# 2 0.002490 0.032698 -0.013004 -0.014620 -0.011743 0.010220
# 3 -0.005270 -0.013004 0.021686 -0.000256 0.001583 0.000017
# 4 -0.002222 -0.014620 -0.000256 0.041446 0.011707 -0.005548
# 5 -0.005271 -0.011743 0.001583 0.011707 0.034110 -0.001937
# 6 0.000593 0.010220 0.000017 -0.005548 -0.001937 0.033540
#
#
# Mechanical properties :
#
#
# Convention : Reuss Voigt Hill
#
# Bulk Modulus (GPa) = 29.54291 50.33829 39.94060
# Shear Modulus (GPa) = 23.00265 31.89530 27.44898
#
# Velocity S-wave (km/s) = 3.33049 3.92177 3.63816
# Velocity P-wave (km/s) = 5.38846 6.69185 6.07521
#
# Compressibility (1/GPa) = 0.03384907
#
# Stress axis : x y z
#
# Youngs Moduli (GPa) = 90.63074 30.58300 46.11171
#
# Poissons Ratio (x) = -0.07614 0.24303
# Poissons Ratio (y) = -0.22564 0.59963
# Poissons Ratio (z) = 0.47766 0.39769
#
# Static dielectric constant tensor:
#      x y z
#    x 4.444620 -0.035910 0.387570 
#    y -0.035910 4.359060 0.087290 
#    z 0.387570 0.087290 3.961350 
# 
# 
# High freq. dielectric constant tensor:
#      x y z
#    x 1.815550 -0.004190 -0.000380 
#    y -0.004190 1.812770 -0.004360 
#    z -0.000380 -0.004360 1.795050 
# 
# From -- ./inp_files/207857.got.cif
#   From: 2010.06.25/outbox.cif.g09.slc.cpg/sg2_104_cif.got.tgz:207857.got - 2010.06.27 13:26:56.
