data_PCOD8002097
_publ_section_title
;
Structure prediction by ZEFSAII (Michael W. Deem and Ramdas Pophale) SiO2 
 PCOD8002097
Probable space group: P -1
;
_chemical_formula_sum "Si O2"
_cell_formula_units_Z 16
_cell_length_a 7.999096
_cell_length_b 16.613582
_cell_length_c 7.999094
_cell_angle_alpha 66.603417
_cell_angle_beta 68.250612
_cell_angle_gamma 45.559997
_cell_volume 689.602573
_symmetry_space_group_name_H-M "P -1"
_symmetry_group_IT_number 2
_symmetry_cell_setting 'triclinic'
loop_
_space_group_symop_operation_xyz
x,y,z
-x,-y,-z
loop_
_atom_site_type_symbol
_atom_site_label
_atom_site_fract_x
_atom_site_fract_y
_atom_site_fract_z
Si Si1 0.385508 0.056574 0.233904
Si Si2 0.236523 0.410132 0.770362
Si Si3 0.639771 0.089867 0.853345
Si Si4 0.822668 0.443426 0.057919
Si Si5 0.188730 0.174950 0.546697
Si Si6 0.628254 0.325050 0.136320
Si Si7 0.624966 0.713505 0.485923
Si Si8 0.227582 0.786496 0.161529
O O1 0.206542 0.146566 0.367316
O O2 0.249656 0.028747 0.187850
O O3 0.617428 0.939656 0.325676
O O4 0.463999 0.113301 0.045161
O O5 0.159104 0.528747 0.778402
O O6 0.225489 0.408361 0.572104
O O7 0.501449 0.310399 0.812511
O O8 0.068137 0.386700 0.922700
O O9 0.497892 0.189600 0.688150
O O10 0.836257 0.091639 0.866151
O O11 0.779251 0.353434 0.146893
O O12 0.613977 0.560344 0.942918
O O13 0.212434 0.272755 0.476363
O O14 0.931043 0.229912 0.660899
O O15 0.569011 0.270088 0.339043
O O16 0.796395 0.227244 0.014810
#
# Coordination Sequence:
#
# PCOD8002097 Si02
#       8
#     2   2   2   2   2   2   2   2
#     4   9  19  37  58  78 107 145 182 225 274 320
#     4   9  19  37  55  78 111 142 179 225 273 324
#     4   9  19  37  55  78 111 142 179 225 273 324
#     4   9  19  37  58  78 107 145 182 225 274 320
#     4  10  20  35  58  83 108 143 184 225 270 323
#     4  10  20  35  58  83 108 143 184 225 270 323
#     4  10  20  35  55  81 112 143 181 224 269 324
#     4  10  20  35  55  81 112 143 181 224 269 324
#
# _framework density 23.201771999999998
#
# number of rings (size 3 to 8) (size 9 to 14) (size 15 to 20)
#    0.000    2.500    0.000    1.500    0.000    2.000 
#    0.000   20.000    0.000    0.000    0.000    0.000 
#    0.000    0.000    0.000    0.000    0.000    0.000 
#
# Total GULP energy -198273.606465 kJ/mol
# GULP energy per Si atom -12392.100404 kJ/mol
# Density = 2.314896 g / cm^3
# Si number density = 23.201772 Si / 1000 Ang^3
#
#
#
# Elastic Constant Matrix: (Units=GPa)
#
#
# Indices 1 2 3 4 5 6 
#
# 1 134.0153 66.4914 76.7022 20.1483 -35.6735 52.4612
# 2 66.4914 43.2138 46.9291 26.2524 7.4773 38.3851
# 3 76.7022 46.9291 181.6083 34.5757 -12.9603 39.4231
# 4 20.1483 26.2524 34.5757 42.5064 3.5764 13.2078
# 5 -35.6735 7.4773 -12.9603 3.5764 37.9758 -0.9070
# 6 52.4612 38.3851 39.4231 13.2078 -0.9070 60.5757
#
#
#
# Elastic Compliance Matrix: (Units=1/GPa)
#
#
# Indices 1 2 3 4 5 6 
#
# 1 -0.012477 0.048521 -0.002509 -0.015506 -0.021034 -0.015242
# 2 0.048521 -0.071455 -0.001460 0.017055 0.057576 0.001351
# 3 -0.002509 -0.001460 0.008084 -0.004190 0.001055 -0.001234
# 4 -0.015506 0.017055 -0.004190 0.025770 -0.021796 -0.000596
# 5 -0.021034 0.057576 0.001055 -0.021796 -0.002691 -0.014243
# 6 -0.015242 0.001351 -0.001234 -0.000596 -0.014243 0.029572
#
#
# Mechanical properties :
#
#
# Convention : Reuss Voigt Hill
#
# Bulk Modulus (GPa) = 75.43365 82.12033 78.77699
# Shear Modulus (GPa) = -46.34661 39.45922 -3.44369
#
# Velocity S-wave (km/s) = -4.47424 4.12843 -1.21961
# Velocity P-wave (km/s) = 2.42710 7.62863 5.66069
#
# Compressibility (1/GPa) = 0.01325668
#
# Stress axis : x y z
#
# Youngs Moduli (GPa) = -80.14617 -13.99480 123.69996
#
# Poissons Ratio (x) = 0.67904 0.31033
# Poissons Ratio (y) = 3.88877 0.18057
# Poissons Ratio (z) = -0.20106 -0.02043
#
# Static dielectric constant tensor:
#      x y z
#    x 4.898590 1.082120 0.289550 
#    y 1.082120 4.593460 0.440880 
#    z 0.289550 0.440880 4.102950 
# 
# 
# High freq. dielectric constant tensor:
#      x y z
#    x 1.929640 0.032170 0.003610 
#    y 0.032170 1.903210 0.016280 
#    z 0.003610 0.016280 1.913980 
# 
# From -- ./inp_files/216949.got.cif
#   From: 2010.06.25/outbox.cif.g09.slc.cpg/sg2_109_cif.got.tgz:216949.got - 2010.06.27 13:26:56.
