data_PCOD8002358
_publ_section_title
;
Structure prediction by ZEFSAII (Michael W. Deem and Ramdas Pophale) SiO2 
 PCOD8002358
Probable space group: P -1
;
_chemical_formula_sum "Si O2"
_cell_formula_units_Z 16
_cell_length_a 11.670860
_cell_length_b 13.152974
_cell_length_c 13.019563
_cell_angle_alpha 74.119282
_cell_angle_beta 115.896656
_cell_angle_gamma 50.450590
_cell_volume 840.208088
_symmetry_space_group_name_H-M "P -1"
_symmetry_group_IT_number 2
_symmetry_cell_setting 'triclinic'
loop_
_space_group_symop_operation_xyz
x,y,z
-x,-y,-z
loop_
_atom_site_type_symbol
_atom_site_label
_atom_site_fract_x
_atom_site_fract_y
_atom_site_fract_z
Si Si1 0.756796 0.105941 0.477597
Si Si2 0.173608 0.686490 0.893773
Si Si3 0.224449 0.214339 0.962746
Si Si4 0.678024 0.712450 0.645879
Si Si5 0.962465 0.178885 0.522890
Si Si6 0.558536 0.580078 0.122307
Si Si7 0.673166 0.029465 0.096096
Si Si8 0.265414 0.128824 0.235631
O O1 0.478089 0.266699 0.362672
O O2 0.760615 0.229748 0.452553
O O3 0.991190 0.892333 0.696846
O O4 0.802045 0.034747 0.398030
O O5 0.346970 0.487829 0.940697
O O6 0.008279 0.732946 0.892203
O O7 0.359392 0.627083 0.050277
O O8 0.940811 0.472913 0.769720
O O9 0.225701 0.109906 0.922174
O O10 0.433083 0.148245 0.025798
O O11 0.302061 0.122770 0.132267
O O12 0.749593 0.749828 0.745273
O O13 0.510386 0.882313 0.439678
O O14 0.803936 0.388733 0.348170
O O15 0.082813 0.136340 0.685853
O O16 0.416996 0.792336 0.032324
#
# Coordination Sequence:
#
# PCOD8002358 Si02
#       8
#     2   2   2   2   2   2   2   2
#     4   9  18  34  59  90 120 142 186 245 287 341
#     4   9  18  34  59  90 120 142 186 245 287 341
#     4  11  25  40  60  82 115 161 193 235 282 348
#     4  10  21  38  61  90 118 146 187 241 295 340
#     4  10  20  35  60  87 115 153 188 235 292 335
#     4  10  20  35  60  87 115 153 188 235 292 335
#     4  11  24  42  56  82 119 152 203 236 274 345
#     4  10  21  38  61  90 118 146 187 241 295 340
#
# _framework density 19.042901000000001
#
# number of rings (size 3 to 8) (size 9 to 14) (size 15 to 20)
#    0.000    2.000    1.250    1.875    3.500    4.000 
#    0.000    3.750    0.000    0.000    0.000    0.000 
#    0.000    0.000    0.000    0.000    0.000    0.000 
#
# Total GULP energy -198460.715167 kJ/mol
# GULP energy per Si atom -12403.794698 kJ/mol
# Density = 1.899956 g / cm^3
# Si number density = 19.042901 Si / 1000 Ang^3
#
#
#
# Elastic Constant Matrix: (Units=GPa)
#
#
# Indices 1 2 3 4 5 6 
#
# 1 80.4493 55.8129 41.1240 -14.7998 18.8281 -0.7575
# 2 55.8129 121.9388 63.6871 -8.0793 9.7561 9.0312
# 3 41.1240 63.6871 100.9454 -4.8531 7.6768 7.3411
# 4 -14.7998 -8.0793 -4.8531 17.0134 6.8456 1.0645
# 5 18.8281 9.7561 7.6768 6.8456 15.1157 -0.5163
# 6 -0.7575 9.0312 7.3411 1.0645 -0.5163 27.3838
#
#
#
# Elastic Compliance Matrix: (Units=1/GPa)
#
#
# Indices 1 2 3 4 5 6 
#
# 1 0.081194 -0.013944 -0.007909 0.118712 -0.141824 0.001676
# 2 -0.013944 0.015802 -0.005835 -0.012374 0.015626 -0.003257
# 3 -0.007909 -0.005835 0.015806 -0.008852 0.009531 -0.002008
# 4 0.118712 -0.012374 -0.008852 0.254950 -0.251016 -0.004906
# 5 -0.141824 0.015626 0.009531 -0.251016 0.341723 0.004569
# 6 0.001676 -0.003257 -0.002008 -0.004906 0.004569 0.038454
#
#
# Mechanical properties :
#
#
# Convention : Reuss Voigt Hill
#
# Bulk Modulus (GPa) = 17.41417 69.39795 43.40606
# Shear Modulus (GPa) = 6.07941 21.41655 13.74798
#
# Velocity S-wave (km/s) = 1.78869 3.35721 2.68982
# Velocity P-wave (km/s) = 3.66476 7.17983 5.70002
#
# Compressibility (1/GPa) = 0.05742449
#
# Stress axis : x y z
#
# Youngs Moduli (GPa) = 12.31620 63.28240 63.26886
#
# Poissons Ratio (x) = 0.88242 0.50039
# Poissons Ratio (y) = 0.17174 0.36920
# Poissons Ratio (z) = 0.09741 0.36927
#
# Static dielectric constant tensor:
#      x y z
#    x 3.619010 0.062070 0.057020 
#    y 0.062070 3.255200 -0.043060 
#    z 0.057020 -0.043060 3.514420 
# 
# 
# High freq. dielectric constant tensor:
#      x y z
#    x 1.751130 0.009850 0.002250 
#    y 0.009850 1.712310 -0.005440 
#    z 0.002250 -0.005440 1.752250 
# 
# From -- ./inp_files/425397.got.cif
#   From: 2010.06.25/outbox.cif.g09.slc.cpg/sg2_213_cif.got.tgz:425397.got - 2010.06.27 13:26:56.
