data_PCOD8002923
_publ_section_title
;
Structure prediction by ZEFSAII (Michael W. Deem and Ramdas Pophale) SiO2 
 PCOD8002923
Probable space group: P -1
;
_chemical_formula_sum "Si O2"
_cell_formula_units_Z 14
_cell_length_a 9.112131
_cell_length_b 12.276905
_cell_length_c 7.728864
_cell_angle_alpha 105.825833
_cell_angle_beta 126.850555
_cell_angle_gamma 88.639467
_cell_volume 654.576202
_symmetry_space_group_name_H-M "P -1"
_symmetry_group_IT_number 2
_symmetry_cell_setting 'triclinic'
loop_
_space_group_symop_operation_xyz
x,y,z
-x,-y,-z
loop_
_atom_site_type_symbol
_atom_site_label
_atom_site_fract_x
_atom_site_fract_y
_atom_site_fract_z
Si Si1 0.746026 0.145693 0.211340
Si Si2 0.108095 0.428818 0.423656
Si Si3 0.664825 0.347750 0.458360
Si Si4 0.149506 0.188830 0.383387
Si Si5 0.350457 0.081902 0.777854
Si Si6 0.252686 0.227416 0.088408
Si Si7 0.946084 0.366886 0.941860
O O1 0.754644 0.273402 0.348468
O O2 0.933632 0.135982 0.239434
O O3 0.714106 0.055645 0.310656
O O4 0.574390 0.114874 0.942658
O O5 0.272974 0.517041 0.485019
O O6 0.194918 0.325814 0.527371
O O7 0.953886 0.357064 0.151112
O O8 0.000000 0.500000 0.500000
O O9 0.443239 0.318350 0.290813
O O10 0.745166 0.321068 0.693202
O O11 0.274278 0.124376 0.565489
O O12 0.196624 0.166601 0.207100
O O13 0.273760 0.134175 0.919167
O O14 0.097741 0.297353 0.938878
O O15 0.000000 0.500000 0.000000
#
# Coordination Sequence:
#
# PCOD8002923 Si02
#       7
#     2   2   2   2   2   2   2
#     4  10  21  41  64  87 121 160 200 252 295 361
#     4  10  20  36  60  89 119 154 202 240 293 371
#     4  10  20  41  62  82 126 160 195 247 303 347
#     4  11  22  38  63  89 120 158 202 247 302 358
#     4  10  23  42  63  88 122 159 203 249 306 345
#     4  10  23  39  59  93 120 155 206 248 288 369
#     4   9  20  34  58  81 117 158 191 237 299 343
#
# _framework density 21.387882999999999
#
# number of rings (size 3 to 8) (size 9 to 14) (size 15 to 20)
#    0.000    2.000    1.429    1.286    2.000    8.000 
#    0.000   12.143    0.000    0.000    0.000    0.000 
#    0.000    0.000    0.000    0.000    0.000    0.000 
#
# Total GULP energy -173541.655033 kJ/mol
# GULP energy per Si atom -12395.832502 kJ/mol
# Density = 2.133920 g / cm^3
# Si number density = 21.387883 Si / 1000 Ang^3
#
#
#
# Elastic Constant Matrix: (Units=GPa)
#
#
# Indices 1 2 3 4 5 6 
#
# 1 57.0245 3.7245 22.6413 -9.7198 6.4818 9.5640
# 2 3.7245 91.8999 25.6973 -20.5557 13.6233 5.1181
# 3 22.6413 25.6973 60.6069 -10.4105 13.5152 9.3848
# 4 -9.7198 -20.5557 -10.4105 36.0170 -2.2581 0.2692
# 5 6.4818 13.6233 13.5152 -2.2581 27.2445 1.1118
# 6 9.5640 5.1181 9.3848 0.2692 1.1118 27.6186
#
#
#
# Elastic Compliance Matrix: (Units=1/GPa)
#
#
# Indices 1 2 3 4 5 6 
#
# 1 0.022438 0.003076 -0.007247 0.005598 -0.002579 -0.005828
# 2 0.003076 0.014588 -0.004597 0.007527 -0.005038 -0.002077
# 3 -0.007247 -0.004597 0.023832 0.001875 -0.007463 -0.004455
# 4 0.005598 0.007527 0.001875 0.033954 -0.003041 -0.004179
# 5 -0.002579 -0.005038 -0.007463 -0.003041 0.043179 0.002654
# 6 -0.005828 -0.002077 -0.004455 -0.004179 0.002654 0.040058
#
#
# Mechanical properties :
#
#
# Convention : Reuss Voigt Hill
#
# Bulk Modulus (GPa) = 23.08261 34.85084 28.96672
# Shear Modulus (GPa) = 23.80670 28.67390 26.24030
#
# Velocity S-wave (km/s) = 3.33992 3.66548 3.50648
# Velocity P-wave (km/s) = 5.06846 5.85187 5.47419
#
# Compressibility (1/GPa) = 0.04332266
#
# Stress axis : x y z
#
# Youngs Moduli (GPa) = 44.56777 68.54890 41.96027
#
# Poissons Ratio (x) = -0.21087 0.30410
# Poissons Ratio (y) = -0.13710 0.19287
# Poissons Ratio (z) = 0.32299 0.31509
#
# Static dielectric constant tensor:
#      x y z
#    x 3.841290 0.139960 -0.197310 
#    y 0.139960 4.434730 -0.507690 
#    z -0.197310 -0.507690 4.589620 
# 
# 
# High freq. dielectric constant tensor:
#      x y z
#    x 1.825640 -0.005730 0.004430 
#    y -0.005730 1.852960 -0.002110 
#    z 0.004430 -0.002110 1.833150 
# 
# From -- ./inp_files/182068.got.cif
#   From: 2010.06.25/outbox.cif.g09.slc.cpg/sg2_92_cif.got.tgz:182068.got - 2010.06.27 13:26:56.
