data_PCOD8002805
_publ_section_title
;
Structure prediction by ZEFSAII (Michael W. Deem and Ramdas Pophale) SiO2 
 PCOD8002805
Probable space group: P -1
;
_chemical_formula_sum "Si O2"
_cell_formula_units_Z 14
_cell_length_a 13.820017
_cell_length_b 13.379360
_cell_length_c 8.417304
_cell_angle_alpha 124.991167
_cell_angle_beta 146.759886
_cell_angle_gamma 58.521549
_cell_volume 695.773781
_symmetry_space_group_name_H-M "P -1"
_symmetry_group_IT_number 2
_symmetry_cell_setting 'triclinic'
loop_
_space_group_symop_operation_xyz
x,y,z
-x,-y,-z
loop_
_atom_site_type_symbol
_atom_site_label
_atom_site_fract_x
_atom_site_fract_y
_atom_site_fract_z
Si Si1 0.768520 0.140602 0.445609
Si Si2 0.397881 0.633960 0.987733
Si Si3 0.947842 0.265178 0.537729
Si Si4 0.712657 0.606160 0.911428
Si Si5 0.426619 0.203441 0.846202
Si Si6 0.101564 0.068862 0.336260
Si Si7 0.647575 0.354483 0.706500
O O1 0.923481 0.183180 0.585077
O O2 0.726269 0.234186 0.615859
O O3 0.836625 0.012680 0.501371
O O4 0.594434 0.125030 0.086175
O O5 0.522771 0.738280 0.199241
O O6 0.321737 0.667908 0.086659
O O7 0.500000 0.500000 0.000000
O O8 0.228636 0.641422 0.643801
O O9 0.979210 0.182571 0.346730
O O10 0.110891 0.344156 0.869580
O O11 0.754927 0.465820 0.895182
O O12 0.563400 0.614818 0.578391
O O13 0.638205 0.682255 0.029311
O O14 0.273215 0.114721 0.526920
O O15 0.000000 0.000000 0.000000
#
# Coordination Sequence:
#
# PCOD8002805 Si02
#       7
#     2   2   2   2   2   2   2
#     4  10  21  39  60  83 117 159 189 234 286 346
#     4  11  21  39  59  87 118 153 190 239 294 343
#     4  10  23  39  59  87 117 152 197 238 291 340
#     4   9  19  37  57  85 118 153 190 240 281 346
#     4   9  20  39  60  84 115 157 192 230 295 345
#     4  11  22  40  60  87 117 148 197 247 283 335
#     4  10  20  36  59  85 120 152 194 230 288 348
#
# _framework density 20.121483999999999
#
# number of rings (size 3 to 8) (size 9 to 14) (size 15 to 20)
#    0.000    2.000    1.429    1.714    2.000    2.286 
#    2.571    7.857    0.000    0.000    0.000    0.000 
#    0.000    0.000    0.000    0.000    0.000    0.000 
#
# Total GULP energy -173634.715460 kJ/mol
# GULP energy per Si atom -12402.479676 kJ/mol
# Density = 2.007569 g / cm^3
# Si number density = 20.121484 Si / 1000 Ang^3
#
#
#
# Elastic Constant Matrix: (Units=GPa)
#
#
# Indices 1 2 3 4 5 6 
#
# 1 86.7575 22.5083 29.8941 4.7849 17.0316 18.0541
# 2 22.5083 93.6263 40.9702 -4.2407 13.4484 13.4725
# 3 29.8941 40.9702 89.6078 15.8107 19.9218 12.1312
# 4 4.7849 -4.2407 15.8107 27.3090 4.5030 3.1857
# 5 17.0316 13.4484 19.9218 4.5030 36.0212 3.9520
# 6 18.0541 13.4725 12.1312 3.1857 3.9520 29.4306
#
#
#
# Elastic Compliance Matrix: (Units=1/GPa)
#
#
# Indices 1 2 3 4 5 6 
#
# 1 0.015037 -0.000675 -0.002799 0.000476 -0.004579 -0.007198
# 2 -0.000675 0.015101 -0.006980 0.007305 -0.001916 -0.004155
# 3 -0.002799 -0.006980 0.018285 -0.010287 -0.004802 -0.000866
# 4 0.000476 0.007305 -0.010287 0.044473 -0.002396 -0.003888
# 5 -0.004579 -0.001916 -0.004802 -0.002396 0.033440 0.001435
# 6 -0.007198 -0.004155 -0.000866 -0.003888 0.001435 0.040881
#
#
# Mechanical properties :
#
#
# Convention : Reuss Voigt Hill
#
# Bulk Modulus (GPa) = 36.34397 50.74852 43.54624
# Shear Modulus (GPa) = 25.34256 30.32677 27.83466
#
# Velocity S-wave (km/s) = 3.55276 3.88646 3.72335
# Velocity P-wave (km/s) = 5.91024 6.73908 6.33823
#
# Compressibility (1/GPa) = 0.02751488
#
# Stress axis : x y z
#
# Youngs Moduli (GPa) = 66.50440 66.21922 54.69020
#
# Poissons Ratio (x) = 0.04469 0.15309
# Poissons Ratio (y) = 0.04488 0.38173
# Poissons Ratio (z) = 0.18616 0.46220
#
# Static dielectric constant tensor:
#      x y z
#    x 3.669570 0.100120 0.155890 
#    y 0.100120 3.628310 -0.015440 
#    z 0.155890 -0.015440 3.593590 
# 
# 
# High freq. dielectric constant tensor:
#      x y z
#    x 1.790120 0.007490 0.008050 
#    y 0.007490 1.789230 -0.002980 
#    z 0.008050 -0.002980 1.774550 
# 
# From -- ./inp_files/165177.got.cif
#   From: 2010.06.25/outbox.cif.g09.slc.cpg/sg2_83_cif.got.tgz:165177.got - 2010.06.27 13:26:56.
