data_PCOD8002261
_publ_section_title
;
Structure prediction by ZEFSAII (Michael W. Deem and Ramdas Pophale) SiO2 
 PCOD8002261
Probable space group: P -1
;
_chemical_formula_sum "Si O2"
_cell_formula_units_Z 14
_cell_length_a 12.299760
_cell_length_b 11.644373
_cell_length_c 16.770561
_cell_angle_alpha 33.679103
_cell_angle_beta 43.896104
_cell_angle_gamma 68.895232
_cell_volume 722.329631
_symmetry_space_group_name_H-M "P -1"
_symmetry_group_IT_number 2
_symmetry_cell_setting 'triclinic'
loop_
_space_group_symop_operation_xyz
x,y,z
-x,-y,-z
loop_
_atom_site_type_symbol
_atom_site_label
_atom_site_fract_x
_atom_site_fract_y
_atom_site_fract_z
Si Si1 0.955910 0.879527 0.211279
Si Si2 0.338197 0.636660 0.254942
Si Si3 0.007396 0.679276 0.145129
Si Si4 0.342089 0.679947 0.042651
Si Si5 0.029785 0.074991 0.555694
Si Si6 0.231309 0.994692 0.126864
Si Si7 0.793795 0.103942 0.532305
O O1 0.800055 0.677075 0.478696
O O2 0.902824 0.714341 0.253283
O O3 0.175918 0.002944 0.059399
O O4 0.936646 0.109063 0.075223
O O5 0.368882 0.729972 0.093966
O O6 0.229143 0.745698 0.290847
O O7 0.546179 0.743690 0.124211
O O8 0.208148 0.744452 0.035126
O O9 0.853429 0.389349 0.355006
O O10 0.235191 0.372506 0.261210
O O11 0.557523 0.881758 0.770941
O O12 0.937626 0.026460 0.719818
O O13 0.854088 0.006625 0.629796
O O14 0.087696 0.883664 0.616085
#
# Coordination Sequence:
#
# PCOD8002261 Si02
#       7
#     2   2   2   2   2   2   2
#     4  11  22  39  56  84 121 150 188 230 286 343
#     4  11  21  33  62  90 113 141 188 243 288 332
#     4  10  24  38  57  82 118 159 184 228 285 342
#     4  11  19  36  61  88 114 143 190 239 284 329
#     4  10  20  35  58  88 114 148 187 236 282 332
#     4  11  21  35  59  89 114 145 188 238 289 330
#     4  10  21  37  57  85 118 148 191 231 279 339
#
# _framework density 19.381732
#
# number of rings (size 3 to 8) (size 9 to 14) (size 15 to 20)
#    0.000    1.429    4.286    2.571    2.000    1.143 
#    0.000    3.571    0.000    1.714    0.000    0.000 
#    0.000    0.000    0.000    0.000    0.000    0.000 
#
# Total GULP energy -173545.667466 kJ/mol
# GULP energy per Si atom -12396.119105 kJ/mol
# Density = 1.933762 g / cm^3
# Si number density = 19.381732 Si / 1000 Ang^3
#
#
#
# Elastic Constant Matrix: (Units=GPa)
#
#
# Indices 1 2 3 4 5 6 
#
# 1 94.6240 19.8274 51.9434 -11.0449 -7.7154 -7.2314
# 2 19.8274 98.3679 39.5243 -3.3900 0.8722 -1.3086
# 3 51.9434 39.5243 71.9566 -3.4585 -12.1344 -13.0700
# 4 -11.0449 -3.3900 -3.4585 24.1791 1.8562 3.1657
# 5 -7.7154 0.8722 -12.1344 1.8562 33.3722 -3.3665
# 6 -7.2314 -1.3086 -13.0700 3.1657 -3.3665 20.6193
#
#
#
# Elastic Compliance Matrix: (Units=1/GPa)
#
#
# Indices 1 2 3 4 5 6 
#
# 1 0.019372 0.003004 -0.016641 0.007768 -0.002606 -0.005182
# 2 0.003004 0.014459 -0.012059 0.002961 -0.004932 -0.006933
# 3 -0.016641 -0.012059 0.038119 -0.007552 0.012848 0.020818
# 4 0.007768 0.002961 -0.007552 0.045855 -0.004552 -0.009658
# 5 -0.002606 -0.004932 0.012848 -0.004552 0.035774 0.013457
# 6 -0.005182 -0.006933 0.020818 -0.009658 0.013457 0.063117
#
#
# Mechanical properties :
#
#
# Convention : Reuss Voigt Hill
#
# Bulk Modulus (GPa) = 48.64532 54.17094 51.40813
# Shear Modulus (GPa) = 18.18557 25.87770 22.03163
#
# Velocity S-wave (km/s) = 3.06647 3.65795 3.37519
# Velocity P-wave (km/s) = 6.13927 6.77133 6.46303
#
# Compressibility (1/GPa) = 0.02055696
#
# Stress axis : x y z
#
# Youngs Moduli (GPa) = 51.62029 69.15895 26.23355
#
# Poissons Ratio (x) = -0.20773 0.43656
# Poissons Ratio (y) = -0.15505 0.31636
# Poissons Ratio (z) = 0.85903 0.83400
#
# Static dielectric constant tensor:
#      x y z
#    x 3.528830 0.115460 -0.191700 
#    y 0.115460 3.590170 -0.111840 
#    z -0.191700 -0.111840 3.319840 
# 
# 
# High freq. dielectric constant tensor:
#      x y z
#    x 1.750310 0.009720 -0.024260 
#    y 0.009720 1.746710 -0.004860 
#    z -0.024260 -0.004860 1.737740 
# 
# From -- ./inp_files/177152.got.cif
#   From: 2010.06.25/outbox.cif.g09.slc.cpg/sg2_89_cif.got.tgz:177152.got - 2010.06.27 13:26:56.
