data_PCOD8002611
_publ_section_title
;
Structure prediction by ZEFSAII (Michael W. Deem and Ramdas Pophale) SiO2 
 PCOD8002611
Probable space group: P -1
;
_chemical_formula_sum "Si O2"
_cell_formula_units_Z 14
_cell_length_a 7.033489
_cell_length_b 18.346638
_cell_length_c 9.960776
_cell_angle_alpha 129.664480
_cell_angle_beta 46.228514
_cell_angle_gamma 121.370148
_cell_volume 707.236191
_symmetry_space_group_name_H-M "P -1"
_symmetry_group_IT_number 2
_symmetry_cell_setting 'triclinic'
loop_
_space_group_symop_operation_xyz
x,y,z
-x,-y,-z
loop_
_atom_site_type_symbol
_atom_site_label
_atom_site_fract_x
_atom_site_fract_y
_atom_site_fract_z
Si Si1 0.227789 0.597113 0.785694
Si Si2 0.526375 0.203145 0.997141
Si Si3 0.506627 0.795937 0.292503
Si Si4 0.646329 0.603199 0.084654
Si Si5 0.687989 0.593615 0.364557
Si Si6 0.044438 0.112682 0.621492
Si Si7 0.086044 0.203689 0.423309
O O1 0.376266 0.683879 0.902857
O O2 0.390713 0.578134 0.551264
O O3 0.183308 0.503053 0.791008
O O4 0.943515 0.618448 0.897026
O O5 0.282651 0.167889 0.175120
O O6 0.426636 0.181324 0.869093
O O7 0.772342 0.147160 0.845230
O O8 0.489964 0.682735 0.191330
O O9 0.729002 0.857454 0.344572
O O10 0.220332 0.826872 0.505971
O O11 0.668981 0.619672 0.250705
O O12 0.500000 0.500000 0.000000
O O13 0.866586 0.681284 0.453844
O O14 0.143710 0.157934 0.483969
O O15 0.000000 0.000000 0.500000
#
# Coordination Sequence:
#
# PCOD8002611 Si02
#       7
#     2   2   2   2   2   2   2
#     4  10  20  36  56  83 123 162 197 244 295 352
#     4  10  22  41  63  89 124 160 199 251 306 357
#     4  11  22  39  61  92 120 155 205 251 298 356
#     4  12  21  32  57  88 121 162 202 238 294 358
#     4  10  20  36  56  83 123 162 197 244 295 352
#     4  11  24  44  65  88 122 159 202 254 306 359
#     4  10  22  41  63  89 124 160 199 251 306 357
#
# _framework density 19.795368
#
# number of rings (size 3 to 8) (size 9 to 14) (size 15 to 20)
#    0.000    1.429    2.857    3.000    0.000    5.714 
#    0.000    1.429    0.000    0.000    0.000    0.000 
#    0.000    0.000    0.000    0.000    0.000    0.000 
#
# Total GULP energy -173649.142543 kJ/mol
# GULP energy per Si atom -12403.510182 kJ/mol
# Density = 1.975031 g / cm^3
# Si number density = 19.795368 Si / 1000 Ang^3
#
#
#
# Elastic Constant Matrix: (Units=GPa)
#
#
# Indices 1 2 3 4 5 6 
#
# 1 125.4647 30.2757 51.9712 -2.1103 -6.5574 16.9047
# 2 30.2757 86.3896 42.2699 14.6495 -1.3972 9.7433
# 3 51.9712 42.2699 123.8470 -14.1684 -12.4790 6.2669
# 4 -2.1103 14.6495 -14.1684 30.7695 5.9621 1.3025
# 5 -6.5574 -1.3972 -12.4790 5.9621 17.5590 4.2204
# 6 16.9047 9.7433 6.2669 1.3025 4.2204 22.6699
#
#
#
# Elastic Compliance Matrix: (Units=1/GPa)
#
#
# Indices 1 2 3 4 5 6 
#
# 1 0.010844 -0.001057 -0.003564 -0.000752 0.003429 -0.007242
# 2 -0.001057 0.017637 -0.006525 -0.011550 0.001395 -0.004584
# 3 -0.003564 -0.006525 0.013157 0.007995 0.004666 0.000497
# 4 -0.000752 -0.011550 0.007995 0.043644 -0.011024 0.002859
# 5 0.003429 0.001395 0.004666 -0.011024 0.069425 -0.016737
# 6 -0.007242 -0.004584 0.000497 0.002859 -0.016737 0.054296
#
#
# Mechanical properties :
#
#
# Convention : Reuss Voigt Hill
#
# Bulk Modulus (GPa) = 51.68986 64.97056 58.33021
# Shear Modulus (GPa) = 21.03122 28.27864 24.65493
#
# Velocity S-wave (km/s) = 3.26303 3.78371 3.53298
# Velocity P-wave (km/s) = 6.35337 7.20979 6.79508
#
# Compressibility (1/GPa) = 0.01934615
#
# Stress axis : x y z
#
# Youngs Moduli (GPa) = 92.21703 56.70023 76.00669
#
# Poissons Ratio (x) = 0.05992 0.27089
# Poissons Ratio (y) = 0.09745 0.49593
# Poissons Ratio (z) = 0.32866 0.36996
#
# Static dielectric constant tensor:
#      x y z
#    x 3.338210 -0.040200 -0.209660 
#    y -0.040200 3.570190 -0.077020 
#    z -0.209660 -0.077020 3.748260 
# 
# 
# High freq. dielectric constant tensor:
#      x y z
#    x 1.768740 -0.000060 -0.006950 
#    y -0.000060 1.766730 -0.004080 
#    z -0.006950 -0.004080 1.780550 
# 
# From -- ./inp_files/37082.got.cif
#   From: 2010.06.25/outbox.cif.g09.slc.cpg/sg2_19_cif.got.tgz:37082.got - 2010.06.27 13:26:56.
