data_PCOD8002291
_publ_section_title
;
Structure prediction by ZEFSAII (Michael W. Deem and Ramdas Pophale) SiO2 
 PCOD8002291
Probable space group: P -1
;
_chemical_formula_sum "Si O2"
_cell_formula_units_Z 16
_cell_length_a 12.304850
_cell_length_b 14.721489
_cell_length_c 9.728880
_cell_angle_alpha 67.762756
_cell_angle_beta 145.719370
_cell_angle_gamma 128.178580
_cell_volume 744.650378
_symmetry_space_group_name_H-M "P -1"
_symmetry_group_IT_number 2
_symmetry_cell_setting 'triclinic'
loop_
_space_group_symop_operation_xyz
x,y,z
-x,-y,-z
loop_
_atom_site_type_symbol
_atom_site_label
_atom_site_fract_x
_atom_site_fract_y
_atom_site_fract_z
Si Si1 0.749093 0.818189 0.828859
Si Si2 0.382691 0.812316 0.980383
Si Si3 0.733983 0.036436 0.646245
Si Si4 0.467967 0.441995 0.851132
Si Si5 0.184208 0.544792 0.992775
Si Si6 0.212546 0.952326 0.603384
Si Si7 0.304338 0.189639 0.904207
Si Si8 0.332460 0.564649 0.433608
O O1 0.576936 0.695804 0.635369
O O2 0.737319 0.921043 0.691030
O O3 0.657422 0.798326 0.900318
O O4 0.021457 0.858528 0.080733
O O5 0.237663 0.678121 0.969972
O O6 0.224248 0.863879 0.772199
O O7 0.487706 0.814037 0.940320
O O8 0.604265 0.905611 0.255701
O O9 0.731107 0.080867 0.466071
O O10 0.500000 0.000000 0.500000
O O11 0.304197 0.299278 0.781592
O O12 0.333224 0.469697 0.585361
O O13 0.500000 0.500000 0.000000
O O14 0.721414 0.483389 0.027681
O O15 0.900820 0.442495 0.761513
O O16 0.308642 0.533569 0.264106
O O17 0.954411 0.927669 0.343615
#
# Coordination Sequence:
#
# PCOD8002291 Si02
#       8
#     2   2   2   2   2   2   2   2
#     4  10  21  37  58  84 116 153 195 245 294 355
#     4  10  20  37  57  84 114 153 193 241 295 350
#     4  10  21  37  56  85 117 150 194 244 294 356
#     4  11  22  40  61  89 121 158 205 251 304 356
#     4  10  24  40  62  88 124 162 203 254 298 362
#     4  10  20  35  59  83 114 149 194 240 297 352
#     4  10  20  37  56  85 115 149 194 247 293 348
#     4  11  22  42  61  89 122 160 205 247 306 360
#
# _framework density 21.486595000000001
#
# number of rings (size 3 to 8) (size 9 to 14) (size 15 to 20)
#    0.000    1.750    1.250    3.000    0.000    1.500 
#    2.250    6.250    0.000    0.000    0.000    0.000 
#    0.000    0.000    0.000    0.000    0.000    0.000 
#
# Total GULP energy -198359.627454 kJ/mol
# GULP energy per Si atom -12397.476716 kJ/mol
# Density = 2.143769 g / cm^3
# Si number density = 21.486595 Si / 1000 Ang^3
#
#
#
# Elastic Constant Matrix: (Units=GPa)
#
#
# Indices 1 2 3 4 5 6 
#
# 1 86.4135 4.7454 25.4528 10.6036 0.4833 7.7845
# 2 4.7454 71.8332 36.0234 0.5640 -4.5760 3.4439
# 3 25.4528 36.0234 90.8760 9.9781 -3.1824 3.2895
# 4 10.6036 0.5640 9.9781 37.6199 9.0385 -1.6365
# 5 0.4833 -4.5760 -3.1824 9.0385 23.4483 0.4556
# 6 7.7845 3.4439 3.2895 -1.6365 0.4556 27.7015
#
#
#
# Elastic Compliance Matrix: (Units=1/GPa)
#
#
# Indices 1 2 3 4 5 6 
#
# 1 0.013306 0.001230 -0.003714 -0.003119 0.000735 -0.003647
# 2 0.001230 0.017721 -0.007311 0.000727 0.002193 -0.001673
# 3 -0.003714 -0.007311 0.015395 -0.003427 0.002062 -0.000112
# 4 -0.003119 0.000727 -0.003427 0.031495 -0.012462 0.003259
# 5 0.000735 0.002193 0.002062 -0.012462 0.048187 -0.002253
# 6 -0.003647 -0.001673 -0.000112 0.003259 -0.002253 0.037575
#
#
# Mechanical properties :
#
#
# Convention : Reuss Voigt Hill
#
# Bulk Modulus (GPa) = 37.27148 42.39621 39.83385
# Shear Modulus (GPa) = 26.01272 29.94735 27.98003
#
# Velocity S-wave (km/s) = 3.48321 3.73737 3.61253
# Velocity P-wave (km/s) = 5.79319 6.19663 5.99830
#
# Compressibility (1/GPa) = 0.02683016
#
# Stress axis : x y z
#
# Youngs Moduli (GPa) = 75.15490 56.43120 64.95583
#
# Poissons Ratio (x) = -0.06939 0.24124
# Poissons Ratio (y) = -0.09242 0.47492
# Poissons Ratio (z) = 0.27912 0.41259
#
# Static dielectric constant tensor:
#      x y z
#    x 3.763100 0.228330 -0.012770 
#    y 0.228330 3.913500 -0.077740 
#    z -0.012770 -0.077740 3.875570 
# 
# 
# High freq. dielectric constant tensor:
#      x y z
#    x 1.833380 0.017270 0.000610 
#    y 0.017270 1.843070 -0.006890 
#    z 0.000610 -0.006890 1.849050 
# 
# From -- ./inp_files/272750.got.cif
#   From: 2010.06.25/outbox.cif.g09.slc.cpg/sg2_137_cif.got.tgz:272750.got - 2010.06.27 13:26:56.
