data_PCOD8002507
_publ_section_title
;
Structure prediction by ZEFSAII (Michael W. Deem and Ramdas Pophale) SiO2 
 PCOD8002507
Probable space group: P -1
;
_chemical_formula_sum "Si O2"
_cell_formula_units_Z 14
_cell_length_a 20.583900
_cell_length_b 5.011181
_cell_length_c 16.288103
_cell_angle_alpha 99.391036
_cell_angle_beta 154.913266
_cell_angle_gamma 77.156404
_cell_volume 691.563753
_symmetry_space_group_name_H-M "P -1"
_symmetry_group_IT_number 2
_symmetry_cell_setting 'triclinic'
loop_
_space_group_symop_operation_xyz
x,y,z
-x,-y,-z
loop_
_atom_site_type_symbol
_atom_site_label
_atom_site_fract_x
_atom_site_fract_y
_atom_site_fract_z
Si Si1 0.597216 0.342750 0.863611
Si Si2 0.568754 0.905962 0.941171
Si Si3 0.106043 0.570812 0.424722
Si Si4 0.929909 0.098371 0.176641
Si Si5 0.729479 0.561688 0.562471
Si Si6 0.093711 0.964909 0.188869
Si Si7 0.640228 0.258889 0.176230
O O1 0.641366 0.599908 0.977984
O O2 0.455556 0.437396 0.642705
O O3 0.535098 0.119471 0.838857
O O4 0.746335 0.206929 0.975940
O O5 0.407873 0.892590 0.804412
O O6 0.681528 0.028979 0.140448
O O7 0.222626 0.530801 0.479471
O O8 0.204166 0.621898 0.620210
O O9 0.028681 0.307903 0.340821
O O10 0.966746 0.823024 0.258784
O O11 0.971419 0.052851 0.126481
O O12 0.821160 0.348470 0.721602
O O13 0.770691 0.855091 0.646298
O O14 0.000000 0.000000 0.000000
O O15 0.500000 0.500000 0.000000
#
# Coordination Sequence:
#
# PCOD8002507 Si02
#       7
#     2   2   2   2   2   2   2
#     4  12  22  41  57  89 119 156 200 238 296 349
#     4  11  23  34  61  84 118 153 198 256 285 329
#     4  10  21  38  59  83 112 157 204 236 291 351
#     4  10  24  39  60  84 123 155 186 246 299 349
#     4  10  20  35  64  86 111 157 197 234 279 353
#     4  10  21  40  62  92 118 149 192 238 288 349
#     4  11  22  37  61  90 112 154 209 256 286 331
#
# _framework density 20.243977000000001
#
# number of rings (size 3 to 8) (size 9 to 14) (size 15 to 20)
#    0.000    1.429    2.857    2.143    8.000    0.000 
#    0.000    5.714    0.000    0.000    0.000    0.000 
#    0.000    0.000    0.000    0.000    0.000    0.000 
#
# Total GULP energy -173622.225190 kJ/mol
# GULP energy per Si atom -12401.587514 kJ/mol
# Density = 2.019790 g / cm^3
# Si number density = 20.243977 Si / 1000 Ang^3
#
#
#
# Elastic Constant Matrix: (Units=GPa)
#
#
# Indices 1 2 3 4 5 6 
#
# 1 57.5079 26.2117 40.9592 -4.6923 -1.4611 2.6750
# 2 26.2117 90.8775 13.8095 -1.4157 1.8232 3.3152
# 3 40.9592 13.8095 105.6446 -7.8178 2.4022 -13.4550
# 4 -4.6923 -1.4157 -7.8178 29.6422 -7.7920 1.9722
# 5 -1.4611 1.8232 2.4022 -7.7920 23.1508 -3.3087
# 6 2.6750 3.3152 -13.4550 1.9722 -3.3087 27.8680
#
#
#
# Elastic Compliance Matrix: (Units=1/GPa)
#
#
# Indices 1 2 3 4 5 6 
#
# 1 0.028894 -0.006401 -0.011159 0.002687 0.003362 -0.007191
# 2 -0.006401 0.012795 0.000709 -0.000641 -0.001806 -0.000734
# 3 -0.011159 0.000709 0.014838 0.001476 -0.000664 0.007968
# 4 0.002687 -0.000641 0.001476 0.037910 0.012735 -0.000640
# 5 0.003362 -0.001806 -0.000664 0.012735 0.048538 0.004433
# 6 -0.007191 -0.000734 0.007968 -0.000640 0.004433 0.041079
#
#
# Mechanical properties :
#
#
# Convention : Reuss Voigt Hill
#
# Bulk Modulus (GPa) = 43.81019 46.22120 45.01569
# Shear Modulus (GPa) = 22.18622 27.66886 24.92754
#
# Velocity S-wave (km/s) = 3.31409 3.70100 3.51287
# Velocity P-wave (km/s) = 6.02763 6.41442 6.22403
#
# Compressibility (1/GPa) = 0.02282574
#
# Stress axis : x y z
#
# Youngs Moduli (GPa) = 34.60979 78.15314 67.39235
#
# Poissons Ratio (x) = 0.50029 0.75202
# Poissons Ratio (y) = 0.22155 -0.04781
# Poissons Ratio (z) = 0.38621 -0.05544
#
# Static dielectric constant tensor:
#      x y z
#    x 3.414510 0.085750 -0.027990 
#    y 0.085750 4.043860 0.120600 
#    z -0.027990 0.120600 3.466880 
# 
# 
# High freq. dielectric constant tensor:
#      x y z
#    x 1.754880 0.013290 -0.002360 
#    y 0.013290 1.812640 0.008210 
#    z -0.002360 0.008210 1.781830 
# 
# From -- ./inp_files/578602.got.cif
#   From: 2010.06.25/outbox.cif.g09.slc.cpg/sg2_290_cif.got.tgz:578602.got - 2010.06.27 13:26:56.
