data_PCOD8002139
_publ_section_title
;
Structure prediction by ZEFSAII (Michael W. Deem and Ramdas Pophale) SiO2 
 PCOD8002139
Probable space group: P -1
;
_chemical_formula_sum "Si O2"
_cell_formula_units_Z 14
_cell_length_a 15.505558
_cell_length_b 12.906561
_cell_length_c 11.261418
_cell_angle_alpha 78.297005
_cell_angle_beta 103.387763
_cell_angle_gamma 162.640273
_cell_volume 652.874719
_symmetry_space_group_name_H-M "P -1"
_symmetry_group_IT_number 2
_symmetry_cell_setting 'triclinic'
loop_
_space_group_symop_operation_xyz
x,y,z
-x,-y,-z
loop_
_atom_site_type_symbol
_atom_site_label
_atom_site_fract_x
_atom_site_fract_y
_atom_site_fract_z
Si Si1 0.984351 0.254911 0.945781
Si Si2 0.211450 0.155691 0.414708
Si Si3 0.996837 0.144954 0.354041
Si Si4 0.507253 0.496877 0.804033
Si Si5 0.346228 0.702221 0.193929
Si Si6 0.980066 0.475373 0.141046
Si Si7 0.329033 0.450441 0.947350
O O1 0.998058 0.378076 0.842099
O O2 0.099168 0.284875 0.900429
O O3 0.186938 0.495573 0.068743
O O4 0.655015 0.864785 0.971566
O O5 0.500000 0.500000 0.500000
O O6 0.295036 0.211986 0.295362
O O7 0.044165 0.074969 0.364755
O O8 0.030944 0.867643 0.507994
O O9 0.263548 0.518981 0.306218
O O10 0.697770 0.822300 0.256832
O O11 0.309545 0.355817 0.846054
O O12 0.727290 0.684735 0.920657
O O13 0.245172 0.701478 0.214835
O O14 0.688940 0.091159 0.189136
O O15 0.000000 0.500000 0.000000
#
# Coordination Sequence:
#
# PCOD8002139 Si02
#       7
#     2   2   2   2   2   2   2
#     4  11  20  36  50  79 111 149 184 224 269 323
#     4   9  20  35  55  77 112 142 185 233 271 322
#     4  10  20  35  56  81 113 144 182 230 280 319
#     4  10  22  35  51  82 115 149 189 217 262 338
#     4  11  20  33  57  80 111 146 178 230 280 327
#     4  10  21  34  53  79 110 145 186 228 275 327
#     4  11  23  33  57  79 116 158 181 213 269 328
#
# _framework density 21.443625000000001
#
# number of rings (size 3 to 8) (size 9 to 14) (size 15 to 20)
#    0.000    1.714    1.429    5.143    6.000    1.143 
#    0.000    0.000    0.000    0.000    0.000    6.000 
#    0.000    0.000    0.000    0.000    0.000    0.000 
#
# Total GULP energy -173479.369359 kJ/mol
# GULP energy per Si atom -12391.383526 kJ/mol
# Density = 2.139482 g / cm^3
# Si number density = 21.443625 Si / 1000 Ang^3
#
#
#
# Elastic Constant Matrix: (Units=GPa)
#
#
# Indices 1 2 3 4 5 6 
#
# 1 99.5358 11.7709 41.4834 -18.7946 0.4975 1.1218
# 2 11.7709 49.1289 31.1436 -31.0491 -10.7408 3.5218
# 3 41.4834 31.1436 122.7777 -37.3926 -15.8275 -0.5207
# 4 -18.7946 -31.0491 -37.3926 39.9416 5.5864 0.5210
# 5 0.4975 -10.7408 -15.8275 5.5864 22.0107 -5.1621
# 6 1.1218 3.5218 -0.5207 0.5210 -5.1621 30.5599
#
#
#
# Elastic Compliance Matrix: (Units=1/GPa)
#
#
# Indices 1 2 3 4 5 6 
#
# 1 0.012204 0.000953 -0.003795 0.003470 -0.003727 -0.001311
# 2 0.000953 0.043808 0.000185 0.033007 0.012275 -0.003570
# 3 -0.003795 0.000185 0.013344 0.009764 0.007638 0.001469
# 4 0.003470 0.033007 0.009764 0.060561 0.006823 -0.003645
# 5 -0.003727 0.012275 0.007638 0.006823 0.057238 0.008405
# 6 -0.001311 -0.003570 0.001469 -0.003645 0.008405 0.034689
#
#
# Mechanical properties :
#
#
# Convention : Reuss Voigt Hill
#
# Bulk Modulus (GPa) = 15.61417 48.91535 32.26476
# Shear Modulus (GPa) = 20.12031 30.97207 25.54619
#
# Velocity S-wave (km/s) = 3.06647 3.80458 3.45529
# Velocity P-wave (km/s) = 4.45365 6.49311 5.56756
#
# Compressibility (1/GPa) = 0.06404438
#
# Stress axis : x y z
#
# Youngs Moduli (GPa) = 81.94091 22.82680 74.93767
#
# Poissons Ratio (x) = -0.02176 0.28436
# Poissons Ratio (y) = -0.07813 -0.01387
# Poissons Ratio (z) = 0.31093 -0.00422
#
# Static dielectric constant tensor:
#      x y z
#    x 4.204280 -0.067890 0.043260 
#    y -0.067890 3.532810 -0.626130 
#    z 0.043260 -0.626130 4.152360 
# 
# 
# High freq. dielectric constant tensor:
#      x y z
#    x 1.834590 0.031390 0.011530 
#    y 0.031390 1.834070 -0.027140 
#    z 0.011530 -0.027140 1.818030 
# 
# From -- ./inp_files/63483.got.cif
#   From: 2010.06.25/outbox.cif.g09.slc.cpg/sg2_32_cif.got.tgz:63483.got - 2010.06.27 13:26:56.
