data_PCOD8002797
_publ_section_title
;
Structure prediction by ZEFSAII (Michael W. Deem and Ramdas Pophale) SiO2 
 PCOD8002797
Probable space group: P -1
;
_chemical_formula_sum "Si O2"
_cell_formula_units_Z 16
_cell_length_a 20.330953
_cell_length_b 27.356208
_cell_length_c 6.813603
_cell_angle_alpha 132.789665
_cell_angle_beta 122.829142
_cell_angle_gamma 18.929089
_cell_volume 817.925355
_symmetry_space_group_name_H-M "P -1"
_symmetry_group_IT_number 2
_symmetry_cell_setting 'triclinic'
loop_
_space_group_symop_operation_xyz
x,y,z
-x,-y,-z
loop_
_atom_site_type_symbol
_atom_site_label
_atom_site_fract_x
_atom_site_fract_y
_atom_site_fract_z
Si Si1 0.198496 0.210167 0.257567
Si Si2 0.913381 0.498384 0.281511
Si Si3 0.687839 0.255045 0.075669
Si Si4 0.490759 0.103866 0.403059
Si Si5 0.889251 0.761742 0.377756
Si Si6 0.736591 0.315352 0.982054
Si Si7 0.050662 0.860707 0.555322
Si Si8 0.801189 0.366906 0.563028
O O1 0.316166 0.187215 0.420455
O O2 0.138116 0.221804 0.390675
O O3 0.965314 0.405520 0.291286
O O4 0.374349 0.023368 0.919960
O O5 0.653073 0.714377 0.385005
O O6 0.000000 0.500000 0.500000
O O7 0.062008 0.350864 0.939020
O O8 0.735170 0.268975 0.368202
O O9 0.430172 0.440761 0.169684
O O10 0.763190 0.228580 0.921433
O O11 0.824976 0.078256 0.841066
O O12 0.665067 0.974953 0.510895
O O13 0.101670 0.638016 0.334908
O O14 0.927218 0.165256 0.713488
O O15 0.500000 0.500000 0.000000
O O16 0.767258 0.356901 0.274309
O O17 0.035316 0.802693 0.485742
#
# Coordination Sequence:
#
# PCOD8002797 Si02
#       8
#     2   2   2   2   2   2   2   2
#     4   9  19  37  59  88 111 148 195 238 285 349
#     4   9  20  38  60  85 111 146 194 240 284 344
#     4  10  20  36  59  85 108 148 195 237 280 338
#     4   9  19  37  60  82 114 147 193 241 287 343
#     4  11  23  36  57  86 120 155 189 238 298 348
#     4  11  18  36  62  84 110 152 194 236 279 334
#     4  10  20  37  60  82 111 147 196 237 279 336
#     4  11  23  37  53  82 121 151 185 237 293 336
#
# _framework density 19.561686000000002
#
# number of rings (size 3 to 8) (size 9 to 14) (size 15 to 20)
#    0.000    2.000    2.500    2.250    0.000    6.000 
#    0.000    0.000    0.000    0.000    0.000    0.000 
#    0.000    0.000    0.000    0.000    0.000    0.000 
#
# Total GULP energy -198357.834880 kJ/mol
# GULP energy per Si atom -12397.364680 kJ/mol
# Density = 1.951716 g / cm^3
# Si number density = 19.561686 Si / 1000 Ang^3
#
#
#
# Elastic Constant Matrix: (Units=GPa)
#
#
# Indices 1 2 3 4 5 6 
#
# 1 89.7193 29.9542 43.1589 1.7234 -14.5084 11.6692
# 2 29.9542 109.3799 31.9810 12.8670 -1.0421 26.8064
# 3 43.1589 31.9810 68.1673 0.0793 -17.3050 15.4818
# 4 1.7234 12.8670 0.0793 29.0541 10.7751 -0.3281
# 5 -14.5084 -1.0421 -17.3050 10.7751 22.7593 -5.6884
# 6 11.6692 26.8064 15.4818 -0.3281 -5.6884 22.7412
#
#
#
# Elastic Compliance Matrix: (Units=1/GPa)
#
#
# Indices 1 2 3 4 5 6 
#
# 1 0.016669 -0.002017 -0.008466 -0.002017 0.005270 0.000877
# 2 -0.002017 0.015078 -0.003451 -0.004949 -0.004790 -0.015658
# 3 -0.008466 -0.003451 0.026890 -0.003716 0.015108 -0.006169
# 4 -0.002017 -0.004949 -0.003716 0.046146 -0.025248 0.003748
# 5 0.005270 -0.004790 0.015108 -0.025248 0.073167 0.010594
# 6 0.000877 -0.015658 -0.006169 0.003748 0.010594 0.068884
#
#
# Mechanical properties :
#
#
# Convention : Reuss Voigt Hill
#
# Bulk Modulus (GPa) = 32.50088 53.05055 42.77572
# Shear Modulus (GPa) = 17.54652 25.72241 21.63446
#
# Velocity S-wave (km/s) = 2.99822 3.63014 3.32921
# Velocity P-wave (km/s) = 5.35130 6.68947 6.05745
#
# Compressibility (1/GPa) = 0.03076839
#
# Stress axis : x y z
#
# Youngs Moduli (GPa) = 59.99225 66.32285 37.18916
#
# Poissons Ratio (x) = 0.13376 0.31485
# Poissons Ratio (y) = 0.12100 0.12833
# Poissons Ratio (z) = 0.50791 0.22887
#
# Static dielectric constant tensor:
#      x y z
#    x 3.326840 0.290740 -0.053010 
#    y 0.290740 3.845010 0.002350 
#    z -0.053010 0.002350 3.613360 
# 
# 
# High freq. dielectric constant tensor:
#      x y z
#    x 1.735060 0.020650 -0.005140 
#    y 0.020650 1.768910 0.003390 
#    z -0.005140 0.003390 1.759530 
# 
# From -- ./inp_files/55184.got.cif
#   From: 2010.06.25/outbox.cif.g09.slc.cpg/sg2_28_cif.got.tgz:55184.got - 2010.06.27 13:26:56.
