data_PCOD8002779
_publ_section_title
;
Structure prediction by ZEFSAII (Michael W. Deem and Ramdas Pophale) SiO2 
 PCOD8002779
Probable space group: P -1
;
_chemical_formula_sum "Si O2"
_cell_formula_units_Z 16
_cell_length_a 14.453097
_cell_length_b 14.844856
_cell_length_c 12.185434
_cell_angle_alpha 35.278354
_cell_angle_beta 32.195874
_cell_angle_gamma 49.541427
_cell_volume 797.029870
_symmetry_space_group_name_H-M "P -1"
_symmetry_group_IT_number 2
_symmetry_cell_setting 'triclinic'
loop_
_space_group_symop_operation_xyz
x,y,z
-x,-y,-z
loop_
_atom_site_type_symbol
_atom_site_label
_atom_site_fract_x
_atom_site_fract_y
_atom_site_fract_z
Si Si1 0.844063 0.939442 0.956828
Si Si2 0.493828 0.562667 0.822260
Si Si3 0.795077 0.940831 0.767825
Si Si4 0.816521 0.442312 0.009290
Si Si5 0.298628 0.430081 0.777075
Si Si6 0.191546 0.433814 0.642570
Si Si7 0.234365 0.929588 0.554815
Si Si8 0.530315 0.936833 0.413316
O O1 0.828925 0.752731 0.159544
O O2 0.729201 0.000903 0.109323
O O3 0.748012 0.987025 0.893549
O O4 0.053106 0.002935 0.691796
O O5 0.313007 0.492820 0.012685
O O6 0.647840 0.496367 0.665418
O O7 0.509816 0.749510 0.621587
O O8 0.500000 0.500000 0.000000
O O9 0.705200 0.029192 0.672682
O O10 0.736988 0.756965 0.989437
O O11 0.000000 0.000000 0.500000
O O12 0.791234 0.499704 0.099929
O O13 0.788796 0.255483 0.225956
O O14 0.015497 0.500094 0.712682
O O15 0.500000 0.500000 0.500000
O O16 0.217399 0.486777 0.690020
O O17 0.387565 0.001033 0.413004
O O18 0.500000 0.000000 0.500000
#
# Coordination Sequence:
#
# PCOD8002779 Si02
#       8
#     2   2   2   2   2   2   2   2
#     4   8  17  35  55  76 110 143 177 225 280 331
#     4  10  21  38  55  76 111 145 191 244 284 331
#     4   9  19  36  58  85 119 151 184 228 287 343
#     4  10  20  36  59  82 111 151 191 228 288 349
#     4  11  20  35  59  89 120 152 187 234 287 341
#     4   9  18  35  56  79 111 150 181 226 287 340
#     4   9  19  36  57  80 108 147 184 227 281 336
#     4  10  21  36  53  78 105 143 190 231 280 333
#
# _framework density 20.074531
#
# number of rings (size 3 to 8) (size 9 to 14) (size 15 to 20)
#    0.000    2.500    1.250    1.125    1.750    2.500 
#    0.000    2.500    0.000    0.000    0.000    0.000 
#    0.000    0.000    0.000    0.000    0.000    0.000 
#
# Total GULP energy -198247.987736 kJ/mol
# GULP energy per Si atom -12390.499233 kJ/mol
# Density = 2.002884 g / cm^3
# Si number density = 20.074531 Si / 1000 Ang^3
#
#
#
# Elastic Constant Matrix: (Units=GPa)
#
#
# Indices 1 2 3 4 5 6 
#
# 1 156.1888 45.7478 64.2306 35.7752 9.8508 -8.8669
# 2 45.7478 54.0755 35.0278 37.5386 -6.0383 6.7248
# 3 64.2306 35.0278 92.2006 27.4208 -4.6620 -12.7996
# 4 35.7752 37.5386 27.4208 37.0037 6.3893 1.7227
# 5 9.8508 -6.0383 -4.6620 6.3893 36.7680 4.9162
# 6 -8.8669 6.7248 -12.7996 1.7227 4.9162 28.0982
#
#
#
# Elastic Compliance Matrix: (Units=1/GPa)
#
#
# Indices 1 2 3 4 5 6 
#
# 1 0.011248 -0.011797 -0.004646 0.005537 -0.007194 0.005176
# 2 -0.011797 0.120635 -0.007097 -0.112016 0.046498 -0.037095
# 3 -0.004646 -0.007097 0.019021 -0.003134 0.001864 0.008763
# 4 0.005537 -0.112016 -0.003134 0.144847 -0.049034 0.026827
# 5 -0.007194 0.046498 0.001864 -0.049034 0.047915 -0.017927
# 6 0.005176 -0.037095 0.008763 0.026827 -0.017927 0.051584
#
#
# Mechanical properties :
#
#
# Convention : Reuss Voigt Hill
#
# Bulk Modulus (GPa) = 9.63153 65.83083 37.73118
# Shear Modulus (GPa) = 10.48354 30.87124 20.67739
#
# Velocity S-wave (km/s) = 2.28772 3.92577 3.21289
# Velocity P-wave (km/s) = 3.43315 7.30844 5.70963
#
# Compressibility (1/GPa) = 0.10382567
#
# Stress axis : x y z
#
# Youngs Moduli (GPa) = 88.90781 8.28945 52.57215
#
# Poissons Ratio (x) = 0.09779 0.24424
# Poissons Ratio (y) = 1.04881 0.37310
# Poissons Ratio (z) = 0.41305 0.05883
#
# Static dielectric constant tensor:
#      x y z
#    x 3.957190 -0.502450 -0.503340 
#    y -0.502450 1.968560 -1.248360 
#    z -0.503340 -1.248360 2.309770 
# 
# 
# High freq. dielectric constant tensor:
#      x y z
#    x 1.790580 -0.000850 -0.005160 
#    y -0.000850 1.754130 0.019340 
#    z -0.005160 0.019340 1.783640 
# 
# From -- ./inp_files/315910.got.cif
#   From: 2010.06.25/outbox.cif.g09.slc.cpg/sg2_158_cif.got.tgz:315910.got - 2010.06.27 13:26:56.
