data_PCOD8002979
_publ_section_title
;
Structure prediction by ZEFSAII (Michael W. Deem and Ramdas Pophale) SiO2 
 PCOD8002979
Probable space group: P -1
;
_chemical_formula_sum "Si O2"
_cell_formula_units_Z 16
_cell_length_a 9.166917
_cell_length_b 5.527684
_cell_length_c 17.106053
_cell_angle_alpha 75.525254
_cell_angle_beta 118.296904
_cell_angle_gamma 80.049994
_cell_volume 694.521813
_symmetry_space_group_name_H-M "P -1"
_symmetry_group_IT_number 2
_symmetry_cell_setting 'triclinic'
loop_
_space_group_symop_operation_xyz
x,y,z
-x,-y,-z
loop_
_atom_site_type_symbol
_atom_site_label
_atom_site_fract_x
_atom_site_fract_y
_atom_site_fract_z
Si Si1 0.612620 0.127180 0.623664
Si Si2 0.269188 0.858246 0.862857
Si Si3 0.722319 0.632155 0.572494
Si Si4 0.078046 0.503820 0.872476
Si Si5 0.901035 0.586318 0.286635
Si Si6 0.382340 0.066194 0.050305
Si Si7 0.306273 0.254731 0.189858
Si Si8 0.556418 0.514251 0.202393
O O1 0.694206 0.362386 0.618038
O O2 0.403308 0.254296 0.542588
O O3 0.691866 0.866368 0.609983
O O4 0.645871 0.025009 0.729767
O O5 0.183103 0.698515 0.912977
O O6 0.438424 0.902887 0.945565
O O7 0.348237 0.702078 0.818293
O O8 0.120362 0.119164 0.771083
O O9 0.927885 0.537046 0.604336
O O10 0.047544 0.581610 0.767318
O O11 0.894797 0.555693 0.864902
O O12 0.207826 0.195919 0.941239
O O13 0.717690 0.583808 0.280149
O O14 0.334993 0.219785 0.108079
O O15 0.418384 0.760931 0.102420
O O16 0.442469 0.401993 0.242413
#
# Coordination Sequence:
#
# PCOD8002979 Si02
#       8
#     2   2   2   2   2   2   2   2
#     4  10  22  39  66  95 126 154 197 254 313 360
#     4   9  20  37  57  79 113 156 206 255 298 349
#     4  10  21  40  65  98 122 153 200 257 305 365
#     4  11  21  34  57  87 111 156 208 252 298 359
#     4  10  20  36  61  85 116 156 202 252 301 358
#     4  10  22  37  54  79 121 161 200 248 302 363
#     4  11  22  37  57  85 122 160 195 249 309 366
#     4   9  22  38  53  81 120 160 200 245 304 362
#
# _framework density 23.037434000000001
#
# number of rings (size 3 to 8) (size 9 to 14) (size 15 to 20)
#    0.000    2.000    1.250    1.500    3.500    8.000 
#    0.000    0.625    0.000    6.750    0.000    0.000 
#    0.000    0.000    0.000    0.000    0.000    0.000 
#
# Total GULP energy -198235.387712 kJ/mol
# GULP energy per Si atom -12389.711732 kJ/mol
# Density = 2.298500 g / cm^3
# Si number density = 23.037434 Si / 1000 Ang^3
#
#
#
# Elastic Constant Matrix: (Units=GPa)
#
#
# Indices 1 2 3 4 5 6 
#
# 1 144.3705 33.2120 49.1158 -17.7344 32.5718 9.8670
# 2 33.2120 82.1345 16.1165 -16.4514 12.6210 15.1308
# 3 49.1158 16.1165 114.5722 -30.1437 41.2080 -2.7131
# 4 -17.7344 -16.4514 -30.1437 26.7308 -5.6475 -2.2417
# 5 32.5718 12.6210 41.2080 -5.6475 37.8503 -5.5597
# 6 9.8670 15.1308 -2.7131 -2.2417 -5.5597 26.9260
#
#
#
# Elastic Compliance Matrix: (Units=1/GPa)
#
#
# Indices 1 2 3 4 5 6 
#
# 1 0.009786 -0.001298 -0.000615 0.003067 -0.007479 -0.004208
# 2 -0.001298 0.017431 0.004234 0.011932 -0.008958 -0.009749
# 3 -0.000615 0.004234 0.022109 0.022258 -0.022016 -0.002619
# 4 0.003067 0.011932 0.022258 0.066970 -0.021513 -0.004453
# 5 -0.007479 -0.008958 -0.022016 -0.021513 0.058943 0.015936
# 6 -0.004208 -0.009749 -0.002619 -0.004453 0.015936 0.046815
#
#
# Mechanical properties :
#
#
# Convention : Reuss Voigt Hill
#
# Bulk Modulus (GPa) = 18.52893 59.77397 39.15145
# Shear Modulus (GPa) = 21.24022 34.47695 27.85859
#
# Velocity S-wave (km/s) = 3.03972 3.87274 3.48124
# Velocity P-wave (km/s) = 4.51445 6.78235 5.76110
#
# Compressibility (1/GPa) = 0.05396966
#
# Stress axis : x y z
#
# Youngs Moduli (GPa) = 102.18406 57.36755 45.23047
#
# Poissons Ratio (x) = 0.07444 0.02783
# Poissons Ratio (y) = 0.13260 -0.19153
# Poissons Ratio (z) = 0.06288 -0.24292
#
# Static dielectric constant tensor:
#      x y z
#    x 4.517600 0.531380 0.561780 
#    y 0.531380 4.740070 0.159600 
#    z 0.561780 0.159600 4.132650 
# 
# 
# High freq. dielectric constant tensor:
#      x y z
#    x 1.898860 0.006760 0.032390 
#    y 0.006760 1.928850 -0.015340 
#    z 0.032390 -0.015340 1.891480 
# 
# From -- ./inp_files/38042.got.cif
#   From: 2010.06.25/outbox.cif.g09.slc.cpg/sg2_20_cif.got.tgz:38042.got - 2010.06.27 13:26:56.
