data_PCOD8002670
_publ_section_title
;
Structure prediction by ZEFSAII (Michael W. Deem and Ramdas Pophale) SiO2 
 PCOD8002670
Probable space group: P -1
;
_chemical_formula_sum "Si O2"
_cell_formula_units_Z 16
_cell_length_a 8.815632
_cell_length_b 12.459057
_cell_length_c 13.511928
_cell_angle_alpha 83.832293
_cell_angle_beta 73.886145
_cell_angle_gamma 33.363191
_cell_volume 762.060209
_symmetry_space_group_name_H-M "P -1"
_symmetry_group_IT_number 2
_symmetry_cell_setting 'triclinic'
loop_
_space_group_symop_operation_xyz
x,y,z
-x,-y,-z
loop_
_atom_site_type_symbol
_atom_site_label
_atom_site_fract_x
_atom_site_fract_y
_atom_site_fract_z
Si Si1 0.703942 0.359992 0.734140
Si Si2 0.750284 0.755413 0.582904
Si Si3 0.761175 0.841073 0.265834
Si Si4 0.317701 0.175273 0.937884
Si Si5 0.264481 0.445841 0.895372
Si Si6 0.343377 0.433406 0.411314
Si Si7 0.866385 0.545495 0.287724
Si Si8 0.696111 0.229327 0.557295
O O1 0.494964 0.407423 0.834534
O O2 0.567286 0.556478 0.708230
O O3 0.766724 0.279746 0.620329
O O4 0.999933 0.201114 0.761210
O O5 0.597977 0.728969 0.586667
O O6 0.988230 0.655766 0.468172
O O7 0.927226 0.644612 0.663698
O O8 0.500897 0.988310 0.624434
O O9 0.633693 0.905192 0.171173
O O10 0.932855 0.632833 0.283381
O O11 0.422138 0.241552 0.918615
O O12 0.965420 0.376252 0.000553
O O13 0.500000 0.000000 0.000000
O O14 0.067006 0.531574 0.827278
O O15 0.541354 0.365478 0.472591
O O16 0.521263 0.730528 0.355452
O O17 0.000000 0.000000 0.500000
#
# Coordination Sequence:
#
# PCOD8002670 Si02
#       8
#     2   2   2   2   2   2   2   2
#     4  11  22  39  56  90 121 154 195 241 299 342
#     4  10  20  36  57  86 120 159 205 238 270 343
#     4  11  22  36  64  87 115 154 197 244 294 346
#     4  10  21  43  67  89 107 153 197 237 303 367
#     4   9  21  41  63  84 123 146 187 249 297 354
#     4  10  21  37  56  83 123 166 199 233 291 334
#     4   9  19  38  56  85 116 157 192 238 290 343
#     4  10  21  36  54  82 121 158 201 241 279 341
#
# _framework density 20.995715000000001
#
# number of rings (size 3 to 8) (size 9 to 14) (size 15 to 20)
#    0.000    2.000    1.250    1.875    1.750    1.000 
#    9.000    0.625    0.000    0.000    0.000    0.000 
#    0.000    0.000    0.000    0.000    0.000    0.000 
#
# Total GULP energy -198289.340519 kJ/mol
# GULP energy per Si atom -12393.083782 kJ/mol
# Density = 2.094793 g / cm^3
# Si number density = 20.995715 Si / 1000 Ang^3
#
#
#
# Elastic Constant Matrix: (Units=GPa)
#
#
# Indices 1 2 3 4 5 6 
#
# 1 99.2315 24.2770 18.5187 0.8810 -11.0215 0.0595
# 2 24.2770 51.9986 7.8710 -2.8189 -7.9484 -1.2239
# 3 18.5187 7.8710 64.2633 1.4813 -11.4039 4.6656
# 4 0.8810 -2.8189 1.4813 38.2577 7.7096 -2.1087
# 5 -11.0215 -7.9484 -11.4039 7.7096 36.4690 -5.1122
# 6 0.0595 -1.2239 4.6656 -2.1087 -5.1122 20.6185
#
#
#
# Elastic Compliance Matrix: (Units=1/GPa)
#
#
# Indices 1 2 3 4 5 6 
#
# 1 0.011990 -0.004939 -0.002513 -0.000919 0.002047 0.000655
# 2 -0.004939 0.022290 -0.000959 0.001297 0.003137 0.002465
# 3 -0.002513 -0.000959 0.017452 -0.001750 0.004427 -0.003080
# 4 -0.000919 0.001297 -0.001750 0.027658 -0.006140 0.001782
# 5 0.002047 0.003137 0.004427 -0.006140 0.032326 0.006565
# 6 0.000655 0.002465 -0.003080 0.001782 0.006565 0.051152
#
#
# Mechanical properties :
#
#
# Convention : Reuss Voigt Hill
#
# Bulk Modulus (GPa) = 28.64509 35.20298 31.92404
# Shear Modulus (GPa) = 26.13325 30.05749 28.09537
#
# Velocity S-wave (km/s) = 3.53185 3.78776 3.66204
# Velocity P-wave (km/s) = 5.50499 5.99438 5.75489
#
# Compressibility (1/GPa) = 0.03490999
#
# Stress axis : x y z
#
# Youngs Moduli (GPa) = 83.40341 44.86290 57.29918
#
# Poissons Ratio (x) = 0.22157 0.14401
# Poissons Ratio (y) = 0.41192 0.05495
# Poissons Ratio (z) = 0.20961 0.04303
#
# Static dielectric constant tensor:
#      x y z
#    x 4.008250 0.087960 -0.030800 
#    y 0.087960 3.530010 -0.162970 
#    z -0.030800 -0.162970 3.903900 
# 
# 
# High freq. dielectric constant tensor:
#      x y z
#    x 1.828380 0.003600 0.006470 
#    y 0.003600 1.805110 -0.011870 
#    z 0.006470 -0.011870 1.816550 
# 
# From -- ./inp_files/207200.got.cif
#   From: 2010.06.25/outbox.cif.g09.slc.cpg/sg2_104_cif.got.tgz:207200.got - 2010.06.27 13:26:56.
