data_PCOD8002108
_publ_section_title
;
Structure prediction by ZEFSAII (Michael W. Deem and Ramdas Pophale) SiO2 
 PCOD8002108
Probable space group: P -1
;
_chemical_formula_sum "Si O2"
_cell_formula_units_Z 12
_cell_length_a 10.742799
_cell_length_b 10.299627
_cell_length_c 11.694846
_cell_angle_alpha 101.162002
_cell_angle_beta 100.570654
_cell_angle_gamma 26.454528
_cell_volume 565.403111
_symmetry_space_group_name_H-M "P -1"
_symmetry_group_IT_number 2
_symmetry_cell_setting 'triclinic'
loop_
_space_group_symop_operation_xyz
x,y,z
-x,-y,-z
loop_
_atom_site_type_symbol
_atom_site_label
_atom_site_fract_x
_atom_site_fract_y
_atom_site_fract_z
Si Si1 0.690647 0.643253 0.516798
Si Si2 0.935620 0.262907 0.155033
Si Si3 0.653405 0.288699 0.247218
Si Si4 0.777180 0.841860 0.628008
Si Si5 0.559258 0.293061 0.995301
Si Si6 0.133308 0.777263 0.391597
O O1 0.636508 0.826728 0.615360
O O2 0.734722 0.476807 0.575814
O O3 0.960575 0.416214 0.451106
O O4 0.436587 0.858718 0.420829
O O5 0.826441 0.254024 0.223904
O O6 0.121211 0.199226 0.239766
O O7 0.672967 0.572545 0.094138
O O8 0.129551 0.023201 0.048238
O O9 0.540241 0.295147 0.129981
O O10 0.398058 0.586448 0.331039
O O11 0.869961 0.994061 0.302643
O O12 0.500000 0.500000 0.000000
O O13 0.000000 0.000000 0.500000
#
# Coordination Sequence:
#
# PCOD8002108 Si02
#       6
#     2   2   2   2   2   2
#     4  10  22  39  57  83 114 151 190 231 285 330
#     4  11  20  35  60  85 109 145 195 236 281 330
#     4  11  22  37  56  83 121 151 181 235 289 339
#     4  10  21  39  61  81 110 147 195 243 272 327
#     4  10  20  35  55  83 114 146 187 235 284 330
#     4  12  24  37  57  85 120 155 187 223 285 358
#
# _framework density 21.223796
#
# number of rings (size 3 to 8) (size 9 to 14) (size 15 to 20)
#    0.000    1.333    0.000    8.500    0.000    4.000 
#    0.000    0.000    0.000    6.000    0.000    0.000 
#    0.000    0.000    0.000    0.000    0.000    0.000 
#
# Total GULP energy -148681.501314 kJ/mol
# GULP energy per Si atom -12390.125110 kJ/mol
# Density = 2.117549 g / cm^3
# Si number density = 21.223796 Si / 1000 Ang^3
#
#
#
# Elastic Constant Matrix: (Units=GPa)
#
#
# Indices 1 2 3 4 5 6 
#
# 1 57.4996 31.2865 47.2614 -6.2748 7.2830 3.3574
# 2 31.2865 157.3742 68.7411 -14.6623 -5.3986 -9.1134
# 3 47.2614 68.7411 142.0531 -18.0212 8.7184 0.0139
# 4 -6.2748 -14.6623 -18.0212 61.1131 -12.3306 -4.5457
# 5 7.2830 -5.3986 8.7184 -12.3306 27.3057 -3.4451
# 6 3.3574 -9.1134 0.0139 -4.5457 -3.4451 30.5059
#
#
#
# Elastic Compliance Matrix: (Units=1/GPa)
#
#
# Indices 1 2 3 4 5 6 
#
# 1 0.025502 -0.002648 -0.007027 -0.001729 -0.006440 -0.004580
# 2 -0.002648 0.009020 -0.003521 0.002168 0.005083 0.003885
# 3 -0.007027 -0.003521 0.011372 0.001390 -0.001861 -0.000287
# 4 -0.001729 0.002168 0.001390 0.019463 0.009847 0.004850
# 5 -0.006440 0.005083 -0.001861 0.009847 0.045501 0.008834
# 6 -0.004580 0.003885 -0.000287 0.004850 0.008834 0.036166
#
#
# Mechanical properties :
#
#
# Convention : Reuss Voigt Hill
#
# Bulk Modulus (GPa) = 51.27545 72.38944 61.83245
# Shear Modulus (GPa) = 27.79051 37.76080 32.77565
#
# Velocity S-wave (km/s) = 3.62249 4.22260 3.93401
# Velocity P-wave (km/s) = 6.45821 7.61285 7.05918
#
# Compressibility (1/GPa) = 0.01950251
#
# Stress axis : x y z
#
# Youngs Moduli (GPa) = 39.21190 110.86294 87.93395
#
# Poissons Ratio (x) = 0.29354 0.61792
# Poissons Ratio (y) = 0.10382 0.30964
# Poissons Ratio (z) = 0.27555 0.39038
#
# Static dielectric constant tensor:
#      x y z
#    x 3.094000 -0.567830 -3.853490 
#    y -0.567830 4.331490 -3.190790 
#    z -3.853490 -3.190790 -26.207160 
# 
# 
# High freq. dielectric constant tensor:
#      x y z
#    x 1.776740 -0.015930 0.013040 
#    y -0.015930 1.864030 -0.007650 
#    z 0.013040 -0.007650 1.841270 
# 
# From -- ./inp_files/426198.got.cif
#   From: 2010.06.25/outbox.cif.g09.slc.cpg/sg2_214_cif.got.tgz:426198.got - 2010.06.27 13:26:56.
