data_PCOD8002962
_publ_section_title
;
Structure prediction by ZEFSAII (Michael W. Deem and Ramdas Pophale) SiO2 
 PCOD8002962
Probable space group: P -1
;
_chemical_formula_sum "Si O2"
_cell_formula_units_Z 16
_cell_length_a 15.473112
_cell_length_b 15.128332
_cell_length_c 12.088375
_cell_angle_alpha 38.956275
_cell_angle_beta 153.764348
_cell_angle_gamma 133.931897
_cell_volume 786.403209
_symmetry_space_group_name_H-M "P -1"
_symmetry_group_IT_number 2
_symmetry_cell_setting 'triclinic'
loop_
_space_group_symop_operation_xyz
x,y,z
-x,-y,-z
loop_
_atom_site_type_symbol
_atom_site_label
_atom_site_fract_x
_atom_site_fract_y
_atom_site_fract_z
Si Si1 0.709366 0.914489 0.209788
Si Si2 0.195351 0.088944 0.123898
Si Si3 0.080298 0.392828 0.788763
Si Si4 0.442816 0.459333 0.286148
Si Si5 0.531167 0.302431 0.752949
Si Si6 0.098288 0.795154 0.823156
Si Si7 0.780178 0.295822 0.718055
Si Si8 0.403549 0.996631 0.243939
O O1 0.541283 0.855870 0.154495
O O2 0.884078 0.796802 0.522435
O O3 0.796702 0.056244 0.219491
O O4 0.620586 0.934002 0.969235
O O5 0.363886 0.006745 0.465951
O O6 0.275473 0.092975 0.086464
O O7 0.161079 0.248472 0.968571
O O8 0.000000 0.000000 0.000000
O O9 0.000000 0.500000 0.500000
O O10 0.903722 0.361573 0.698417
O O11 0.250668 0.466603 0.982597
O O12 0.409242 0.358299 0.452227
O O13 0.498408 0.610817 0.252403
O O14 0.622842 0.410894 0.464438
O O15 0.761259 0.312624 0.976636
O O16 0.082037 0.753807 0.973695
O O17 0.668929 0.161823 0.674104
#
# Coordination Sequence:
#
# PCOD8002962 Si02
#       8
#     2   2   2   2   2   2   2   2
#     4  10  20  36  60  96 121 154 199 261 302 363
#     4  11  23  43  65  90 122 164 212 259 310 368
#     4  12  26  41  64  93 123 166 212 261 312 370
#     4  10  23  41  60  86 124 168 207 246 313 377
#     4  10  21  39  62  87 124 166 204 249 307 374
#     4   9  20  36  61  92 125 153 202 249 313 366
#     4  10  20  42  62  86 122 166 199 254 311 367
#     4  10  22  39  65  90 121 162 207 251 315 367
#
# _framework density 20.345796
#
# number of rings (size 3 to 8) (size 9 to 14) (size 15 to 20)
#    0.000    1.750    2.500    1.125    0.000    5.500 
#    2.250    3.750    0.000    0.000    0.000    0.000 
#    0.000    0.000    0.000    0.000    0.000    0.000 
#
# Total GULP energy -198371.380287 kJ/mol
# GULP energy per Si atom -12398.211268 kJ/mol
# Density = 2.029949 g / cm^3
# Si number density = 20.345796 Si / 1000 Ang^3
#
#
#
# Elastic Constant Matrix: (Units=GPa)
#
#
# Indices 1 2 3 4 5 6 
#
# 1 87.8794 41.6157 29.6495 -9.8426 21.2355 3.0052
# 2 41.6157 54.2804 24.9689 -1.4199 1.1925 -0.3456
# 3 29.6495 24.9689 92.2101 10.9924 8.0345 6.3501
# 4 -9.8426 -1.4199 10.9924 27.0733 4.5366 2.3654
# 5 21.2355 1.1925 8.0345 4.5366 24.3200 -6.5579
# 6 3.0052 -0.3456 6.3501 2.3654 -6.5579 37.1024
#
#
#
# Elastic Compliance Matrix: (Units=1/GPa)
#
#
# Indices 1 2 3 4 5 6 
#
# 1 0.034351 -0.023632 -0.003306 0.019117 -0.033912 -0.009649
# 2 -0.023632 0.037691 -0.004090 -0.009669 0.024054 0.007833
# 3 -0.003306 -0.004090 0.014025 -0.006816 -0.000780 -0.001874
# 4 0.019117 -0.009669 -0.006816 0.051186 -0.025749 -0.008286
# 5 -0.033912 0.024054 -0.000780 -0.025749 0.079688 0.018831
# 6 -0.009649 0.007833 -0.001874 -0.008286 0.018831 0.031984
#
#
# Mechanical properties :
#
#
# Convention : Reuss Voigt Hill
#
# Bulk Modulus (GPa) = 41.64713 47.42647 44.53680
# Shear Modulus (GPa) = 15.67464 26.90818 21.29141
#
# Velocity S-wave (km/s) = 2.77864 3.64062 3.23844
# Velocity P-wave (km/s) = 5.55054 6.40570 5.99339
#
# Compressibility (1/GPa) = 0.02401126
#
# Stress axis : x y z
#
# Youngs Moduli (GPa) = 29.11083 26.53143 71.30182
#
# Poissons Ratio (x) = 0.62700 0.23571
# Poissons Ratio (y) = 0.68795 0.29162
# Poissons Ratio (z) = 0.09624 0.10851
#
# Static dielectric constant tensor:
#      x y z
#    x 3.688990 -0.119630 0.126460 
#    y -0.119630 3.587720 0.048040 
#    z 0.126460 0.048040 3.861020 
# 
# 
# High freq. dielectric constant tensor:
#      x y z
#    x 1.800700 -0.004480 0.009480 
#    y -0.004480 1.786380 0.003410 
#    z 0.009480 0.003410 1.801870 
# 
# From -- ./inp_files/434230.got.cif
#   From: 2010.06.25/outbox.cif.g09.slc.cpg/sg2_218_cif.got.tgz:434230.got - 2010.06.27 13:26:56.
