data_PCOD8002482
_publ_section_title
;
Structure prediction by ZEFSAII (Michael W. Deem and Ramdas Pophale) SiO2 
 PCOD8002482
Probable space group: P -1
;
_chemical_formula_sum "Si O2"
_cell_formula_units_Z 16
_cell_length_a 21.862513
_cell_length_b 8.272562
_cell_length_c 11.570534
_cell_angle_alpha 128.379796
_cell_angle_beta 140.150060
_cell_angle_gamma 34.325167
_cell_volume 755.626788
_symmetry_space_group_name_H-M "P -1"
_symmetry_group_IT_number 2
_symmetry_cell_setting 'triclinic'
loop_
_space_group_symop_operation_xyz
x,y,z
-x,-y,-z
loop_
_atom_site_type_symbol
_atom_site_label
_atom_site_fract_x
_atom_site_fract_y
_atom_site_fract_z
Si Si1 0.530389 0.331978 0.301338
Si Si2 0.094325 0.209222 0.929442
Si Si3 0.870455 0.321311 0.943407
Si Si4 0.750081 0.392682 0.021771
Si Si5 0.204926 0.217237 0.651685
Si Si6 0.973531 0.584215 0.313830
Si Si7 0.524009 0.139185 0.447312
Si Si8 0.701007 0.773543 0.737465
O O1 0.551147 0.144000 0.355495
O O2 0.528879 0.573405 0.440658
O O3 0.654987 0.109109 0.299596
O O4 0.395548 0.476664 0.101406
O O5 0.030368 0.253811 0.729834
O O6 0.126347 0.940427 0.913101
O O7 0.239011 0.099207 0.077445
O O8 0.000000 0.500000 0.000000
O O9 0.814344 0.428135 0.777696
O O10 0.754194 0.402737 0.892089
O O11 0.911753 0.477411 0.120209
O O12 0.000000 0.000000 0.000000
O O13 0.773467 0.575710 0.196995
O O14 0.121198 0.216918 0.626874
O O15 0.123946 0.327378 0.462292
O O16 0.423248 0.100847 0.305315
O O17 0.660993 0.855222 0.581252
#
# Coordination Sequence:
#
# PCOD8002482 Si02
#       8
#     2   2   2   2   2   2   2   2
#     4  11  22  39  64  89 122 161 210 253 315 358
#     4  11  23  39  65  92 125 157 198 263 314 358
#     4  10  20  35  63  87 119 158 196 254 317 361
#     4  11  21  40  58  89 120 159 212 247 301 369
#     4  10  23  41  64  84 120 172 204 247 301 375
#     4   9  22  42  59  87 125 153 210 253 295 376
#     4  10  22  36  63  89 124 156 199 270 300 366
#     4  10  20  38  54  91 126 150 191 248 318 352
#
# _framework density 21.174474
#
# number of rings (size 3 to 8) (size 9 to 14) (size 15 to 20)
#    0.000    1.750    2.500    1.875    3.500    0.500 
#    2.250    3.125    0.000    0.000    0.000    0.000 
#    0.000    0.000    0.000    0.000    0.000    0.000 
#
# Total GULP energy -198213.031290 kJ/mol
# GULP energy per Si atom -12388.314456 kJ/mol
# Density = 2.112628 g / cm^3
# Si number density = 21.174474 Si / 1000 Ang^3
#
#
#
# Elastic Constant Matrix: (Units=GPa)
#
#
# Indices 1 2 3 4 5 6 
#
# 1 66.3200 31.3156 27.9353 -7.1631 -9.7410 5.7178
# 2 31.3156 115.9017 24.2731 -25.1593 -15.8716 -1.3122
# 3 27.9353 24.2731 68.8190 -23.6715 -9.0600 -1.8981
# 4 -7.1631 -25.1593 -23.6715 33.5788 8.9359 -2.2162
# 5 -9.7410 -15.8716 -9.0600 8.9359 38.3052 -12.1823
# 6 5.7178 -1.3122 -1.8981 -2.2162 -12.1823 31.6664
#
#
#
# Elastic Compliance Matrix: (Units=1/GPa)
#
#
# Indices 1 2 3 4 5 6 
#
# 1 0.021107 -0.005075 -0.008869 -0.006161 0.001161 -0.004538
# 2 -0.005075 0.011976 0.001103 0.008063 0.003078 0.003227
# 3 -0.008869 0.001103 0.023342 0.015258 0.001677 0.004759
# 4 -0.006161 0.008063 0.015258 0.046653 -0.004228 0.003999
# 5 0.001161 0.003078 0.001677 -0.004228 0.033010 0.012422
# 6 -0.004538 0.003227 0.004759 0.003999 0.012422 0.037876
#
#
# Mechanical properties :
#
#
# Convention : Reuss Voigt Hill
#
# Bulk Modulus (GPa) = 32.52708 46.45431 39.49069
# Shear Modulus (GPa) = 23.82146 31.87787 27.84967
#
# Velocity S-wave (km/s) = 3.35775 3.88427 3.63057
# Velocity P-wave (km/s) = 5.51611 6.48870 6.02207
#
# Compressibility (1/GPa) = 0.03074362
#
# Stress axis : x y z
#
# Youngs Moduli (GPa) = 47.37751 83.49736 42.84103
#
# Poissons Ratio (x) = 0.42377 0.37997
# Poissons Ratio (y) = 0.24045 -0.04727
# Poissons Ratio (z) = 0.42020 -0.09214
#
# Static dielectric constant tensor:
#      x y z
#    x 4.495310 0.419660 -0.261240 
#    y 0.419660 3.773970 -0.499250 
#    z -0.261240 -0.499250 4.040410 
# 
# 
# High freq. dielectric constant tensor:
#      x y z
#    x 1.833540 0.016150 0.009810 
#    y 0.016150 1.811470 -0.034320 
#    z 0.009810 -0.034320 1.828520 
# 
# From -- ./inp_files/272414.got.cif
#   From: 2010.06.25/outbox.cif.g09.slc.cpg/sg2_137_cif.got.tgz:272414.got - 2010.06.27 13:26:56.
