data_PCOD8002819
_publ_section_title
;
Structure prediction by ZEFSAII (Michael W. Deem and Ramdas Pophale) SiO2 
 PCOD8002819
Probable space group: P -1
;
_chemical_formula_sum "Si O2"
_cell_formula_units_Z 14
_cell_length_a 8.529814
_cell_length_b 7.381726
_cell_length_c 20.448362
_cell_angle_alpha 129.244558
_cell_angle_beta 138.156091
_cell_angle_gamma 51.336937
_cell_volume 635.169224
_symmetry_space_group_name_H-M "P -1"
_symmetry_group_IT_number 2
_symmetry_cell_setting 'triclinic'
loop_
_space_group_symop_operation_xyz
x,y,z
-x,-y,-z
loop_
_atom_site_type_symbol
_atom_site_label
_atom_site_fract_x
_atom_site_fract_y
_atom_site_fract_z
Si Si1 0.243657 0.434684 0.977361
Si Si2 0.717233 0.127559 0.586132
Si Si3 0.006712 0.135973 0.916939
Si Si4 0.364903 0.909998 0.310871
Si Si5 0.078353 0.294843 0.531589
Si Si6 0.778755 0.415766 0.137118
Si Si7 0.811476 0.523799 0.626711
O O1 0.034611 0.674604 0.992970
O O2 0.504115 0.459560 0.087994
O O3 0.225553 0.416684 0.889372
O O4 0.200101 0.191920 0.938849
O O5 0.794916 0.147833 0.690413
O O6 0.646351 0.395381 0.590556
O O7 0.500000 0.000000 0.500000
O O8 0.929352 0.953232 0.565654
O O9 0.749159 0.158875 0.805925
O O10 0.117036 0.865574 0.917615
O O11 0.646343 0.742153 0.364240
O O12 0.351895 0.198492 0.374498
O O13 0.000000 0.500000 0.500000
O O14 0.885876 0.368816 0.547767
O O15 0.939232 0.483406 0.259305
#
# Coordination Sequence:
#
# PCOD8002819 Si02
#       7
#     2   2   2   2   2   2   2
#     4  10  20  36  59  86 120 150 191 235 284 347
#     4  10  22  40  60  84 116 153 199 241 292 350
#     4  10  20  36  60  85 117 156 189 235 288 339
#     4  10  22  40  59  87 120 153 199 243 290 348
#     4  11  22  40  61  86 117 153 198 245 292 351
#     4  10  21  36  59  87 117 150 194 235 287 346
#     4  11  22  40  62  85 119 158 193 247 295 340
#
# _framework density 22.041371000000002
#
# number of rings (size 3 to 8) (size 9 to 14) (size 15 to 20)
#    0.000    1.714    1.429    3.000    0.000    2.286 
#    5.143    0.000    6.286    0.000    0.000    0.000 
#    0.000    0.000    0.000    0.000    0.000    0.000 
#
# Total GULP energy -173529.764672 kJ/mol
# GULP energy per Si atom -12394.983191 kJ/mol
# Density = 2.199120 g / cm^3
# Si number density = 22.041371 Si / 1000 Ang^3
#
#
#
# Elastic Constant Matrix: (Units=GPa)
#
#
# Indices 1 2 3 4 5 6 
#
# 1 66.5064 48.0107 22.1975 -5.3086 10.5202 10.3870
# 2 48.0107 99.9829 14.4834 -6.3417 5.4513 19.2277
# 3 22.1975 14.4834 31.4407 -4.3815 3.5867 3.2220
# 4 -5.3086 -6.3417 -4.3815 30.0556 -3.1943 0.6050
# 5 10.5202 5.4513 3.5867 -3.1943 32.3078 5.0048
# 6 10.3870 19.2277 3.2220 0.6050 5.0048 36.4806
#
#
#
# Elastic Compliance Matrix: (Units=1/GPa)
#
#
# Indices 1 2 3 4 5 6 
#
# 1 0.029220 -0.011571 -0.014617 -0.000039 -0.005925 -0.000117
# 2 -0.011571 0.016519 0.001205 0.001941 0.001940 -0.005817
# 3 -0.014617 0.001205 0.042103 0.003849 0.000309 -0.000298
# 4 -0.000039 0.001941 0.003849 0.034606 0.003042 -0.002343
# 5 -0.005925 0.001940 0.000309 0.003042 0.033441 -0.004001
# 6 -0.000117 -0.005817 -0.000298 -0.002343 -0.004001 0.031125
#
#
# Mechanical properties :
#
#
# Convention : Reuss Voigt Hill
#
# Bulk Modulus (GPa) = 26.40222 40.81258 33.60740
# Shear Modulus (GPa) = 20.03163 27.31803 23.67483
#
# Velocity S-wave (km/s) = 3.01793 3.52433 3.28092
# Velocity P-wave (km/s) = 4.91410 5.92602 5.44363
#
# Compressibility (1/GPa) = 0.03787560
#
# Stress axis : x y z
#
# Youngs Moduli (GPa) = 34.22300 60.53508 23.75153
#
# Poissons Ratio (x) = 0.70043 0.34718
# Poissons Ratio (y) = 0.39598 -0.02861
# Poissons Ratio (z) = 0.50024 -0.07292
#
# Static dielectric constant tensor:
#      x y z
#    x 3.981410 0.155040 -0.250250 
#    y 0.155040 4.079160 -0.047150 
#    z -0.250250 -0.047150 3.977980 
# 
# 
# High freq. dielectric constant tensor:
#      x y z
#    x 1.862530 0.011460 -0.011480 
#    y 0.011460 1.874660 -0.006890 
#    z -0.011480 -0.006890 1.860560 
# 
# From -- ./inp_files/126257.got.cif
#   From: 2010.06.25/outbox.cif.g09.slc.cpg/sg2_64_cif.got.tgz:126257.got - 2010.06.27 13:26:56.
