data_PCOD8002180
_publ_section_title
;
Structure prediction by ZEFSAII (Michael W. Deem and Ramdas Pophale) SiO2 
 PCOD8002180
Probable space group: P -1
;
_chemical_formula_sum "Si O2"
_cell_formula_units_Z 16
_cell_length_a 8.984897
_cell_length_b 19.349499
_cell_length_c 15.900244
_cell_angle_alpha 18.875427
_cell_angle_beta 103.892639
_cell_angle_gamma 100.288616
_cell_volume 857.674280
_symmetry_space_group_name_H-M "P -1"
_symmetry_group_IT_number 2
_symmetry_cell_setting 'triclinic'
loop_
_space_group_symop_operation_xyz
x,y,z
-x,-y,-z
loop_
_atom_site_type_symbol
_atom_site_label
_atom_site_fract_x
_atom_site_fract_y
_atom_site_fract_z
Si Si1 0.581847 0.202606 0.793972
Si Si2 0.743709 0.632562 0.025831
Si Si3 0.365969 0.692933 0.729779
Si Si4 0.827688 0.007803 0.504873
Si Si5 0.473457 0.345726 0.794667
Si Si6 0.137346 0.372211 0.765308
Si Si7 0.537799 0.084423 0.266020
Si Si8 0.068497 0.815832 0.160421
O O1 0.554009 0.277211 0.798518
O O2 0.526250 0.393888 0.498044
O O3 0.763723 0.133141 0.895983
O O4 0.500000 0.000000 0.000000
O O5 0.565107 0.749660 0.875812
O O6 0.838860 0.776515 0.816609
O O7 0.738477 0.402245 0.245853
O O8 0.832752 0.609848 0.152422
O O9 0.243580 0.795880 0.667320
O O10 0.448862 0.877033 0.484280
O O11 0.500000 0.500000 0.000000
O O12 0.709706 0.013556 0.404830
O O13 0.000000 0.000000 0.500000
O O14 0.298024 0.298557 0.823232
O O15 0.561998 0.207408 0.040979
O O16 0.057182 0.602904 0.457346
O O17 0.026666 0.197353 0.925137
O O18 0.000000 0.000000 0.000000
#
# Coordination Sequence:
#
# PCOD8002180 Si02
#       8
#     2   2   2   2   2   2   2   2
#     4  10  20  36  56  83 113 149 190 233 285 340
#     4  10  20  38  60  82 111 155 201 240 285 354
#     4  11  19  38  65  84 112 154 205 241 286 353
#     4  11  23  37  56  87 123 152 186 248 304 343
#     4   9  20  36  57  80 112 147 191 235 281 338
#     4   9  20  36  57  83 109 148 194 236 285 337
#     4  10  20  37  60  84 111 152 197 241 289 350
#     4  10  20  35  57  81 116 149 187 238 288 343
#
# _framework density 18.655100999999998
#
# number of rings (size 3 to 8) (size 9 to 14) (size 15 to 20)
#    0.000    2.000    2.500    1.500    0.000    8.500 
#    0.000    0.000    0.000    0.000    0.000    0.000 
#    0.000    0.000    0.000    0.000    0.000    0.000 
#
# Total GULP energy -198269.690457 kJ/mol
# GULP energy per Si atom -12391.855654 kJ/mol
# Density = 1.861264 g / cm^3
# Si number density = 18.655101 Si / 1000 Ang^3
#
#
#
# Elastic Constant Matrix: (Units=GPa)
#
#
# Indices 1 2 3 4 5 6 
#
# 1 123.3495 77.1813 59.0064 -0.3589 -9.0365 5.9337
# 2 77.1813 125.7281 61.4013 -11.2080 -4.5062 12.4068
# 3 59.0064 61.4013 95.1926 -0.3860 -12.7704 5.6269
# 4 -0.3589 -11.2080 -0.3860 34.1812 -1.6955 -7.1246
# 5 -9.0365 -4.5062 -12.7704 -1.6955 27.3249 -3.6010
# 6 5.9337 12.4068 5.6269 -7.1246 -3.6010 28.5305
#
#
#
# Elastic Compliance Matrix: (Units=1/GPa)
#
#
# Indices 1 2 3 4 5 6 
#
# 1 0.014712 -0.007067 -0.004389 -0.002012 0.001600 0.000578
# 2 -0.007067 0.015832 -0.005970 0.004177 -0.002724 -0.003538
# 3 -0.004389 -0.005970 0.017835 -0.001434 0.005859 0.000373
# 4 -0.002012 0.004177 -0.001434 0.032207 0.002303 0.007218
# 5 0.001600 -0.002724 0.005859 0.002303 0.040263 0.005353
# 6 0.000578 -0.003538 0.000373 0.007218 0.005353 0.038873
#
#
# Mechanical properties :
#
#
# Convention : Reuss Voigt Hill
#
# Bulk Modulus (GPa) = 73.93267 82.16091 78.04679
# Shear Modulus (GPa) = 25.11520 27.78605 26.45063
#
# Velocity S-wave (km/s) = 3.67317 3.86354 3.76956
# Velocity P-wave (km/s) = 7.59651 8.00252 7.80215
#
# Compressibility (1/GPa) = 0.01352582
#
# Stress axis : x y z
#
# Youngs Moduli (GPa) = 67.97178 63.16468 56.07091
#
# Poissons Ratio (x) = 0.44640 0.24607
# Poissons Ratio (y) = 0.48037 0.33476
# Poissons Ratio (z) = 0.29830 0.37712
#
# Static dielectric constant tensor:
#      x y z
#    x 3.934860 -0.153250 -0.426760 
#    y -0.153250 3.521000 0.166510 
#    z -0.426760 0.166510 4.039460 
# 
# 
# High freq. dielectric constant tensor:
#      x y z
#    x 1.716120 0.001360 -0.000070 
#    y 0.001360 1.724520 -0.001600 
#    z -0.000070 -0.001600 1.730530 
# 
# From -- ./inp_files/94437.got.cif
#   From: 2010.06.25/outbox.cif.g09.slc.cpg/sg2_48_cif.got.tgz:94437.got - 2010.06.27 13:26:56.
