data_PCOD8002325
_publ_section_title
;
Structure prediction by ZEFSAII (Michael W. Deem and Ramdas Pophale) SiO2 
 PCOD8002325
Probable space group: P -1
;
_chemical_formula_sum "Si O2"
_cell_formula_units_Z 14
_cell_length_a 15.820500
_cell_length_b 10.958040
_cell_length_c 7.495448
_cell_angle_alpha 86.882330
_cell_angle_beta 121.020586
_cell_angle_gamma 47.290444
_cell_volume 627.733124
_symmetry_space_group_name_H-M "P -1"
_symmetry_group_IT_number 2
_symmetry_cell_setting 'triclinic'
loop_
_space_group_symop_operation_xyz
x,y,z
-x,-y,-z
loop_
_atom_site_type_symbol
_atom_site_label
_atom_site_fract_x
_atom_site_fract_y
_atom_site_fract_z
Si Si1 0.571505 0.588441 0.704013
Si Si2 0.502512 0.785845 0.968245
Si Si3 0.041448 0.815259 0.781563
Si Si4 0.589769 0.297033 0.837013
Si Si5 0.125511 0.247520 0.482409
Si Si6 0.137549 0.497513 0.495567
Si Si7 0.997466 0.121529 0.673985
O O1 0.524888 0.501611 0.731716
O O2 0.467152 0.722203 0.398071
O O3 0.513599 0.746909 0.773397
O O4 0.777781 0.389959 0.902563
O O5 0.507739 0.656270 0.099861
O O6 0.661607 0.708571 0.207855
O O7 0.320769 0.040345 0.789027
O O8 0.914667 0.828669 0.683921
O O9 0.088039 0.785474 0.624110
O O10 0.952708 0.036461 0.726910
O O11 0.796036 0.074323 0.104261
O O12 0.106679 0.402371 0.358395
O O13 0.986273 0.379545 0.477094
O O14 0.084781 0.678459 0.320876
#
# Coordination Sequence:
#
# PCOD8002325 Si02
#       7
#     2   2   2   2   2   2   2
#     4  10  21  36  58  92 127 156 197 250 300 356
#     4  12  20  36  64  88 113 166 203 238 301 366
#     4   9  16  33  58  83 115 155 194 242 296 348
#     4  10  21  36  58  92 127 156 197 250 300 356
#     4  10  20  35  59  89 120 158 202 247 296 356
#     4  10  20  35  59  89 120 158 202 247 296 356
#     4   9  16  33  58  83 115 155 194 242 296 348
#
# _framework density 22.30247
#
# number of rings (size 3 to 8) (size 9 to 14) (size 15 to 20)
#    0.000    2.000    5.714    0.857    0.000    1.143 
#    0.000    1.429    0.000   14.571    0.000    0.000 
#    0.000    0.000    0.000    0.000    0.000    0.000 
#
# Total GULP energy -173460.399888 kJ/mol
# GULP energy per Si atom -12390.028563 kJ/mol
# Density = 2.225171 g / cm^3
# Si number density = 22.302470 Si / 1000 Ang^3
#
#
#
# Elastic Constant Matrix: (Units=GPa)
#
#
# Indices 1 2 3 4 5 6 
#
# 1 53.9278 76.5308 25.5871 -2.6582 20.4418 31.1551
# 2 76.5308 53.6455 22.0078 2.7078 20.7117 50.9723
# 3 25.5871 22.0078 81.3203 -0.9128 23.4601 2.5402
# 4 -2.6582 2.7078 -0.9128 28.7179 -5.8908 2.8815
# 5 20.4418 20.7117 23.4601 -5.8908 29.3198 6.9064
# 6 31.1551 50.9723 2.5402 2.8815 6.9064 46.7426
#
#
#
# Elastic Compliance Matrix: (Units=1/GPa)
#
#
# Indices 1 2 3 4 5 6 
#
# 1 0.006934 0.025011 -0.004535 -0.001362 -0.012134 -0.029772
# 2 0.025011 -0.016458 -0.002348 0.002836 -0.003785 0.001788
# 3 -0.004535 -0.002348 0.017324 -0.002565 -0.011073 0.006436
# 4 -0.001362 0.002836 -0.002565 0.036931 0.009777 -0.005767
# 5 -0.012134 -0.003785 -0.011073 0.009777 0.055105 0.004072
# 6 -0.029772 0.001788 0.006436 -0.005767 0.004072 0.038692
#
#
# Mechanical properties :
#
#
# Convention : Reuss Voigt Hill
#
# Bulk Modulus (GPa) = 22.69851 48.57165 35.63508
# Shear Modulus (GPa) = 42.75077 25.27391 34.01234
#
# Velocity S-wave (km/s) = 4.38295 3.37001 3.90942
# Velocity P-wave (km/s) = 5.98442 6.08017 6.03249
#
# Compressibility (1/GPa) = 0.04405575
#
# Stress axis : x y z
#
# Youngs Moduli (GPa) = 144.21756 -60.76228 57.72379
#
# Poissons Ratio (x) = 1.51970 0.26179
# Poissons Ratio (y) = -3.60697 0.13552
# Poissons Ratio (z) = 0.65405 -0.14266
#
# Static dielectric constant tensor:
#      x y z
#    x 4.114500 0.806720 0.286920 
#    y 0.806720 4.368950 -0.024960 
#    z 0.286920 -0.024960 3.993130 
# 
# 
# High freq. dielectric constant tensor:
#      x y z
#    x 1.852020 0.030840 0.031540 
#    y 0.030840 1.862580 -0.013550 
#    z 0.031540 -0.013550 1.874370 
# 
# From -- ./inp_files/196108.got.cif
#   From: 2010.06.25/outbox.cif.g09.slc.cpg/sg2_99_cif.got.tgz:196108.got - 2010.06.27 13:26:56.
