data_PCOD8002675
_publ_section_title
;
Structure prediction by ZEFSAII (Michael W. Deem and Ramdas Pophale) SiO2 
 PCOD8002675
Probable space group: P -1
;
_chemical_formula_sum "Si O2"
_cell_formula_units_Z 16
_cell_length_a 11.598056
_cell_length_b 8.719321
_cell_length_c 18.036502
_cell_angle_alpha 118.616727
_cell_angle_beta 29.685615
_cell_angle_gamma 110.004637
_cell_volume 781.394217
_symmetry_space_group_name_H-M "P -1"
_symmetry_group_IT_number 2
_symmetry_cell_setting 'triclinic'
loop_
_space_group_symop_operation_xyz
x,y,z
-x,-y,-z
loop_
_atom_site_type_symbol
_atom_site_label
_atom_site_fract_x
_atom_site_fract_y
_atom_site_fract_z
Si Si1 0.948272 0.649999 0.732084
Si Si2 0.791871 0.038391 0.948317
Si Si3 0.219067 0.578667 0.429118
Si Si4 0.506344 0.348577 0.106763
Si Si5 0.765807 0.923223 0.096972
Si Si6 0.603314 0.078791 0.574546
Si Si7 0.209083 0.208969 0.711658
Si Si8 0.923105 0.530371 0.880842
O O1 0.710528 0.605783 0.817701
O O2 0.000973 0.569970 0.764388
O O3 0.181928 0.569423 0.536242
O O4 0.919375 0.861802 0.795955
O O5 0.995910 0.159083 0.869714
O O6 0.577117 0.141716 0.042084
O O7 0.682312 0.989721 0.076649
O O8 0.454178 0.457070 0.238544
O O9 0.233557 0.786396 0.450591
O O10 0.000000 0.500000 0.500000
O O11 0.721831 0.410329 0.958496
O O12 0.555945 0.989359 0.287581
O O13 0.827205 0.710689 0.019506
O O14 0.000000 0.000000 0.000000
O O15 0.442185 0.187645 0.626048
O O16 0.756618 0.907466 0.410383
O O17 0.145797 0.415974 0.772162
#
# Coordination Sequence:
#
# PCOD8002675 Si02
#       8
#     2   2   2   2   2   2   2   2
#     4  10  20  37  59  80 121 149 192 240 286 341
#     4  10  20  36  57  87 116 149 197 235 284 349
#     4  10  21  37  60  84 116 154 195 232 290 344
#     4  10  20  36  59  85 112 156 195 234 290 339
#     4  11  22  37  58  85 119 149 188 241 290 339
#     4  11  21  40  61  83 120 157 188 241 295 339
#     4  10  22  37  61  87 114 155 196 234 293 349
#     4  10  22  37  58  88 115 148 199 239 286 345
#
# _framework density 20.476220000000001
#
# number of rings (size 3 to 8) (size 9 to 14) (size 15 to 20)
#    0.000    1.750    3.750    0.750    0.000    2.500 
#    0.000    1.250    0.000    3.000    0.000    0.000 
#    0.000    0.000    0.000    0.000    0.000    0.000 
#
# Total GULP energy -198317.616353 kJ/mol
# GULP energy per Si atom -12394.851022 kJ/mol
# Density = 2.042962 g / cm^3
# Si number density = 20.476220 Si / 1000 Ang^3
#
#
#
# Elastic Constant Matrix: (Units=GPa)
#
#
# Indices 1 2 3 4 5 6 
#
# 1 31.9741 16.8109 6.9876 3.5354 5.8030 1.7816
# 2 16.8109 96.1342 18.1352 1.9594 4.0953 -6.4138
# 3 6.9876 18.1352 68.0980 -7.5850 20.2804 -15.0733
# 4 3.5354 1.9594 -7.5850 32.5161 -0.8998 -7.7944
# 5 5.8030 4.0953 20.2804 -0.8998 32.0019 -1.1238
# 6 1.7816 -6.4138 -15.0733 -7.7944 -1.1238 29.2795
#
#
#
# Elastic Compliance Matrix: (Units=1/GPa)
#
#
# Indices 1 2 3 4 5 6 
#
# 1 0.036999 -0.006035 -0.003123 -0.006186 -0.004377 -0.006996
# 2 -0.006035 0.012013 -0.002627 -0.000255 0.001272 0.001627
# 3 -0.003123 -0.002627 0.023722 0.008943 -0.013398 0.013693
# 4 -0.006186 -0.000255 0.008943 0.036958 -0.002960 0.014649
# 5 -0.004377 0.001272 -0.013398 -0.002960 0.040090 -0.005602
# 6 -0.006996 0.001627 0.013693 0.014649 -0.005602 0.045670
#
#
# Mechanical properties :
#
#
# Convention : Reuss Voigt Hill
#
# Bulk Modulus (GPa) = 20.34029 31.11931 25.72980
# Shear Modulus (GPa) = 21.23960 29.04435 25.14197
#
# Velocity S-wave (km/s) = 3.22418 3.77031 3.50789
# Velocity P-wave (km/s) = 4.88013 5.84674 5.38517
#
# Compressibility (1/GPa) = 0.04916350
#
# Stress axis : x y z
#
# Youngs Moduli (GPa) = 27.02772 83.24607 42.15483
#
# Poissons Ratio (x) = 0.50239 0.13166
# Poissons Ratio (y) = 0.16311 0.11073
# Poissons Ratio (z) = 0.08442 0.21867
#
# Static dielectric constant tensor:
#      x y z
#    x 3.538020 0.034600 0.243090 
#    y 0.034600 3.818620 0.023840 
#    z 0.243090 0.023840 3.958810 
# 
# 
# High freq. dielectric constant tensor:
#      x y z
#    x 1.776680 0.008020 0.017580 
#    y 0.008020 1.803050 -0.006360 
#    z 0.017580 -0.006360 1.808720 
# 
# From -- ./inp_files/179337.got.cif
#   From: 2010.06.25/outbox.cif.g09.slc.cpg/sg2_90_cif.got.tgz:179337.got - 2010.06.27 13:26:56.
