data_PCOD8002744
_publ_section_title
;
Structure prediction by ZEFSAII (Michael W. Deem and Ramdas Pophale) SiO2 
 PCOD8002744
Probable space group: P -1
;
_chemical_formula_sum "Si O2"
_cell_formula_units_Z 16
_cell_length_a 11.446321
_cell_length_b 11.815597
_cell_length_c 16.409680
_cell_angle_alpha 40.221078
_cell_angle_beta 140.107527
_cell_angle_gamma 109.750442
_cell_volume 736.244663
_symmetry_space_group_name_H-M "P -1"
_symmetry_group_IT_number 2
_symmetry_cell_setting 'triclinic'
loop_
_space_group_symop_operation_xyz
x,y,z
-x,-y,-z
loop_
_atom_site_type_symbol
_atom_site_label
_atom_site_fract_x
_atom_site_fract_y
_atom_site_fract_z
Si Si1 0.800436 0.899595 0.404726
Si Si2 0.783200 0.966823 0.095674
Si Si3 0.465981 0.225458 0.910459
Si Si4 0.186461 0.040892 0.070430
Si Si5 0.807025 0.486155 0.659765
Si Si6 0.697203 0.259118 0.270330
Si Si7 0.707919 0.310680 0.427198
Si Si8 0.526165 0.385428 0.458269
O O1 0.765098 0.715763 0.504139
O O2 0.065103 0.780841 0.596071
O O3 0.661544 0.040113 0.175175
O O4 0.699591 0.068843 0.333053
O O5 0.042330 0.870416 0.303896
O O6 0.604251 0.203511 0.913536
O O7 0.723782 0.812415 0.189013
O O8 0.724909 0.990922 0.956495
O O9 0.327081 0.467093 0.739583
O O10 0.394501 0.854709 0.338180
O O11 0.077228 0.286895 0.908267
O O12 0.000000 0.000000 0.000000
O O13 0.686303 0.452434 0.538652
O O14 0.720008 0.455941 0.716858
O O15 0.664220 0.231214 0.364047
O O16 0.500000 0.500000 0.000000
O O17 0.524225 0.374707 0.364706
#
# Coordination Sequence:
#
# PCOD8002744 Si02
#       8
#     2   2   2   2   2   2   2   2
#     4  11  24  44  66  93 125 169 218 266 313 378
#     4  11  23  36  58  98 135 161 204 253 333 384
#     4  11  25  35  61  96 131 163 202 267 322 389
#     4  10  20  36  58  87 130 169 196 242 308 390
#     4  10  22  38  64  93 131 163 202 260 313 384
#     4  11  25  46  65  90 123 173 222 264 316 364
#     4  12  23  39  64  89 132 169 207 263 312 385
#     4  10  23  38  62  99 128 168 206 251 326 382
#
# _framework density 21.731905999999999
#
# number of rings (size 3 to 8) (size 9 to 14) (size 15 to 20)
#    0.000    1.250    5.000    1.125   10.500    1.000 
#    0.000    0.625    0.000    1.500    0.000    0.000 
#    0.000    0.000    0.000    0.000    0.000    0.000 
#
# Total GULP energy -198309.813771 kJ/mol
# GULP energy per Si atom -12394.363361 kJ/mol
# Density = 2.168244 g / cm^3
# Si number density = 21.731906 Si / 1000 Ang^3
#
#
#
# Elastic Constant Matrix: (Units=GPa)
#
#
# Indices 1 2 3 4 5 6 
#
# 1 122.4286 42.0615 14.2888 -3.5948 1.6812 -39.3122
# 2 42.0615 91.9423 36.1730 -20.4730 -6.6706 -28.6630
# 3 14.2888 36.1730 83.9099 -10.2357 -0.4007 -10.3103
# 4 -3.5948 -20.4730 -10.2357 30.0391 -4.0021 -0.9942
# 5 1.6812 -6.6706 -0.4007 -4.0021 26.2676 -0.6340
# 6 -39.3122 -28.6630 -10.3103 -0.9942 -0.6340 39.9573
#
#
#
# Elastic Compliance Matrix: (Units=1/GPa)
#
#
# Indices 1 2 3 4 5 6 
#
# 1 0.012378 -0.002660 0.000296 -0.000052 -0.001222 0.010326
# 2 -0.002660 0.021811 -0.005716 0.014070 0.008056 0.012031
# 3 0.000296 -0.005716 0.014426 0.000904 -0.001115 -0.000082
# 4 -0.000052 0.014070 0.000904 0.044993 0.010724 0.011565
# 5 -0.001222 0.008056 -0.001115 0.010724 0.041937 0.005221
# 6 0.010326 0.012031 -0.000082 0.011565 0.005221 0.044166
#
#
# Mechanical properties :
#
#
# Convention : Reuss Voigt Hill
#
# Bulk Modulus (GPa) = 30.81360 53.70306 42.25833
# Shear Modulus (GPa) = 24.19079 32.96998 28.58038
#
# Velocity S-wave (km/s) = 3.34000 3.89925 3.63041
# Velocity P-wave (km/s) = 5.39295 6.71100 6.08775
#
# Compressibility (1/GPa) = 0.03245321
#
# Stress axis : x y z
#
# Youngs Moduli (GPa) = 80.78595 45.84909 69.31804
#
# Poissons Ratio (x) = 0.12197 -0.02049
# Poissons Ratio (y) = 0.21492 0.39624
# Poissons Ratio (z) = -0.02387 0.26209
#
# Static dielectric constant tensor:
#      x y z
#    x 4.224150 -0.244500 0.248630 
#    y -0.244500 3.809490 -0.404260 
#    z 0.248630 -0.404260 4.386460 
# 
# 
# High freq. dielectric constant tensor:
#      x y z
#    x 1.865420 -0.020630 0.009480 
#    y -0.020630 1.816740 -0.030040 
#    z 0.009480 -0.030040 1.862100 
# 
# From -- ./inp_files/569141.got.cif
#   From: 2010.06.25/outbox.cif.g09.slc.cpg/sg2_285_cif.got.tgz:569141.got - 2010.06.27 13:26:56.
