data_PCOD8002360
_publ_section_title
;
Structure prediction by ZEFSAII (Michael W. Deem and Ramdas Pophale) SiO2 
 PCOD8002360
Probable space group: P -1
;
_chemical_formula_sum "Si O2"
_cell_formula_units_Z 16
_cell_length_a 10.217488
_cell_length_b 26.919823
_cell_length_c 22.569142
_cell_angle_alpha 161.035024
_cell_angle_beta 153.769678
_cell_angle_gamma 39.041321
_cell_volume 772.853290
_symmetry_space_group_name_H-M "P -1"
_symmetry_group_IT_number 2
_symmetry_cell_setting 'triclinic'
loop_
_space_group_symop_operation_xyz
x,y,z
-x,-y,-z
loop_
_atom_site_type_symbol
_atom_site_label
_atom_site_fract_x
_atom_site_fract_y
_atom_site_fract_z
Si Si1 0.522644 0.949400 0.085389
Si Si2 0.876465 0.243020 0.183802
Si Si3 0.305216 0.185900 0.203448
Si Si4 0.507711 0.608935 0.875467
Si Si5 0.552511 0.337872 0.354286
Si Si6 0.250262 0.275874 0.771468
Si Si7 0.268546 0.571177 0.960086
Si Si8 0.028840 0.479354 0.101093
O O1 0.358458 0.019615 0.048943
O O2 0.299074 0.904154 0.003042
O O3 0.517961 0.777520 0.863520
O O4 0.905806 0.092951 0.419435
O O5 0.603678 0.298604 0.114934
O O6 0.968356 0.159485 0.070729
O O7 0.209898 0.406618 0.532862
O O8 0.284579 0.214106 0.156594
O O9 0.619148 0.358155 0.551703
O O10 0.873011 0.628843 0.027014
O O11 0.570554 0.709459 0.076521
O O12 0.500000 0.500000 0.500000
O O13 0.939035 0.409804 0.613603
O O14 0.197947 0.446396 0.937501
O O15 0.509558 0.280153 0.830642
O O16 0.155101 0.640791 0.050482
O O17 0.500000 0.500000 0.000000
#
# Coordination Sequence:
#
# PCOD8002360 Si02
#       8
#     2   2   2   2   2   2   2   2
#     4  11  23  40  61  89 126 163 197 252 314 362
#     4  10  22  36  62  88 120 161 207 249 301 364
#     4   9  20  39  60  90 123 153 201 253 300 363
#     4  10  20  35  60  87 120 155 207 253 298 356
#     4  11  24  39  70  93 121 159 213 254 304 363
#     4  10  20  36  58  84 126 158 198 249 307 363
#     4   9  19  37  61  88 121 158 202 248 296 368
#     4   8  17  34  58  87 115 158 201 243 294 365
#
# _framework density 20.702504999999999
#
# number of rings (size 3 to 8) (size 9 to 14) (size 15 to 20)
#    0.000    2.250    0.000    2.625    8.750    0.500 
#    0.000    4.375    2.750    0.000    0.000    0.000 
#    0.000    0.000    0.000    0.000    0.000    0.000 
#
# Total GULP energy -198363.579101 kJ/mol
# GULP energy per Si atom -12397.723694 kJ/mol
# Density = 2.065539 g / cm^3
# Si number density = 20.702505 Si / 1000 Ang^3
#
#
#
# Elastic Constant Matrix: (Units=GPa)
#
#
# Indices 1 2 3 4 5 6 
#
# 1 167.1923 41.4964 47.4167 1.1021 22.3432 6.0809
# 2 41.4964 77.7910 33.1468 2.7326 3.5129 0.0906
# 3 47.4167 33.1468 74.9717 -6.3938 2.5461 -0.7939
# 4 1.1021 2.7326 -6.3938 25.3017 3.7290 -2.5611
# 5 22.3432 3.5129 2.5461 3.7290 29.4830 0.3726
# 6 6.0809 0.0906 -0.7939 -2.5611 0.3726 28.4529
#
#
#
# Elastic Compliance Matrix: (Units=1/GPa)
#
#
# Indices 1 2 3 4 5 6 
#
# 1 0.008657 -0.002538 -0.004220 -0.000509 -0.005805 -0.001930
# 2 -0.002538 0.016932 -0.006202 -0.003414 0.000873 -0.000003
# 3 -0.004220 -0.006202 0.019202 0.005677 0.001536 0.001948
# 4 -0.000509 -0.003414 0.005677 0.042527 -0.005129 0.004173
# 5 -0.005805 0.000873 0.001536 -0.005129 0.038725 0.000312
# 6 -0.001930 -0.000003 0.001948 0.004173 0.000312 0.035984
#
#
# Mechanical properties :
#
#
# Convention : Reuss Voigt Hill
#
# Bulk Modulus (GPa) = 52.98917 62.67498 57.83208
# Shear Modulus (GPa) = 25.74180 29.84053 27.79117
#
# Velocity S-wave (km/s) = 3.53003 3.80069 3.66786
# Velocity P-wave (km/s) = 6.50123 7.04274 6.77739
#
# Compressibility (1/GPa) = 0.01887178
#
# Stress axis : x y z
#
# Youngs Moduli (GPa) = 115.51215 59.06080 52.07784
#
# Poissons Ratio (x) = 0.14987 0.21977
# Poissons Ratio (y) = 0.29311 0.32298
# Poissons Ratio (z) = 0.48747 0.36629
#
# Static dielectric constant tensor:
#      x y z
#    x 4.354800 -0.100160 0.221690 
#    y -0.100160 3.644050 -0.147690 
#    z 0.221690 -0.147690 3.251300 
# 
# 
# High freq. dielectric constant tensor:
#      x y z
#    x 1.833290 0.000850 0.007860 
#    y 0.000850 1.798900 -0.014950 
#    z 0.007860 -0.014950 1.773670 
# 
# From -- ./inp_files/592133.got.cif
#   From: 2010.06.25/outbox.cif.g09.slc.cpg/sg2_297_cif.got.tgz:592133.got - 2010.06.27 13:26:56.
