data_PCOD8002697
_publ_section_title
;
Structure prediction by ZEFSAII (Michael W. Deem and Ramdas Pophale) SiO2 
 PCOD8002697
Probable space group: P -1
;
_chemical_formula_sum "Si O2"
_cell_formula_units_Z 16
_cell_length_a 26.243335
_cell_length_b 20.772050
_cell_length_c 8.928226
_cell_angle_alpha 29.822687
_cell_angle_beta 31.480130
_cell_angle_gamma 20.437712
_cell_volume 822.626084
_symmetry_space_group_name_H-M "P -1"
_symmetry_group_IT_number 2
_symmetry_cell_setting 'triclinic'
loop_
_space_group_symop_operation_xyz
x,y,z
-x,-y,-z
loop_
_atom_site_type_symbol
_atom_site_label
_atom_site_fract_x
_atom_site_fract_y
_atom_site_fract_z
Si Si1 0.588469 0.776380 0.901663
Si Si2 0.090426 0.023998 0.150659
Si Si3 0.072948 0.550380 0.290258
Si Si4 0.398598 0.723768 0.475318
Si Si5 0.405720 0.725453 0.108792
Si Si6 0.918250 0.461537 0.353230
Si Si7 0.420463 0.198282 0.482461
Si Si8 0.083453 0.035231 0.792611
O O1 0.758379 0.603287 0.884841
O O2 0.586582 0.788372 0.704616
O O3 0.500889 0.987053 0.765536
O O4 0.508836 0.724581 0.257384
O O5 0.262652 0.840916 0.134066
O O6 0.077148 0.022787 0.009959
O O7 0.000000 0.000000 0.500000
O O8 0.022025 0.228579 0.965127
O O9 0.075004 0.529506 0.504284
O O10 0.000000 0.500000 0.500000
O O11 0.354395 0.792005 0.275480
O O12 0.476493 0.507787 0.735002
O O13 0.252593 0.873425 0.640305
O O14 0.485270 0.774696 0.748515
O O15 0.748149 0.628313 0.381896
O O16 0.998869 0.250651 0.521231
O O17 0.000000 0.500000 0.000000
O O18 0.000000 0.000000 0.000000
#
# Coordination Sequence:
#
# PCOD8002697 Si02
#       8
#     2   2   2   2   2   2   2   2
#     4   9  17  31  53  78 104 138 180 224 273 330
#     4  11  23  38  57  83 116 152 191 235 283 338
#     4  10  21  37  57  83 113 146 187 234 283 336
#     4  10  20  36  58  81 108 145 188 234 283 335
#     4  10  20  36  58  81 108 145 188 234 283 335
#     4  10  21  37  57  83 113 146 187 234 283 336
#     4   9  17  31  53  78 104 138 180 224 273 330
#     4  11  23  38  57  83 116 152 191 235 283 338
#
# _framework density 19.449905999999999
#
# number of rings (size 3 to 8) (size 9 to 14) (size 15 to 20)
#    0.000    2.000    0.000    3.750    0.000    8.500 
#    0.000    1.250    0.000    4.500    0.000    0.000 
#    0.000    0.000    0.000    0.000    0.000    0.000 
#
# Total GULP energy -198458.334176 kJ/mol
# GULP energy per Si atom -12403.645886 kJ/mol
# Density = 1.940564 g / cm^3
# Si number density = 19.449906 Si / 1000 Ang^3
#
#
#
# Elastic Constant Matrix: (Units=GPa)
#
#
# Indices 1 2 3 4 5 6 
#
# 1 77.0257 39.9980 41.3136 -2.2278 -30.7697 -4.3660
# 2 39.9980 129.8616 50.5279 10.1772 -13.5568 5.3004
# 3 41.3136 50.5279 116.9428 8.9726 -31.8085 15.8311
# 4 -2.2278 10.1772 8.9726 34.3700 -4.1682 -12.1051
# 5 -30.7697 -13.5568 -31.8085 -4.1682 36.2462 -0.6641
# 6 -4.3660 5.3004 15.8311 -12.1051 -0.6641 25.9074
#
#
#
# Elastic Compliance Matrix: (Units=1/GPa)
#
#
# Indices 1 2 3 4 5 6 
#
# 1 0.027443 -0.006171 -0.005111 0.012555 0.018228 0.015344
# 2 -0.006171 0.010751 -0.002719 -0.004764 -0.004223 -0.003913
# 3 -0.005111 -0.002719 0.015970 -0.007488 0.007553 -0.013369
# 4 0.012555 -0.004764 -0.007488 0.044296 0.007923 0.028567
# 5 0.018228 -0.004223 0.007553 0.007923 0.049102 0.004281
# 6 0.015344 -0.003913 -0.013369 0.028567 0.004281 0.063612
#
#
# Mechanical properties :
#
#
# Convention : Reuss Voigt Hill
#
# Bulk Modulus (GPa) = 38.22227 65.27880 51.75054
# Shear Modulus (GPa) = 20.16954 32.10408 26.13681
#
# Velocity S-wave (km/s) = 3.22374 4.06717 3.66977
# Velocity P-wave (km/s) = 5.79232 7.46265 6.67990
#
# Compressibility (1/GPa) = 0.02616276
#
# Stress axis : x y z
#
# Youngs Moduli (GPa) = 36.43865 93.01226 62.61579
#
# Poissons Ratio (x) = 0.57401 0.32005
# Poissons Ratio (y) = 0.22487 0.17023
# Poissons Ratio (z) = 0.18625 0.25286
#
# Static dielectric constant tensor:
#      x y z
#    x 3.352010 0.038280 -0.225910 
#    y 0.038280 3.599200 -0.063020 
#    z -0.225910 -0.063020 3.661840 
# 
# 
# High freq. dielectric constant tensor:
#      x y z
#    x 1.739210 -0.005790 -0.024010 
#    y -0.005790 1.774890 -0.004300 
#    z -0.024010 -0.004300 1.764810 
# 
# From -- ./inp_files/216656.got.cif
#   From: 2010.06.25/outbox.cif.g09.slc.cpg/sg2_109_cif.got.tgz:216656.got - 2010.06.27 13:26:56.
