data_PCOD8002271
_publ_section_title
;
Structure prediction by ZEFSAII (Michael W. Deem and Ramdas Pophale) SiO2 
 PCOD8002271
Probable space group: P -1
;
_chemical_formula_sum "Si O2"
_cell_formula_units_Z 16
_cell_length_a 7.428418
_cell_length_b 20.947504
_cell_length_c 15.126671
_cell_angle_alpha 161.130923
_cell_angle_beta 82.990472
_cell_angle_gamma 100.088369
_cell_volume 742.370943
_symmetry_space_group_name_H-M "P -1"
_symmetry_group_IT_number 2
_symmetry_cell_setting 'triclinic'
loop_
_space_group_symop_operation_xyz
x,y,z
-x,-y,-z
loop_
_atom_site_type_symbol
_atom_site_label
_atom_site_fract_x
_atom_site_fract_y
_atom_site_fract_z
Si Si1 0.414740 0.969450 0.768841
Si Si2 0.976440 0.385791 0.442214
Si Si3 0.374347 0.335012 0.352956
Si Si4 0.585801 0.669573 0.460639
Si Si5 0.300314 0.747639 0.126028
Si Si6 0.962039 0.749677 0.019777
Si Si7 0.669804 0.008029 0.391791
Si Si8 0.813358 0.055133 0.899099
O O1 0.419805 0.751091 0.525690
O O2 0.312570 0.926272 0.625193
O O3 0.623936 0.101697 0.927892
O O4 0.310618 0.116630 0.024714
O O5 0.000000 0.500000 0.500000
O O6 0.184005 0.393651 0.473857
O O7 0.855863 0.169909 0.141755
O O8 0.884138 0.518424 0.691734
O O9 0.500000 0.500000 0.500000
O O10 0.478628 0.324284 0.425400
O O11 0.779523 0.821235 0.623965
O O12 0.615841 0.453815 0.144817
O O13 0.115134 0.746428 0.080761
O O14 0.454362 0.925810 0.312783
O O15 0.260561 0.798372 0.297001
O O16 0.032730 0.886027 0.108127
O O17 0.791383 0.838699 0.185333
#
# Coordination Sequence:
#
# PCOD8002271 Si02
#       8
#     2   2   2   2   2   2   2   2
#     4  10  21  40  56  92 128 166 208 255 314 383
#     4  10  20  35  58  90 123 166 205 252 314 383
#     4  12  21  36  64  90 127 169 211 259 318 384
#     4  10  23  39  62  90 135 169 198 274 322 376
#     4  11  22  44  64  99 123 164 223 270 315 373
#     4  11  20  43  64  94 128 164 221 267 313 374
#     4  11  24  40  72  89 123 174 219 266 318 372
#     4   9  21  38  59  88 132 169 199 260 320 382
#
# _framework density 21.552565999999999
#
# number of rings (size 3 to 8) (size 9 to 14) (size 15 to 20)
#    0.750    0.750    2.500    4.500    0.000    2.000 
#    0.000    1.875    0.000    0.000    0.000    0.000 
#    0.000    0.000    0.000    0.000    0.000    0.000 
#
# Total GULP energy -198235.718450 kJ/mol
# GULP energy per Si atom -12389.732403 kJ/mol
# Density = 2.150351 g / cm^3
# Si number density = 21.552566 Si / 1000 Ang^3
#
#
#
# Elastic Constant Matrix: (Units=GPa)
#
#
# Indices 1 2 3 4 5 6 
#
# 1 43.6551 24.1476 9.4012 -5.9239 -2.9038 -18.6986
# 2 24.1476 107.8166 70.9970 -17.0196 -6.8854 -29.2241
# 3 9.4012 70.9970 132.3542 -28.3147 -6.3540 -19.8835
# 4 -5.9239 -17.0196 -28.3147 38.0471 -1.5626 2.1348
# 5 -2.9038 -6.8854 -6.3540 -1.5626 34.5922 1.3088
# 6 -18.6986 -29.2241 -19.8835 2.1348 1.3088 31.7348
#
#
#
# Elastic Compliance Matrix: (Units=1/GPa)
#
#
# Indices 1 2 3 4 5 6 
#
# 1 0.032639 -0.004085 0.003674 0.005106 0.002176 0.017339
# 2 -0.004085 0.018036 -0.007643 0.001288 0.001551 0.009263
# 3 0.003674 -0.007643 0.013419 0.007031 0.001456 0.003002
# 4 0.005106 0.001288 0.007031 0.032667 0.003215 0.006270
# 5 0.002176 0.001551 0.001456 0.003215 0.029730 0.002180
# 6 0.017339 0.009263 0.003002 0.006270 0.002180 0.051626
#
#
# Mechanical properties :
#
#
# Convention : Reuss Voigt Hill
#
# Bulk Modulus (GPa) = 20.83894 54.76860 37.80377
# Shear Modulus (GPa) = 23.78447 32.82682 28.30564
#
# Velocity S-wave (km/s) = 3.32559 3.90693 3.62792
# Velocity P-wave (km/s) = 4.94327 6.76897 5.92684
#
# Compressibility (1/GPa) = 0.04798708
#
# Stress axis : x y z
#
# Youngs Moduli (GPa) = 30.63777 55.44487 74.51891
#
# Poissons Ratio (x) = 0.22651 -0.27382
# Poissons Ratio (y) = 0.12516 0.56956
# Poissons Ratio (z) = -0.11258 0.42377
#
# Static dielectric constant tensor:
#      x y z
#    x 3.692360 -0.175100 0.099830 
#    y -0.175100 3.693540 -0.221920 
#    z 0.099830 -0.221920 4.491030 
# 
# 
# High freq. dielectric constant tensor:
#      x y z
#    x 1.839700 -0.018690 -0.006780 
#    y -0.018690 1.830510 -0.007220 
#    z -0.006780 -0.007220 1.843140 
# 
# From -- ./inp_files/507761.got.cif
#   From: 2010.06.25/outbox.cif.g09.slc.cpg/sg2_254_cif.got.tgz:507761.got - 2010.06.27 13:26:56.
