data_PCOD8002085
_publ_section_title
;
Structure prediction by ZEFSAII (Michael W. Deem and Ramdas Pophale) SiO2 
 PCOD8002085
Probable space group: P -1
;
_chemical_formula_sum "Si O2"
_cell_formula_units_Z 16
_cell_length_a 11.455897
_cell_length_b 20.782517
_cell_length_c 9.250122
_cell_angle_alpha 84.296599
_cell_angle_beta 51.093318
_cell_angle_gamma 43.433760
_cell_volume 878.153551
_symmetry_space_group_name_H-M "P -1"
_symmetry_group_IT_number 2
_symmetry_cell_setting 'triclinic'
loop_
_space_group_symop_operation_xyz
x,y,z
-x,-y,-z
loop_
_atom_site_type_symbol
_atom_site_label
_atom_site_fract_x
_atom_site_fract_y
_atom_site_fract_z
Si Si1 0.635691 0.791069 0.134205
Si Si2 0.425323 0.865181 0.970633
Si Si3 0.852614 0.824693 0.140903
Si Si4 0.703630 0.628451 0.776622
Si Si5 0.513565 0.082921 0.351147
Si Si6 0.226150 0.898352 0.679388
Si Si7 0.006235 0.460133 0.152304
Si Si8 0.400968 0.699406 0.730676
O O1 0.441589 0.875915 0.124611
O O2 0.740634 0.822421 0.097181
O O3 0.452627 0.820177 0.389649
O O4 0.914391 0.643877 0.913783
O O5 0.636762 0.728726 0.792924
O O6 0.553118 0.877191 0.773239
O O7 0.090808 0.974754 0.169673
O O8 0.784933 0.811718 0.346907
O O9 0.684347 0.953625 0.252798
O O10 0.190621 0.715283 0.875867
O O11 0.451000 0.685857 0.869454
O O12 0.000000 0.500000 0.500000
O O13 0.747052 0.597326 0.921507
O O14 0.718519 0.065276 0.255719
O O15 0.258959 0.816863 0.749533
O O16 0.694497 0.575581 0.444841
O O17 0.000000 0.500000 0.000000
#
# Coordination Sequence:
#
# PCOD8002085 Si02
#       8
#     2   2   2   2   2   2   2   2
#     4  10  23  37  53  83 118 146 179 225 281 330
#     4  11  19  34  58  83 110 143 189 228 270 323
#     4  10  22  36  52  81 114 152 177 219 280 331
#     4   9  20  33  56  85 106 137 185 236 266 309
#     4  10  20  35  55  79 110 146 184 221 275 324
#     4  11  19  34  60  84 106 145 185 235 270 316
#     4  10  20  37  60  82 108 145 185 227 276 323
#     4  11  19  36  59  82 110 142 189 226 271 324
#
# _framework density 18.220047999999998
#
# number of rings (size 3 to 8) (size 9 to 14) (size 15 to 20)
#    0.000    1.750    3.750    1.500    0.000    1.000 
#    0.000    1.250    0.000    7.500    0.000    0.000 
#    0.000    0.000    0.000    0.000    0.000    0.000 
#
# Total GULP energy -198270.425769 kJ/mol
# GULP energy per Si atom -12391.901611 kJ/mol
# Density = 1.817858 g / cm^3
# Si number density = 18.220048 Si / 1000 Ang^3
#
#
#
# Elastic Constant Matrix: (Units=GPa)
#
#
# Indices 1 2 3 4 5 6 
#
# 1 102.6693 37.8014 50.3105 -12.6980 -6.3698 -7.9769
# 2 37.8014 73.7131 31.4164 -5.7987 -7.4477 -16.9043
# 3 50.3105 31.4164 78.0987 -2.8332 -5.4052 -7.2255
# 4 -12.6980 -5.7987 -2.8332 31.4818 1.7568 8.9420
# 5 -6.3698 -7.4477 -5.4052 1.7568 27.9081 -2.4918
# 6 -7.9769 -16.9043 -7.2255 8.9420 -2.4918 30.1552
#
#
#
# Elastic Compliance Matrix: (Units=1/GPa)
#
#
# Indices 1 2 3 4 5 6 
#
# 1 0.016157 -0.004657 -0.008500 0.005436 0.000281 -0.001962
# 2 -0.004657 0.020287 -0.003973 -0.001608 0.004579 0.010044
# 3 -0.008500 -0.003973 0.019971 -0.002776 0.001152 0.001228
# 4 0.005436 -0.001608 -0.002776 0.036788 -0.003050 -0.011289
# 5 0.000281 0.004579 0.001152 -0.003050 0.038156 0.006975
# 6 -0.001962 0.010044 0.001228 -0.011289 0.006975 0.042491
#
#
# Mechanical properties :
#
#
# Convention : Reuss Voigt Hill
#
# Bulk Modulus (GPa) = 45.13572 54.83752 49.98662
# Shear Modulus (GPa) = 23.20250 26.90588 25.05419
#
# Velocity S-wave (km/s) = 3.57243 3.84698 3.71224
# Velocity P-wave (km/s) = 6.46859 7.06364 6.77265
#
# Compressibility (1/GPa) = 0.02215540
#
# Stress axis : x y z
#
# Youngs Moduli (GPa) = 61.89264 49.29253 50.07361
#
# Poissons Ratio (x) = 0.22955 0.42561
# Poissons Ratio (y) = 0.28823 0.19894
# Poissons Ratio (z) = 0.52607 0.19584
#
# Static dielectric constant tensor:
#      x y z
#    x 3.570440 -0.202780 0.151370 
#    y -0.202780 3.527780 -0.089840 
#    z 0.151370 -0.089840 3.559550 
# 
# 
# High freq. dielectric constant tensor:
#      x y z
#    x 1.700340 -0.007840 0.021470 
#    y -0.007840 1.707550 0.004160 
#    z 0.021470 0.004160 1.709990 
# 
# From -- ./inp_files/171575.got.cif
#   From: 2010.06.25/outbox.cif.g09.slc.cpg/sg2_86_cif.got.tgz:171575.got - 2010.06.27 13:26:56.
