data_PCOD8002438
_publ_section_title
;
Structure prediction by ZEFSAII (Michael W. Deem and Ramdas Pophale) SiO2 
 PCOD8002438
Probable space group: P -1
;
_chemical_formula_sum "Si O2"
_cell_formula_units_Z 16
_cell_length_a 12.003836
_cell_length_b 24.115986
_cell_length_c 9.062126
_cell_angle_alpha 42.460747
_cell_angle_beta 52.753521
_cell_angle_gamma 27.167673
_cell_volume 797.431944
_symmetry_space_group_name_H-M "P -1"
_symmetry_group_IT_number 2
_symmetry_cell_setting 'triclinic'
loop_
_space_group_symop_operation_xyz
x,y,z
-x,-y,-z
loop_
_atom_site_type_symbol
_atom_site_label
_atom_site_fract_x
_atom_site_fract_y
_atom_site_fract_z
Si Si1 0.658576 0.162867 0.593672
Si Si2 0.829393 0.600943 0.299545
Si Si3 0.518855 0.065982 0.749291
Si Si4 0.950721 0.372771 0.139363
Si Si5 0.895063 0.640546 0.642548
Si Si6 0.500682 0.688527 0.863942
Si Si7 0.884508 0.036628 0.177581
Si Si8 0.725598 0.932269 0.539302
O O1 0.452039 0.261040 0.693799
O O2 0.669320 0.067556 0.700094
O O3 0.619386 0.248082 0.327032
O O4 0.912323 0.065952 0.656097
O O5 0.000000 0.500000 0.500000
O O6 0.857149 0.511023 0.340232
O O7 0.908967 0.648164 0.065947
O O8 0.241182 0.224717 0.610816
O O9 0.674598 0.958202 0.700836
O O10 0.500000 0.000000 0.000000
O O11 0.051215 0.356346 0.245025
O O12 0.020718 0.242572 0.336706
O O13 0.649733 0.529501 0.069116
O O14 0.716393 0.649917 0.778540
O O15 0.309009 0.799469 0.933410
O O16 0.754132 0.012029 0.306515
O O17 0.000000 0.000000 0.000000
O O18 0.500000 0.000000 0.500000
#
# Coordination Sequence:
#
# PCOD8002438 Si02
#       8
#     2   2   2   2   2   2   2   2
#     4  11  23  40  65  92 137 170 223 267 325 400
#     4  11  19  35  64 102 125 164 223 269 320 398
#     4  11  22  37  65  98 134 169 215 275 334 379
#     4  11  22  37  68  90 137 167 218 276 330 375
#     4  10  20  35  61  95 130 166 219 270 327 379
#     4  10  20  42  61  90 124 179 212 268 319 392
#     4  12  28  43  69  95 131 182 225 267 336 401
#     4  12  25  44  66 100 135 168 226 277 331 392
#
# _framework density 20.064409000000001
#
# number of rings (size 3 to 8) (size 9 to 14) (size 15 to 20)
#    0.000    1.000    7.500    2.625    7.000    0.000 
#    0.000    1.250    2.750    0.000    0.000    0.000 
#    0.000    0.000    0.000    0.000    0.000    0.000 
#
# Total GULP energy -198325.886738 kJ/mol
# GULP energy per Si atom -12395.367921 kJ/mol
# Density = 2.001874 g / cm^3
# Si number density = 20.064409 Si / 1000 Ang^3
#
#
#
# Elastic Constant Matrix: (Units=GPa)
#
#
# Indices 1 2 3 4 5 6 
#
# 1 95.8048 27.6356 29.1408 -2.4343 20.2825 1.6786
# 2 27.6356 145.4768 39.1896 -9.5339 14.6961 19.1029
# 3 29.1408 39.1896 64.6383 2.7596 -14.7117 11.5008
# 4 -2.4343 -9.5339 2.7596 40.5158 11.1388 3.7272
# 5 20.2825 14.6961 -14.7117 11.1388 -9.4043 9.7230
# 6 1.6786 19.1029 11.5008 3.7272 9.7230 31.6302
#
#
#
# Elastic Compliance Matrix: (Units=1/GPa)
#
#
# Indices 1 2 3 4 5 6 
#
# 1 0.009018 -0.002742 0.000254 -0.002689 0.009890 -0.001638
# 2 -0.002742 0.008191 -0.001657 0.001094 0.004782 -0.005798
# 3 0.000254 -0.001657 0.012302 0.003171 -0.016331 0.001161
# 4 -0.002689 0.001094 0.003171 0.022501 0.009966 -0.007386
# 5 0.009890 0.004782 -0.016331 0.009966 -0.029430 0.010398
# 6 -0.001638 -0.005798 0.001161 -0.007386 0.010398 0.032456
#
#
# Mechanical properties :
#
#
# Convention : Reuss Voigt Hill
#
# Bulk Modulus (GPa) = 47.12204 55.31688 51.21946
# Shear Modulus (GPa) = 71.02040 26.54527 48.78283
#
# Velocity S-wave (km/s) = 5.95593 3.64126 4.93618
# Velocity P-wave (km/s) = 8.41628 6.73111 7.62042
#
# Compressibility (1/GPa) = 0.02122149
#
# Stress axis : x y z
#
# Youngs Moduli (GPa) = 110.88687 122.08265 81.28740
#
# Poissons Ratio (x) = 0.33471 -0.02063
# Poissons Ratio (y) = 0.30402 0.13470
# Poissons Ratio (z) = -0.02814 0.20230
#
# Static dielectric constant tensor:
#      x y z
#    x 3.683970 0.302040 0.116690 
#    y 0.302040 4.802490 -0.338710 
#    z 0.116690 -0.338710 4.047170 
# 
# 
# High freq. dielectric constant tensor:
#      x y z
#    x 1.765770 0.023870 0.029400 
#    y 0.023870 1.799140 -0.010780 
#    z 0.029400 -0.010780 1.777150 
# 
# From -- ./inp_files/284605.got.cif
#   From: 2010.06.25/outbox.cif.g09.slc.cpg/sg2_143_cif.got.tgz:284605.got - 2010.06.27 13:26:56.
