data_PCOD8002255
_publ_section_title
;
Structure prediction by ZEFSAII (Michael W. Deem and Ramdas Pophale) SiO2 
 PCOD8002255
Probable space group: P -1
;
_chemical_formula_sum "Si O2"
_cell_formula_units_Z 14
_cell_length_a 15.222881
_cell_length_b 12.535520
_cell_length_c 19.085546
_cell_angle_alpha 150.850528
_cell_angle_beta 153.262634
_cell_angle_gamma 27.683297
_cell_volume 699.431351
_symmetry_space_group_name_H-M "P -1"
_symmetry_group_IT_number 2
_symmetry_cell_setting 'triclinic'
loop_
_space_group_symop_operation_xyz
x,y,z
-x,-y,-z
loop_
_atom_site_type_symbol
_atom_site_label
_atom_site_fract_x
_atom_site_fract_y
_atom_site_fract_z
Si Si1 0.585828 0.286185 0.194939
Si Si2 0.927505 0.438573 0.339028
Si Si3 0.108513 0.967727 0.851108
Si Si4 0.920868 0.522743 0.035812
Si Si5 0.265600 0.024755 0.512556
Si Si6 0.005671 0.055304 0.616123
Si Si7 0.394128 0.227479 0.500941
O O1 0.346980 0.320009 0.064779
O O2 0.563970 0.553145 0.313056
O O3 0.675974 0.110064 0.089214
O O4 0.762531 0.160543 0.311403
O O5 0.747307 0.704475 0.331215
O O6 0.000000 0.500000 0.500000
O O7 0.132651 0.320470 0.363199
O O8 0.833184 0.241695 0.166974
O O9 0.021918 0.243658 0.980135
O O10 0.912132 0.969832 0.666507
O O11 0.014621 0.672443 0.233560
O O12 0.000000 0.500000 0.000000
O O13 0.507795 0.841125 0.547528
O O14 0.212182 0.935490 0.496803
O O15 0.000000 0.000000 0.500000
O O16 0.500000 0.000000 0.500000
#
# Coordination Sequence:
#
# PCOD8002255 Si02
#       7
#     2   2   2   2   2   2   2
#     4  11  20  34  58  84 114 149 188 234 287 325
#     4  10  16  28  47  83 116 140 173 238 289 331
#     4  10  18  30  53  84 114 138 186 234 288 326
#     4  12  21  37  59  83 115 146 195 243 279 336
#     4  10  18  32  50  79 115 144 186 233 279 333
#     4  11  24  41  57  80 120 159 192 233 283 340
#     4  12  16  26  54  88 117 137 180 240 296 327
#
# _framework density 20.016259000000002
#
# number of rings (size 3 to 8) (size 9 to 14) (size 15 to 20)
#    0.000    1.143   11.429    0.429    0.000    0.000 
#    0.000    2.857    0.000    0.857    0.000    5.000 
#    0.000    0.000    0.000    0.000    0.000    0.000 
#
# Total GULP energy -173529.716225 kJ/mol
# GULP energy per Si atom -12394.979730 kJ/mol
# Density = 1.997070 g / cm^3
# Si number density = 20.016259 Si / 1000 Ang^3
#
#
#
# Elastic Constant Matrix: (Units=GPa)
#
#
# Indices 1 2 3 4 5 6 
#
# 1 157.3153 47.9124 50.0576 4.9191 10.2700 -27.6225
# 2 47.9124 90.7142 40.4259 34.5142 2.9286 -15.8411
# 3 50.0576 40.4259 71.6258 30.0714 -0.9675 7.6217
# 4 4.9191 34.5142 30.0714 33.2432 -1.5142 11.2980
# 5 10.2700 2.9286 -0.9675 -1.5142 24.2516 2.5491
# 6 -27.6225 -15.8411 7.6217 11.2980 2.5491 42.0553
#
#
#
# Elastic Compliance Matrix: (Units=1/GPa)
#
#
# Indices 1 2 3 4 5 6 
#
# 1 0.012339 -0.004273 -0.011384 0.010631 -0.005132 0.006013
# 2 -0.004273 0.032780 -0.001124 -0.039782 -0.006869 0.020848
# 3 -0.011384 -0.001124 0.033932 -0.024981 0.005558 -0.007676
# 4 0.010631 -0.039782 -0.024981 0.103658 0.009128 -0.031875
# 5 -0.005132 -0.006869 0.005558 0.009128 0.046314 -0.012225
# 6 0.006013 0.020848 -0.007676 -0.031875 -0.012225 0.046276
#
#
# Mechanical properties :
#
#
# Convention : Reuss Voigt Hill
#
# Bulk Modulus (GPa) = 21.98354 66.27190 44.12772
# Shear Modulus (GPa) = 15.43102 31.99399 23.71250
#
# Velocity S-wave (km/s) = 2.77956 4.00234 3.44563
# Velocity P-wave (km/s) = 4.61606 7.38506 6.15821
#
# Compressibility (1/GPa) = 0.04548859
#
# Stress axis : x y z
#
# Youngs Moduli (GPa) = 81.04447 30.50678 29.47075
#
# Poissons Ratio (x) = 0.13035 0.33550
# Poissons Ratio (y) = 0.34629 0.03312
# Poissons Ratio (z) = 0.92264 0.03428
#
# Static dielectric constant tensor:
#      x y z
#    x 4.301210 0.266070 0.841000 
#    y 0.266070 4.974700 1.397300 
#    z 0.841000 1.397300 3.891480 
# 
# 
# High freq. dielectric constant tensor:
#      x y z
#    x 1.791860 -0.019890 0.036780 
#    y -0.019890 1.779640 0.053770 
#    z 0.036780 0.053770 1.724670 
# 
# From -- ./inp_files/325555.got.cif
#   From: 2010.06.25/outbox.cif.g09.slc.cpg/sg2_163_cif.got.tgz:325555.got - 2010.06.27 13:26:56.
