data_PCOD8002898
_publ_section_title
;
Structure prediction by ZEFSAII (Michael W. Deem and Ramdas Pophale) SiO2 
 PCOD8002898
Probable space group: P -1
;
_chemical_formula_sum "Si O2"
_cell_formula_units_Z 14
_cell_length_a 6.446051
_cell_length_b 9.759922
_cell_length_c 14.762534
_cell_angle_alpha 112.373370
_cell_angle_beta 87.837713
_cell_angle_gamma 129.591783
_cell_volume 633.888725
_symmetry_space_group_name_H-M "P -1"
_symmetry_group_IT_number 2
_symmetry_cell_setting 'triclinic'
loop_
_space_group_symop_operation_xyz
x,y,z
-x,-y,-z
loop_
_atom_site_type_symbol
_atom_site_label
_atom_site_fract_x
_atom_site_fract_y
_atom_site_fract_z
Si Si1 0.945857 0.687473 0.075447
Si Si2 0.843531 0.751487 0.383950
Si Si3 0.696886 0.002901 0.431754
Si Si4 0.105639 0.016505 0.904293
Si Si5 0.536718 0.713262 0.763228
Si Si6 0.346574 0.728593 0.959154
Si Si7 0.340203 0.971118 0.288049
O O1 0.201338 0.799767 0.171412
O O2 0.833668 0.800067 0.102916
O O3 0.694236 0.461068 0.055086
O O4 0.068603 0.691236 0.976465
O O5 0.659596 0.520017 0.309105
O O6 0.978264 0.806772 0.497270
O O7 0.103021 0.892635 0.346449
O O8 0.646209 0.801464 0.391036
O O9 0.500000 0.000000 0.500000
O O10 0.611420 0.013630 0.334672
O O11 0.402058 0.077014 0.934076
O O12 0.857271 0.810045 0.803462
O O13 0.000000 0.000000 0.000000
O O14 0.420006 0.759087 0.859334
O O15 0.542338 0.818318 0.700974
#
# Coordination Sequence:
#
# PCOD8002898 Si02
#       7
#     2   2   2   2   2   2   2
#     4  10  20  36  60  85 121 167 204 245 295 348
#     4  10  20  43  64  87 125 153 198 253 303 368
#     4   9  21  42  67  89 118 157 193 251 314 368
#     4   9  20  35  51  81 118 158 199 243 290 340
#     4  10  21  38  63  90 124 164 204 250 296 359
#     4  10  20  38  57  85 125 165 205 246 291 345
#     4  10  21  38  60  93 121 159 204 245 305 353
#
# _framework density 22.085895000000001
#
# number of rings (size 3 to 8) (size 9 to 14) (size 15 to 20)
#    0.000    2.286    1.429    0.429    0.000    8.000 
#   10.286   16.429    0.000    0.000    0.000    0.000 
#    0.000    0.000    0.000    0.000    0.000    0.000 
#
# Total GULP energy -173443.343467 kJ/mol
# GULP energy per Si atom -12388.810248 kJ/mol
# Density = 2.203563 g / cm^3
# Si number density = 22.085895 Si / 1000 Ang^3
#
#
#
# Elastic Constant Matrix: (Units=GPa)
#
#
# Indices 1 2 3 4 5 6 
#
# 1 76.0321 35.5110 31.1524 7.5431 13.4390 -6.5178
# 2 35.5110 117.5793 44.2283 8.8990 12.1206 2.9537
# 3 31.1524 44.2283 90.7087 16.1095 28.7385 -6.3722
# 4 7.5431 8.8990 16.1095 28.2881 -0.7747 -1.3044
# 5 13.4390 12.1206 28.7385 -0.7747 37.1092 -4.3461
# 6 -6.5178 2.9537 -6.3722 -1.3044 -4.3461 20.7075
#
#
#
# Elastic Compliance Matrix: (Units=1/GPa)
#
#
# Indices 1 2 3 4 5 6 
#
# 1 0.017007 -0.003913 -0.002546 -0.001712 -0.002416 0.004513
# 2 -0.003913 0.011525 -0.004870 0.000024 0.000935 -0.004176
# 3 -0.002546 -0.004870 0.020323 -0.009593 -0.013099 0.002794
# 4 -0.001712 0.000024 -0.009593 0.041557 0.009028 0.001018
# 5 -0.002416 0.000935 -0.013099 0.009028 0.038281 0.003678
# 6 0.004513 -0.004176 0.002794 0.001018 0.003678 0.052004
#
#
# Mechanical properties :
#
#
# Convention : Reuss Voigt Hill
#
# Bulk Modulus (GPa) = 38.17185 56.23371 47.20278
# Shear Modulus (GPa) = 23.57528 28.78285 26.17906
#
# Velocity S-wave (km/s) = 3.27071 3.61393 3.44660
# Velocity P-wave (km/s) = 5.61999 6.55215 6.10389
#
# Compressibility (1/GPa) = 0.02619732
#
# Stress axis : x y z
#
# Youngs Moduli (GPa) = 58.79896 86.76637 49.20535
#
# Poissons Ratio (x) = 0.33955 0.12528
# Poissons Ratio (y) = 0.23011 0.23961
# Poissons Ratio (z) = 0.14971 0.42251
#
# Static dielectric constant tensor:
#      x y z
#    x 4.485740 0.287330 0.509640 
#    y 0.287330 4.383670 -0.129350 
#    z 0.509640 -0.129350 4.350100 
# 
# 
# High freq. dielectric constant tensor:
#      x y z
#    x 1.860070 -0.000280 0.012870 
#    y -0.000280 1.862920 -0.000900 
#    z 0.012870 -0.000900 1.866960 
# 
# From -- ./inp_files/136568.got.cif
#   From: 2010.06.25/outbox.cif.g09.slc.cpg/sg2_69_cif.got.tgz:136568.got - 2010.06.27 13:26:56.
