data_PCOD8002274
_publ_section_title
;
Structure prediction by ZEFSAII (Michael W. Deem and Ramdas Pophale) SiO2 
 PCOD8002274
Probable space group: P -1
;
_chemical_formula_sum "Si O2"
_cell_formula_units_Z 16
_cell_length_a 14.899956
_cell_length_b 15.605783
_cell_length_c 17.842967
_cell_angle_alpha 38.465763
_cell_angle_beta 44.853184
_cell_angle_gamma 18.982519
_cell_volume 829.269486
_symmetry_space_group_name_H-M "P -1"
_symmetry_group_IT_number 2
_symmetry_cell_setting 'triclinic'
loop_
_space_group_symop_operation_xyz
x,y,z
-x,-y,-z
loop_
_atom_site_type_symbol
_atom_site_label
_atom_site_fract_x
_atom_site_fract_y
_atom_site_fract_z
Si Si1 0.158730 0.284250 0.339866
Si Si2 0.531074 0.887720 0.253096
Si Si3 0.692393 0.741684 0.003570
Si Si4 0.998228 0.693262 0.437029
Si Si5 0.303812 0.559539 0.584140
Si Si6 0.385061 0.070192 0.599737
Si Si7 0.882312 0.168871 0.643457
Si Si8 0.687048 0.436239 0.261559
O O1 0.840530 0.635258 0.271148
O O2 0.185465 0.151832 0.484465
O O3 0.305967 0.077715 0.321579
O O4 0.362487 0.214563 0.297154
O O5 0.536767 0.740350 0.303928
O O6 0.413818 0.121984 0.110252
O O7 0.674162 0.596400 0.121863
O O8 0.000000 0.500000 0.000000
O O9 0.500000 0.000000 0.000000
O O10 0.227857 0.351652 0.537166
O O11 0.119367 0.730373 0.351363
O O12 0.828321 0.848954 0.351444
O O13 0.500000 0.500000 0.500000
O O14 0.112598 0.743588 0.496554
O O15 0.148791 0.718797 0.648228
O O16 0.500000 0.000000 0.500000
O O17 0.621827 0.318470 0.704048
O O18 0.159049 0.809589 0.720728
#
# Coordination Sequence:
#
# PCOD8002274 Si02
#       8
#     2   2   2   2   2   2   2   2
#     4  11  21  36  55  89 123 145 198 236 297 353
#     4  12  24  37  61  85 112 165 198 253 295 339
#     4  12  25  44  63  80 113 158 220 259 291 331
#     4  10  20  35  58  91 130 160 184 233 300 374
#     4  10  22  35  56  82 120 151 199 233 300 347
#     4   9  19  34  59  88 131 155 187 228 296 375
#     4  11  23  36  59  85 124 155 191 237 299 363
#     4  11  25  40  55  83 116 162 203 247 289 346
#
# _framework density 19.294090000000001
#
# number of rings (size 3 to 8) (size 9 to 14) (size 15 to 20)
#    0.000    1.250    3.750    1.875    8.750    0.000 
#    0.000    0.000    0.000    0.000    0.000    5.250 
#    0.000    0.000    0.000    0.000    0.000    0.000 
#
# Total GULP energy -198210.414033 kJ/mol
# GULP energy per Si atom -12388.150877 kJ/mol
# Density = 1.925018 g / cm^3
# Si number density = 19.294090 Si / 1000 Ang^3
#
#
#
# Elastic Constant Matrix: (Units=GPa)
#
#
# Indices 1 2 3 4 5 6 
#
# 1 120.8079 32.7184 50.0485 -6.7536 -0.7341 2.3705
# 2 32.7184 105.7749 23.7108 -5.0943 -0.6242 3.6525
# 3 50.0485 23.7108 90.9134 -4.5936 -11.0537 -6.8730
# 4 -6.7536 -5.0943 -4.5936 21.7391 -2.6580 2.8075
# 5 -0.7341 -0.6242 -11.0537 -2.6580 24.5736 -10.4066
# 6 2.3705 3.6525 -6.8730 2.8075 -10.4066 33.4283
#
#
#
# Elastic Compliance Matrix: (Units=1/GPa)
#
#
# Indices 1 2 3 4 5 6 
#
# 1 0.011655 -0.001966 -0.006533 0.001735 -0.003850 -0.003299
# 2 -0.001966 0.010627 -0.001917 0.001567 -0.001310 -0.001955
# 3 -0.006533 -0.001917 0.017030 0.001475 0.010702 0.007382
# 4 0.001735 0.001567 0.001475 0.048141 0.004900 -0.002509
# 5 -0.003850 -0.001310 0.010702 0.004900 0.053934 0.018995
# 6 -0.003299 -0.001955 0.007382 -0.002509 0.018995 0.038004
#
#
# Mechanical properties :
#
#
# Convention : Reuss Voigt Hill
#
# Bulk Modulus (GPa) = 54.11502 58.93909 56.52706
# Shear Modulus (GPa) = 24.22665 30.01609 27.12137
#
# Velocity S-wave (km/s) = 3.54736 3.94853 3.75331
# Velocity P-wave (km/s) = 6.69975 7.16952 6.93861
#
# Compressibility (1/GPa) = 0.01847916
#
# Stress axis : x y z
#
# Youngs Moduli (GPa) = 85.80020 94.09851 58.71987
#
# Poissons Ratio (x) = 0.18498 0.38364
# Poissons Ratio (y) = 0.16867 0.11259
# Poissons Ratio (z) = 0.56056 0.18042
#
# Static dielectric constant tensor:
#      x y z
#    x 4.288970 -0.341860 -0.144880 
#    y -0.341860 2.854740 -1.336890 
#    z -0.144880 -1.336890 1.659230 
# 
# 
# High freq. dielectric constant tensor:
#      x y z
#    x 1.764430 -0.001430 0.008130 
#    y -0.001430 1.766790 -0.002680 
#    z 0.008130 -0.002680 1.695470 
# 
# From -- ./inp_files/574021.got.cif
#   From: 2010.06.25/outbox.cif.g09.slc.cpg/sg2_288_cif.got.tgz:574021.got - 2010.06.27 13:26:56.
