data_PCOD8002785
_publ_section_title
;
Structure prediction by ZEFSAII (Michael W. Deem and Ramdas Pophale) SiO2 
 PCOD8002785
Probable space group: P -1
;
_chemical_formula_sum "Si O2"
_cell_formula_units_Z 16
_cell_length_a 13.530500
_cell_length_b 6.651661
_cell_length_c 8.621301
_cell_angle_alpha 90.711179
_cell_angle_beta 85.217545
_cell_angle_gamma 101.093355
_cell_volume 758.765435
_symmetry_space_group_name_H-M "P -1"
_symmetry_group_IT_number 2
_symmetry_cell_setting 'triclinic'
loop_
_space_group_symop_operation_xyz
x,y,z
-x,-y,-z
loop_
_atom_site_type_symbol
_atom_site_label
_atom_site_fract_x
_atom_site_fract_y
_atom_site_fract_z
Si Si1 0.041461 0.298139 0.010227
Si Si2 0.415781 0.185768 0.719680
Si Si3 0.579040 0.438658 0.872158
Si Si4 0.299661 0.761144 0.630632
Si Si5 0.832861 0.955823 0.494666
Si Si6 0.267280 0.445205 0.898015
Si Si7 0.641799 0.601129 0.548473
Si Si8 0.981712 0.009147 0.744170
O O1 0.159604 0.320422 0.960370
O O2 0.975160 0.148048 0.895299
O O3 0.000000 0.500000 0.000000
O O4 0.021156 0.218452 0.188935
O O5 0.521828 0.223291 0.801118
O O6 0.329667 0.278181 0.823989
O O7 0.435650 0.312968 0.555739
O O8 0.383829 0.944707 0.691515
O O9 0.604215 0.604279 0.730725
O O10 0.500000 0.500000 0.000000
O O11 0.679575 0.430363 0.956889
O O12 0.212527 0.852654 0.558106
O O13 0.253103 0.613296 0.774618
O O14 0.349161 0.631039 0.497825
O O15 0.916970 0.908972 0.364327
O O16 0.750065 0.750158 0.516076
O O17 0.883089 0.015466 0.654722
#
# Coordination Sequence:
#
# PCOD8002785 Si02
#       8
#     2   2   2   2   2   2   2   2
#     4  11  22  37  58  86 120 152 184 233 288 336
#     4   9  20  38  60  82 112 153 191 234 280 330
#     4  10  21  38  59  84 116 151 186 232 286 337
#     4  10  20  36  59  83 111 149 191 233 281 331
#     4  10  21  39  59  82 112 151 193 238 279 329
#     4  10  21  38  58  83 116 153 190 230 283 340
#     4  10  20  37  60  83 112 147 190 233 281 339
#     4  10  22  37  57  84 114 149 195 234 279 340
#
# _framework density 21.086887000000001
#
# number of rings (size 3 to 8) (size 9 to 14) (size 15 to 20)
#    0.000    2.000    0.000    4.125    0.000    4.000 
#    0.000   10.625    0.000    0.000    0.000    0.000 
#    0.000    0.000    0.000    0.000    0.000    0.000 
#
# Total GULP energy -198363.024242 kJ/mol
# GULP energy per Si atom -12397.689015 kJ/mol
# Density = 2.103889 g / cm^3
# Si number density = 21.086887 Si / 1000 Ang^3
#
#
#
# Elastic Constant Matrix: (Units=GPa)
#
#
# Indices 1 2 3 4 5 6 
#
# 1 61.5984 35.7186 44.6041 7.3884 20.6430 8.6728
# 2 35.7186 112.8126 41.2654 0.3548 5.9648 5.1267
# 3 44.6041 41.2654 138.7686 -6.5659 13.4951 13.5484
# 4 7.3884 0.3548 -6.5659 24.9606 9.3029 2.2310
# 5 20.6430 5.9648 13.4951 9.3029 38.5439 1.6193
# 6 8.6728 5.1267 13.5484 2.2310 1.6193 22.8092
#
#
#
# Elastic Compliance Matrix: (Units=1/GPa)
#
#
# Indices 1 2 3 4 5 6 
#
# 1 0.029489 -0.006188 -0.006386 -0.005801 -0.011003 -0.004680
# 2 -0.006188 0.011273 -0.001592 0.000459 0.001992 0.000578
# 3 -0.006386 -0.001592 0.010482 0.005449 -0.001155 -0.003891
# 4 -0.005801 0.000459 0.005449 0.047425 -0.010106 -0.005055
# 5 -0.011003 0.001992 -0.001155 -0.010106 0.034247 0.002979
# 6 -0.004680 0.000578 -0.003891 -0.005055 0.002979 0.048086
#
#
# Mechanical properties :
#
#
# Convention : Reuss Voigt Hill
#
# Bulk Modulus (GPa) = 43.64446 61.81730 52.73088
# Shear Modulus (GPa) = 23.04458 30.03551 26.54004
#
# Velocity S-wave (km/s) = 3.30940 3.77818 3.55153
# Velocity P-wave (km/s) = 5.94518 6.95787 6.47137
#
# Compressibility (1/GPa) = 0.02291242
#
# Stress axis : x y z
#
# Youngs Moduli (GPa) = 33.91136 88.71021 95.39982
#
# Poissons Ratio (x) = 0.54895 0.60921
# Poissons Ratio (y) = 0.20985 0.15184
# Poissons Ratio (z) = 0.21655 0.14119
#
# Static dielectric constant tensor:
#      x y z
#    x 4.117690 0.543010 0.228480 
#    y 0.543010 3.963770 -0.072360 
#    z 0.228480 -0.072360 4.355210 
# 
# 
# High freq. dielectric constant tensor:
#      x y z
#    x 1.822070 0.024380 0.008160 
#    y 0.024380 1.817700 -0.003920 
#    z 0.008160 -0.003920 1.843090 
# 
# From -- ./inp_files/46650.got.cif
#   From: 2010.06.25/outbox.cif.g09.slc.cpg/sg2_24_cif.got.tgz:46650.got - 2010.06.27 13:26:56.
