data_PCOD8002454
_publ_section_title
;
Structure prediction by ZEFSAII (Michael W. Deem and Ramdas Pophale) SiO2 
 PCOD8002454
Probable space group: P -1
;
_chemical_formula_sum "Si O2"
_cell_formula_units_Z 16
_cell_length_a 7.189890
_cell_length_b 16.000641
_cell_length_c 15.597803
_cell_angle_alpha 155.055440
_cell_angle_beta 58.921847
_cell_angle_gamma 118.212122
_cell_volume 648.099337
_symmetry_space_group_name_H-M "P -1"
_symmetry_group_IT_number 2
_symmetry_cell_setting 'triclinic'
loop_
_space_group_symop_operation_xyz
x,y,z
-x,-y,-z
loop_
_atom_site_type_symbol
_atom_site_label
_atom_site_fract_x
_atom_site_fract_y
_atom_site_fract_z
Si Si1 0.582672 0.246647 0.438738
Si Si2 0.369629 0.824583 0.825969
Si Si3 0.297640 0.555995 0.043780
Si Si4 0.592640 0.138694 0.820819
Si Si5 0.774913 0.628346 0.802531
Si Si6 0.078243 0.172509 0.220307
Si Si7 0.798731 0.554938 0.407035
Si Si8 0.827011 0.487144 0.149059
O O1 0.513557 0.253114 0.360660
O O2 0.579861 0.463305 0.684169
O O3 0.831603 0.176272 0.313010
O O4 0.416024 0.098649 0.391150
O O5 0.354446 0.634162 0.711851
O O6 0.500000 0.000000 0.000000
O O7 0.138649 0.939638 0.969314
O O8 0.274684 0.434925 0.845411
O O9 0.500000 0.500000 0.000000
O O10 0.338434 0.788720 0.223729
O O11 0.085306 0.519470 0.116532
O O12 0.343159 0.194837 0.956354
O O13 0.760536 0.250561 0.951855
O O14 0.873802 0.683654 0.737740
O O15 0.958783 0.532731 0.728575
O O16 0.222637 0.263954 0.350906
O O17 0.752686 0.609728 0.367167
#
# Coordination Sequence:
#
# PCOD8002454 Si02
#       8
#     2   2   2   2   2   2   2   2
#     4  11  20  37  56  86 121 159 209 239 288 360
#     4  12  23  33  53  80 120 166 203 246 293 342
#     4   9  19  40  68  93 112 155 200 251 318 367
#     4  10  20  35  62  88 121 153 196 251 299 357
#     4  11  20  35  60  85 121 171 203 240 298 352
#     4  11  22  37  55  81 124 172 205 244 283 354
#     4  11  21  37  56  87 122 160 202 248 299 353
#     4   9  21  38  62  94 121 148 205 255 303 368
#
# _framework density 24.687574999999999
#
# number of rings (size 3 to 8) (size 9 to 14) (size 15 to 20)
#    0.750    0.750    3.750    3.375    0.000    1.500 
#    0.000    0.000    0.000   11.250    0.000    0.000 
#    0.000    0.000    0.000    0.000    0.000    0.000 
#
# Total GULP energy -198260.373888 kJ/mol
# GULP energy per Si atom -12391.273368 kJ/mol
# Density = 2.463138 g / cm^3
# Si number density = 24.687575 Si / 1000 Ang^3
#
#
#
# Elastic Constant Matrix: (Units=GPa)
#
#
# Indices 1 2 3 4 5 6 
#
# 1 112.8917 40.5556 21.0182 -0.0142 15.5265 0.0889
# 2 40.5556 140.2822 57.2438 13.4271 15.2872 8.6268
# 3 21.0182 57.2438 108.4742 2.6296 11.3850 4.8516
# 4 -0.0142 13.4271 2.6296 45.5200 4.6916 7.6857
# 5 15.5265 15.2872 11.3850 4.6916 38.5085 1.0288
# 6 0.0889 8.6268 4.8516 7.6857 1.0288 44.7146
#
#
#
# Elastic Compliance Matrix: (Units=1/GPa)
#
#
# Indices 1 2 3 4 5 6 
#
# 1 0.010295 -0.002628 -0.000321 0.001052 -0.003152 0.000413
# 2 -0.002628 0.010221 -0.004644 -0.002442 -0.001300 -0.001013
# 3 -0.000321 -0.004644 0.011905 0.000939 -0.001647 -0.000519
# 4 0.001052 -0.002442 0.000939 0.023503 -0.002499 -0.003615
# 5 -0.003152 -0.001300 -0.001647 -0.002499 0.028541 0.000209
# 6 0.000413 -0.001013 -0.000519 -0.003615 0.000209 0.023232
#
#
# Mechanical properties :
#
#
# Convention : Reuss Voigt Hill
#
# Bulk Modulus (GPa) = 58.01925 66.58701 62.30313
# Shear Modulus (GPa) = 38.87207 41.93731 40.40469
#
# Velocity S-wave (km/s) = 3.97238 4.12603 4.04993
# Velocity P-wave (km/s) = 6.67773 7.05189 6.86736
#
# Compressibility (1/GPa) = 0.01723566
#
# Stress axis : x y z
#
# Youngs Moduli (GPa) = 97.13247 97.83927 83.99960
#
# Poissons Ratio (x) = 0.25711 0.02698
# Poissons Ratio (y) = 0.25525 0.39005
# Poissons Ratio (z) = 0.03120 0.45432
#
# Static dielectric constant tensor:
#      x y z
#    x 5.613220 0.092360 -0.342840 
#    y 0.092360 4.383990 0.074850 
#    z -0.342840 0.074850 4.807960 
# 
# 
# High freq. dielectric constant tensor:
#      x y z
#    x 2.027680 0.020220 0.000460 
#    y 0.020220 1.968020 -0.000850 
#    z 0.000460 -0.000850 1.973040 
# 
# From -- ./inp_files/294771.got.cif
#   From: 2010.06.25/outbox.cif.g09.slc.cpg/sg2_148_cif.got.tgz:294771.got - 2010.06.27 13:26:56.
