data_PCOD8002540
_publ_section_title
;
Structure prediction by ZEFSAII (Michael W. Deem and Ramdas Pophale) SiO2 
 PCOD8002540
Probable space group: P -1
;
_chemical_formula_sum "Si O2"
_cell_formula_units_Z 16
_cell_length_a 23.320904
_cell_length_b 9.058236
_cell_length_c 8.603558
_cell_angle_alpha 97.443946
_cell_angle_beta 50.139115
_cell_angle_gamma 57.605656
_cell_volume 805.523426
_symmetry_space_group_name_H-M "P -1"
_symmetry_group_IT_number 2
_symmetry_cell_setting 'triclinic'
loop_
_space_group_symop_operation_xyz
x,y,z
-x,-y,-z
loop_
_atom_site_type_symbol
_atom_site_label
_atom_site_fract_x
_atom_site_fract_y
_atom_site_fract_z
Si Si1 0.964164 0.666706 0.224196
Si Si2 0.200808 0.369378 0.946683
Si Si3 0.578244 0.646580 0.749297
Si Si4 0.807849 0.749746 0.745973
Si Si5 0.723160 0.576522 0.903650
Si Si6 0.565857 0.346583 0.203456
Si Si7 0.555149 0.992345 0.693949
Si Si8 0.739183 0.260448 0.681927
O O1 0.925150 0.625464 0.429669
O O2 0.085462 0.572168 0.050889
O O3 0.847382 0.963006 0.421318
O O4 0.000000 0.500000 0.000000
O O5 0.155538 0.319605 0.144649
O O6 0.240125 0.458497 0.982770
O O7 0.330870 0.103148 0.601834
O O8 0.537665 0.575512 0.704234
O O9 0.611158 0.736671 0.599135
O O10 0.698520 0.390999 0.603344
O O11 0.467214 0.879408 0.092085
O O12 0.772161 0.641481 0.729726
O O13 0.684756 0.051226 0.993104
O O14 0.570224 0.810319 0.171192
O O15 0.795631 0.309557 0.686772
O O16 0.500000 0.500000 0.500000
O O17 0.617304 0.398535 0.013132
#
# Coordination Sequence:
#
# PCOD8002540 Si02
#       8
#     2   2   2   2   2   2   2   2
#     4  11  25  43  62  88 125 171 211 249 306 364
#     4  10  22  37  70  85 122 164 214 246 307 365
#     4  10  21  38  59  92 132 158 200 253 317 365
#     4   9  22  41  63  89 122 159 210 253 303 368
#     4   9  20  39  67  91 122 151 207 264 310 359
#     4  11  23  35  61  93 130 161 196 254 316 371
#     4  10  20  35  67  98 120 159 203 256 315 372
#     4  10  24  40  59  91 126 160 207 259 298 365
#
# _framework density 19.862860000000001
#
# number of rings (size 3 to 8) (size 9 to 14) (size 15 to 20)
#    0.750    1.250    1.250    1.125    8.750    1.500 
#    0.000    2.500    0.000    0.000    0.000    0.000 
#    0.000    0.000    0.000    0.000    0.000    0.000 
#
# Total GULP energy -198256.183848 kJ/mol
# GULP energy per Si atom -12391.011491 kJ/mol
# Density = 1.981765 g / cm^3
# Si number density = 19.862860 Si / 1000 Ang^3
#
#
#
# Elastic Constant Matrix: (Units=GPa)
#
#
# Indices 1 2 3 4 5 6 
#
# 1 136.4203 34.5107 51.9490 5.7110 12.0287 -3.7444
# 2 34.5107 82.7721 35.0830 7.2842 6.5099 2.9872
# 3 51.9490 35.0830 103.0851 2.0074 4.0123 2.6503
# 4 5.7110 7.2842 2.0074 20.9472 -0.7510 1.3656
# 5 12.0287 6.5099 4.0123 -0.7510 28.3329 3.6960
# 6 -3.7444 2.9872 2.6503 1.3656 3.6960 31.2211
#
#
#
# Elastic Compliance Matrix: (Units=1/GPa)
#
#
# Indices 1 2 3 4 5 6 
#
# 1 0.009872 -0.001984 -0.004185 -0.001870 -0.003482 0.002223
# 2 -0.001984 0.015174 -0.003975 -0.004370 -0.002078 -0.000915
# 3 -0.004185 -0.003975 0.013131 0.001395 0.001053 -0.001422
# 4 -0.001870 -0.004370 0.001395 0.049914 0.003249 -0.002492
# 5 -0.003482 -0.002078 0.001053 0.003249 0.037830 -0.004929
# 6 0.002223 -0.000915 -0.001422 -0.002492 -0.004929 0.033197
#
#
# Mechanical properties :
#
#
# Convention : Reuss Voigt Hill
#
# Bulk Modulus (GPa) = 55.89866 62.81810 59.35838
# Shear Modulus (GPa) = 26.97311 29.48256 28.22783
#
# Velocity S-wave (km/s) = 3.68906 3.85685 3.77389
# Velocity P-wave (km/s) = 6.80800 7.17832 6.99561
#
# Compressibility (1/GPa) = 0.01788952
#
# Stress axis : x y z
#
# Youngs Moduli (GPa) = 101.29439 65.90060 76.15611
#
# Poissons Ratio (x) = 0.13075 0.31871
# Poissons Ratio (y) = 0.20097 0.30272
# Poissons Ratio (z) = 0.42392 0.26195
#
# Static dielectric constant tensor:
#      x y z
#    x 3.648880 0.073780 0.073160 
#    y 0.073780 3.742220 -0.176960 
#    z 0.073160 -0.176960 3.428390 
# 
# 
# High freq. dielectric constant tensor:
#      x y z
#    x 1.777740 -0.000720 0.005890 
#    y -0.000720 1.773370 -0.005580 
#    z 0.005890 -0.005580 1.756320 
# 
# From -- ./inp_files/352228.got.cif
#   From: 2010.06.25/outbox.cif.g09.slc.cpg/sg2_177_cif.got.tgz:352228.got - 2010.06.27 13:26:56.
