data_PCOD8002924
_publ_section_title
;
Structure prediction by ZEFSAII (Michael W. Deem and Ramdas Pophale) SiO2 
 PCOD8002924
Probable space group: P -1
;
_chemical_formula_sum "Si O2"
_cell_formula_units_Z 16
_cell_length_a 12.231104
_cell_length_b 9.310805
_cell_length_c 15.823509
_cell_angle_alpha 45.805761
_cell_angle_beta 36.548041
_cell_angle_gamma 46.207443
_cell_volume 731.669930
_symmetry_space_group_name_H-M "P -1"
_symmetry_group_IT_number 2
_symmetry_cell_setting 'triclinic'
loop_
_space_group_symop_operation_xyz
x,y,z
-x,-y,-z
loop_
_atom_site_type_symbol
_atom_site_label
_atom_site_fract_x
_atom_site_fract_y
_atom_site_fract_z
Si Si1 0.062539 0.253361 0.052184
Si Si2 0.438037 0.220352 0.737754
Si Si3 0.371712 0.234856 0.167795
Si Si4 0.832813 0.523145 0.330213
Si Si5 0.554119 0.504613 0.846927
Si Si6 0.928455 0.881820 0.711823
Si Si7 0.114081 0.769882 0.990943
Si Si8 0.279034 0.643100 0.378518
O O1 0.086262 0.125200 0.175853
O O2 0.265078 0.174404 0.913103
O O3 0.000000 0.500000 0.000000
O O4 0.900729 0.211155 0.109340
O O5 0.366777 0.344832 0.644219
O O6 0.535338 0.344272 0.690269
O O7 0.571620 0.987482 0.727935
O O8 0.310344 0.407655 0.210931
O O9 0.209277 0.231578 0.202724
O O10 0.536895 0.288534 0.986448
O O11 0.807535 0.517632 0.449997
O O12 0.864380 0.278549 0.379613
O O13 0.008585 0.608996 0.160661
O O14 0.655191 0.454167 0.714094
O O15 0.341595 0.682626 0.906268
O O16 0.885251 0.126852 0.615559
O O17 0.000000 0.000000 0.000000
#
# Coordination Sequence:
#
# PCOD8002924 Si02
#       8
#     2   2   2   2   2   2   2   2
#     4  11  18  34  63  93 118 151 207 256 292 342
#     4  10  20  36  60  89 119 159 202 249 303 356
#     4  10  21  38  63  87 120 159 203 252 305 350
#     4  11  22  41  61  88 129 161 199 251 305 362
#     4  11  21  39  63  90 123 159 205 251 297 362
#     4  11  21  40  62  91 122 163 202 255 301 358
#     4  11  23  40  66  92 124 160 199 252 309 359
#     4  11  24  37  63  91 124 161 205 245 308 363
#
# _framework density 21.867784
#
# number of rings (size 3 to 8) (size 9 to 14) (size 15 to 20)
#    0.000    1.250    3.750    4.500    0.000    3.000 
#    0.000    3.125    2.750    0.000    0.000    0.000 
#    0.000    0.000    0.000    0.000    0.000    0.000 
#
# Total GULP energy -198236.348935 kJ/mol
# GULP energy per Si atom -12389.771808 kJ/mol
# Density = 2.181801 g / cm^3
# Si number density = 21.867784 Si / 1000 Ang^3
#
#
#
# Elastic Constant Matrix: (Units=GPa)
#
#
# Indices 1 2 3 4 5 6 
#
# 1 112.2085 29.8851 40.1027 -7.5640 34.5865 9.6919
# 2 29.8851 110.2254 26.4583 -3.1949 24.3492 -3.5905
# 3 40.1027 26.4583 74.3043 -8.8841 40.6410 1.6399
# 4 -7.5640 -3.1949 -8.8841 21.5022 -2.8768 8.1647
# 5 34.5865 24.3492 40.6410 -2.8768 39.2348 0.9175
# 6 9.6919 -3.5905 1.6399 8.1647 0.9175 40.2894
#
#
#
# Elastic Compliance Matrix: (Units=1/GPa)
#
#
# Indices 1 2 3 4 5 6 
#
# 1 0.013094 -0.001255 -0.000823 0.004281 -0.009507 -0.003879
# 2 -0.001255 0.010688 -0.000317 -0.000231 -0.005249 0.001434
# 3 -0.000823 -0.000317 0.033036 0.009889 -0.032516 -0.002438
# 4 0.004281 -0.000231 0.009889 0.055535 -0.009510 -0.012491
# 5 -0.009507 -0.005249 -0.032516 -0.009510 0.070029 0.003475
# 6 -0.003879 0.001434 -0.002438 -0.012491 0.003475 0.028433
#
#
# Mechanical properties :
#
#
# Convention : Reuss Voigt Hill
#
# Bulk Modulus (GPa) = 19.21975 54.40340 36.81157
# Shear Modulus (GPa) = 21.46412 33.55809 27.51110
#
# Velocity S-wave (km/s) = 3.13635 3.92163 3.55077
# Velocity P-wave (km/s) = 4.68228 6.74077 5.80352
#
# Compressibility (1/GPa) = 0.05202981
#
# Stress axis : x y z
#
# Youngs Moduli (GPa) = 76.36850 93.56152 30.27020
#
# Poissons Ratio (x) = 0.11740 0.02490
# Poissons Ratio (y) = 0.09583 0.00959
# Poissons Ratio (z) = 0.06283 0.02963
#
# Static dielectric constant tensor:
#      x y z
#    x 4.280610 -0.259100 0.172850 
#    y -0.259100 3.751420 -0.172630 
#    z 0.172850 -0.172630 3.683010 
# 
# 
# High freq. dielectric constant tensor:
#      x y z
#    x 1.869780 -0.013990 0.019080 
#    y -0.013990 1.864800 -0.008400 
#    z 0.019080 -0.008400 1.834530 
# 
# From -- ./inp_files/190830.got.cif
#   From: 2010.06.25/outbox.cif.g09.slc.cpg/sg2_96_cif.got.tgz:190830.got - 2010.06.27 13:26:56.
