data_PCOD8002604
_publ_section_title
;
Structure prediction by ZEFSAII (Michael W. Deem and Ramdas Pophale) SiO2 
 PCOD8002604
Probable space group: P -1
;
_chemical_formula_sum "Si O2"
_cell_formula_units_Z 14
_cell_length_a 17.557249
_cell_length_b 9.472474
_cell_length_c 12.000919
_cell_angle_alpha 67.702620
_cell_angle_beta 141.050711
_cell_angle_gamma 139.379318
_cell_volume 700.058964
_symmetry_space_group_name_H-M "P -1"
_symmetry_group_IT_number 2
_symmetry_cell_setting 'triclinic'
loop_
_space_group_symop_operation_xyz
x,y,z
-x,-y,-z
loop_
_atom_site_type_symbol
_atom_site_label
_atom_site_fract_x
_atom_site_fract_y
_atom_site_fract_z
Si Si1 0.003043 0.804475 0.146094
Si Si2 0.867875 0.698140 0.496042
Si Si3 0.687853 0.088174 0.226842
Si Si4 0.473411 0.415545 0.817332
Si Si5 0.662094 0.658434 0.731995
Si Si6 0.081979 0.574317 0.399966
Si Si7 0.905505 0.838028 0.263907
O O1 0.036989 0.658321 0.232176
O O2 0.007882 0.876122 0.256936
O O3 0.178196 0.047587 0.195637
O O4 0.788290 0.626697 0.897253
O O5 0.673985 0.609798 0.288842
O O6 0.820460 0.474369 0.537038
O O7 0.970744 0.803108 0.456966
O O8 0.014886 0.910555 0.696373
O O9 0.756604 0.204660 0.393589
O O10 0.867917 0.307141 0.283299
O O11 0.630788 0.852740 0.235994
O O12 0.500000 0.000000 0.000000
O O13 0.540218 0.561452 0.734727
O O14 0.666098 0.592131 0.061410
O O15 0.500000 0.500000 0.500000
#
# Coordination Sequence:
#
# PCOD8002604 Si02
#       7
#     2   2   2   2   2   2   2
#     4  10  21  38  59  82 109 142 192 241 274 323
#     4  11  21  34  55  82 121 154 176 219 280 346
#     4  11  21  35  57  83 115 150 188 235 278 325
#     4  11  22  37  58  84 113 149 190 228 276 336
#     4  10  20  37  62  82 102 143 195 240 277 321
#     4  11  22  35  53  85 117 146 184 230 285 333
#     4  10  20  36  56  82 113 150 188 224 272 333
#
# _framework density 19.998314000000001
#
# number of rings (size 3 to 8) (size 9 to 14) (size 15 to 20)
#    0.000    1.429    0.000    9.000    0.000    1.143 
#    0.000    0.714    0.000   12.000    0.000    0.000 
#    0.000    0.000    0.000    0.000    0.000    0.000 
#
# Total GULP energy -173523.898283 kJ/mol
# GULP energy per Si atom -12394.564163 kJ/mol
# Density = 1.995280 g / cm^3
# Si number density = 19.998314 Si / 1000 Ang^3
#
#
#
# Elastic Constant Matrix: (Units=GPa)
#
#
# Indices 1 2 3 4 5 6 
#
# 1 58.6545 51.8879 27.1026 -9.1850 1.1729 -12.3290
# 2 51.8879 130.1654 45.8791 -19.0973 6.9695 -21.6376
# 3 27.1026 45.8791 117.4754 1.4761 2.0278 -10.9544
# 4 -9.1850 -19.0973 1.4761 35.1536 -1.2106 4.0644
# 5 1.1729 6.9695 2.0278 -1.2106 25.5147 -4.3323
# 6 -12.3290 -21.6376 -10.9544 4.0644 -4.3323 42.6187
#
#
#
# Elastic Compliance Matrix: (Units=1/GPa)
#
#
# Indices 1 2 3 4 5 6 
#
# 1 0.027311 -0.009443 -0.002438 0.001889 0.002033 0.002506
# 2 -0.009443 0.013780 -0.002959 0.004736 -0.002393 0.002809
# 3 -0.002438 -0.002959 0.010331 -0.002759 0.000091 0.000720
# 4 0.001889 0.004736 -0.002759 0.031724 0.000215 -0.000762
# 5 0.002033 -0.002393 0.000091 0.000215 0.040347 0.003477
# 6 0.002506 0.002809 0.000720 -0.000762 0.003477 0.026226
#
#
# Mechanical properties :
#
#
# Convention : Reuss Voigt Hill
#
# Bulk Modulus (GPa) = 45.99596 61.78163 53.88879
# Shear Modulus (GPa) = 26.78871 32.75243 29.77057
#
# Velocity S-wave (km/s) = 3.66396 4.05131 3.86249
# Velocity P-wave (km/s) = 6.39916 7.26943 6.84814
#
# Compressibility (1/GPa) = 0.02174104
#
# Stress axis : x y z
#
# Youngs Moduli (GPa) = 36.61537 72.57124 96.79710
#
# Poissons Ratio (x) = 0.68527 0.23601
# Poissons Ratio (y) = 0.34575 0.28645
# Poissons Ratio (z) = 0.08928 0.21476
#
# Static dielectric constant tensor:
#      x y z
#    x 3.949740 0.151690 0.089970 
#    y 0.151690 3.935630 -0.001390 
#    z 0.089970 -0.001390 3.903290 
# 
# 
# High freq. dielectric constant tensor:
#      x y z
#    x 1.759070 0.000540 0.013920 
#    y 0.000540 1.777150 0.000660 
#    z 0.013920 0.000660 1.799400 
# 
# From -- ./inp_files/272453.got.cif
#   From: 2010.06.25/outbox.cif.g09.slc.cpg/sg2_137_cif.got.tgz:272453.got - 2010.06.27 13:26:56.
