data_PCOD8002167
_publ_section_title
;
Structure prediction by ZEFSAII (Michael W. Deem and Ramdas Pophale) SiO2 
 PCOD8002167
Probable space group: P -1
;
_chemical_formula_sum "Si O2"
_cell_formula_units_Z 16
_cell_length_a 11.193479
_cell_length_b 8.948671
_cell_length_c 27.184033
_cell_angle_alpha 51.766654
_cell_angle_beta 159.545268
_cell_angle_gamma 129.513677
_cell_volume 731.504271
_symmetry_space_group_name_H-M "P -1"
_symmetry_group_IT_number 2
_symmetry_cell_setting 'triclinic'
loop_
_space_group_symop_operation_xyz
x,y,z
-x,-y,-z
loop_
_atom_site_type_symbol
_atom_site_label
_atom_site_fract_x
_atom_site_fract_y
_atom_site_fract_z
Si Si1 0.724096 0.375462 0.779135
Si Si2 0.372396 0.879626 0.351293
Si Si3 0.229706 0.073039 0.416181
Si Si4 0.037880 0.067733 0.904255
Si Si5 0.437966 0.485533 0.551187
Si Si6 0.564158 0.392404 0.997467
Si Si7 0.502239 0.805506 0.170989
Si Si8 0.190748 0.375254 0.760101
O O1 0.434279 0.411895 0.621095
O O2 0.533014 0.322814 0.767505
O O3 0.919096 0.204950 0.871497
O O4 0.019869 0.574845 0.857830
O O5 0.704376 0.990501 0.488379
O O6 0.409922 0.662567 0.394161
O O7 0.283614 0.999860 0.245049
O O8 0.053230 0.832083 0.276842
O O9 0.297607 0.306546 0.393360
O O10 0.500000 0.000000 0.500000
O O11 0.833502 0.983412 0.267586
O O12 0.370917 0.170272 0.978351
O O13 0.146778 0.885958 0.009891
O O14 0.041690 0.485101 0.382693
O O15 0.397955 0.473648 0.868187
O O16 0.500000 0.500000 0.000000
O O17 0.537313 0.667113 0.167072
#
# Coordination Sequence:
#
# PCOD8002167 Si02
#       8
#     2   2   2   2   2   2   2   2
#     4  10  22  39  58  87 117 159 201 235 296 353
#     4   9  19  37  62  87 114 150 209 247 281 343
#     4  11  20  38  59  92 117 152 198 240 300 352
#     4   9  20  39  60  83 113 155 198 248 286 343
#     4  10  20  40  64  84 116 158 205 247 276 352
#     4   9  19  38  62  82 107 149 208 242 277 352
#     4  12  23  36  57  88 129 155 183 252 304 351
#     4  10  20  35  56  88 117 149 197 243 301 334
#
# _framework density 21.872736
#
# number of rings (size 3 to 8) (size 9 to 14) (size 15 to 20)
#    0.000    2.000    2.500    3.375    0.000    7.000 
#    2.250    3.750    0.000    0.000    0.000    0.000 
#    0.000    0.000    0.000    0.000    0.000    0.000 
#
# Total GULP energy -198280.459121 kJ/mol
# GULP energy per Si atom -12392.528695 kJ/mol
# Density = 2.182295 g / cm^3
# Si number density = 21.872736 Si / 1000 Ang^3
#
#
#
# Elastic Constant Matrix: (Units=GPa)
#
#
# Indices 1 2 3 4 5 6 
#
# 1 114.1483 23.7831 41.6142 1.0670 -26.9590 -7.6483
# 2 23.7831 32.4953 19.9817 4.8746 -12.5477 -5.5657
# 3 41.6142 19.9817 128.3110 -0.7296 -35.1802 -15.2774
# 4 1.0670 4.8746 -0.7296 17.5433 -2.1747 -7.1776
# 5 -26.9590 -12.5477 -35.1802 -2.1747 36.4457 2.7990
# 6 -7.6483 -5.5657 -15.2774 -7.1776 2.7990 19.2626
#
#
#
# Elastic Compliance Matrix: (Units=1/GPa)
#
#
# Indices 1 2 3 4 5 6 
#
# 1 0.011834 -0.005777 -0.001100 0.002464 0.005677 0.002250
# 2 -0.005777 0.040960 -0.002269 -0.008867 0.006845 0.003443
# 3 -0.001100 -0.002269 0.012459 0.006443 0.010069 0.009727
# 4 0.002464 -0.008867 0.006443 0.072540 0.007050 0.029532
# 5 0.005677 0.006845 0.010069 0.007050 0.043480 0.008527
# 6 0.002250 0.003443 0.009727 0.029532 0.008527 0.071282
#
#
# Mechanical properties :
#
#
# Convention : Reuss Voigt Hill
#
# Bulk Modulus (GPa) = 21.29377 49.52363 35.40870
# Shear Modulus (GPa) = 17.45206 27.28868 22.37037
#
# Velocity S-wave (km/s) = 2.82776 3.53599 3.20152
# Velocity P-wave (km/s) = 4.51864 6.27390 5.46717
#
# Compressibility (1/GPa) = 0.04696210
#
# Stress axis : x y z
#
# Youngs Moduli (GPa) = 84.50488 24.41421 80.26230
#
# Poissons Ratio (x) = 0.14103 0.08827
# Poissons Ratio (y) = 0.48816 0.18209
# Poissons Ratio (z) = 0.09294 0.05539
#
# Static dielectric constant tensor:
#      x y z
#    x 3.902570 -0.074290 -0.298720 
#    y -0.074290 3.594510 0.237070 
#    z -0.298720 0.237070 4.366530 
# 
# 
# High freq. dielectric constant tensor:
#      x y z
#    x 1.856350 -0.014660 -0.026730 
#    y -0.014660 1.808020 0.003480 
#    z -0.026730 0.003480 1.876680 
# 
# From -- ./inp_files/587949.got.cif
#   From: 2010.06.25/outbox.cif.g09.slc.cpg/sg2_294_cif.got.tgz:587949.got - 2010.06.27 13:26:56.
