data_PCOD8002111
_publ_section_title
;
Structure prediction by ZEFSAII (Michael W. Deem and Ramdas Pophale) SiO2 
 PCOD8002111
Probable space group: P -1
;
_chemical_formula_sum "Si O2"
_cell_formula_units_Z 16
_cell_length_a 14.775904
_cell_length_b 8.915987
_cell_length_c 10.225704
_cell_angle_alpha 111.418807
_cell_angle_beta 42.734440
_cell_angle_gamma 92.254898
_cell_volume 793.220594
_symmetry_space_group_name_H-M "P -1"
_symmetry_group_IT_number 2
_symmetry_cell_setting 'triclinic'
loop_
_space_group_symop_operation_xyz
x,y,z
-x,-y,-z
loop_
_atom_site_type_symbol
_atom_site_label
_atom_site_fract_x
_atom_site_fract_y
_atom_site_fract_z
Si Si1 0.620410 0.029252 0.201374
Si Si2 0.036552 0.425440 0.636819
Si Si3 0.738634 0.467418 0.450051
Si Si4 0.316824 0.069460 0.607214
Si Si5 0.087193 0.220336 0.270953
Si Si6 0.099080 0.910146 0.745579
Si Si7 0.437274 0.603789 0.728818
Si Si8 0.792501 0.522205 0.115494
O O1 0.654284 0.038255 0.322183
O O2 0.462907 0.017418 0.351358
O O3 0.625269 0.194849 0.172939
O O4 0.741863 0.869550 0.953120
O O5 0.952660 0.606687 0.714897
O O6 0.195655 0.409994 0.502912
O O7 0.047364 0.266191 0.479779
O O8 0.951035 0.424857 0.860443
O O9 0.792819 0.279127 0.394110
O O10 0.567230 0.555990 0.679395
O O11 0.789457 0.450832 0.240736
O O12 0.256590 0.271772 0.768222
O O13 0.197521 0.020969 0.637470
O O14 0.002480 0.099466 0.270267
O O15 0.000000 0.000000 0.000000
O O16 0.500000 0.500000 0.500000
O O17 0.312260 0.537278 0.887190
#
# Coordination Sequence:
#
# PCOD8002111 Si02
#       8
#     2   2   2   2   2   2   2   2
#     4  11  20  36  57  87 114 150 189 234 283 334
#     4  10  21  40  58  84 112 157 192 231 284 343
#     4  10  21  37  57  86 117 148 185 238 293 331
#     4  11  20  32  60  92 112 142 196 239 279 333
#     4  10  22  39  60  80 119 152 191 235 285 335
#     4  11  21  35  59  88 114 147 188 242 283 331
#     4  10  20  35  55  84 120 148 179 239 293 331
#     4  11  20  36  60  89 114 148 190 238 286 338
#
# _framework density 20.170935
#
# number of rings (size 3 to 8) (size 9 to 14) (size 15 to 20)
#    0.000    1.500    5.000    2.625    1.750    0.000 
#    0.000    2.500    0.000    4.500    0.000    0.000 
#    0.000    0.000    0.000    0.000    0.000    0.000 
#
# Total GULP energy -198362.169119 kJ/mol
# GULP energy per Si atom -12397.635570 kJ/mol
# Density = 2.012502 g / cm^3
# Si number density = 20.170935 Si / 1000 Ang^3
#
#
#
# Elastic Constant Matrix: (Units=GPa)
#
#
# Indices 1 2 3 4 5 6 
#
# 1 92.9972 42.9542 49.2704 2.5316 -11.2040 34.5353
# 2 42.9542 85.3614 34.1518 -7.5107 -12.6357 30.6309
# 3 49.2704 34.1518 94.9390 3.1119 -10.5870 24.2535
# 4 2.5316 -7.5107 3.1119 17.6553 0.5750 -7.1239
# 5 -11.2040 -12.6357 -10.5870 0.5750 27.6620 -4.9975
# 6 34.5353 30.6309 24.2535 -7.1239 -4.9975 38.6720
#
#
#
# Elastic Compliance Matrix: (Units=1/GPa)
#
#
# Indices 1 2 3 4 5 6 
#
# 1 0.021112 -0.004009 -0.005449 -0.009370 0.002357 -0.013682
# 2 -0.004009 0.018736 -0.002222 0.005449 0.004474 -0.008284
# 3 -0.005449 -0.002222 0.015466 -0.004417 0.002137 -0.003611
# 4 -0.009370 0.005449 -0.004417 0.068939 -0.000924 0.019402
# 5 0.002357 0.004474 0.002137 -0.000924 0.039618 -0.002039
# 6 -0.013682 -0.008284 -0.003611 0.019402 -0.002039 0.050213
#
#
# Mechanical properties :
#
#
# Convention : Reuss Voigt Hill
#
# Bulk Modulus (GPa) = 31.29710 58.45006 44.87358
# Shear Modulus (GPa) = 20.15359 26.59259 23.37309
#
# Velocity S-wave (km/s) = 3.16435 3.63486 3.40774
# Velocity P-wave (km/s) = 5.37591 6.83056 6.14642
#
# Compressibility (1/GPa) = 0.03195184
#
# Stress axis : x y z
#
# Youngs Moduli (GPa) = 47.36731 53.37356 64.65908
#
# Poissons Ratio (x) = 0.21400 0.35232
# Poissons Ratio (y) = 0.18992 0.14370
# Poissons Ratio (z) = 0.25810 0.11862
#
# Static dielectric constant tensor:
#      x y z
#    x 4.107460 0.350440 -0.549010 
#    y 0.350440 3.563340 -0.204040 
#    z -0.549010 -0.204040 3.768170 
# 
# 
# High freq. dielectric constant tensor:
#      x y z
#    x 1.774240 0.016060 -0.035000 
#    y 0.016060 1.784740 0.004920 
#    z -0.035000 0.004920 1.772350 
# 
# From -- ./inp_files/401628.got.cif
#   From: 2010.06.25/outbox.cif.g09.slc.cpg/sg2_201_cif.got.tgz:401628.got - 2010.06.27 13:26:56.
