data_PCOD8002873
_publ_section_title
;
Structure prediction by ZEFSAII (Michael W. Deem and Ramdas Pophale) SiO2 
 PCOD8002873
Probable space group: P -1
;
_chemical_formula_sum "Si O2"
_cell_formula_units_Z 12
_cell_length_a 13.561811
_cell_length_b 13.896683
_cell_length_c 11.478468
_cell_angle_alpha 135.789291
_cell_angle_beta 158.289034
_cell_angle_gamma 45.844117
_cell_volume 554.053016
_symmetry_space_group_name_H-M "P -1"
_symmetry_group_IT_number 2
_symmetry_cell_setting 'triclinic'
loop_
_space_group_symop_operation_xyz
x,y,z
-x,-y,-z
loop_
_atom_site_type_symbol
_atom_site_label
_atom_site_fract_x
_atom_site_fract_y
_atom_site_fract_z
Si Si1 0.902012 0.717805 0.630034
Si Si2 0.654080 0.479898 0.485828
Si Si3 0.525886 0.063245 0.707984
Si Si4 0.749118 0.445367 0.303586
Si Si5 0.148523 0.646196 0.178247
Si Si6 0.079556 0.913922 0.190638
O O1 0.598379 0.773581 0.298613
O O2 0.915740 0.580403 0.606171
O O3 0.081242 0.686961 0.684337
O O4 0.020980 0.837741 0.938369
O O5 0.671124 0.406008 0.314405
O O6 0.350669 0.551167 0.232602
O O7 0.730795 0.362768 0.566175
O O8 0.854623 0.597155 0.813595
O O9 0.500000 0.000000 0.500000
O O10 0.347248 0.986897 0.536598
O O11 0.836481 0.033578 0.061167
O O12 0.500000 0.500000 0.000000
O O13 0.120730 0.805455 0.247125
#
# Coordination Sequence:
#
# PCOD8002873 Si02
#       6
#     2   2   2   2   2   2
#     4  10  22  35  50  86 112 147 185 221 289 335
#     4  10  21  37  55  85 113 147 185 232 281 325
#     4  10  22  34  56  81 112 147 184 235 274 325
#     4  11  23  34  58  80 120 153 174 232 281 351
#     4  10  20  36  60  81 112 144 190 238 272 326
#     4  11  20  36  59  81 112 144 187 236 276 324
#
# _framework density 21.658577999999999
#
# number of rings (size 3 to 8) (size 9 to 14) (size 15 to 20)
#    0.000    1.667    1.667    4.000   11.667    0.000 
#    0.000    0.000    0.000    2.000    0.000    0.000 
#    0.000    0.000    0.000    0.000    0.000    0.000 
#
# Total GULP energy -148780.060780 kJ/mol
# GULP energy per Si atom -12398.338398 kJ/mol
# Density = 2.160928 g / cm^3
# Si number density = 21.658578 Si / 1000 Ang^3
#
#
#
# Elastic Constant Matrix: (Units=GPa)
#
#
# Indices 1 2 3 4 5 6 
#
# 1 145.2580 51.3426 23.7147 -21.8917 -4.7114 -2.5568
# 2 51.3426 117.2217 11.5190 -29.9055 -4.1396 -0.1113
# 3 23.7147 11.5190 43.2460 -15.8557 7.0813 -7.1724
# 4 -21.8917 -29.9055 -15.8557 28.7140 2.7696 4.1870
# 5 -4.7114 -4.1396 7.0813 2.7696 37.7044 -2.5157
# 6 -2.5568 -0.1113 -7.1724 4.1870 -2.5157 39.9525
#
#
#
# Elastic Compliance Matrix: (Units=1/GPa)
#
#
# Indices 1 2 3 4 5 6 
#
# 1 0.008844 -0.003125 -0.003800 0.001283 0.001370 -0.000173
# 2 -0.003125 0.012865 0.002906 0.012821 -0.000534 -0.001020
# 3 -0.003800 0.002906 0.033031 0.018616 -0.007508 0.003271
# 4 0.001283 0.012821 0.018616 0.060555 -0.006597 -0.003302
# 5 0.001370 -0.000534 -0.007508 -0.006597 0.028612 0.001231
# 6 -0.000173 -0.001020 0.003271 -0.003302 0.001231 0.026027
#
#
# Mechanical properties :
#
#
# Convention : Reuss Voigt Hill
#
# Bulk Modulus (GPa) = 21.41244 53.20871 37.31057
# Shear Modulus (GPa) = 25.83474 35.88413 30.85944
#
# Velocity S-wave (km/s) = 3.45747 4.07481 3.77877
# Velocity P-wave (km/s) = 5.08395 6.83806 6.02518
#
# Compressibility (1/GPa) = 0.04670183
#
# Stress axis : x y z
#
# Youngs Moduli (GPa) = 113.07271 77.73017 30.27496
#
# Poissons Ratio (x) = 0.24288 0.11505
# Poissons Ratio (y) = 0.35331 -0.08797
# Poissons Ratio (z) = 0.42968 -0.22587
#
# Static dielectric constant tensor:
#      x y z
#    x 4.140950 0.058160 0.379870 
#    y 0.058160 5.378480 -0.528340 
#    z 0.379870 -0.528340 3.922640 
# 
# 
# High freq. dielectric constant tensor:
#      x y z
#    x 1.850880 0.008600 0.031750 
#    y 0.008600 1.848030 -0.024240 
#    z 0.031750 -0.024240 1.831120 
# 
# From -- ./inp_files/27164.got.cif
#   From: 2010.06.25/outbox.cif.g09.slc.cpg/sg2_14_cif.got.tgz:27164.got - 2010.06.27 13:26:56.
