data_PCOD8002147
_publ_section_title
;
Structure prediction by ZEFSAII (Michael W. Deem and Ramdas Pophale) SiO2 
 PCOD8002147
Probable space group: P -1
;
_chemical_formula_sum "Si O2"
_cell_formula_units_Z 16
_cell_length_a 14.302207
_cell_length_b 11.911446
_cell_length_c 8.857768
_cell_angle_alpha 37.500911
_cell_angle_beta 68.998498
_cell_angle_gamma 70.959072
_cell_volume 855.285307
_symmetry_space_group_name_H-M "P -1"
_symmetry_group_IT_number 2
_symmetry_cell_setting 'triclinic'
loop_
_space_group_symop_operation_xyz
x,y,z
-x,-y,-z
loop_
_atom_site_type_symbol
_atom_site_label
_atom_site_fract_x
_atom_site_fract_y
_atom_site_fract_z
Si Si1 0.538223 0.799046 0.374328
Si Si2 0.094285 0.819658 0.776188
Si Si3 0.073333 0.475425 0.345619
Si Si4 0.573478 0.489803 0.107404
Si Si5 0.437076 0.187599 0.997836
Si Si6 0.288473 0.311407 0.374499
Si Si7 0.754289 0.912824 0.631704
Si Si8 0.034172 0.222375 0.376842
O O1 0.438223 0.706183 0.593434
O O2 0.635268 0.726535 0.491504
O O3 0.520519 0.019860 0.160853
O O4 0.556865 0.739403 0.254088
O O5 0.047703 0.720299 0.764512
O O6 0.207192 0.879300 0.610013
O O7 0.024123 0.006452 0.661222
O O8 0.097024 0.678793 0.062024
O O9 0.178580 0.365803 0.447848
O O10 0.014190 0.361308 0.378669
O O11 0.000000 0.500000 0.500000
O O12 0.500000 0.500000 0.000000
O O13 0.540445 0.649613 0.075872
O O14 0.681626 0.524614 0.934199
O O15 0.327049 0.112998 0.164563
O O16 0.289127 0.126162 0.469216
O O17 0.850845 0.764785 0.763087
#
# Coordination Sequence:
#
# PCOD8002147 Si02
#       8
#     2   2   2   2   2   2   2   2
#     4  10  21  36  55  80 114 139 173 229 269 316
#     4   9  18  36  59  76 105 145 180 220 259 319
#     4  11  22  35  55  82 112 140 175 226 270 317
#     4   9  19  35  59  76 105 144 179 217 258 320
#     4  10  20  35  56  83 108 138 180 221 274 309
#     4   9  20  38  51  82 108 144 183 215 265 319
#     4   8  17  34  56  80 104 142 180 218 255 323
#     4   8  18  37  57  81 104 140 186 217 263 312
#
# _framework density 18.707208999999999
#
# number of rings (size 3 to 8) (size 9 to 14) (size 15 to 20)
#    0.750    2.000    0.000    0.750    1.750    6.000 
#    2.250    1.250    5.500    0.000    0.000    0.000 
#    0.000    0.000    0.000    0.000    0.000    0.000 
#
# Total GULP energy -198246.981597 kJ/mol
# GULP energy per Si atom -12390.436350 kJ/mol
# Density = 1.866463 g / cm^3
# Si number density = 18.707209 Si / 1000 Ang^3
#
#
#
# Elastic Constant Matrix: (Units=GPa)
#
#
# Indices 1 2 3 4 5 6 
#
# 1 86.2331 31.9385 40.0036 14.7681 -6.1921 11.7777
# 2 31.9385 72.0430 28.3121 18.2373 -3.9198 6.2133
# 3 40.0036 28.3121 96.5012 15.5554 -0.2014 6.9482
# 4 14.7681 18.2373 15.5554 25.8818 -2.0901 -4.8579
# 5 -6.1921 -3.9198 -0.2014 -2.0901 23.5251 -1.7771
# 6 11.7777 6.2133 6.9482 -4.8579 -1.7771 27.5457
#
#
#
# Elastic Compliance Matrix: (Units=1/GPa)
#
#
# Indices 1 2 3 4 5 6 
#
# 1 0.017080 -0.003735 -0.004714 -0.005171 0.002921 -0.005995
# 2 -0.003735 0.019591 -0.002104 -0.011118 0.000959 -0.004190
# 3 -0.004714 -0.002104 0.013822 -0.004666 -0.002035 -0.001951
# 4 -0.005171 -0.011118 -0.004666 0.055434 0.002869 0.015857
# 5 0.002921 0.000959 -0.002035 0.002869 0.043854 0.002383
# 6 -0.005995 -0.004190 -0.001951 0.015857 0.002383 0.043254
#
#
# Mechanical properties :
#
#
# Convention : Reuss Voigt Hill
#
# Bulk Modulus (GPa) = 34.02559 50.58729 42.30644
# Shear Modulus (GPa) = 22.32773 25.69207 24.00990
#
# Velocity S-wave (km/s) = 3.45851 3.70993 3.58642
# Velocity P-wave (km/s) = 5.84605 6.74179 6.30984
#
# Compressibility (1/GPa) = 0.02938964
#
# Stress axis : x y z
#
# Youngs Moduli (GPa) = 58.54633 51.04340 72.34846
#
# Poissons Ratio (x) = 0.19064 0.34102
# Poissons Ratio (y) = 0.21867 0.15219
# Poissons Ratio (z) = 0.27596 0.10737
#
# Static dielectric constant tensor:
#      x y z
#    x 3.437660 0.141650 -0.296930 
#    y 0.141650 3.268960 -0.036510 
#    z -0.296930 -0.036510 3.486020 
# 
# 
# High freq. dielectric constant tensor:
#      x y z
#    x 1.722350 0.013970 -0.010800 
#    y 0.013970 1.715970 -0.006890 
#    z -0.010800 -0.006890 1.715930 
# 
# From -- ./inp_files/302081.got.cif
#   From: 2010.06.25/outbox.cif.g09.slc.cpg/sg2_152_cif.got.tgz:302081.got - 2010.06.27 13:26:56.
