data_PCOD8002815
_publ_section_title
;
Structure prediction by ZEFSAII (Michael W. Deem and Ramdas Pophale) SiO2 
 PCOD8002815
Probable space group: P -1
;
_chemical_formula_sum "Si O2"
_cell_formula_units_Z 16
_cell_length_a 20.837328
_cell_length_b 8.560106
_cell_length_c 7.570899
_cell_angle_alpha 104.227171
_cell_angle_beta 71.591247
_cell_angle_gamma 47.495529
_cell_volume 712.653477
_symmetry_space_group_name_H-M "P -1"
_symmetry_group_IT_number 2
_symmetry_cell_setting 'triclinic'
loop_
_space_group_symop_operation_xyz
x,y,z
-x,-y,-z
loop_
_atom_site_type_symbol
_atom_site_label
_atom_site_fract_x
_atom_site_fract_y
_atom_site_fract_z
Si Si1 0.037741 0.213614 0.637979
Si Si2 0.164000 0.887332 0.092078
Si Si3 0.810178 0.600569 0.723163
Si Si4 0.044882 0.566177 0.780037
Si Si5 0.211675 0.663874 0.527029
Si Si6 0.811575 0.493356 0.143895
Si Si7 0.631903 0.055008 0.267662
Si Si8 0.365271 0.583171 0.585800
O O1 0.030205 0.405965 0.779666
O O2 0.908976 0.402399 0.738936
O O3 0.129041 0.043452 0.346419
O O4 0.090157 0.992248 0.678558
O O5 0.151064 0.719211 0.086671
O O6 0.294808 0.677220 0.853238
O O7 0.079174 0.111824 0.070091
O O8 0.862014 0.584887 0.501085
O O9 0.762295 0.512743 0.703275
O O10 0.701653 0.915864 0.981314
O O11 0.090924 0.555179 0.922536
O O12 0.198178 0.581152 0.686273
O O13 0.315018 0.591479 0.456414
O O14 0.688554 0.814886 0.285402
O O15 0.497999 0.264415 0.410215
O O16 0.639413 0.217169 0.391946
#
# Coordination Sequence:
#
# PCOD8002815 Si02
#       8
#     2   2   2   2   2   2   2   2
#     4  11  20  36  60  85 115 147 182 227 280 331
#     4  10  20  37  58  84 113 147 185 227 278 330
#     4  10  21  37  58  85 114 146 183 227 280 331
#     4  10  20  36  59  86 115 144 183 230 278 330
#     4  10  22  38  57  85 116 146 186 230 274 332
#     4  10  22  37  57  83 116 148 183 229 278 331
#     4  11  22  40  60  80 110 150 188 230 277 327
#     4  10  23  40  59  82 110 145 191 232 274 329
#
# _framework density 22.451305000000001
#
# number of rings (size 3 to 8) (size 9 to 14) (size 15 to 20)
#    0.000    1.750    0.000    5.250    0.000    7.500 
#    0.000    6.875    0.000    9.000    0.000    0.000 
#    0.000    0.000    0.000    0.000    0.000    0.000 
#
# Total GULP energy -198393.818516 kJ/mol
# GULP energy per Si atom -12399.613657 kJ/mol
# Density = 2.240021 g / cm^3
# Si number density = 22.451305 Si / 1000 Ang^3
#
#
#
# Elastic Constant Matrix: (Units=GPa)
#
#
# Indices 1 2 3 4 5 6 
#
# 1 137.3820 20.8238 42.7923 17.6912 21.6434 -5.5005
# 2 20.8238 80.6698 26.7012 26.6714 13.0646 3.9147
# 3 42.7923 26.7012 98.2147 18.2025 -8.8095 -9.7053
# 4 17.6912 26.6714 18.2025 41.0679 0.4893 5.9952
# 5 21.6434 13.0646 -8.8095 0.4893 45.9882 3.3538
# 6 -5.5005 3.9147 -9.7053 5.9952 3.3538 32.0116
#
#
#
# Elastic Compliance Matrix: (Units=1/GPa)
#
#
# Indices 1 2 3 4 5 6 
#
# 1 0.009856 0.000717 -0.004316 -0.002942 -0.005744 0.001450
# 2 0.000717 0.017805 -0.003919 -0.009954 -0.005986 -0.000751
# 3 -0.004316 -0.003919 0.014537 -0.002698 0.005662 0.004057
# 4 -0.002942 -0.009954 -0.002698 0.034242 0.003836 -0.006921
# 5 -0.005744 -0.005986 0.005662 0.003836 0.027347 -0.002122
# 6 0.001450 -0.000751 0.004057 -0.006921 -0.002122 0.034328
#
#
# Mechanical properties :
#
#
# Convention : Reuss Voigt Hill
#
# Bulk Modulus (GPa) = 36.81699 55.21127 46.01413
# Shear Modulus (GPa) = 30.82489 38.87683 34.85086
#
# Velocity S-wave (km/s) = 3.70938 4.16577 3.94418
# Velocity P-wave (km/s) = 5.89747 6.91254 6.42508
#
# Compressibility (1/GPa) = 0.02716137
#
# Stress axis : x y z
#
# Youngs Moduli (GPa) = 101.45670 56.16278 68.79195
#
# Poissons Ratio (x) = -0.04025 0.29691
# Poissons Ratio (y) = -0.07271 0.26961
# Poissons Ratio (z) = 0.43789 0.22011
#
# Static dielectric constant tensor:
#      x y z
#    x 4.643720 -0.070820 0.509030 
#    y -0.070820 3.987060 -0.030300 
#    z 0.509030 -0.030300 4.156830 
# 
# 
# High freq. dielectric constant tensor:
#      x y z
#    x 1.893920 0.009540 0.023830 
#    y 0.009540 1.889280 -0.006620 
#    z 0.023830 -0.006620 1.886910 
# 
# From -- ./inp_files/199411.got.cif
#   From: 2010.06.25/outbox.cif.g09.slc.cpg/sg2_100_cif.got.tgz:199411.got - 2010.06.27 13:26:56.
