data_PCOD8002304
_publ_section_title
;
Structure prediction by ZEFSAII (Michael W. Deem and Ramdas Pophale) SiO2 
 PCOD8002304
Probable space group: P -1
;
_chemical_formula_sum "Si O2"
_cell_formula_units_Z 16
_cell_length_a 8.241603
_cell_length_b 16.579167
_cell_length_c 12.561738
_cell_angle_alpha 115.432557
_cell_angle_beta 112.083979
_cell_angle_gamma 124.042999
_cell_volume 728.335151
_symmetry_space_group_name_H-M "P -1"
_symmetry_group_IT_number 2
_symmetry_cell_setting 'triclinic'
loop_
_space_group_symop_operation_xyz
x,y,z
-x,-y,-z
loop_
_atom_site_type_symbol
_atom_site_label
_atom_site_fract_x
_atom_site_fract_y
_atom_site_fract_z
Si Si1 0.647356 0.971201 0.052434
Si Si2 0.668538 0.011042 0.311673
Si Si3 0.539337 0.869454 0.422506
Si Si4 0.791657 0.588115 0.046569
Si Si5 0.569054 0.678575 0.355703
Si Si6 0.563272 0.631623 0.559532
Si Si7 0.920841 0.132527 0.846245
Si Si8 0.326920 0.189835 0.138452
O O1 0.572442 0.916845 0.126602
O O2 0.468904 0.807658 0.855649
O O3 0.047506 0.162820 0.235517
O O4 0.500000 0.000000 0.000000
O O5 0.071211 0.216027 0.517825
O O6 0.600260 0.914770 0.338720
O O7 0.429094 0.994728 0.248478
O O8 0.636061 0.812877 0.447778
O O9 0.144013 0.720576 0.272464
O O10 0.805698 0.046040 0.653925
O O11 0.852375 0.681370 0.016387
O O12 0.500000 0.500000 0.000000
O O13 0.676262 0.448161 0.877030
O O14 0.400176 0.576602 0.370936
O O15 0.500000 0.500000 0.500000
O O16 0.435074 0.643511 0.629564
O O17 0.174199 0.179735 0.998082
O O18 0.000000 0.000000 0.000000
#
# Coordination Sequence:
#
# PCOD8002304 Si02
#       8
#     2   2   2   2   2   2   2   2
#     4  10  21  37  60  87 114 151 200 247 292 345
#     4  10  20  35  59  86 116 151 195 246 291 346
#     4  11  22  38  59  86 115 153 196 240 292 350
#     4  11  23  39  57  84 119 154 189 236 292 353
#     4  11  22  37  58  87 118 154 193 241 296 349
#     4  10  21  39  59  83 118 156 194 241 296 350
#     4  11  21  38  62  85 113 154 197 239 291 350
#     4  10  20  37  60  86 113 151 197 244 291 347
#
# _framework density 21.967908000000001
#
# number of rings (size 3 to 8) (size 9 to 14) (size 15 to 20)
#    0.000    1.500    0.000    8.250    0.000    2.000 
#    0.000    1.875    0.000    0.000    0.000    0.000 
#    0.000    0.000    0.000    0.000    0.000    0.000 
#
# Total GULP energy -198217.037014 kJ/mol
# GULP energy per Si atom -12388.564813 kJ/mol
# Density = 2.191791 g / cm^3
# Si number density = 21.967908 Si / 1000 Ang^3
#
#
#
# Elastic Constant Matrix: (Units=GPa)
#
#
# Indices 1 2 3 4 5 6 
#
# 1 119.4568 38.8959 29.2096 -10.2686 -22.0222 -6.5764
# 2 38.8959 87.9460 19.2911 -14.7938 -11.5698 1.8279
# 3 29.2096 19.2911 64.2924 -12.9007 -19.5807 10.3281
# 4 -10.2686 -14.7938 -12.9007 28.0947 0.2301 -2.1906
# 5 -22.0222 -11.5698 -19.5807 0.2301 45.0436 -2.0784
# 6 -6.5764 1.8279 10.3281 -2.1906 -2.0784 32.5465
#
#
#
# Elastic Compliance Matrix: (Units=1/GPa)
#
#
# Indices 1 2 3 4 5 6 
#
# 1 0.011329 -0.003760 -0.003489 0.000834 0.003231 0.003870
# 2 -0.003760 0.014395 -0.000909 0.005714 0.001397 -0.000806
# 3 -0.003489 -0.000909 0.022344 0.007920 0.007422 -0.006737
# 4 0.000834 0.005714 0.007920 0.042543 0.005125 0.000525
# 5 0.003231 0.001397 0.007422 0.005125 0.027354 0.000311
# 6 0.003870 -0.000806 -0.006737 0.000525 0.000311 0.033746
#
#
# Mechanical properties :
#
#
# Convention : Reuss Voigt Hill
#
# Bulk Modulus (GPa) = 31.49594 49.60984 40.55289
# Shear Modulus (GPa) = 27.99369 33.42352 30.70861
#
# Velocity S-wave (km/s) = 3.57361 3.90483 3.74289
# Velocity P-wave (km/s) = 5.60321 6.55456 6.09746
#
# Compressibility (1/GPa) = 0.03175012
#
# Stress axis : x y z
#
# Youngs Moduli (GPa) = 88.26814 69.46933 44.75464
#
# Poissons Ratio (x) = 0.26123 0.15616
# Poissons Ratio (y) = 0.33192 0.04069
# Poissons Ratio (z) = 0.30800 0.06317
#
# Static dielectric constant tensor:
#      x y z
#    x 4.382050 0.339350 -0.339100 
#    y 0.339350 3.927750 -0.207300 
#    z -0.339100 -0.207300 4.012560 
# 
# 
# High freq. dielectric constant tensor:
#      x y z
#    x 1.869720 0.000290 -0.017180 
#    y 0.000290 1.862020 -0.015660 
#    z -0.017180 -0.015660 1.855120 
# 
# From -- ./inp_files/403142.got.cif
#   From: 2010.06.25/outbox.cif.g09.slc.cpg/sg2_202_cif.got.tgz:403142.got - 2010.06.27 13:26:56.
