data_PCOD8002407
_publ_section_title
;
Structure prediction by ZEFSAII (Michael W. Deem and Ramdas Pophale) SiO2 
 PCOD8002407
Probable space group: P -1
;
_chemical_formula_sum "Si O2"
_cell_formula_units_Z 16
_cell_length_a 11.196344
_cell_length_b 17.771007
_cell_length_c 9.135286
_cell_angle_alpha 112.999887
_cell_angle_beta 101.838662
_cell_angle_gamma 31.157996
_cell_volume 833.225701
_symmetry_space_group_name_H-M "P -1"
_symmetry_group_IT_number 2
_symmetry_cell_setting 'triclinic'
loop_
_space_group_symop_operation_xyz
x,y,z
-x,-y,-z
loop_
_atom_site_type_symbol
_atom_site_label
_atom_site_fract_x
_atom_site_fract_y
_atom_site_fract_z
Si Si1 0.211690 0.562016 0.858041
Si Si2 0.924088 0.882845 0.091515
Si Si3 0.307329 0.087188 0.711611
Si Si4 0.688110 0.403575 0.345039
Si Si5 0.607193 0.137378 0.961764
Si Si6 0.777689 0.902246 0.633160
Si Si7 0.390743 0.679157 0.992662
Si Si8 0.891817 0.637478 0.989674
O O1 0.355779 0.488290 0.683511
O O2 0.378860 0.482789 0.980801
O O3 0.075420 0.554175 0.839852
O O4 0.008535 0.749594 0.936197
O O5 0.749429 0.959141 0.237779
O O6 0.160155 0.798954 0.132721
O O7 0.798383 0.014027 0.042716
O O8 0.230497 0.102417 0.544950
O O9 0.591818 0.942904 0.687351
O O10 0.143786 0.260500 0.842378
O O11 0.500000 0.500000 0.500000
O O12 0.951281 0.262931 0.371819
O O13 0.652253 0.347307 0.185911
O O14 0.575950 0.248049 0.992901
O O15 0.679722 0.047895 0.764170
O O16 0.360435 0.245291 0.049793
O O17 0.000000 0.500000 0.000000
#
# Coordination Sequence:
#
# PCOD8002407 Si02
#       8
#     2   2   2   2   2   2   2   2
#     4  10  21  38  59  88 117 153 201 238 283 353
#     4  10  20  35  61  87 111 152 198 239 282 345
#     4   9  22  37  61  81 119 150 195 242 289 340
#     4  11  24  36  62  85 119 155 198 235 292 347
#     4  11  21  37  63  86 118 151 195 242 292 340
#     4  10  21  39  56  86 113 153 193 235 292 343
#     4  11  22  39  59  87 123 150 193 242 293 345
#     4  10  20  36  63  90 112 156 196 243 292 343
#
# _framework density 19.202480000000001
#
# number of rings (size 3 to 8) (size 9 to 14) (size 15 to 20)
#    0.000    1.750    3.750    1.875    7.000    1.500 
#    0.000    1.875    0.000    1.500    0.000    0.000 
#    0.000    0.000    0.000    0.000    0.000    0.000 
#
# Total GULP energy -198216.737481 kJ/mol
# GULP energy per Si atom -12388.546093 kJ/mol
# Density = 1.915877 g / cm^3
# Si number density = 19.202480 Si / 1000 Ang^3
#
#
#
# Elastic Constant Matrix: (Units=GPa)
#
#
# Indices 1 2 3 4 5 6 
#
# 1 150.5641 41.0010 62.8250 -6.8866 -29.2180 -8.3272
# 2 41.0010 93.5568 32.1637 -7.7982 -9.0053 -13.2435
# 3 62.8250 32.1637 88.5660 -10.0408 -20.8201 -4.5860
# 4 -6.8866 -7.7982 -10.0408 14.5442 -0.4383 -1.0743
# 5 -29.2180 -9.0053 -20.8201 -0.4383 35.1865 -2.1444
# 6 -8.3272 -13.2435 -4.5860 -1.0743 -2.1444 38.5562
#
#
#
# Elastic Compliance Matrix: (Units=1/GPa)
#
#
# Indices 1 2 3 4 5 6 
#
# 1 0.010539 -0.002059 -0.005424 0.000385 0.005094 0.001218
# 2 -0.002059 0.013497 -0.002560 0.004810 0.000537 0.004051
# 3 -0.005424 -0.002560 0.018541 0.009094 0.005970 0.000740
# 4 0.000385 0.004810 0.009094 0.078447 0.008242 0.005461
# 5 0.005094 0.000537 0.005970 0.008242 0.036682 0.004264
# 6 0.001218 0.004051 0.000740 0.005461 0.004264 0.028068
#
#
# Mechanical properties :
#
#
# Convention : Reuss Voigt Hill
#
# Bulk Modulus (GPa) = 44.46159 67.18514 55.82337
# Shear Modulus (GPa) = 23.43487 30.77055 27.10271
#
# Velocity S-wave (km/s) = 3.49722 4.00737 3.76096
# Velocity P-wave (km/s) = 6.28584 7.51504 6.92775
#
# Compressibility (1/GPa) = 0.02249132
#
# Stress axis : x y z
#
# Youngs Moduli (GPa) = 94.88394 74.08990 53.93489
#
# Poissons Ratio (x) = 0.15257 0.29254
# Poissons Ratio (y) = 0.19539 0.13806
# Poissons Ratio (z) = 0.51465 0.18965
#
# Static dielectric constant tensor:
#      x y z
#    x 4.031120 -0.214030 -0.386380 
#    y -0.214030 3.561910 -0.042830 
#    z -0.386380 -0.042830 3.459730 
# 
# 
# High freq. dielectric constant tensor:
#      x y z
#    x 1.770970 -0.016640 -0.022100 
#    y -0.016640 1.748630 -0.010710 
#    z -0.022100 -0.010710 1.710480 
# 
# From -- ./inp_files/279633.got.cif
#   From: 2010.06.25/outbox.cif.g09.slc.cpg/sg2_140_cif.got.tgz:279633.got - 2010.06.27 13:26:56.
