data_PCOD8002788
_publ_section_title
;
Structure prediction by ZEFSAII (Michael W. Deem and Ramdas Pophale) SiO2 
 PCOD8002788
Probable space group: P -1
;
_chemical_formula_sum "Si O2"
_cell_formula_units_Z 16
_cell_length_a 14.162456
_cell_length_b 8.647775
_cell_length_c 11.078738
_cell_angle_alpha 67.037987
_cell_angle_beta 134.870219
_cell_angle_gamma 89.995979
_cell_volume 802.762884
_symmetry_space_group_name_H-M "P -1"
_symmetry_group_IT_number 2
_symmetry_cell_setting 'triclinic'
loop_
_space_group_symop_operation_xyz
x,y,z
-x,-y,-z
loop_
_atom_site_type_symbol
_atom_site_label
_atom_site_fract_x
_atom_site_fract_y
_atom_site_fract_z
Si Si1 0.310656 0.149206 0.560009
Si Si2 0.166317 0.606533 0.646512
Si Si3 0.833602 0.752962 0.353642
Si Si4 0.325307 0.764554 0.311416
Si Si5 0.372377 0.891828 0.079626
Si Si6 0.325653 0.423632 0.311774
Si Si7 0.310264 0.790697 0.559727
Si Si8 0.627261 0.471421 0.920104
O O1 0.200076 0.260803 0.532327
O O2 0.477177 0.087840 0.771839
O O3 0.268844 0.282200 0.363818
O O4 0.286668 0.968864 0.562140
O O5 0.196479 0.397951 0.704088
O O6 0.199373 0.707345 0.531738
O O7 0.000043 0.725027 0.500507
O O8 0.271697 0.605159 0.850099
O O9 0.728663 0.955153 0.150211
O O10 0.284836 0.916739 0.120996
O O11 0.258920 0.615739 0.268156
O O12 0.499836 0.661583 0.499604
O O13 0.268536 0.853720 0.363628
O O14 0.411714 0.688486 0.123283
O O15 0.285485 0.461742 0.121604
O O16 0.476615 0.639842 0.771547
#
# Coordination Sequence:
#
# PCOD8002788 Si02
#       8
#     2   2   2   2   2   2   2   2
#     4  11  21  34  57  85 112 142 179 222 266 320
#     4  11  24  40  56  76 107 145 184 227 272 319
#     4  11  24  40  56  76 107 145 184 227 272 319
#     4   8  16  32  54  81 111 140 173 219 270 315
#     4  10  20  36  59  84 111 142 178 222 269 319
#     4   8  16  32  54  81 111 140 173 219 270 315
#     4  11  21  34  57  85 112 142 179 222 266 320
#     4  10  20  36  59  84 111 142 178 222 269 319
#
# _framework density 19.931166999999999
#
# number of rings (size 3 to 8) (size 9 to 14) (size 15 to 20)
#    0.000    2.000    0.000    6.000    0.000    7.500 
#    0.000    1.250    0.000    0.000    0.000    0.000 
#    0.000    0.000    0.000    0.000    0.000    0.000 
#
# Total GULP energy -198392.281808 kJ/mol
# GULP energy per Si atom -12399.517613 kJ/mol
# Density = 1.988580 g / cm^3
# Si number density = 19.931167 Si / 1000 Ang^3
#
#
#
# Elastic Constant Matrix: (Units=GPa)
#
#
# Indices 1 2 3 4 5 6 
#
# 1 123.5586 23.9022 36.3379 -1.0414 -13.7964 4.0337
# 2 23.9022 57.7068 14.1889 -0.5491 0.7793 1.8842
# 3 36.3379 14.1889 18.4510 -0.6320 -5.1711 1.9443
# 4 -1.0414 -0.5491 -0.6320 19.8632 0.4622 -3.0059
# 5 -13.7964 0.7793 -5.1711 0.4622 25.8606 -1.0230
# 6 4.0337 1.8842 1.9443 -3.0059 -1.0230 27.6034
#
#
#
# Elastic Compliance Matrix: (Units=1/GPa)
#
#
# Indices 1 2 3 4 5 6 
#
# 1 0.019527 0.001422 -0.038810 -0.000255 0.002612 -0.000148
# 2 0.001422 0.021909 -0.020745 0.000056 -0.004066 -0.000387
# 3 -0.038810 -0.020745 0.149665 0.001484 0.009705 -0.002933
# 4 -0.000255 0.000056 0.001484 0.051223 -0.000539 0.005487
# 5 0.002612 -0.004066 0.009705 -0.000539 0.042164 0.000716
# 6 -0.000148 -0.000387 -0.002933 0.005487 0.000716 0.037106
#
#
# Mechanical properties :
#
#
# Convention : Reuss Voigt Hill
#
# Bulk Modulus (GPa) = 13.36319 38.73050 26.04684
# Shear Modulus (GPa) = 10.80370 23.01795 16.91083
#
# Velocity S-wave (km/s) = 2.33072 3.40203 2.91600
# Velocity P-wave (km/s) = 3.73661 5.90813 4.94309
#
# Compressibility (1/GPa) = 0.07483244
#
# Stress axis : x y z
#
# Youngs Moduli (GPa) = 51.21233 45.64341 6.68160
#
# Poissons Ratio (x) = -0.06490 0.25932
# Poissons Ratio (y) = -0.07282 0.13861
# Poissons Ratio (z) = 1.98757 0.94689
#
# Static dielectric constant tensor:
#      x y z
#    x 3.886080 0.029150 -0.450360 
#    y 0.029150 3.542560 -0.040170 
#    z -0.450360 -0.040170 3.481310 
# 
# 
# High freq. dielectric constant tensor:
#      x y z
#    x 1.782210 0.000100 -0.032270 
#    y 0.000100 1.780000 -0.002950 
#    z -0.032270 -0.002950 1.750280 
# 
# From -- ./inp_files/446996.got.cif
#   From: 2010.06.25/outbox.cif.g09.slc.cpg/sg2_224_cif.got.tgz:446996.got - 2010.06.27 13:26:56.
