data_PCOD8002267
_publ_section_title
;
Structure prediction by ZEFSAII (Michael W. Deem and Ramdas Pophale) SiO2 
 PCOD8002267
Probable space group: P -1
;
_chemical_formula_sum "Si O2"
_cell_formula_units_Z 16
_cell_length_a 8.371570
_cell_length_b 17.049945
_cell_length_c 11.115690
_cell_angle_alpha 132.500718
_cell_angle_beta 83.180928
_cell_angle_gamma 61.825420
_cell_volume 762.197556
_symmetry_space_group_name_H-M "P -1"
_symmetry_group_IT_number 2
_symmetry_cell_setting 'triclinic'
loop_
_space_group_symop_operation_xyz
x,y,z
-x,-y,-z
loop_
_atom_site_type_symbol
_atom_site_label
_atom_site_fract_x
_atom_site_fract_y
_atom_site_fract_z
Si Si1 0.746048 0.313095 0.764462
Si Si2 0.201229 0.255868 0.222232
Si Si3 0.862937 0.708509 0.358054
Si Si4 0.428282 0.928205 0.800110
Si Si5 0.170969 0.468728 0.283721
Si Si6 0.328036 0.798667 0.128602
Si Si7 0.825982 0.081284 0.365567
Si Si8 0.485906 0.881386 0.388716
O O1 0.794450 0.215685 0.775311
O O2 0.717376 0.251050 0.586340
O O3 0.978861 0.271088 0.680463
O O4 0.500000 0.500000 0.000000
O O5 0.444232 0.167889 0.184995
O O6 0.168922 0.349540 0.208993
O O7 0.958089 0.385723 0.461149
O O8 0.230532 0.120978 0.034397
O O9 0.639836 0.862035 0.620978
O O10 0.737858 0.714915 0.259496
O O11 0.027657 0.542411 0.245158
O O12 0.278023 0.900249 0.736669
O O13 0.449488 0.370574 0.136830
O O14 0.452791 0.840998 0.221526
O O15 0.122132 0.936655 0.194274
O O16 0.743347 0.033273 0.418452
O O17 0.500000 0.000000 0.500000
#
# Coordination Sequence:
#
# PCOD8002267 Si02
#       8
#     2   2   2   2   2   2   2   2
#     4  11  21  39  55  88 130 157 186 236 293 360
#     4   9  20  41  65  86 115 142 209 263 296 335
#     4  10  20  37  62  89 117 158 201 229 295 362
#     4   9  20  41  67  88 108 155 205 253 292 348
#     4  10  21  37  61  89 116 154 191 251 306 340
#     4  11  22  38  57  86 129 159 187 237 295 355
#     4  10  22  37  58  87 120 156 198 235 298 358
#     4  10  20  35  58  89 117 154 204 237 275 354
#
# _framework density 20.991933
#
# number of rings (size 3 to 8) (size 9 to 14) (size 15 to 20)
#    0.000    2.000    1.250    3.000    5.250    0.500 
#    4.500    2.500    0.000    0.000    0.000    0.000 
#    0.000    0.000    0.000    0.000    0.000    0.000 
#
# Total GULP energy -198339.153982 kJ/mol
# GULP energy per Si atom -12396.197124 kJ/mol
# Density = 2.094415 g / cm^3
# Si number density = 20.991933 Si / 1000 Ang^3
#
#
#
# Elastic Constant Matrix: (Units=GPa)
#
#
# Indices 1 2 3 4 5 6 
#
# 1 115.6398 50.2079 52.6737 5.5073 -2.4076 -19.7572
# 2 50.2079 85.4569 39.8800 13.7857 -0.5732 -9.0997
# 3 52.6737 39.8800 116.7542 21.0247 0.1154 -17.3546
# 4 5.5073 13.7857 21.0247 28.5235 1.2552 -2.0126
# 5 -2.4076 -0.5732 0.1154 1.2552 28.8347 -0.3685
# 6 -19.7572 -9.0997 -17.3546 -2.0126 -0.3685 34.1607
#
#
#
# Elastic Compliance Matrix: (Units=1/GPa)
#
#
# Indices 1 2 3 4 5 6 
#
# 1 0.013880 -0.006357 -0.004088 0.003680 0.000946 0.004485
# 2 -0.006357 0.017268 -0.002089 -0.005614 0.000059 -0.000468
# 3 -0.004088 -0.002089 0.012955 -0.007521 -0.000066 0.003217
# 4 0.003680 -0.005614 -0.007521 0.042628 -0.001639 -0.000694
# 5 0.000946 0.000059 -0.000066 -0.001639 0.034843 0.000809
# 6 0.004485 -0.000468 0.003217 -0.000694 0.000809 0.033345
#
#
# Mechanical properties :
#
#
# Convention : Reuss Voigt Hill
#
# Bulk Modulus (GPa) = 52.53244 67.04156 59.78700
# Shear Modulus (GPa) = 26.83388 29.97639 28.40513
#
# Velocity S-wave (km/s) = 3.57920 3.78298 3.68250
# Velocity P-wave (km/s) = 6.49310 7.14755 6.82817
#
# Compressibility (1/GPa) = 0.01903586
#
# Stress axis : x y z
#
# Youngs Moduli (GPa) = 72.04482 57.91129 77.18888
#
# Poissons Ratio (x) = 0.36815 0.31553
# Poissons Ratio (y) = 0.45800 0.16123
# Poissons Ratio (z) = 0.29450 0.12097
#
# Static dielectric constant tensor:
#      x y z
#    x 3.703090 -0.205610 -0.123790 
#    y -0.205610 3.931850 0.016400 
#    z -0.123790 0.016400 3.975050 
# 
# 
# High freq. dielectric constant tensor:
#      x y z
#    x 1.800390 -0.006810 -0.011510 
#    y -0.006810 1.819070 0.008930 
#    z -0.011510 0.008930 1.826470 
# 
# From -- ./inp_files/402207.got.cif
#   From: 2010.06.25/outbox.cif.g09.slc.cpg/sg2_202_cif.got.tgz:402207.got - 2010.06.27 13:26:56.
