data_PCOD8002417
_publ_section_title
;
Structure prediction by ZEFSAII (Michael W. Deem and Ramdas Pophale) SiO2 
 PCOD8002417
Probable space group: P -1
;
_chemical_formula_sum "Si O2"
_cell_formula_units_Z 12
_cell_length_a 10.005411
_cell_length_b 7.940410
_cell_length_c 11.614903
_cell_angle_alpha 138.669811
_cell_angle_beta 49.361320
_cell_angle_gamma 124.481251
_cell_volume 456.926126
_symmetry_space_group_name_H-M "P -1"
_symmetry_group_IT_number 2
_symmetry_cell_setting 'triclinic'
loop_
_space_group_symop_operation_xyz
x,y,z
-x,-y,-z
loop_
_atom_site_type_symbol
_atom_site_label
_atom_site_fract_x
_atom_site_fract_y
_atom_site_fract_z
Si Si1 0.039976 0.615209 0.352851
Si Si2 0.491523 0.488114 0.693554
Si Si3 0.535659 0.256892 0.929806
Si Si4 0.282493 0.196907 0.469980
Si Si5 0.207460 0.808747 0.577485
Si Si6 0.193371 0.159579 0.957577
O O1 0.125104 0.834445 0.510001
O O2 0.920307 0.757317 0.408659
O O3 0.930744 0.378439 0.362370
O O4 0.305579 0.893975 0.284810
O O5 0.426302 0.675403 0.922396
O O6 0.335623 0.294632 0.618853
O O7 0.595027 0.660127 0.624570
O O8 0.615659 0.316565 0.602623
O O9 0.816605 0.529770 0.873681
O O10 0.500000 0.500000 0.000000
O O11 0.338282 0.078472 0.927528
O O12 0.254854 0.087208 0.757215
O O13 0.000000 0.000000 0.000000
#
# Coordination Sequence:
#
# PCOD8002417 Si02
#       6
#     2   2   2   2   2   2
#     4   9  18  32  58  90 119 149 203 265 302 346
#     4  10  20  38  64  91 124 161 214 261 303 362
#     4  12  25  41  61  94 132 168 202 253 325 380
#     4  10  22  38  62  98 122 158 215 267 302 359
#     4   9  16  32  58  88 118 154 201 255 306 355
#     4  10  20  35  61  89 117 160 213 249 294 372
#
# _framework density 26.262452
#
# number of rings (size 3 to 8) (size 9 to 14) (size 15 to 20)
#    0.000    2.000    3.333    0.500    4.667    2.000 
#    0.000    0.833    0.000    2.000    0.000    0.000 
#    0.000    0.000    0.000    0.000    0.000    0.000 
#
# Total GULP energy -148771.340724 kJ/mol
# GULP energy per Si atom -12397.611727 kJ/mol
# Density = 2.620268 g / cm^3
# Si number density = 26.262452 Si / 1000 Ang^3
#
#
#
# Elastic Constant Matrix: (Units=GPa)
#
#
# Indices 1 2 3 4 5 6 
#
# 1 189.0591 8.6942 113.2162 11.7034 15.1870 3.3686
# 2 8.6942 25.8550 36.4899 14.3076 9.1507 3.8350
# 3 113.2162 36.4899 229.2429 19.4688 19.3815 11.5248
# 4 11.7034 14.3076 19.4688 47.3874 3.9899 8.5452
# 5 15.1870 9.1507 19.3815 3.9899 63.7499 6.5261
# 6 3.3686 3.8350 11.5248 8.5452 6.5261 20.2475
#
#
#
# Elastic Compliance Matrix: (Units=1/GPa)
#
#
# Indices 1 2 3 4 5 6 
#
# 1 0.007961 0.004917 -0.004533 -0.001747 -0.001265 0.001469
# 2 0.004917 0.062533 -0.010640 -0.015556 -0.006137 0.001937
# 3 -0.004533 -0.010640 0.008286 0.001376 0.000269 -0.002615
# 4 -0.001747 -0.015556 0.001376 0.027258 0.001501 -0.009534
# 5 -0.001265 -0.006137 0.000269 0.001501 0.017200 -0.004958
# 6 0.001469 0.001937 -0.002615 -0.009534 -0.004958 0.055888
#
#
# Mechanical properties :
#
#
# Convention : Reuss Voigt Hill
#
# Bulk Modulus (GPa) = 17.16160 84.55086 50.85623
# Shear Modulus (GPa) = 22.82466 45.32738 34.07602
#
# Velocity S-wave (km/s) = 2.95125 4.15895 3.60602
# Velocity P-wave (km/s) = 4.26169 7.43821 6.06172
#
# Compressibility (1/GPa) = 0.05826962
#
# Stress axis : x y z
#
# Youngs Moduli (GPa) = 125.60491 15.99159 120.68084
#
# Poissons Ratio (x) = -0.07863 0.54707
# Poissons Ratio (y) = -0.61762 1.28399
# Poissons Ratio (z) = 0.56939 0.17014
#
# Static dielectric constant tensor:
#      x y z
#    x 5.361170 0.802430 0.242270 
#    y 0.802430 5.371200 0.321590 
#    z 0.242270 0.321590 5.467360 
# 
# 
# High freq. dielectric constant tensor:
#      x y z
#    x 2.047530 0.025340 0.009630 
#    y 0.025340 2.085560 0.003930 
#    z 0.009630 0.003930 2.070140 
# 
# From -- ./inp_files/238323.got.cif
#   From: 2010.06.25/outbox.cif.g09.slc.cpg/sg2_120_cif.got.tgz:238323.got - 2010.06.27 13:26:56.
