data_PCOD8002764
_publ_section_title
;
Structure prediction by ZEFSAII (Michael W. Deem and Ramdas Pophale) SiO2 
 PCOD8002764
Probable space group: P -1
;
_chemical_formula_sum "Si O2"
_cell_formula_units_Z 14
_cell_length_a 16.333127
_cell_length_b 14.374107
_cell_length_c 22.589594
_cell_angle_alpha 26.856084
_cell_angle_beta 18.557417
_cell_angle_gamma 25.699331
_cell_volume 703.772866
_symmetry_space_group_name_H-M "P -1"
_symmetry_group_IT_number 2
_symmetry_cell_setting 'triclinic'
loop_
_space_group_symop_operation_xyz
x,y,z
-x,-y,-z
loop_
_atom_site_type_symbol
_atom_site_label
_atom_site_fract_x
_atom_site_fract_y
_atom_site_fract_z
Si Si1 0.267552 0.882016 0.584882
Si Si2 0.878612 0.330616 0.390359
Si Si3 0.344782 0.589639 0.369639
Si Si4 0.468010 0.889356 0.942249
Si Si5 0.922974 0.319898 0.620820
Si Si6 0.482479 0.177535 0.674081
Si Si7 0.208530 0.250480 0.010779
O O1 0.444660 0.664929 0.623578
O O2 0.426566 0.918704 0.398762
O O3 0.191591 0.087232 0.566163
O O4 0.978971 0.870364 0.762207
O O5 0.823880 0.329246 0.499375
O O6 0.736878 0.181986 0.538350
O O7 0.756593 0.577964 0.305755
O O8 0.201761 0.237715 0.205517
O O9 0.144074 0.603499 0.444911
O O10 0.527642 0.737144 0.141088
O O11 0.383938 0.991587 0.875712
O O12 0.345612 0.117038 0.933912
O O13 0.329159 0.713723 0.152752
O O14 0.000000 0.500000 0.500000
O O15 0.000000 0.500000 0.000000
#
# Coordination Sequence:
#
# PCOD8002764 Si02
#       7
#     2   2   2   2   2   2   2
#     4   9  21  37  61  85 118 154 184 241 297 346
#     4  10  21  34  59  93 124 154 176 228 299 368
#     4  10  20  39  58  85 121 151 190 239 292 352
#     4  11  22  36  60  86 117 157 192 237 291 350
#     4  11  26  42  58  80 111 160 213 250 277 323
#     4  10  20  36  58  91 130 145 180 230 296 372
#     4   9  19  33  54  89 121 151 183 228 295 353
#
# _framework density 19.892779999999998
#
# number of rings (size 3 to 8) (size 9 to 14) (size 15 to 20)
#    0.000    2.000    1.429    1.286    6.000    4.000 
#    0.000    2.857    0.000    3.429    0.000    0.000 
#    0.000    0.000    0.000    0.000    0.000    0.000 
#
# Total GULP energy -173479.187657 kJ/mol
# GULP energy per Si atom -12391.370547 kJ/mol
# Density = 1.984750 g / cm^3
# Si number density = 19.892780 Si / 1000 Ang^3
#
#
#
# Elastic Constant Matrix: (Units=GPa)
#
#
# Indices 1 2 3 4 5 6 
#
# 1 60.6930 15.9807 33.0889 -10.4727 3.7330 5.4140
# 2 15.9807 108.4881 57.9209 10.1853 -6.1632 18.4512
# 3 33.0889 57.9209 86.0172 0.0312 6.7692 4.3291
# 4 -10.4727 10.1853 0.0312 30.7596 1.2889 -3.7912
# 5 3.7330 -6.1632 6.7692 1.2889 24.7359 -6.3583
# 6 5.4140 18.4512 4.3291 -3.7912 -6.3583 22.4870
#
#
#
# Elastic Compliance Matrix: (Units=1/GPa)
#
#
# Indices 1 2 3 4 5 6 
#
# 1 0.022962 0.001824 -0.009686 0.006741 -0.001882 -0.004556
# 2 0.001824 0.019557 -0.013587 -0.007748 0.005196 -0.013707
# 3 -0.009686 -0.013587 0.024687 0.002350 -0.006963 0.007155
# 4 0.006741 -0.007748 0.002350 0.038722 -0.003051 0.009948
# 5 -0.001882 0.005196 -0.006963 -0.003051 0.046697 0.010220
# 6 -0.004556 -0.013707 0.007155 0.009948 0.010220 0.060004
#
#
# Mechanical properties :
#
#
# Convention : Reuss Voigt Hill
#
# Bulk Modulus (GPa) = 41.13772 52.13103 46.63438
# Shear Modulus (GPa) = 18.96597 25.47703 22.22150
#
# Velocity S-wave (km/s) = 3.09108 3.58259 3.34588
# Velocity P-wave (km/s) = 5.78484 6.58606 6.19841
#
# Compressibility (1/GPa) = 0.02430859
#
# Stress axis : x y z
#
# Youngs Moduli (GPa) = 43.54958 51.13380 40.50646
#
# Poissons Ratio (x) = -0.09327 0.39236
# Poissons Ratio (y) = -0.07944 0.55034
# Poissons Ratio (z) = 0.42184 0.69473
#
# Static dielectric constant tensor:
#      x y z
#    x 3.362900 -0.115400 0.253560 
#    y -0.115400 3.912360 0.180140 
#    z 0.253560 0.180140 3.649550 
# 
# 
# High freq. dielectric constant tensor:
#      x y z
#    x 1.751130 -0.017460 0.033010 
#    y -0.017460 1.796880 0.017510 
#    z 0.033010 0.017510 1.757050 
# 
# From -- ./inp_files/255699.got.cif
#   From: 2010.06.25/outbox.cif.g09.slc.cpg/sg2_128_cif.got.tgz:255699.got - 2010.06.27 13:26:56.
