data_PCOD8002878
_publ_section_title
;
Structure prediction by ZEFSAII (Michael W. Deem and Ramdas Pophale) SiO2 
 PCOD8002878
Probable space group: P -1
;
_chemical_formula_sum "Si O2"
_cell_formula_units_Z 16
_cell_length_a 9.397282
_cell_length_b 9.042784
_cell_length_c 15.500997
_cell_angle_alpha 101.799680
_cell_angle_beta 145.588947
_cell_angle_gamma 64.673166
_cell_volume 643.821416
_symmetry_space_group_name_H-M "P -1"
_symmetry_group_IT_number 2
_symmetry_cell_setting 'triclinic'
loop_
_space_group_symop_operation_xyz
x,y,z
-x,-y,-z
loop_
_atom_site_type_symbol
_atom_site_label
_atom_site_fract_x
_atom_site_fract_y
_atom_site_fract_z
Si Si1 0.226029 0.696862 0.836398
Si Si2 0.484952 0.366465 0.850649
Si Si3 0.072317 0.734177 0.081342
Si Si4 0.876841 0.742072 0.444292
Si Si5 0.588526 0.882154 0.725296
Si Si6 0.529942 0.410489 0.353766
Si Si7 0.267763 0.346456 0.452625
Si Si8 0.814538 0.034065 0.713360
O O1 0.420958 0.567701 0.843248
O O2 0.004754 0.618208 0.738874
O O3 0.409913 0.701156 0.008926
O O4 0.029952 0.895864 0.733893
O O5 0.718732 0.252138 0.884374
O O6 0.207036 0.343377 0.688789
O O7 0.231821 0.538921 0.172690
O O8 0.042602 0.858854 0.160411
O O9 0.764259 0.798257 0.891998
O O10 0.809139 0.666810 0.487259
O O11 0.213147 0.681802 0.597950
O O12 0.698596 0.947282 0.374795
O O13 0.513571 0.734837 0.634189
O O14 0.779674 0.918405 0.757249
O O15 0.621258 0.513039 0.481564
O O16 0.523093 0.157108 0.533249
#
# Coordination Sequence:
#
# PCOD8002878 Si02
#       8
#     2   2   2   2   2   2   2   2
#     4  11  21  32  55  94 111 143 192 243 285 334
#     4  11  20  34  62  85 114 144 194 247 282 328
#     4  11  20  39  61  86 116 151 195 243 283 334
#     4  11  20  39  61  86 116 151 195 243 283 334
#     4  11  21  34  57  90 116 151 192 239 285 342
#     4  11  21  34  57  90 116 151 192 239 285 342
#     4  10  20  36  60  83 114 150 191 240 284 337
#     4  10  20  36  60  83 114 150 191 240 284 337
#
# _framework density 24.851610999999998
#
# number of rings (size 3 to 8) (size 9 to 14) (size 15 to 20)
#    0.000    1.250    6.250    3.375    0.000    0.000 
#    0.000    0.625    0.000    0.000    6.500   11.375 
#    0.000    0.000    0.000    0.000    0.000    0.000 
#
# Total GULP energy -198245.754781 kJ/mol
# GULP energy per Si atom -12390.359674 kJ/mol
# Density = 2.479505 g / cm^3
# Si number density = 24.851611 Si / 1000 Ang^3
#
#
#
# Elastic Constant Matrix: (Units=GPa)
#
#
# Indices 1 2 3 4 5 6 
#
# 1 18.0910 17.5818 0.4878 -10.9715 6.6259 5.2978
# 2 17.5818 148.4519 32.3265 -12.3848 10.4474 -2.6225
# 3 0.4878 32.3265 115.5877 -11.2086 -0.1117 4.6870
# 4 -10.9715 -12.3848 -11.2086 33.3878 -7.6561 8.2396
# 5 6.6259 10.4474 -0.1117 -7.6561 18.6888 -7.0116
# 6 5.2978 -2.6225 4.6870 8.2396 -7.0116 37.5072
#
#
#
# Elastic Compliance Matrix: (Units=1/GPa)
#
#
# Indices 1 2 3 4 5 6 
#
# 1 0.103114 -0.009374 0.006534 0.033145 -0.028444 -0.028635
# 2 -0.009374 0.008390 -0.002568 -0.001689 -0.001180 0.002382
# 3 0.006534 -0.002568 0.010014 0.005448 0.000085 -0.003535
# 4 0.033145 -0.001689 0.005448 0.046374 0.002522 -0.015197
# 5 -0.028444 -0.001180 0.000085 0.002522 0.071570 0.016750
# 6 -0.028635 0.002382 -0.003535 -0.015197 0.016750 0.037784
#
#
# Mechanical properties :
#
#
# Convention : Reuss Voigt Hill
#
# Bulk Modulus (GPa) = 9.03331 42.54701 25.79016
# Shear Modulus (GPa) = 15.38640 33.36574 24.37607
#
# Velocity S-wave (km/s) = 2.49093 3.66812 3.13527
# Velocity P-wave (km/s) = 3.45193 5.92434 4.84838
#
# Compressibility (1/GPa) = 0.11070141
#
# Stress axis : x y z
#
# Youngs Moduli (GPa) = 9.69799 119.19068 99.86144
#
# Poissons Ratio (x) = 1.11730 -0.65251
# Poissons Ratio (y) = 0.09091 0.25648
# Poissons Ratio (z) = -0.06337 0.30613
#
# Static dielectric constant tensor:
#      x y z
#    x 3.857810 -0.526890 0.188690 
#    y -0.526890 4.861160 -0.140670 
#    z 0.188690 -0.140670 4.852640 
# 
# 
# High freq. dielectric constant tensor:
#      x y z
#    x 1.917850 -0.042680 0.003540 
#    y -0.042680 2.012640 -0.005370 
#    z 0.003540 -0.005370 2.007630 
# 
# From -- ./inp_files/390498.got.cif
#   From: 2010.06.25/outbox.cif.g09.slc.cpg/sg2_196_cif.got.tgz:390498.got - 2010.06.27 13:26:56.
