data_PCOD8002656
_publ_section_title
;
Structure prediction by ZEFSAII (Michael W. Deem and Ramdas Pophale) SiO2 
 PCOD8002656
Probable space group: P -1
;
_chemical_formula_sum "Si O2"
_cell_formula_units_Z 16
_cell_length_a 16.933556
_cell_length_b 9.445252
_cell_length_c 17.048563
_cell_angle_alpha 96.731025
_cell_angle_beta 155.347495
_cell_angle_gamma 100.383035
_cell_volume 815.147815
_symmetry_space_group_name_H-M "P -1"
_symmetry_group_IT_number 2
_symmetry_cell_setting 'triclinic'
loop_
_space_group_symop_operation_xyz
x,y,z
-x,-y,-z
loop_
_atom_site_type_symbol
_atom_site_label
_atom_site_fract_x
_atom_site_fract_y
_atom_site_fract_z
Si Si1 0.635573 0.901871 0.483383
Si Si2 0.580757 0.846244 0.990613
Si Si3 0.024806 0.320863 0.934672
Si Si4 0.859449 0.910080 0.527467
Si Si5 0.056704 0.664117 0.961285
Si Si6 0.298308 0.423346 0.744310
Si Si7 0.584633 0.591094 0.496304
Si Si8 0.779301 0.084766 0.334908
O O1 0.712029 0.856143 0.471919
O O2 0.633369 0.787261 0.546094
O O3 0.354841 0.831468 0.211009
O O4 0.844402 0.131790 0.704833
O O5 0.674592 0.907014 0.170172
O O6 0.381475 0.610670 0.786306
O O7 0.445184 0.920937 0.846187
O O8 0.835532 0.966130 0.172870
O O9 0.970729 0.455294 0.870514
O O10 0.327480 0.429457 0.199163
O O11 0.952427 0.266820 0.957154
O O12 0.703690 0.703568 0.329421
O O13 0.866513 0.057430 0.492018
O O14 0.849112 0.640673 0.715875
O O15 0.013361 0.292840 0.517677
O O16 0.500000 0.500000 0.000000
O O17 0.500000 0.500000 0.500000
#
# Coordination Sequence:
#
# PCOD8002656 Si02
#       8
#     2   2   2   2   2   2   2   2
#     4  11  23  36  57  86 120 153 185 236 297 341
#     4  10  20  36  59  82 110 143 193 235 271 332
#     4   9  19  37  59  84 110 146 191 235 284 339
#     4  11  23  37  53  83 121 147 182 236 287 334
#     4   9  19  37  59  83 110 144 195 237 272 343
#     4  11  18  37  63  79 106 153 190 227 277 326
#     4   9  20  38  59  84 112 146 195 241 276 339
#     4  10  20  36  57  85 107 143 194 234 272 335
#
# _framework density 19.628340999999999
#
# number of rings (size 3 to 8) (size 9 to 14) (size 15 to 20)
#    0.000    2.000    2.500    2.250    0.000    6.000 
#    0.000    1.250    0.000    0.000    0.000    0.000 
#    0.000    0.000    0.000    0.000    0.000    0.000 
#
# Total GULP energy -198359.053136 kJ/mol
# GULP energy per Si atom -12397.440821 kJ/mol
# Density = 1.958367 g / cm^3
# Si number density = 19.628341 Si / 1000 Ang^3
#
#
#
# Elastic Constant Matrix: (Units=GPa)
#
#
# Indices 1 2 3 4 5 6 
#
# 1 70.7434 19.7695 47.7157 -1.6326 8.6287 -13.4042
# 2 19.7695 64.7218 49.6723 5.2456 3.3423 -9.3562
# 3 47.7157 49.6723 133.9546 2.0640 25.7339 -20.5987
# 4 -1.6326 5.2456 2.0640 40.4649 -13.2059 4.9669
# 5 8.6287 3.3423 25.7339 -13.2059 28.4639 -3.0013
# 6 -13.4042 -9.3562 -20.5987 4.9669 -3.0013 12.6613
#
#
#
# Elastic Compliance Matrix: (Units=1/GPa)
#
#
# Indices 1 2 3 4 5 6 
#
# 1 0.020076 -0.000422 -0.004839 -0.000704 -0.000596 0.013204
# 2 -0.000422 0.022567 -0.008524 -0.001387 0.004971 0.004085
# 3 -0.004839 -0.008524 0.018028 -0.007107 -0.015329 0.017062
# 4 -0.000704 -0.001387 -0.007107 0.034639 0.020547 -0.022050
# 5 -0.000596 0.004971 -0.015329 0.020547 0.056371 -0.016593
# 6 0.013204 0.004085 0.017062 -0.022050 -0.016593 0.128454
#
#
# Mechanical properties :
#
#
# Convention : Reuss Voigt Hill
#
# Bulk Modulus (GPa) = 30.20964 55.97052 43.09008
# Shear Modulus (GPa) = 15.68695 26.46885 21.07790
#
# Velocity S-wave (km/s) = 2.83008 3.67618 3.28052
# Velocity P-wave (km/s) = 5.10915 6.82613 6.02907
#
# Compressibility (1/GPa) = 0.03310201
#
# Stress axis : x y z
#
# Youngs Moduli (GPa) = 49.81172 44.31170 55.47081
#
# Poissons Ratio (x) = 0.01869 0.26842
# Poissons Ratio (y) = 0.02101 0.47281
# Poissons Ratio (z) = 0.24104 0.37769
#
# Static dielectric constant tensor:
#      x y z
#    x 3.292170 -0.130040 0.297520 
#    y -0.130040 3.650940 -0.026840 
#    z 0.297520 -0.026840 3.917570 
# 
# 
# High freq. dielectric constant tensor:
#      x y z
#    x 1.732060 -0.009290 0.023490 
#    y -0.009290 1.764720 -0.000500 
#    z 0.023490 -0.000500 1.775580 
# 
# From -- ./inp_files/53345.got.cif
#   From: 2010.06.25/outbox.cif.g09.slc.cpg/sg2_27_cif.got.tgz:53345.got - 2010.06.27 13:26:56.
