data_PCOD8002568
_publ_section_title
;
Structure prediction by ZEFSAII (Michael W. Deem and Ramdas Pophale) SiO2 
 PCOD8002568
Probable space group: P -1
;
_chemical_formula_sum "Si O2"
_cell_formula_units_Z 16
_cell_length_a 14.702599
_cell_length_b 14.600515
_cell_length_c 14.469207
_cell_angle_alpha 135.246174
_cell_angle_beta 27.932684
_cell_angle_gamma 143.520731
_cell_volume 865.028233
_symmetry_space_group_name_H-M "P -1"
_symmetry_group_IT_number 2
_symmetry_cell_setting 'triclinic'
loop_
_space_group_symop_operation_xyz
x,y,z
-x,-y,-z
loop_
_atom_site_type_symbol
_atom_site_label
_atom_site_fract_x
_atom_site_fract_y
_atom_site_fract_z
Si Si1 0.110178 0.591463 0.873263
Si Si2 0.015091 0.892559 0.576231
Si Si3 0.728964 0.512568 0.836207
Si Si4 0.940002 0.329439 0.509884
Si Si5 0.447399 0.100769 0.238469
Si Si6 0.777634 0.568115 0.498303
Si Si7 0.301882 0.495814 0.934127
Si Si8 0.442826 0.152154 0.067194
O O1 0.330341 0.757968 0.813663
O O2 0.185300 0.499890 0.675584
O O3 0.000000 0.500000 0.000000
O O4 0.919650 0.609447 0.005693
O O5 0.217272 0.053909 0.468615
O O6 0.115799 0.840411 0.533363
O O7 0.897991 0.752147 0.505378
O O8 0.801882 0.909207 0.808351
O O9 0.721662 0.350325 0.718103
O O10 0.941944 0.636477 0.671828
O O11 0.500000 0.500000 0.000000
O O12 0.762889 0.571380 0.952879
O O13 0.112868 0.453980 0.521916
O O14 0.411670 0.140948 0.197192
O O15 0.461016 0.950229 0.125873
O O16 0.506369 0.484969 0.699596
O O17 0.367852 0.672834 0.004855
#
# Coordination Sequence:
#
# PCOD8002568 Si02
#       8
#     2   2   2   2   2   2   2   2
#     4  12  24  37  52  80 120 155 185 223 284 342
#     4   9  19  38  56  79 111 141 187 241 268 326
#     4  11  17  30  59  91 113 139 181 236 294 323
#     4   9  19  31  57  89 110 138 181 237 284 329
#     4  11  22  33  56  79 108 155 190 228 279 330
#     4   9  20  37  56  79 113 145 181 233 276 324
#     4  11  20  38  57  84 117 146 186 238 274 336
#     4  10  20  36  55  80 107 145 200 236 269 317
#
# _framework density 18.496506
#
# number of rings (size 3 to 8) (size 9 to 14) (size 15 to 20)
#    0.750    1.000    3.750    1.875    1.750    1.500 
#    0.000    0.000    0.000    0.750    0.000    5.250 
#    0.000    0.000    0.000    0.000    0.000    0.000 
#
# Total GULP energy -198272.127731 kJ/mol
# GULP energy per Si atom -12392.007983 kJ/mol
# Density = 1.845441 g / cm^3
# Si number density = 18.496506 Si / 1000 Ang^3
#
#
#
# Elastic Constant Matrix: (Units=GPa)
#
#
# Indices 1 2 3 4 5 6 
#
# 1 101.5729 17.5051 40.9992 -5.7008 0.5581 -4.2238
# 2 17.5051 47.6259 13.4577 -16.9906 2.8527 5.4241
# 3 40.9992 13.4577 98.1826 -9.1131 -0.8631 4.0048
# 4 -5.7008 -16.9906 -9.1131 25.2435 -2.5026 -6.3128
# 5 0.5581 2.8527 -0.8631 -2.5026 44.5347 -3.6760
# 6 -4.2238 5.4241 4.0048 -6.3128 -3.6760 19.0016
#
#
#
# Elastic Compliance Matrix: (Units=1/GPa)
#
#
# Indices 1 2 3 4 5 6 
#
# 1 0.012737 -0.003973 -0.005004 -0.000317 0.000392 0.004990
# 2 -0.003973 0.029403 -0.000597 0.017691 -0.001139 -0.003494
# 3 -0.005004 -0.000597 0.012693 0.002381 0.000251 -0.002777
# 4 -0.000317 0.017691 0.002381 0.056029 0.003189 0.013609
# 5 0.000392 -0.001139 0.000251 0.003189 0.023194 0.005906
# 6 0.004990 -0.003494 -0.002777 0.013609 0.005906 0.060983
#
#
# Mechanical properties :
#
#
# Convention : Reuss Voigt Hill
#
# Bulk Modulus (GPa) = 28.02150 43.47837 35.74994
# Shear Modulus (GPa) = 22.11598 29.45061 25.78329
#
# Velocity S-wave (km/s) = 3.46162 3.99460 3.73762
# Velocity P-wave (km/s) = 5.58208 6.69575 6.16411
#
# Compressibility (1/GPa) = 0.03568688
#
# Stress axis : x y z
#
# Youngs Moduli (GPa) = 78.51085 34.00981 78.78430
#
# Poissons Ratio (x) = 0.13511 0.39422
# Poissons Ratio (y) = 0.31189 0.04702
# Poissons Ratio (z) = 0.39285 0.02030
#
# Static dielectric constant tensor:
#      x y z
#    x 5.132110 -0.136990 1.661660 
#    y -0.136990 3.048540 -0.077680 
#    z 1.661660 -0.077680 5.587800 
# 
# 
# High freq. dielectric constant tensor:
#      x y z
#    x 1.718340 -0.020960 -0.012410 
#    y -0.020960 1.668720 -0.013690 
#    z -0.012410 -0.013690 1.736120 
# 
# From -- ./inp_files/533820.got.cif
#   From: 2010.06.25/outbox.cif.g09.slc.cpg/sg2_267_cif.got.tgz:533820.got - 2010.06.27 13:26:56.
