data_PCOD8002872
_publ_section_title
;
Structure prediction by ZEFSAII (Michael W. Deem and Ramdas Pophale) SiO2 
 PCOD8002872
Probable space group: P -1
;
_chemical_formula_sum "Si O2"
_cell_formula_units_Z 14
_cell_length_a 15.573696
_cell_length_b 12.628857
_cell_length_c 13.221586
_cell_angle_alpha 139.495999
_cell_angle_beta 27.488776
_cell_angle_gamma 145.609640
_cell_volume 673.939340
_symmetry_space_group_name_H-M "P -1"
_symmetry_group_IT_number 2
_symmetry_cell_setting 'triclinic'
loop_
_space_group_symop_operation_xyz
x,y,z
-x,-y,-z
loop_
_atom_site_type_symbol
_atom_site_label
_atom_site_fract_x
_atom_site_fract_y
_atom_site_fract_z
Si Si1 0.728524 0.349101 0.774409
Si Si2 0.695264 0.695421 0.474697
Si Si3 0.834101 0.588311 0.657477
Si Si4 0.345611 0.279340 0.230566
Si Si5 0.960146 0.007155 0.163580
Si Si6 0.139274 0.877140 0.050870
Si Si7 0.572070 0.914711 0.619927
O O1 0.671919 0.419649 0.779353
O O2 0.984150 0.461144 0.605690
O O3 0.636909 0.129143 0.706348
O O4 0.604432 0.380399 0.019737
O O5 0.500000 0.500000 0.500000
O O6 0.711115 0.703029 0.583749
O O7 0.654512 0.861488 0.597274
O O8 0.918671 0.717591 0.216729
O O9 0.722432 0.601224 0.682843
O O10 0.947529 0.779652 0.742421
O O11 0.228178 0.061376 0.162810
O O12 0.701775 0.884719 0.370038
O O13 0.088509 0.920949 0.024034
O O14 0.000000 0.000000 0.000000
O O15 0.310256 0.801996 0.806051
#
# Coordination Sequence:
#
# PCOD8002872 Si02
#       7
#     2   2   2   2   2   2   2
#     4   9  18  33  56  84 110 140 184 233 268 317
#     4  11  24  39  56  82 113 144 184 235 284 329
#     4   9  18  34  55  84 114 142 184 226 270 326
#     4  10  20  36  60  81 107 148 187 224 271 327
#     4   9  18  33  55  84 119 149 177 223 278 331
#     4   9  20  38  58  80 108 148 190 226 271 328
#     4   9  20  38  55  79 112 146 187 227 273 329
#
# _framework density 20.773382999999999
#
# number of rings (size 3 to 8) (size 9 to 14) (size 15 to 20)
#    0.000    2.571    0.000    1.714    0.000    6.857 
#    0.000    4.286    0.000    0.000    0.000    0.000 
#    0.000    0.000    0.000    0.000    0.000    0.000 
#
# Total GULP energy -173484.376335 kJ/mol
# GULP energy per Si atom -12391.741167 kJ/mol
# Density = 2.072610 g / cm^3
# Si number density = 20.773383 Si / 1000 Ang^3
#
#
#
# Elastic Constant Matrix: (Units=GPa)
#
#
# Indices 1 2 3 4 5 6 
#
# 1 116.2793 26.2989 78.5102 -0.7348 15.7368 -13.0067
# 2 26.2989 53.9484 25.3719 -17.9705 5.4099 -11.8303
# 3 78.5102 25.3719 147.9632 -22.5121 -5.1208 -9.8939
# 4 -0.7348 -17.9705 -22.5121 25.9158 -2.4826 1.1385
# 5 15.7368 5.4099 -5.1208 -2.4826 39.8598 -2.1674
# 6 -13.0067 -11.8303 -9.8939 1.1385 -2.1674 26.4299
#
#
#
# Elastic Compliance Matrix: (Units=1/GPa)
#
#
# Indices 1 2 3 4 5 6 
#
# 1 0.019673 -0.008251 -0.011710 -0.016274 -0.009080 0.001561
# 2 -0.008251 0.031000 0.003442 0.023951 0.001539 0.010198
# 3 -0.011710 0.003442 0.015126 0.015821 0.007158 0.001346
# 4 -0.016274 0.023951 0.015821 0.069137 0.009864 0.006465
# 5 -0.009080 0.001539 0.007158 0.009864 0.030049 0.000939
# 6 0.001561 0.010198 0.001346 0.006465 0.000939 0.043471
#
#
# Mechanical properties :
#
#
# Convention : Reuss Voigt Hill
#
# Bulk Modulus (GPa) = 30.52392 64.28367 47.40379
# Shear Modulus (GPa) = 19.80859 30.97507 25.39183
#
# Velocity S-wave (km/s) = 3.09132 3.86566 3.49997
# Velocity P-wave (km/s) = 5.24093 7.13700 6.26116
#
# Compressibility (1/GPa) = 0.03276119
#
# Stress axis : x y z
#
# Youngs Moduli (GPa) = 50.83107 32.25776 66.11020
#
# Poissons Ratio (x) = 0.26617 0.77413
# Poissons Ratio (y) = 0.41942 -0.22753
# Poissons Ratio (z) = 0.59521 -0.11102
#
# Static dielectric constant tensor:
#      x y z
#    x 3.772970 -0.254660 -0.428470 
#    y -0.254660 3.667190 -0.340580 
#    z -0.428470 -0.340580 4.443240 
# 
# 
# High freq. dielectric constant tensor:
#      x y z
#    x 1.796820 -0.029940 -0.016460 
#    y -0.029940 1.795390 -0.022800 
#    z -0.016460 -0.022800 1.829780 
# 
# From -- ./inp_files/177184.got.cif
#   From: 2010.06.25/outbox.cif.g09.slc.cpg/sg2_89_cif.got.tgz:177184.got - 2010.06.27 13:26:56.
