data_PCOD8002019
_publ_section_title
;
Structure prediction by ZEFSAII (Michael W. Deem and Ramdas Pophale) SiO2 
 PCOD8002019
Probable space group: P -1
;
_chemical_formula_sum "Si O2"
_cell_formula_units_Z 14
_cell_length_a 9.256905
_cell_length_b 9.660425
_cell_length_c 20.369035
_cell_angle_alpha 151.151512
_cell_angle_beta 122.578182
_cell_angle_gamma 71.657420
_cell_volume 683.198487
_symmetry_space_group_name_H-M "P -1"
_symmetry_group_IT_number 2
_symmetry_cell_setting 'triclinic'
loop_
_space_group_symop_operation_xyz
x,y,z
-x,-y,-z
loop_
_atom_site_type_symbol
_atom_site_label
_atom_site_fract_x
_atom_site_fract_y
_atom_site_fract_z
Si Si1 0.319126 0.504947 0.426215
Si Si2 0.649908 0.248848 0.596102
Si Si3 0.022867 0.643443 0.493113
Si Si4 0.944467 0.705883 0.262273
Si Si5 0.278428 0.567496 0.781746
Si Si6 0.946182 0.109321 0.962508
Si Si7 0.335886 0.254274 0.101852
O O1 0.500000 0.500000 0.500000
O O2 0.390788 0.775593 0.501200
O O3 0.197181 0.592649 0.485021
O O4 0.204094 0.169389 0.228248
O O5 0.653961 0.585893 0.758332
O O6 0.840592 0.203618 0.632598
O O7 0.500000 0.000000 0.500000
O O8 0.000000 0.500000 0.500000
O O9 0.839293 0.485285 0.336721
O O10 0.074897 0.013310 0.666575
O O11 0.837151 0.676925 0.293219
O O12 0.870276 0.384990 0.069022
O O13 0.477846 0.539056 0.807367
O O14 0.325616 0.907860 0.964685
O O15 0.136672 0.236408 0.016775
O O16 0.000000 0.000000 0.000000
#
# Coordination Sequence:
#
# PCOD8002019 Si02
#       7
#     2   2   2   2   2   2   2
#     4  12  26  44  66  96 141 175 211 273 344 391
#     4  11  22  39  66 100 127 168 227 270 321 397
#     4  12  27  43  61  96 139 177 212 275 341 387
#     4  11  22  42  72  94 127 169 233 276 319 388
#     4  11  20  38  67  97 125 165 221 280 322 380
#     4  11  18  44  69  99 125 174 222 274 322 399
#     4  10  20  34  67 100 122 160 223 277 321 377
#
# _framework density 20.491848999999998
#
# number of rings (size 3 to 8) (size 9 to 14) (size 15 to 20)
#    0.000    0.857    7.143    1.286    6.000    0.000 
#    0.000    2.857    0.000    0.000    0.000    0.000 
#    0.000    0.000    0.000    0.000    0.000    0.000 
#
# Total GULP energy -173476.470637 kJ/mol
# GULP energy per Si atom -12391.176474 kJ/mol
# Density = 2.044521 g / cm^3
# Si number density = 20.491849 Si / 1000 Ang^3
#
#
#
# Elastic Constant Matrix: (Units=GPa)
#
#
# Indices 1 2 3 4 5 6 
#
# 1 180.1775 73.9925 65.6329 0.0158 13.1742 6.8085
# 2 73.9925 120.6731 61.5127 13.9030 -6.4571 11.8611
# 3 65.6329 61.5127 91.7704 11.6658 -6.5897 -7.7496
# 4 0.0158 13.9030 11.6658 27.1462 -5.4012 7.2270
# 5 13.1742 -6.4571 -6.5897 -5.4012 35.7316 4.2156
# 6 6.8085 11.8611 -7.7496 7.2270 4.2156 35.3336
#
#
#
# Elastic Compliance Matrix: (Units=1/GPa)
#
#
# Indices 1 2 3 4 5 6 
#
# 1 0.009271 -0.003457 -0.005263 0.003733 -0.004208 -0.002042
# 2 -0.003457 0.015465 -0.007908 -0.002288 0.002990 -0.006149
# 3 -0.005263 -0.007908 0.021899 -0.007498 0.002268 0.009735
# 4 0.003733 -0.002288 -0.007498 0.045279 0.005023 -0.011456
# 5 -0.004208 0.002990 0.002268 0.005023 0.031789 -0.004516
# 6 -0.002042 -0.006149 0.009735 -0.011456 -0.004516 0.035776
#
#
# Mechanical properties :
#
#
# Convention : Reuss Voigt Hill
#
# Bulk Modulus (GPa) = 74.73032 88.32192 81.52612
# Shear Modulus (GPa) = 25.35570 32.40780 28.88175
#
# Velocity S-wave (km/s) = 3.52142 3.98112 3.75831
# Velocity P-wave (km/s) = 7.28570 8.02041 7.66186
#
# Compressibility (1/GPa) = 0.01338145
#
# Stress axis : x y z
#
# Youngs Moduli (GPa) = 107.86080 64.66114 45.66386
#
# Poissons Ratio (x) = 0.22351 0.24032
# Poissons Ratio (y) = 0.37284 0.36109
# Poissons Ratio (z) = 0.56765 0.51132
#
# Static dielectric constant tensor:
#      x y z
#    x 4.309780 0.034820 -0.220230 
#    y 0.034820 3.310170 0.165510 
#    z -0.220230 0.165510 3.656630 
# 
# 
# High freq. dielectric constant tensor:
#      x y z
#    x 1.835890 -0.000430 -0.002980 
#    y -0.000430 1.746640 0.016640 
#    z -0.002980 0.016640 1.815650 
# 
# From -- ./inp_files/587681.got.cif
#   From: 2010.06.25/outbox.cif.g09.slc.cpg/sg2_294_cif.got.tgz:587681.got - 2010.06.27 13:26:56.
