data_PCOD8002432
_publ_section_title
;
Structure prediction by ZEFSAII (Michael W. Deem and Ramdas Pophale) SiO2 
 PCOD8002432
Probable space group: P -1
;
_chemical_formula_sum "Si O2"
_cell_formula_units_Z 14
_cell_length_a 13.464510
_cell_length_b 14.020432
_cell_length_c 14.260931
_cell_angle_alpha 159.818660
_cell_angle_beta 43.533765
_cell_angle_gamma 137.097767
_cell_volume 624.182282
_symmetry_space_group_name_H-M "P -1"
_symmetry_group_IT_number 2
_symmetry_cell_setting 'triclinic'
loop_
_space_group_symop_operation_xyz
x,y,z
-x,-y,-z
loop_
_atom_site_type_symbol
_atom_site_label
_atom_site_fract_x
_atom_site_fract_y
_atom_site_fract_z
Si Si1 0.660793 0.939271 0.830398
Si Si2 0.629134 0.852545 0.166001
Si Si3 0.628242 0.818947 0.546049
Si Si4 0.944517 0.405223 0.054438
Si Si5 0.695700 0.305590 0.683602
Si Si6 0.898235 0.075546 0.470581
Si Si7 0.428124 0.257406 0.101537
O O1 0.672840 0.733446 0.542223
O O2 0.683310 0.782362 0.768993
O O3 0.775340 0.239636 0.016655
O O4 0.500000 0.000000 0.000000
O O5 0.452334 0.797673 0.249314
O O6 0.688626 0.166558 0.456074
O O7 0.710644 0.641735 0.973027
O O8 0.665164 0.812316 0.995041
O O9 0.534439 0.569365 0.316661
O O10 0.774297 0.979782 0.544333
O O11 0.532135 0.042192 0.839624
O O12 0.040375 0.202037 0.851535
O O13 0.000000 0.500000 0.000000
O O14 0.965784 0.689640 0.364230
O O15 0.832957 0.217290 0.558509
#
# Coordination Sequence:
#
# PCOD8002432 Si02
#       7
#     2   2   2   2   2   2   2
#     4  10  25  44  65  93 132 168 215 260 318 385
#     4  10  20  35  61  93 128 159 220 262 318 369
#     4  11  22  37  62  95 128 170 204 260 316 382
#     4  12  26  43  65  95 129 172 214 260 314 389
#     4  10  21  36  59  94 127 165 207 272 317 369
#     4  12  24  40  66  90 137 164 212 260 333 369
#     4  11  22  38  62  94 130 167 210 261 323 367
#
# _framework density 22.429345999999999
#
# number of rings (size 3 to 8) (size 9 to 14) (size 15 to 20)
#    0.000    1.143    2.857    3.429    6.000    2.286 
#    0.000    0.000    0.000    5.143    0.000    0.000 
#    0.000    0.000    0.000    0.000    0.000    0.000 
#
# Total GULP energy -173508.089430 kJ/mol
# GULP energy per Si atom -12393.434959 kJ/mol
# Density = 2.237830 g / cm^3
# Si number density = 22.429346 Si / 1000 Ang^3
#
#
#
# Elastic Constant Matrix: (Units=GPa)
#
#
# Indices 1 2 3 4 5 6 
#
# 1 101.9874 26.9948 15.8538 -0.5583 6.1615 -14.7912
# 2 26.9948 94.4711 -0.1017 1.0154 14.4890 7.2218
# 3 15.8538 -0.1017 79.4551 18.0973 12.3086 -4.1958
# 4 -0.5583 1.0154 18.0973 25.8492 -6.5666 8.1833
# 5 6.1615 14.4890 12.3086 -6.5666 45.1461 -4.3052
# 6 -14.7912 7.2218 -4.1958 8.1833 -4.3052 32.0414
#
#
#
# Elastic Compliance Matrix: (Units=1/GPa)
#
#
# Indices 1 2 3 4 5 6 
#
# 1 0.012095 -0.004081 -0.002296 0.000283 0.000923 0.006254
# 2 -0.004081 0.012855 0.001611 -0.001373 -0.004670 -0.004847
# 3 -0.002296 0.001611 0.017914 -0.015694 -0.006990 0.003992
# 4 0.000283 -0.001373 -0.015694 0.057338 0.011619 -0.014698
# 5 0.000923 -0.004670 -0.006990 0.011619 0.027238 0.001255
# 6 0.006254 -0.004847 0.003992 -0.014698 0.001255 0.039635
#
#
# Mechanical properties :
#
#
# Convention : Reuss Voigt Hill
#
# Bulk Modulus (GPa) = 30.00164 40.15638 35.07901
# Shear Modulus (GPa) = 26.63570 36.15181 31.39375
#
# Velocity S-wave (km/s) = 3.44981 4.01909 3.74528
# Velocity P-wave (km/s) = 5.41048 6.28330 5.86315
#
# Compressibility (1/GPa) = 0.03333151
#
# Stress axis : x y z
#
# Youngs Moduli (GPa) = 82.67779 77.79273 55.82194
#
# Poissons Ratio (x) = 0.31749 0.12815
# Poissons Ratio (y) = 0.33743 -0.08992
# Poissons Ratio (z) = 0.18981 -0.12531
#
# Static dielectric constant tensor:
#      x y z
#    x 4.192140 -0.472870 0.149100 
#    y -0.472870 4.376990 -0.108860 
#    z 0.149100 -0.108860 4.210600 
# 
# 
# High freq. dielectric constant tensor:
#      x y z
#    x 1.882010 -0.016190 0.005850 
#    y -0.016190 1.853200 0.006710 
#    z 0.005850 0.006710 1.896210 
# 
# From -- ./inp_files/534022.got.cif
#   From: 2010.06.25/outbox.cif.g09.slc.cpg/sg2_268_cif.got.tgz:534022.got - 2010.06.27 13:26:56.
