data_PCOD8002310
_publ_section_title
;
Structure prediction by ZEFSAII (Michael W. Deem and Ramdas Pophale) SiO2 
 PCOD8002310
Probable space group: P -1
;
_chemical_formula_sum "Si O2"
_cell_formula_units_Z 16
_cell_length_a 16.651907
_cell_length_b 18.270317
_cell_length_c 10.775174
_cell_angle_alpha 26.111831
_cell_angle_beta 132.546954
_cell_angle_gamma 146.740124
_cell_volume 752.497543
_symmetry_space_group_name_H-M "P -1"
_symmetry_group_IT_number 2
_symmetry_cell_setting 'triclinic'
loop_
_space_group_symop_operation_xyz
x,y,z
-x,-y,-z
loop_
_atom_site_type_symbol
_atom_site_label
_atom_site_fract_x
_atom_site_fract_y
_atom_site_fract_z
Si Si1 0.604814 0.941324 0.314444
Si Si2 0.900009 0.827537 0.771364
Si Si3 0.303417 0.227955 0.898816
Si Si4 0.279776 0.719110 0.303293
Si Si5 0.823119 0.015724 0.608617
Si Si6 0.364984 0.345509 0.380883
Si Si7 0.095194 0.269931 0.653937
Si Si8 0.837175 0.086111 0.991041
O O1 0.723521 0.052569 0.383503
O O2 0.436831 0.816245 0.379445
O O3 0.583484 0.744000 0.523025
O O4 0.679203 0.159958 0.971351
O O5 0.731145 0.617312 0.853164
O O6 0.880879 0.942993 0.681654
O O7 0.000000 0.000000 0.500000
O O8 0.982799 0.754199 0.028801
O O9 0.483414 0.405180 0.783358
O O10 0.246134 0.355577 0.612512
O O11 0.200369 0.982732 0.088601
O O12 0.284161 0.178168 0.101671
O O13 0.151676 0.438393 0.574425
O O14 0.203821 0.769774 0.238700
O O15 0.982828 0.259027 0.465323
O O16 0.267106 0.161133 0.670247
O O17 0.000000 0.000000 0.000000
#
# Coordination Sequence:
#
# PCOD8002310 Si02
#       8
#     2   2   2   2   2   2   2   2
#     4   9  19  36  59  88 114 156 200 248 296 348
#     4   9  18  34  55  86 119 149 196 250 291 346
#     4  11  20  36  58  90 119 156 201 243 291 356
#     4  10  20  39  61  85 118 155 200 246 299 354
#     4  10  21  37  59  87 120 156 203 242 295 355
#     4   9  18  34  58  89 116 154 208 242 287 345
#     4  10  21  38  59  87 117 154 201 238 291 361
#     4  10  20  35  59  87 122 154 194 249 300 347
#
# _framework density 21.262526999999999
#
# number of rings (size 3 to 8) (size 9 to 14) (size 15 to 20)
#    0.000    2.250    2.500    1.125    0.000    2.500 
#    0.000    4.375    0.000    0.000    0.000    0.000 
#    0.000    0.000    0.000    0.000    0.000    0.000 
#
# Total GULP energy -198246.687945 kJ/mol
# GULP energy per Si atom -12390.417997 kJ/mol
# Density = 2.121413 g / cm^3
# Si number density = 21.262527 Si / 1000 Ang^3
#
#
#
# Elastic Constant Matrix: (Units=GPa)
#
#
# Indices 1 2 3 4 5 6 
#
# 1 96.9110 52.6006 22.4614 7.2004 19.3848 6.4820
# 2 52.6006 170.3810 33.4840 2.7136 10.9731 32.1379
# 3 22.4614 33.4840 48.9921 -6.3357 8.9945 1.9322
# 4 7.2004 2.7136 -6.3357 27.4195 -0.8852 2.5033
# 5 19.3848 10.9731 8.9945 -0.8852 25.4834 2.0327
# 6 6.4820 32.1379 1.9322 2.5033 2.0327 44.7697
#
#
#
# Elastic Compliance Matrix: (Units=1/GPa)
#
#
# Indices 1 2 3 4 5 6 
#
# 1 0.015147 -0.003547 -0.003539 -0.004843 -0.009008 0.001186
# 2 -0.003547 0.008851 -0.004416 -0.000419 0.000883 -0.005666
# 3 -0.003539 -0.004416 0.026768 0.007183 -0.004792 0.002343
# 4 -0.004843 -0.000419 0.007183 0.039686 0.002840 -0.001656
# 5 -0.009008 0.000883 -0.004792 0.002840 0.047618 -0.001444
# 6 0.001186 -0.005666 0.002343 -0.001656 -0.001444 0.026289
#
#
# Mechanical properties :
#
#
# Convention : Reuss Voigt Hill
#
# Bulk Modulus (GPa) = 36.02116 59.26403 47.64259
# Shear Modulus (GPa) = 25.43013 33.38373 29.40693
#
# Velocity S-wave (km/s) = 3.46209 3.96671 3.72296
# Velocity P-wave (km/s) = 5.74102 6.99377 6.39813
#
# Compressibility (1/GPa) = 0.02776146
#
# Stress axis : x y z
#
# Youngs Moduli (GPa) = 66.02113 112.98769 37.35764
#
# Poissons Ratio (x) = 0.40076 0.13223
# Poissons Ratio (y) = 0.23417 0.16496
# Poissons Ratio (z) = 0.23368 0.49891
#
# Static dielectric constant tensor:
#      x y z
#    x 3.982810 0.463160 -0.035700 
#    y 0.463160 4.611480 0.104660 
#    z -0.035700 0.104660 3.302870 
# 
# 
# High freq. dielectric constant tensor:
#      x y z
#    x 1.838260 0.019390 -0.009850 
#    y 0.019390 1.856040 0.000430 
#    z -0.009850 0.000430 1.779270 
# 
# From -- ./inp_files/466544.got.cif
#   From: 2010.06.25/outbox.cif.g09.slc.cpg/sg2_234_cif.got.tgz:466544.got - 2010.06.27 13:26:56.
