data_PCOD8002119
_publ_section_title
;
Structure prediction by ZEFSAII (Michael W. Deem and Ramdas Pophale) SiO2 
 PCOD8002119
Probable space group: P -1
;
_chemical_formula_sum "Si O2"
_cell_formula_units_Z 16
_cell_length_a 11.252188
_cell_length_b 9.981522
_cell_length_c 20.644504
_cell_angle_alpha 40.246746
_cell_angle_beta 45.235131
_cell_angle_gamma 76.613228
_cell_volume 792.445969
_symmetry_space_group_name_H-M "P -1"
_symmetry_group_IT_number 2
_symmetry_cell_setting 'triclinic'
loop_
_space_group_symop_operation_xyz
x,y,z
-x,-y,-z
loop_
_atom_site_type_symbol
_atom_site_label
_atom_site_fract_x
_atom_site_fract_y
_atom_site_fract_z
Si Si1 0.291686 0.566066 0.410533
Si Si2 0.443168 0.842865 0.866549
Si Si3 0.457603 0.083660 0.394572
Si Si4 0.754387 0.887785 0.642881
Si Si5 0.712888 0.913996 0.403849
Si Si6 0.420964 0.688960 0.071426
Si Si7 0.811654 0.298054 0.728334
Si Si8 0.150507 0.474660 0.993219
O O1 0.357510 0.382387 0.466133
O O2 0.245179 0.568168 0.351330
O O3 0.069766 0.448475 0.577667
O O4 0.502500 0.872211 0.243293
O O5 0.682309 0.929400 0.723854
O O6 0.347364 0.656930 0.036668
O O7 0.261118 0.673332 0.941386
O O8 0.266948 0.947823 0.463037
O O9 0.340444 0.046051 0.519475
O O10 0.560949 0.935428 0.407826
O O11 0.649378 0.409886 0.177453
O O12 0.579512 0.554040 0.821947
O O13 0.000000 0.000000 0.500000
O O14 0.982111 0.151256 0.199082
O O15 0.246097 0.669015 0.190425
O O16 0.672059 0.978038 0.880707
O O17 0.000000 0.500000 0.000000
#
# Coordination Sequence:
#
# PCOD8002119 Si02
#       8
#     2   2   2   2   2   2   2   2
#     4  10  20  37  59  86 120 162 198 247 306 351
#     4  10  22  37  56  91 125 147 204 252 295 369
#     4   9  21  38  58  92 115 151 212 248 289 373
#     4  11  22  35  57  85 124 155 194 249 311 352
#     4  10  20  38  67  84 115 165 202 248 305 355
#     4  10  20  35  55  87 120 163 192 247 301 356
#     4   9  20  36  56  85 126 156 203 241 296 373
#     4   9  20  40  61  85 118 156 200 252 296 356
#
# _framework density 20.190650999999999
#
# number of rings (size 3 to 8) (size 9 to 14) (size 15 to 20)
#    0.000    2.250    0.000    1.875    5.250    2.000 
#    0.000    5.625    0.000    6.750    0.000    0.000 
#    0.000    0.000    0.000    0.000    0.000    0.000 
#
# Total GULP energy -198215.392100 kJ/mol
# GULP energy per Si atom -12388.462006 kJ/mol
# Density = 2.014470 g / cm^3
# Si number density = 20.190651 Si / 1000 Ang^3
#
#
#
# Elastic Constant Matrix: (Units=GPa)
#
#
# Indices 1 2 3 4 5 6 
#
# 1 113.5246 39.5035 32.2452 3.6766 9.2585 -5.6288
# 2 39.5035 70.3985 20.8563 -5.8811 12.7115 -9.3897
# 3 32.2452 20.8563 77.6408 4.8292 13.9525 -11.3715
# 4 3.6766 -5.8811 4.8292 42.7011 -0.5996 10.4703
# 5 9.2585 12.7115 13.9525 -0.5996 24.2109 0.8076
# 6 -5.6288 -9.3897 -11.3715 10.4703 0.8076 31.2635
#
#
#
# Elastic Compliance Matrix: (Units=1/GPa)
#
#
# Indices 1 2 3 4 5 6 
#
# 1 0.011797 -0.005876 -0.003396 -0.001324 0.000513 -0.000446
# 2 -0.005876 0.019931 -0.001101 0.002298 -0.007658 0.003956
# 3 -0.003396 -0.001101 0.017315 -0.003598 -0.008417 0.006778
# 4 -0.001324 0.002298 -0.003598 0.026707 0.002364 -0.009862
# 5 0.000513 -0.007658 -0.008417 0.002364 0.050283 -0.007360
# 6 -0.000446 0.003956 0.006778 -0.009862 -0.007360 0.039053
#
#
# Mechanical properties :
#
#
# Convention : Reuss Voigt Hill
#
# Bulk Modulus (GPa) = 35.34017 49.64153 42.49085
# Shear Modulus (GPa) = 25.60634 30.89904 28.25269
#
# Velocity S-wave (km/s) = 3.56508 3.91623 3.74477
# Velocity P-wave (km/s) = 5.87262 6.71483 6.30780
#
# Compressibility (1/GPa) = 0.02829641
#
# Stress axis : x y z
#
# Youngs Moduli (GPa) = 84.76690 50.17358 57.75319
#
# Poissons Ratio (x) = 0.29484 0.19613
# Poissons Ratio (y) = 0.49813 0.06357
# Poissons Ratio (z) = 0.28787 0.05523
#
# Static dielectric constant tensor:
#      x y z
#    x 3.904740 -0.076450 0.035190 
#    y -0.076450 3.555100 0.149190 
#    z 0.035190 0.149190 4.340590 
# 
# 
# High freq. dielectric constant tensor:
#      x y z
#    x 1.779730 0.000180 0.014950 
#    y 0.000180 1.771280 0.013290 
#    z 0.014950 0.013290 1.804960 
# 
# From -- ./inp_files/333396.got.cif
#   From: 2010.06.25/outbox.cif.g09.slc.cpg/sg2_167_cif.got.tgz:333396.got - 2010.06.27 13:26:56.
