data_PCOD8002408
_publ_section_title
;
Structure prediction by ZEFSAII (Michael W. Deem and Ramdas Pophale) SiO2 
 PCOD8002408
Probable space group: P -1
;
_chemical_formula_sum "Si O2"
_cell_formula_units_Z 16
_cell_length_a 16.357211
_cell_length_b 10.944794
_cell_length_c 8.992740
_cell_angle_alpha 119.480652
_cell_angle_beta 67.558708
_cell_angle_gamma 62.855030
_cell_volume 776.290479
_symmetry_space_group_name_H-M "P -1"
_symmetry_group_IT_number 2
_symmetry_cell_setting 'triclinic'
loop_
_space_group_symop_operation_xyz
x,y,z
-x,-y,-z
loop_
_atom_site_type_symbol
_atom_site_label
_atom_site_fract_x
_atom_site_fract_y
_atom_site_fract_z
Si Si1 0.656588 0.942134 0.763726
Si Si2 0.045892 0.333972 0.491958
Si Si3 0.763989 0.341403 0.421722
Si Si4 0.539186 0.809149 0.681850
Si Si5 0.059369 0.140065 0.096919
Si Si6 0.105908 0.344147 0.974123
Si Si7 0.546680 0.595685 0.981728
Si Si8 0.553715 0.088393 0.511026
O O1 0.825925 0.765447 0.553892
O O2 0.630139 0.840248 0.613267
O O3 0.577560 0.181334 0.903531
O O4 0.597413 0.977703 0.989653
O O5 0.086949 0.143061 0.255273
O O6 0.000000 0.500000 0.500000
O O7 0.913858 0.495159 0.803743
O O8 0.640155 0.559511 0.529861
O O9 0.898565 0.277138 0.288174
O O10 0.702115 0.401038 0.668585
O O11 0.811926 0.129806 0.199726
O O12 0.466904 0.837011 0.600160
O O13 0.059103 0.266502 0.054866
O O14 0.277055 0.112131 0.669347
O O15 0.000000 0.500000 0.000000
O O16 0.555116 0.678091 0.174409
O O17 0.500000 0.500000 0.000000
O O18 0.500000 0.000000 0.500000
#
# Coordination Sequence:
#
# PCOD8002408 Si02
#       8
#     2   2   2   2   2   2   2   2
#     4  10  20  37  61  92 119 166 209 264 304 385
#     4  10  20  35  61  87 120 159 211 256 310 367
#     4  10  23  41  65  89 124 175 208 270 316 383
#     4  10  20  37  63  90 125 159 217 258 319 364
#     4  10  22  42  63  90 126 164 226 255 318 384
#     4  11  24  40  65  95 130 168 207 264 323 375
#     4  11  24  42  64  90 132 167 205 261 332 373
#     4  12  25  39  64  99 132 164 217 264 313 388
#
# _framework density 20.610841000000001
#
# number of rings (size 3 to 8) (size 9 to 14) (size 15 to 20)
#    0.000    1.500    1.250    4.500    3.500    1.000 
#    0.000    3.125    0.000    3.750    0.000    0.000 
#    0.000    0.000    0.000    0.000    0.000    0.000 
#
# Total GULP energy -198303.618571 kJ/mol
# GULP energy per Si atom -12393.976161 kJ/mol
# Density = 2.056393 g / cm^3
# Si number density = 20.610841 Si / 1000 Ang^3
#
#
#
# Elastic Constant Matrix: (Units=GPa)
#
#
# Indices 1 2 3 4 5 6 
#
# 1 95.2602 41.7348 45.9835 -2.1577 21.3489 1.1883
# 2 41.7348 92.4433 34.9903 -1.7447 5.5572 -1.3662
# 3 45.9835 34.9903 133.1660 -6.7515 24.0067 0.6342
# 4 -2.1577 -1.7447 -6.7515 30.0422 -4.5225 -1.2156
# 5 21.3489 5.5572 24.0067 -4.5225 40.4807 -2.7802
# 6 1.1883 -1.3662 0.6342 -1.2156 -2.7802 41.1200
#
#
#
# Elastic Compliance Matrix: (Units=1/GPa)
#
#
# Indices 1 2 3 4 5 6 
#
# 1 0.015706 -0.005667 -0.002898 -0.000789 -0.005945 -0.001023
# 2 -0.005667 0.014068 -0.002166 0.000324 0.002436 0.000839
# 3 -0.002898 -0.002166 0.009848 0.001278 -0.003897 -0.000366
# 4 -0.000789 0.000324 0.001278 0.034115 0.003512 0.001260
# 5 -0.005945 0.002436 -0.003897 0.003512 0.030377 0.002470
# 6 -0.001023 0.000839 -0.000366 0.001260 0.002470 0.024586
#
#
# Mechanical properties :
#
#
# Convention : Reuss Voigt Hill
#
# Bulk Modulus (GPa) = 55.06386 62.92074 58.99230
# Shear Modulus (GPa) = 32.00678 35.53931 33.77304
#
# Velocity S-wave (km/s) = 3.94497 4.15698 4.05236
# Velocity P-wave (km/s) = 6.89379 7.32358 7.11194
#
# Compressibility (1/GPa) = 0.01816073
#
# Stress axis : x y z
#
# Youngs Moduli (GPa) = 63.66872 71.08466 101.53882
#
# Poissons Ratio (x) = 0.40280 0.29426
# Poissons Ratio (y) = 0.36078 0.21997
# Poissons Ratio (z) = 0.18451 0.15400
#
# Static dielectric constant tensor:
#      x y z
#    x 3.859320 -0.098750 0.306010 
#    y -0.098750 3.707760 -0.157350 
#    z 0.306010 -0.157350 4.238130 
# 
# 
# High freq. dielectric constant tensor:
#      x y z
#    x 1.794000 -0.006720 0.009390 
#    y -0.006720 1.803350 -0.008550 
#    z 0.009390 -0.008550 1.827080 
# 
# From -- ./inp_files/308303.got.cif
#   From: 2010.06.25/outbox.cif.g09.slc.cpg/sg2_155_cif.got.tgz:308303.got - 2010.06.27 13:26:56.
