data_PCOD8002885
_publ_section_title
;
Structure prediction by ZEFSAII (Michael W. Deem and Ramdas Pophale) SiO2 
 PCOD8002885
Probable space group: P -1
;
_chemical_formula_sum "Si O2"
_cell_formula_units_Z 16
_cell_length_a 8.790231
_cell_length_b 7.017607
_cell_length_c 27.452700
_cell_angle_alpha 136.348002
_cell_angle_beta 135.183140
_cell_angle_gamma 53.981649
_cell_volume 814.137009
_symmetry_space_group_name_H-M "P -1"
_symmetry_group_IT_number 2
_symmetry_cell_setting 'triclinic'
loop_
_space_group_symop_operation_xyz
x,y,z
-x,-y,-z
loop_
_atom_site_type_symbol
_atom_site_label
_atom_site_fract_x
_atom_site_fract_y
_atom_site_fract_z
Si Si1 0.210556 0.322748 0.491919
Si Si2 0.172686 0.279112 0.360774
Si Si3 0.078466 0.729110 0.027759
Si Si4 0.135198 0.135743 0.762903
Si Si5 0.536233 0.218734 0.355087
Si Si6 0.014127 0.158383 0.629732
Si Si7 0.031219 0.662707 0.895291
Si Si8 0.396639 0.088005 0.195431
O O1 0.210808 0.338461 0.436585
O O2 0.420092 0.458491 0.582347
O O3 0.000000 0.500000 0.500000
O O4 0.196906 0.008889 0.450000
O O5 0.400201 0.189613 0.367826
O O6 0.039550 0.558176 0.359369
O O7 0.033433 0.026342 0.276846
O O8 0.314636 0.789157 0.111609
O O9 0.089541 0.599932 0.952705
O O10 0.911916 0.026748 0.047131
O O11 0.000000 0.500000 0.000000
O O12 0.170155 0.417636 0.850738
O O13 0.362535 0.923363 0.773744
O O14 0.058164 0.226211 0.708139
O O15 0.396027 0.145390 0.263698
O O16 0.767923 0.018674 0.376727
O O17 0.771314 0.669536 0.825140
#
# Coordination Sequence:
#
# PCOD8002885 Si02
#       8
#     2   2   2   2   2   2   2   2
#     4   9  20  39  57  79 121 151 187 243 279 327
#     4  11  22  36  59  84 113 154 197 228 278 337
#     4   9  20  39  61  83 114 145 183 232 279 340
#     4  10  21  37  57  86 117 149 188 235 274 335
#     4  10  20  36  60  84 112 151 193 236 280 333
#     4   9  21  39  55  84 118 150 191 235 283 327
#     4   9  20  38  60  81 114 148 183 225 288 334
#     4   9  20  39  58  83 117 145 186 233 285 332
#
# _framework density 19.652709999999999
#
# number of rings (size 3 to 8) (size 9 to 14) (size 15 to 20)
#    0.750    1.750    0.000    1.875    1.750    4.000 
#    2.250    8.125    0.000    0.000    0.000    0.000 
#    0.000    0.000    0.000    0.000    0.000    0.000 
#
# Total GULP energy -198252.743888 kJ/mol
# GULP energy per Si atom -12390.796493 kJ/mol
# Density = 1.960798 g / cm^3
# Si number density = 19.652710 Si / 1000 Ang^3
#
#
#
# Elastic Constant Matrix: (Units=GPa)
#
#
# Indices 1 2 3 4 5 6 
#
# 1 124.8867 34.1730 50.4114 7.2123 -11.6196 12.4517
# 2 34.1730 79.0496 27.8639 4.1789 -6.7446 11.1478
# 3 50.4114 27.8639 87.0141 7.1445 -11.4275 8.5334
# 4 7.2123 4.1789 7.1445 19.6712 -3.9287 0.7758
# 5 -11.6196 -6.7446 -11.4275 -3.9287 33.0833 5.5972
# 6 12.4517 11.1478 8.5334 0.7758 5.5972 24.3469
#
#
#
# Elastic Compliance Matrix: (Units=1/GPa)
#
#
# Indices 1 2 3 4 5 6 
#
# 1 0.011317 -0.002376 -0.005079 -0.001235 0.002161 -0.003377
# 2 -0.002376 0.015649 -0.002737 -0.000795 0.002243 -0.005481
# 3 -0.005079 -0.002737 0.016221 -0.002675 0.003371 -0.002524
# 4 -0.001235 -0.000795 -0.002675 0.053461 0.004984 -0.000916
# 5 0.002161 0.002243 0.003371 0.004984 0.035154 -0.011554
# 6 -0.003377 -0.005481 -0.002524 -0.000916 -0.011554 0.048880
#
#
# Mechanical properties :
#
#
# Convention : Reuss Voigt Hill
#
# Bulk Modulus (GPa) = 43.85572 57.31634 50.58603
# Shear Modulus (GPa) = 23.96180 27.32042 25.64111
#
# Velocity S-wave (km/s) = 3.49558 3.73253 3.61600
# Velocity P-wave (km/s) = 6.21739 6.91402 6.57494
#
# Compressibility (1/GPa) = 0.02280204
#
# Stress axis : x y z
#
# Youngs Moduli (GPa) = 88.36524 63.90362 61.64733
#
# Poissons Ratio (x) = 0.15184 0.31311
# Poissons Ratio (y) = 0.20996 0.16874
# Poissons Ratio (z) = 0.44882 0.17491
#
# Static dielectric constant tensor:
#      x y z
#    x 3.449040 -0.092880 0.185820 
#    y -0.092880 3.110380 0.441300 
#    z 0.185820 0.441300 3.321990 
# 
# 
# High freq. dielectric constant tensor:
#      x y z
#    x 1.759350 -0.000220 -0.010650 
#    y -0.000220 1.745210 0.007180 
#    z -0.010650 0.007180 1.779470 
# 
# From -- ./inp_files/616293.got.cif
#   From: 2010.06.25/outbox.cif.g09.slc.cpg/sg2_309_cif.got.tgz:616293.got - 2010.06.27 13:26:56.
