data_PCOD8002228
_publ_section_title
;
Structure prediction by ZEFSAII (Michael W. Deem and Ramdas Pophale) SiO2 
 PCOD8002228
Probable space group: P -1
;
_chemical_formula_sum "Si O2"
_cell_formula_units_Z 14
_cell_length_a 9.028040
_cell_length_b 14.538247
_cell_length_c 14.212585
_cell_angle_alpha 143.739329
_cell_angle_beta 83.529170
_cell_angle_gamma 121.197874
_cell_volume 753.012320
_symmetry_space_group_name_H-M "P -1"
_symmetry_group_IT_number 2
_symmetry_cell_setting 'triclinic'
loop_
_space_group_symop_operation_xyz
x,y,z
-x,-y,-z
loop_
_atom_site_type_symbol
_atom_site_label
_atom_site_fract_x
_atom_site_fract_y
_atom_site_fract_z
Si Si1 0.239266 0.739229 0.538761
Si Si2 0.643324 0.996341 0.600650
Si Si3 0.011969 0.206376 0.884623
Si Si4 0.168932 0.765488 0.897300
Si Si5 0.419704 0.707537 0.201974
Si Si6 0.393786 0.047506 0.941405
Si Si7 0.263614 0.100101 0.816420
O O1 0.037318 0.472123 0.330472
O O2 0.434503 0.806885 0.524211
O O3 0.315151 0.827648 0.713793
O O4 0.181761 0.864136 0.598770
O O5 0.684997 0.211526 0.760975
O O6 0.856837 0.085084 0.705278
O O7 0.604651 0.881969 0.410177
O O8 0.068076 0.072531 0.798473
O O9 0.232432 0.462149 0.056964
O O10 0.888539 0.193437 0.968430
O O11 0.262413 0.962508 0.978517
O O12 0.349475 0.770411 0.907905
O O13 0.535152 0.703446 0.104429
O O14 0.347318 0.159637 0.968734
#
# Coordination Sequence:
#
# PCOD8002228 Si02
#       7
#     2   2   2   2   2   2   2
#     4   9  18  39  52  80 108 142 178 227 260 318
#     4  10  20  35  58  82 108 137 194 221 256 324
#     4  12  21  35  57  86 107 147 175 227 272 322
#     4  11  19  35  66  77 103 147 190 215 271 311
#     4  10  20  38  55  78 111 147 179 225 264 319
#     4   9  21  38  56  84 107 140 186 227 257 330
#     4   9  22  39  51  80 124 133 178 226 276 318
#
# _framework density 18.591992999999999
#
# number of rings (size 3 to 8) (size 9 to 14) (size 15 to 20)
#    0.857    1.143    2.857    1.286    0.000    1.143 
#    2.571    0.000    0.000    2.571    0.000    0.000 
#    0.000    0.000    0.000    0.000    0.000    0.000 
#
# Total GULP energy -173549.211046 kJ/mol
# GULP energy per Si atom -12396.372218 kJ/mol
# Density = 1.854968 g / cm^3
# Si number density = 18.591993 Si / 1000 Ang^3
#
#
#
# Elastic Constant Matrix: (Units=GPa)
#
#
# Indices 1 2 3 4 5 6 
#
# 1 74.1539 23.9087 13.1219 3.6344 13.4955 -13.4721
# 2 23.9087 106.0124 9.7579 -4.7600 4.6593 2.0970
# 3 13.1219 9.7579 51.2829 -1.1513 14.8418 -1.9522
# 4 3.6344 -4.7600 -1.1513 19.8498 -7.8092 11.1358
# 5 13.4955 4.6593 14.8418 -7.8092 14.6176 -6.6435
# 6 -13.4721 2.0970 -1.9522 11.1358 -6.6435 20.6429
#
#
#
# Elastic Compliance Matrix: (Units=1/GPa)
#
#
# Indices 1 2 3 4 5 6 
#
# 1 0.028258 -0.007424 0.004548 -0.036052 -0.034954 0.027825
# 2 -0.007424 0.011824 -0.002814 0.013337 0.008117 -0.010895
# 3 0.004548 -0.002814 0.031192 -0.017905 -0.043723 0.001791
# 4 -0.036052 0.013337 -0.017905 0.132431 0.085993 -0.070341
# 5 -0.034954 0.008117 -0.043723 0.085993 0.181233 -0.015834
# 6 0.027825 -0.010895 0.001791 -0.070341 -0.015834 0.100728
#
#
# Mechanical properties :
#
#
# Convention : Reuss Voigt Hill
#
# Bulk Modulus (GPa) = 16.69667 36.11401 26.40534
# Shear Modulus (GPa) = 9.67099 23.33278 16.50188
#
# Velocity S-wave (km/s) = 2.28320 3.54643 2.98246
# Velocity P-wave (km/s) = 3.99383 6.01965 5.10818
#
# Compressibility (1/GPa) = 0.05989218
#
# Stress axis : x y z
#
# Youngs Moduli (GPa) = 35.38823 84.57411 32.05989
#
# Poissons Ratio (x) = 0.62792 -0.14582
# Poissons Ratio (y) = 0.26274 0.09023
# Poissons Ratio (z) = -0.16095 0.23803
#
# Static dielectric constant tensor:
#      x y z
#    x 3.187490 0.013620 0.127240 
#    y 0.013620 3.510310 -0.117850 
#    z 0.127240 -0.117850 3.162250 
# 
# 
# High freq. dielectric constant tensor:
#      x y z
#    x 1.698460 0.005090 0.017870 
#    y 0.005090 1.736260 -0.007760 
#    z 0.017870 -0.007760 1.701810 
# 
# From -- ./inp_files/42479.got.cif
#   From: 2010.06.25/outbox.cif.g09.slc.cpg/sg2_22_cif.got.tgz:42479.got - 2010.06.27 13:26:56.
