data_PCOD8002092
_publ_section_title
;
Structure prediction by ZEFSAII (Michael W. Deem and Ramdas Pophale) SiO2 
 PCOD8002092
Probable space group: P -1
;
_chemical_formula_sum "Si O2"
_cell_formula_units_Z 16
_cell_length_a 5.417687
_cell_length_b 12.767448
_cell_length_c 18.552407
_cell_angle_alpha 140.299129
_cell_angle_beta 110.035630
_cell_angle_gamma 79.364233
_cell_volume 763.409675
_symmetry_space_group_name_H-M "P -1"
_symmetry_group_IT_number 2
_symmetry_cell_setting 'triclinic'
loop_
_space_group_symop_operation_xyz
x,y,z
-x,-y,-z
loop_
_atom_site_type_symbol
_atom_site_label
_atom_site_fract_x
_atom_site_fract_y
_atom_site_fract_z
Si Si1 0.049658 0.873579 0.783946
Si Si2 0.606977 0.270971 0.149586
Si Si3 0.866913 0.945371 0.381857
Si Si4 0.613420 0.162166 0.640975
Si Si5 0.999872 0.856289 0.980459
Si Si6 0.013621 0.790365 0.576008
Si Si7 0.526108 0.607862 0.368996
Si Si8 0.745931 0.520787 0.587556
O O1 0.321383 0.854704 0.845853
O O2 0.081575 0.885158 0.707643
O O3 0.853095 0.712963 0.702276
O O4 0.936643 0.044017 0.885089
O O5 0.695566 0.461563 0.283616
O O6 0.289547 0.250587 0.096585
O O7 0.768224 0.248398 0.078810
O O8 0.583544 0.832417 0.306719
O O9 0.080881 0.846947 0.309270
O O10 0.816268 0.105002 0.413724
O O11 0.000000 0.000000 0.500000
O O12 0.615439 0.325817 0.679531
O O13 0.500000 0.000000 0.500000
O O14 0.000000 0.000000 0.000000
O O15 0.065933 0.601950 0.492041
O O16 0.706343 0.765315 0.507400
O O17 0.308900 0.531230 0.363293
O O18 0.500000 0.500000 0.500000
#
# Coordination Sequence:
#
# PCOD8002092 Si02
#       8
#     2   2   2   2   2   2   2   2
#     4  11  22  39  56  85 119 161 197 242 287 343
#     4  11  23  39  60  83 113 158 200 246 280 339
#     4  10  20  36  55  78 118 149 191 229 285 353
#     4  10  20  35  55  80 115 147 186 239 281 356
#     4  10  22  41  59  78 110 158 212 244 276 324
#     4  12  23  35  55  88 121 158 188 236 301 364
#     4  12  22  35  58  85 120 152 194 237 303 352
#     4  12  23  34  52  85 130 162 186 228 295 369
#
# _framework density 20.958603
#
# number of rings (size 3 to 8) (size 9 to 14) (size 15 to 20)
#    0.000    1.000    5.000    5.625    0.000    1.000 
#    0.000    0.000    0.000    0.000    0.000    5.250 
#    0.000    0.000    0.000    0.000    0.000    0.000 
#
# Total GULP energy -198261.113263 kJ/mol
# GULP energy per Si atom -12391.319579 kJ/mol
# Density = 2.091090 g / cm^3
# Si number density = 20.958603 Si / 1000 Ang^3
#
#
#
# Elastic Constant Matrix: (Units=GPa)
#
#
# Indices 1 2 3 4 5 6 
#
# 1 131.5377 19.7382 28.8062 -2.5878 -4.0693 14.5446
# 2 19.7382 90.7799 18.6870 -7.9233 -1.9779 17.1312
# 3 28.8062 18.6870 95.0009 -6.9947 -20.1142 7.0770
# 4 -2.5878 -7.9233 -6.9947 10.2848 0.4613 -4.3406
# 5 -4.0693 -1.9779 -20.1142 0.4613 28.6677 5.0096
# 6 14.5446 17.1312 7.0770 -4.3406 5.0096 34.0761
#
#
#
# Elastic Compliance Matrix: (Units=1/GPa)
#
#
# Indices 1 2 3 4 5 6 
#
# 1 0.008537 -0.000964 -0.002268 -0.001353 0.000077 -0.002872
# 2 -0.000964 0.013056 -0.001253 0.006769 0.000672 -0.005129
# 3 -0.002268 -0.001253 0.014174 0.006861 0.009759 -0.001906
# 4 -0.001353 0.006769 0.006861 0.110758 0.001626 0.009619
# 5 0.000077 0.000672 0.009759 0.001626 0.043255 -0.008550
# 6 -0.002872 -0.005129 -0.001906 0.009619 -0.008550 0.036028
#
#
# Mechanical properties :
#
#
# Convention : Reuss Voigt Hill
#
# Bulk Modulus (GPa) = 37.31763 50.19794 43.75779
# Shear Modulus (GPa) = 20.51604 31.27819 25.89712
#
# Velocity S-wave (km/s) = 3.13211 3.86732 3.51897
# Velocity P-wave (km/s) = 5.56095 6.62907 6.11836
#
# Compressibility (1/GPa) = 0.02679698
#
# Stress axis : x y z
#
# Youngs Moduli (GPa) = 117.13586 76.59032 70.55174
#
# Poissons Ratio (x) = 0.07381 0.16003
# Poissons Ratio (y) = 0.11288 0.08842
# Poissons Ratio (z) = 0.26570 0.09599
#
# Static dielectric constant tensor:
#      x y z
#    x 9.439710 1.129880 -0.026860 
#    y 1.129880 4.018360 0.118700 
#    z -0.026860 0.118700 4.089980 
# 
# 
# High freq. dielectric constant tensor:
#      x y z
#    x 1.834580 0.008130 -0.010200 
#    y 0.008130 1.799140 0.007730 
#    z -0.010200 0.007730 1.781070 
# 
# From -- ./inp_files/112288.got.cif
#   From: 2010.06.25/outbox.cif.g09.slc.cpg/sg2_57_cif.got.tgz:112288.got - 2010.06.27 13:26:56.
