data_PCOD8002126
_publ_section_title
;
Structure prediction by ZEFSAII (Michael W. Deem and Ramdas Pophale) SiO2 
 PCOD8002126
Probable space group: P -1
;
_chemical_formula_sum "Si O2"
_cell_formula_units_Z 16
_cell_length_a 20.430212
_cell_length_b 22.386178
_cell_length_c 10.328043
_cell_angle_alpha 142.981862
_cell_angle_beta 151.864394
_cell_angle_gamma 22.932607
_cell_volume 865.508268
_symmetry_space_group_name_H-M "P -1"
_symmetry_group_IT_number 2
_symmetry_cell_setting 'triclinic'
loop_
_space_group_symop_operation_xyz
x,y,z
-x,-y,-z
loop_
_atom_site_type_symbol
_atom_site_label
_atom_site_fract_x
_atom_site_fract_y
_atom_site_fract_z
Si Si1 0.088095 0.288023 0.648816
Si Si2 0.362841 0.670726 0.405210
Si Si3 0.757330 0.180851 0.033756
Si Si4 0.361479 0.316307 0.190842
Si Si5 0.225657 0.690695 0.473856
Si Si6 0.952418 0.675653 0.068592
Si Si7 0.676720 0.649480 0.526003
Si Si8 0.055089 0.830885 0.909125
O O1 0.116612 0.243836 0.773018
O O2 0.863308 0.465686 0.535698
O O3 0.095119 0.183550 0.397677
O O4 0.294269 0.244390 0.894598
O O5 0.450009 0.736287 0.655708
O O6 0.230643 0.738564 0.425093
O O7 0.556392 0.487047 0.423794
O O8 0.213168 0.722307 0.114970
O O9 0.507503 0.285784 0.780860
O O10 0.809111 0.206440 0.302209
O O11 0.804795 0.227765 0.077406
O O12 0.905676 0.004134 0.981299
O O13 0.149447 0.496851 0.131749
O O14 0.434016 0.273596 0.393418
O O15 0.021203 0.727469 0.183556
O O16 0.767031 0.707858 0.737740
#
# Coordination Sequence:
#
# PCOD8002126 Si02
#       8
#     2   2   2   2   2   2   2   2
#     4   9  16  30  54  77 100 131 168 216 258 292
#     4  10  20  35  56  79 103 134 171 211 257 307
#     4  11  22  34  50  77 108 137 172 211 252 302
#     4   8  15  29  51  79 103 127 166 213 259 298
#     4  10  20  35  56  79 103 134 171 211 257 307
#     4   8  15  29  51  79 103 127 166 213 259 298
#     4   9  16  30  54  77 100 131 168 216 258 292
#     4  11  22  34  50  77 108 137 172 211 252 302
#
# _framework density 18.486248
#
# number of rings (size 3 to 8) (size 9 to 14) (size 15 to 20)
#    0.000    2.500    2.500    2.250    0.000    1.500 
#    0.000    5.000    0.000    7.500    0.000    0.000 
#    0.000    0.000    0.000    0.000    0.000    0.000 
#
# Total GULP energy -198340.605852 kJ/mol
# GULP energy per Si atom -12396.287866 kJ/mol
# Density = 1.844417 g / cm^3
# Si number density = 18.486248 Si / 1000 Ang^3
#
#
#
# Elastic Constant Matrix: (Units=GPa)
#
#
# Indices 1 2 3 4 5 6 
#
# 1 122.4899 17.7812 54.9913 17.6477 13.8692 2.1483
# 2 17.7812 23.6621 16.6034 13.7122 0.8935 -0.5935
# 3 54.9913 16.6034 111.1111 27.7889 17.8841 4.8938
# 4 17.6477 13.7122 27.7889 22.3556 -0.0237 -2.3702
# 5 13.8692 0.8935 17.8841 -0.0237 30.8106 1.3168
# 6 2.1483 -0.5935 4.8938 -2.3702 1.3168 14.2444
#
#
#
# Elastic Compliance Matrix: (Units=1/GPa)
#
#
# Indices 1 2 3 4 5 6 
#
# 1 0.011146 -0.005049 -0.004253 -0.000449 -0.002391 -0.000284
# 2 -0.005049 0.068313 0.003390 -0.042608 -0.001516 -0.004506
# 3 -0.004253 0.003390 0.017639 -0.021517 -0.008093 -0.008110
# 4 -0.000449 -0.042608 -0.021517 0.100223 0.013100 0.021150
# 5 -0.002391 -0.001516 -0.008093 0.013100 0.038210 0.001725
# 6 -0.000284 -0.004506 -0.008110 0.021150 0.001725 0.076204
#
#
# Mechanical properties :
#
#
# Convention : Reuss Voigt Hill
#
# Bulk Modulus (GPa) = 11.72679 48.44609 30.08644
# Shear Modulus (GPa) = 14.20517 24.67459 19.43988
#
# Velocity S-wave (km/s) = 2.77504 3.65739 3.24634
# Velocity P-wave (km/s) = 4.07739 6.64069 5.51017
#
# Compressibility (1/GPa) = 0.08527481
#
# Stress axis : x y z
#
# Youngs Moduli (GPa) = 89.71522 14.63853 56.69154
#
# Poissons Ratio (x) = 0.07391 0.24108
# Poissons Ratio (y) = 0.45296 -0.19216
# Poissons Ratio (z) = 0.38152 -0.04962
#
# Static dielectric constant tensor:
#      x y z
#    x 3.531690 0.020250 0.395760 
#    y 0.020250 3.013990 0.037260 
#    z 0.395760 0.037260 3.600560 
# 
# 
# High freq. dielectric constant tensor:
#      x y z
#    x 1.694020 0.003870 0.021270 
#    y 0.003870 1.685210 0.004720 
#    z 0.021270 0.004720 1.727900 
# 
# From -- ./inp_files/179138.got.cif
#   From: 2010.06.25/outbox.cif.g09.slc.cpg/sg2_90_cif.got.tgz:179138.got - 2010.06.27 13:26:56.
