data_PCOD8002667
_publ_section_title
;
Structure prediction by ZEFSAII (Michael W. Deem and Ramdas Pophale) SiO2 
 PCOD8002667
Probable space group: P -1
;
_chemical_formula_sum "Si O2"
_cell_formula_units_Z 16
_cell_length_a 8.894340
_cell_length_b 18.912755
_cell_length_c 22.181532
_cell_angle_alpha 26.361676
_cell_angle_beta 37.350488
_cell_angle_gamma 55.503378
_cell_volume 844.962120
_symmetry_space_group_name_H-M "P -1"
_symmetry_group_IT_number 2
_symmetry_cell_setting 'triclinic'
loop_
_space_group_symop_operation_xyz
x,y,z
-x,-y,-z
loop_
_atom_site_type_symbol
_atom_site_label
_atom_site_fract_x
_atom_site_fract_y
_atom_site_fract_z
Si Si1 0.204233 0.070658 0.796787
Si Si2 0.649660 0.216552 0.015270
Si Si3 0.442383 0.246683 0.463476
Si Si4 0.900954 0.636028 0.829620
Si Si5 0.275259 0.364123 0.980025
Si Si6 0.698757 0.072691 0.323802
Si Si7 0.542031 0.277704 0.132408
Si Si8 0.217689 0.297868 0.729882
O O1 0.237524 0.168143 0.647716
O O2 0.267065 0.232681 0.699940
O O3 0.435581 0.001857 0.783331
O O4 0.874991 0.876828 0.059413
O O5 0.395949 0.227247 0.054431
O O6 0.710746 0.316162 0.985442
O O7 0.946106 0.329464 0.793688
O O8 0.753370 0.268485 0.361625
O O9 0.261409 0.092533 0.586735
O O10 0.483982 0.440983 0.278387
O O11 0.820053 0.589355 0.961876
O O12 0.786817 0.767700 0.740727
O O13 0.727273 0.447651 0.989620
O O14 0.005880 0.262333 0.097037
O O15 0.517678 0.098997 0.308596
O O16 0.500000 0.000000 0.500000
O O17 0.500000 0.500000 0.500000
#
# Coordination Sequence:
#
# PCOD8002667 Si02
#       8
#     2   2   2   2   2   2   2   2
#     4   9  21  38  62  92 110 145 200 241 294 356
#     4   9  20  41  61  88 117 150 202 241 293 359
#     4  12  22  36  60  87 120 158 199 243 291 350
#     4  10  21  36  57  81 123 164 200 238 280 341
#     4  11  23  40  56  85 130 162 190 245 294 338
#     4  12  22  35  56  81 120 164 206 234 290 339
#     4  10  20  36  57  86 114 159 208 235 282 349
#     4   9  19  40  67  87 114 146 192 250 304 351
#
# _framework density 18.935760999999999
#
# number of rings (size 3 to 8) (size 9 to 14) (size 15 to 20)
#    0.750    1.000    3.750    1.125    1.750    2.500 
#    2.250    0.625    0.000    1.500    0.000    0.000 
#    0.000    0.000    0.000    0.000    0.000    0.000 
#
# Total GULP energy -198214.689287 kJ/mol
# GULP energy per Si atom -12388.418080 kJ/mol
# Density = 1.889266 g / cm^3
# Si number density = 18.935761 Si / 1000 Ang^3
#
#
#
# Elastic Constant Matrix: (Units=GPa)
#
#
# Indices 1 2 3 4 5 6 
#
# 1 81.7695 28.6693 21.8596 -0.5138 10.2485 3.8827
# 2 28.6693 93.6945 23.7501 1.6787 -2.5882 15.1741
# 3 21.8596 23.7501 86.9447 -4.9278 14.0795 21.1588
# 4 -0.5138 1.6787 -4.9278 29.9861 4.1074 1.2534
# 5 10.2485 -2.5882 14.0795 4.1074 26.3115 -2.0901
# 6 3.8827 15.1741 21.1588 1.2534 -2.0901 29.6584
#
#
#
# Elastic Compliance Matrix: (Units=1/GPa)
#
#
# Indices 1 2 3 4 5 6 
#
# 1 0.014907 -0.004436 -0.001963 0.000841 -0.005219 0.001315
# 2 -0.004436 0.013450 -0.002275 -0.001594 0.004174 -0.004316
# 3 -0.001963 -0.002275 0.017539 0.004927 -0.010570 -0.012045
# 4 0.000841 -0.001594 0.004927 0.035715 -0.009090 -0.004960
# 5 -0.005219 0.004174 -0.010570 -0.009090 0.048309 0.009877
# 6 0.001315 -0.004316 -0.012045 -0.004960 0.009877 0.045252
#
#
# Mechanical properties :
#
#
# Convention : Reuss Voigt Hill
#
# Bulk Modulus (GPa) = 35.02956 45.66297 40.34627
# Shear Modulus (GPa) = 24.74828 29.73318 27.24073
#
# Velocity S-wave (km/s) = 3.61911 3.96689 3.79698
# Velocity P-wave (km/s) = 6.00027 6.71927 6.36993
#
# Compressibility (1/GPa) = 0.02854731
#
# Stress axis : x y z
#
# Youngs Moduli (GPa) = 67.08471 74.35091 57.01680
#
# Poissons Ratio (x) = 0.32980 0.11195
# Poissons Ratio (y) = 0.29757 0.12969
# Poissons Ratio (z) = 0.13172 0.16912
#
# Static dielectric constant tensor:
#      x y z
#    x 4.767950 0.302740 -0.376800 
#    y 0.302740 3.734980 -0.165840 
#    z -0.376800 -0.165840 3.480340 
# 
# 
# High freq. dielectric constant tensor:
#      x y z
#    x 1.716830 0.011640 0.012210 
#    y 0.011640 1.745350 -0.010740 
#    z 0.012210 -0.010740 1.723900 
# 
# From -- ./inp_files/493476.got.cif
#   From: 2010.06.25/outbox.cif.g09.slc.cpg/sg2_247_cif.got.tgz:493476.got - 2010.06.27 13:26:56.
