data_PCOD8002248
_publ_section_title
;
Structure prediction by ZEFSAII (Michael W. Deem and Ramdas Pophale) SiO2 
 PCOD8002248
Probable space group: P -1
;
_chemical_formula_sum "Si O2"
_cell_formula_units_Z 16
_cell_length_a 11.500497
_cell_length_b 11.880739
_cell_length_c 17.546168
_cell_angle_alpha 135.089967
_cell_angle_beta 147.390612
_cell_angle_gamma 66.319428
_cell_volume 783.312272
_symmetry_space_group_name_H-M "P -1"
_symmetry_group_IT_number 2
_symmetry_cell_setting 'triclinic'
loop_
_space_group_symop_operation_xyz
x,y,z
-x,-y,-z
loop_
_atom_site_type_symbol
_atom_site_label
_atom_site_fract_x
_atom_site_fract_y
_atom_site_fract_z
Si Si1 0.561094 0.785172 0.438798
Si Si2 0.234109 0.597052 0.933133
Si Si3 0.868868 0.199380 0.524761
Si Si4 0.128635 0.299219 0.155152
Si Si5 0.315343 0.167977 0.816920
Si Si6 0.342403 0.437114 0.067091
Si Si7 0.912890 0.186788 0.822181
Si Si8 0.500996 0.268158 0.445727
O O1 0.562171 0.604880 0.319236
O O2 0.300520 0.763007 0.255630
O O3 0.587835 0.805434 0.553952
O O4 0.791635 0.975248 0.623139
O O5 0.033086 0.411061 0.684961
O O6 0.111727 0.722801 0.942421
O O7 0.492828 0.717540 0.089885
O O8 0.286886 0.525587 0.006196
O O9 0.650936 0.176019 0.449835
O O10 0.046682 0.149354 0.646739
O O11 0.735302 0.042498 0.308667
O O12 0.252931 0.205642 0.228280
O O13 0.326031 0.512594 0.350930
O O14 0.055106 0.200983 0.985808
O O15 0.423898 0.288885 0.013052
O O16 0.092544 0.329563 0.927159
#
# Coordination Sequence:
#
# PCOD8002248 Si02
#       8
#     2   2   2   2   2   2   2   2
#     4  11  22  34  56  88 118 151 188 237 296 344
#     4  10  20  35  58  86 117 150 189 243 283 341
#     4   9  19  35  53  84 116 142 193 241 279 329
#     4  10  20  38  60  89 119 153 190 235 297 347
#     4  10  21  34  58  85 113 155 193 239 282 334
#     4  11  20  35  56  82 120 148 187 238 290 338
#     4  11  22  35  56  87 118 153 187 239 294 344
#     4  10  21  37  62  88 119 153 190 239 294 345
#
# _framework density 20.426079999999999
#
# number of rings (size 3 to 8) (size 9 to 14) (size 15 to 20)
#    0.000    1.750    2.500    4.125    1.750    4.500 
#    0.000    0.000    0.000    1.500    3.250    0.000 
#    0.000    0.000    0.000    0.000    0.000    0.000 
#
# Total GULP energy -198302.505332 kJ/mol
# GULP energy per Si atom -12393.906583 kJ/mol
# Density = 2.037959 g / cm^3
# Si number density = 20.426080 Si / 1000 Ang^3
#
#
#
# Elastic Constant Matrix: (Units=GPa)
#
#
# Indices 1 2 3 4 5 6 
#
# 1 90.2773 37.0178 56.5817 6.0577 -11.7995 -16.1227
# 2 37.0178 46.3380 36.0540 0.7393 2.3253 -2.9457
# 3 56.5817 36.0540 82.9842 13.5531 -7.6430 1.9030
# 4 6.0577 0.7393 13.5531 37.4104 -4.9681 -10.3231
# 5 -11.7995 2.3253 -7.6430 -4.9681 20.7665 3.2483
# 6 -16.1227 -2.9457 1.9030 -10.3231 3.2483 22.9150
#
#
#
# Elastic Compliance Matrix: (Units=1/GPa)
#
#
# Indices 1 2 3 4 5 6 
#
# 1 0.032878 -0.010305 -0.019273 0.010694 0.011132 0.026648
# 2 -0.010305 0.040562 -0.012720 0.004392 -0.014506 0.003054
# 3 -0.019273 -0.012720 0.034157 -0.015609 0.003304 -0.025532
# 4 0.010694 0.004392 -0.015609 0.038394 0.004961 0.025978
# 5 0.011132 -0.014506 0.003304 0.004961 0.058566 -0.000374
# 6 0.026648 0.003054 -0.025532 0.025978 -0.000374 0.076658
#
#
# Mechanical properties :
#
#
# Convention : Reuss Voigt Hill
#
# Bulk Modulus (GPa) = 43.47503 53.21182 48.34342
# Shear Modulus (GPa) = 13.38772 22.21479 17.80125
#
# Velocity S-wave (km/s) = 2.56290 3.30141 2.95531
# Velocity P-wave (km/s) = 5.48527 6.37494 5.94677
#
# Compressibility (1/GPa) = 0.02300171
#
# Stress axis : x y z
#
# Youngs Moduli (GPa) = 30.41509 24.65374 29.27681
#
# Poissons Ratio (x) = 0.25406 0.56424
# Poissons Ratio (y) = 0.31343 0.37239
# Poissons Ratio (z) = 0.58618 0.31359
#
# Static dielectric constant tensor:
#      x y z
#    x 3.816830 -0.343460 -0.268960 
#    y -0.343460 3.635240 0.394880 
#    z -0.268960 0.394880 4.068290 
# 
# 
# High freq. dielectric constant tensor:
#      x y z
#    x 1.789630 -0.011270 -0.005220 
#    y -0.011270 1.764340 0.037210 
#    z -0.005220 0.037210 1.803230 
# 
# From -- ./inp_files/568849.got.cif
#   From: 2010.06.25/outbox.cif.g09.slc.cpg/sg2_285_cif.got.tgz:568849.got - 2010.06.27 13:26:56.
