data_PCOD8002450
_publ_section_title
;
Structure prediction by ZEFSAII (Michael W. Deem and Ramdas Pophale) SiO2 
 PCOD8002450
Probable space group: P -1
;
_chemical_formula_sum "Si O2"
_cell_formula_units_Z 16
_cell_length_a 9.126564
_cell_length_b 26.930534
_cell_length_c 12.265567
_cell_angle_alpha 153.348169
_cell_angle_beta 39.088526
_cell_angle_gamma 149.074489
_cell_volume 694.382091
_symmetry_space_group_name_H-M "P -1"
_symmetry_group_IT_number 2
_symmetry_cell_setting 'triclinic'
loop_
_space_group_symop_operation_xyz
x,y,z
-x,-y,-z
loop_
_atom_site_type_symbol
_atom_site_label
_atom_site_fract_x
_atom_site_fract_y
_atom_site_fract_z
Si Si1 0.048243 0.367631 0.642861
Si Si2 0.393489 0.668752 0.014749
Si Si3 0.355535 0.200269 0.334375
Si Si4 0.571171 0.255223 0.543181
Si Si5 0.382026 0.242964 0.169670
Si Si6 0.277185 0.964058 0.653007
Si Si7 0.489545 0.001355 0.836286
Si Si8 0.107777 0.151023 0.766864
O O1 0.323177 0.522619 0.803986
O O2 0.134335 0.267685 0.362470
O O3 0.871588 0.372173 0.652556
O O4 0.846716 0.315308 0.764935
O O5 0.390143 0.675141 0.897431
O O6 0.710775 0.790925 0.111500
O O7 0.547059 0.291772 0.505359
O O8 0.520826 0.282214 0.288434
O O9 0.305905 0.054061 0.087054
O O10 0.039106 0.168151 0.454295
O O11 0.318909 0.248911 0.741284
O O12 0.541288 0.113033 0.291897
O O13 0.237671 0.084034 0.928736
O O14 0.395941 0.939341 0.646208
O O15 0.500000 0.000000 0.500000
O O16 0.816827 0.140228 0.921564
O O17 0.000000 0.000000 0.500000
#
# Coordination Sequence:
#
# PCOD8002450 Si02
#       8
#     2   2   2   2   2   2   2   2
#     4  10  22  44  68  93 123 168 225 259 315 374
#     4  10  23  41  71  95 123 168 216 269 310 382
#     4  11  23  37  55  95 128 167 207 260 323 377
#     4  10  20  35  62  86 125 166 210 261 306 374
#     4  11  24  39  64  93 129 170 211 263 321 378
#     4  11  24  37  60  92 135 170 210 259 326 387
#     4  10  20  36  56  90 124 166 208 257 319 380
#     4   9  20  35  61  94 121 154 210 258 319 370
#
# _framework density 23.042066999999999
#
# number of rings (size 3 to 8) (size 9 to 14) (size 15 to 20)
#    0.000    1.750    0.000    4.500   12.250    0.000 
#    0.000    0.625    2.750    2.250    0.000    0.000 
#    0.000    0.000    0.000    0.000    0.000    0.000 
#
# Total GULP energy -198257.711875 kJ/mol
# GULP energy per Si atom -12391.106992 kJ/mol
# Density = 2.298962 g / cm^3
# Si number density = 23.042067 Si / 1000 Ang^3
#
#
#
# Elastic Constant Matrix: (Units=GPa)
#
#
# Indices 1 2 3 4 5 6 
#
# 1 140.0653 52.5047 33.3065 -17.7719 27.4255 -7.8466
# 2 52.5047 83.5112 31.3013 -13.3271 11.0523 0.0907
# 3 33.3065 31.3013 80.8654 -13.6568 4.4178 1.1409
# 4 -17.7719 -13.3271 -13.6568 30.5639 -4.0388 12.6475
# 5 27.4255 11.0523 4.4178 -4.0388 36.2862 -12.3453
# 6 -7.8466 0.0907 1.1409 12.6475 -12.3453 36.0224
#
#
#
# Elastic Compliance Matrix: (Units=1/GPa)
#
#
# Indices 1 2 3 4 5 6 
#
# 1 0.011019 -0.004928 -0.001765 0.002939 -0.006561 -0.000812
# 2 -0.004928 0.017392 -0.003897 0.003983 -0.001663 -0.002962
# 3 -0.001765 -0.003897 0.015523 0.005342 0.000331 -0.002628
# 4 0.002939 0.003983 0.005342 0.044936 -0.004861 -0.016982
# 5 -0.006561 -0.001663 0.000331 -0.004861 0.036829 0.012893
# 6 -0.000812 -0.002962 -0.002628 -0.016982 0.012893 0.038055
#
#
# Mechanical properties :
#
#
# Convention : Reuss Voigt Hill
#
# Bulk Modulus (GPa) = 43.94815 59.85190 51.90003
# Shear Modulus (GPa) = 25.97162 33.06312 29.51737
#
# Velocity S-wave (km/s) = 3.36093 3.79212 3.58302
# Velocity P-wave (km/s) = 5.84599 6.72347 6.30002
#
# Compressibility (1/GPa) = 0.02275408
#
# Stress axis : x y z
#
# Youngs Moduli (GPa) = 90.75636 57.49653 64.42182
#
# Poissons Ratio (x) = 0.28334 0.11368
# Poissons Ratio (y) = 0.44724 0.25107
# Poissons Ratio (z) = 0.16015 0.22408
#
# Static dielectric constant tensor:
#      x y z
#    x 4.423430 0.223370 0.078730 
#    y 0.223370 4.168110 -0.354190 
#    z 0.078730 -0.354190 4.173910 
# 
# 
# High freq. dielectric constant tensor:
#      x y z
#    x 1.903820 0.005260 0.008430 
#    y 0.005260 1.889850 -0.025690 
#    z 0.008430 -0.025690 1.900700 
# 
# From -- ./inp_files/284788.got.cif
#   From: 2010.06.25/outbox.cif.g09.slc.cpg/sg2_143_cif.got.tgz:284788.got - 2010.06.27 13:26:56.
