data_PCOD8002012
_publ_section_title
;
Structure prediction by ZEFSAII (Michael W. Deem and Ramdas Pophale) SiO2 
 PCOD8002012
Probable space group: P -1
;
_chemical_formula_sum "Si O2"
_cell_formula_units_Z 16
_cell_length_a 11.593178
_cell_length_b 9.283294
_cell_length_c 9.349485
_cell_angle_alpha 115.886079
_cell_angle_beta 55.635109
_cell_angle_gamma 115.066239
_cell_volume 725.662461
_symmetry_space_group_name_H-M "P -1"
_symmetry_group_IT_number 2
_symmetry_cell_setting 'triclinic'
loop_
_space_group_symop_operation_xyz
x,y,z
-x,-y,-z
loop_
_atom_site_type_symbol
_atom_site_label
_atom_site_fract_x
_atom_site_fract_y
_atom_site_fract_z
Si Si1 0.751101 0.360155 0.753596
Si Si2 0.293419 0.467437 0.884513
Si Si3 0.410171 0.249978 0.929722
Si Si4 0.365247 0.928085 0.662997
Si Si5 0.179218 0.328552 0.326396
Si Si6 0.881320 0.112386 0.406726
Si Si7 0.522234 0.324441 0.360928
Si Si8 0.207752 0.239556 0.583336
O O1 0.578784 0.316496 0.866970
O O2 0.807434 0.478769 0.630676
O O3 0.813591 0.200367 0.621115
O O4 0.809217 0.464579 0.902654
O O5 0.371711 0.342642 0.856102
O O6 0.406255 0.636337 0.827649
O O7 0.207389 0.372098 0.767624
O O8 0.368503 0.054439 0.845842
O O9 0.322006 0.281575 0.144794
O O10 0.216851 0.904001 0.671865
O O11 0.374435 0.750681 0.641258
O O12 0.500000 0.000000 0.500000
O O13 0.155258 0.306594 0.503263
O O14 0.039932 0.214712 0.297177
O O15 0.895158 0.934345 0.375543
O O16 0.500000 0.500000 0.500000
O O17 0.364213 0.202713 0.424609
#
# Coordination Sequence:
#
# PCOD8002012 Si02
#       8
#     2   2   2   2   2   2   2   2
#     4  11  23  42  67  97 130 168 220 275 320 380
#     4  10  21  38  62  97 125 165 216 272 317 376
#     4  11  21  43  69  96 130 169 223 269 319 387
#     4  12  21  40  66 100 129 174 217 270 323 386
#     4  11  26  42  66  98 130 177 215 264 330 388
#     4  12  25  42  66  93 141 171 214 267 330 389
#     4  10  20  34  64  96 126 160 218 267 318 375
#     4  11  21  41  64  90 132 175 215 258 326 393
#
# _framework density 22.048818000000001
#
# number of rings (size 3 to 8) (size 9 to 14) (size 15 to 20)
#    0.000    1.000    3.750    4.500    3.500    1.500 
#    0.000    3.125    0.000    0.000    0.000    0.000 
#    0.000    0.000    0.000    0.000    0.000    0.000 
#
# Total GULP energy -198348.282110 kJ/mol
# GULP energy per Si atom -12396.767632 kJ/mol
# Density = 2.199863 g / cm^3
# Si number density = 22.048818 Si / 1000 Ang^3
#
#
#
# Elastic Constant Matrix: (Units=GPa)
#
#
# Indices 1 2 3 4 5 6 
#
# 1 70.1262 33.7492 18.8433 -14.4278 15.2268 13.6415
# 2 33.7492 114.3655 40.4256 0.9585 9.1729 0.3125
# 3 18.8433 40.4256 71.5208 7.1652 15.9327 0.1341
# 4 -14.4278 0.9585 7.1652 32.8983 5.5973 2.3262
# 5 15.2268 9.1729 15.9327 5.5973 32.1828 -10.0133
# 6 13.6415 0.3125 0.1341 2.3262 -10.0133 38.9261
#
#
#
# Elastic Compliance Matrix: (Units=1/GPa)
#
#
# Indices 1 2 3 4 5 6 
#
# 1 0.028505 -0.006534 -0.001308 0.017314 -0.018914 -0.015833
# 2 -0.006534 0.012463 -0.005944 -0.002864 0.004044 0.003422
# 3 -0.001308 -0.005944 0.019629 -0.003366 -0.007196 -0.001211
# 4 0.017314 -0.002864 -0.003366 0.042647 -0.017171 -0.012998
# 5 -0.018914 0.004044 -0.007196 -0.017171 0.051955 0.021012
# 6 -0.015833 0.003422 -0.001211 -0.012998 0.021012 0.037397
#
#
# Mechanical properties :
#
#
# Convention : Reuss Voigt Hill
#
# Bulk Modulus (GPa) = 30.28000 49.11654 39.69827
# Shear Modulus (GPa) = 21.62855 31.66772 26.64814
#
# Velocity S-wave (km/s) = 3.13539 3.79391 3.48026
# Velocity P-wave (km/s) = 5.18368 6.44331 5.84751
#
# Compressibility (1/GPa) = 0.03302510
#
# Stress axis : x y z
#
# Youngs Moduli (GPa) = 35.08132 80.23554 50.94609
#
# Poissons Ratio (x) = 0.52428 0.06665
# Poissons Ratio (y) = 0.22923 0.30280
# Poissons Ratio (z) = 0.04589 0.47688
#
# Static dielectric constant tensor:
#      x y z
#    x 3.795250 0.073080 0.064380 
#    y 0.073080 4.338020 -0.142750 
#    z 0.064380 -0.142750 4.179850 
# 
# 
# High freq. dielectric constant tensor:
#      x y z
#    x 1.846210 0.002440 0.011280 
#    y 0.002440 1.879090 -0.000840 
#    z 0.011280 -0.000840 1.861120 
# 
# From -- ./inp_files/244906.got.cif
#   From: 2010.06.25/outbox.cif.g09.slc.cpg/sg2_123_cif.got.tgz:244906.got - 2010.06.27 13:26:56.
