data_PCOD8002406
_publ_section_title
;
Structure prediction by ZEFSAII (Michael W. Deem and Ramdas Pophale) SiO2 
 PCOD8002406
Probable space group: P -1
;
_chemical_formula_sum "Si O2"
_cell_formula_units_Z 16
_cell_length_a 9.248268
_cell_length_b 11.183276
_cell_length_c 9.596906
_cell_angle_alpha 90.164783
_cell_angle_beta 74.955107
_cell_angle_gamma 64.667656
_cell_volume 858.960561
_symmetry_space_group_name_H-M "P -1"
_symmetry_group_IT_number 2
_symmetry_cell_setting 'triclinic'
loop_
_space_group_symop_operation_xyz
x,y,z
-x,-y,-z
loop_
_atom_site_type_symbol
_atom_site_label
_atom_site_fract_x
_atom_site_fract_y
_atom_site_fract_z
Si Si1 0.388557 0.104917 0.915166
Si Si2 0.566488 0.640976 0.083528
Si Si3 0.276724 0.663186 0.658923
Si Si4 0.868662 0.064257 0.412854
Si Si5 0.060729 0.089455 0.893208
Si Si6 0.414067 0.380402 0.603151
Si Si7 0.267013 0.660271 0.983985
Si Si8 0.516980 0.103315 0.593707
O O1 0.351404 0.257321 0.962443
O O2 0.217668 0.094368 0.930659
O O3 0.506057 0.059017 0.751288
O O4 0.500000 0.000000 0.000000
O O5 0.512675 0.635715 0.257261
O O6 0.700023 0.492921 0.000502
O O7 0.398788 0.693111 0.035562
O O8 0.127985 0.796679 0.633512
O O9 0.253625 0.527676 0.635584
O O10 0.455618 0.631040 0.548747
O O11 0.286323 0.690159 0.818869
O O12 0.692068 0.105216 0.528294
O O13 0.894673 0.968361 0.274361
O O14 0.000000 0.000000 0.500000
O O15 0.917581 0.240688 0.916648
O O16 0.000000 0.000000 0.000000
O O17 0.371088 0.254237 0.596075
O O18 0.500000 0.000000 0.500000
#
# Coordination Sequence:
#
# PCOD8002406 Si02
#       8
#     2   2   2   2   2   2   2   2
#     4  11  24  38  61  85 120 156 197 247 295 352
#     4   9  20  38  58  89 112 158 193 241 292 354
#     4   9  17  34  53  83 110 148 183 237 282 334
#     4  11  24  37  61  84 119 154 193 243 294 350
#     4  12  24  38  58  89 117 159 198 247 300 351
#     4   8  17  31  58  80 108 144 194 230 280 340
#     4  10  20  35  61  86 123 146 198 240 291 359
#     4  10  20  39  58  85 112 153 194 236 289 352
#
# _framework density 18.627164
#
# number of rings (size 3 to 8) (size 9 to 14) (size 15 to 20)
#    0.000    2.000    2.500    0.750    7.000    0.500 
#    0.000    0.000    0.000    0.750    0.000    0.000 
#    0.000    0.000    0.000    0.000    0.000    0.000 
#
# Total GULP energy -198234.934643 kJ/mol
# GULP energy per Si atom -12389.683415 kJ/mol
# Density = 1.858477 g / cm^3
# Si number density = 18.627164 Si / 1000 Ang^3
#
#
#
# Elastic Constant Matrix: (Units=GPa)
#
#
# Indices 1 2 3 4 5 6 
#
# 1 100.6414 70.8253 34.9962 -1.8247 11.7673 3.6870
# 2 70.8253 176.2725 63.0827 2.3623 18.5045 2.8479
# 3 34.9962 63.0827 89.3180 -0.6953 1.0190 2.3209
# 4 -1.8247 2.3623 -0.6953 32.5420 -0.1691 2.2640
# 5 11.7673 18.5045 1.0190 -0.1691 27.2475 1.8587
# 6 3.6870 2.8479 2.3209 2.2640 1.8587 31.7834
#
#
#
# Elastic Compliance Matrix: (Units=1/GPa)
#
#
# Indices 1 2 3 4 5 6 
#
# 1 0.014411 -0.004670 -0.002280 0.001153 -0.002892 -0.001000
# 2 -0.004670 0.009858 -0.005100 -0.001136 -0.004520 0.000376
# 3 -0.002280 -0.005100 0.015670 0.000646 0.003914 -0.000698
# 4 0.001153 -0.001136 0.000646 0.031055 0.000601 -0.002326
# 5 -0.002892 -0.004520 0.003914 0.000601 0.041012 -0.001987
# 6 -0.001000 0.000376 -0.000698 -0.002326 -0.001987 0.031878
#
#
# Mechanical properties :
#
#
# Convention : Reuss Voigt Hill
#
# Bulk Modulus (GPa) = 63.13559 78.22669 70.68114
# Shear Modulus (GPa) = 28.85758 31.46975 30.16366
#
# Velocity S-wave (km/s) = 3.94028 4.11476 4.02846
# Velocity P-wave (km/s) = 7.39385 8.04128 7.72435
#
# Compressibility (1/GPa) = 0.01583893
#
# Stress axis : x y z
#
# Youngs Moduli (GPa) = 69.38974 101.43885 63.81728
#
# Poissons Ratio (x) = 0.47373 0.14552
# Poissons Ratio (y) = 0.32406 0.32545
# Poissons Ratio (z) = 0.15823 0.51731
#
# Static dielectric constant tensor:
#      x y z
#    x 3.227540 0.303030 -0.042820 
#    y 0.303030 4.138220 0.046270 
#    z -0.042820 0.046270 3.584300 
# 
# 
# High freq. dielectric constant tensor:
#      x y z
#    x 1.673820 0.013030 0.004380 
#    y 0.013030 1.753630 0.004960 
#    z 0.004380 0.004960 1.738010 
# 
# From -- ./inp_files/178910.got.cif
#   From: 2010.06.25/outbox.cif.g09.slc.cpg/sg2_90_cif.got.tgz:178910.got - 2010.06.27 13:26:56.
