data_PCOD8002352
_publ_section_title
;
Structure prediction by ZEFSAII (Michael W. Deem and Ramdas Pophale) SiO2 
 PCOD8002352
Probable space group: P -1
;
_chemical_formula_sum "Si O2"
_cell_formula_units_Z 12
_cell_length_a 16.382913
_cell_length_b 5.264538
_cell_length_c 8.411625
_cell_angle_alpha 98.255681
_cell_angle_beta 58.568129
_cell_angle_gamma 74.721039
_cell_volume 561.272590
_symmetry_space_group_name_H-M "P -1"
_symmetry_group_IT_number 2
_symmetry_cell_setting 'triclinic'
loop_
_space_group_symop_operation_xyz
x,y,z
-x,-y,-z
loop_
_atom_site_type_symbol
_atom_site_label
_atom_site_fract_x
_atom_site_fract_y
_atom_site_fract_z
Si Si1 0.381124 0.133248 0.681834
Si Si2 0.159723 0.988930 0.372486
Si Si3 0.062444 0.613943 0.569272
Si Si4 0.290820 0.750431 0.916777
Si Si5 0.088068 0.072794 0.996087
Si Si6 0.200828 0.253374 0.644133
O O1 0.358803 0.418794 0.827870
O O2 0.313246 0.205273 0.595459
O O3 0.500000 0.000000 0.500000
O O4 0.358265 0.913453 0.795504
O O5 0.072263 0.312663 0.454621
O O6 0.212781 0.995815 0.489319
O O7 0.252254 0.874423 0.141291
O O8 0.095827 0.792970 0.424354
O O9 0.148343 0.537616 0.619787
O O10 0.950062 0.784497 0.780469
O O11 0.192750 0.797009 0.903588
O O12 0.119021 0.276236 0.870142
O O13 0.000000 0.000000 0.000000
#
# Coordination Sequence:
#
# PCOD8002352 Si02
#       6
#     2   2   2   2   2   2
#     4  11  24  44  67  87 112 155 203 252 303 355
#     4  10  22  38  58  87 129 157 190 243 298 345
#     4  10  20  35  60  85 127 159 201 225 293 348
#     4  11  25  41  62  90 125 150 198 252 298 350
#     4  11  19  37  60  92 120 167 201 237 281 352
#     4   9  22  37  63  86 122 156 202 248 284 346
#
# _framework density 21.379985000000001
#
# number of rings (size 3 to 8) (size 9 to 14) (size 15 to 20)
#    1.000    0.667    1.667    3.000    2.333    5.333 
#    0.000    1.667    0.000    0.000    0.000    0.000 
#    0.000    0.000    0.000    0.000    0.000    0.000 
#
# Total GULP energy -148795.798001 kJ/mol
# GULP energy per Si atom -12399.649833 kJ/mol
# Density = 2.133132 g / cm^3
# Si number density = 21.379985 Si / 1000 Ang^3
#
#
#
# Elastic Constant Matrix: (Units=GPa)
#
#
# Indices 1 2 3 4 5 6 
#
# 1 77.9891 34.4812 59.1854 3.2191 -18.4461 7.4504
# 2 34.4812 126.1085 58.5536 5.2778 -20.4276 22.8568
# 3 59.1854 58.5536 162.9602 5.3403 -18.0204 9.4163
# 4 3.2191 5.2778 5.3403 41.3337 1.7847 -0.7514
# 5 -18.4461 -20.4276 -18.0204 1.7847 35.4509 1.7282
# 6 7.4504 22.8568 9.4163 -0.7514 1.7282 26.3099
#
#
#
# Elastic Compliance Matrix: (Units=1/GPa)
#
#
# Indices 1 2 3 4 5 6 
#
# 1 0.019626 -0.000932 -0.005812 -0.001015 0.006925 -0.003152
# 2 -0.000932 0.012257 -0.002818 -0.001552 0.005700 -0.009794
# 3 -0.005812 -0.002818 0.009230 -0.000367 0.000024 0.000779
# 4 -0.001015 -0.001552 -0.000367 0.024695 -0.002982 0.002669
# 5 0.006925 0.005700 0.000024 -0.002982 0.035714 -0.009353
# 6 -0.003152 -0.009794 0.000779 0.002669 -0.009353 0.047821
#
#
# Mechanical properties :
#
#
# Convention : Reuss Voigt Hill
#
# Bulk Modulus (GPa) = 45.48022 74.61090 60.04556
# Shear Modulus (GPa) = 28.44189 34.94141 31.69165
#
# Velocity S-wave (km/s) = 3.65129 4.04704 3.85425
# Velocity P-wave (km/s) = 6.25255 7.53733 6.92480
#
# Compressibility (1/GPa) = 0.02198758
#
# Stress axis : x y z
#
# Youngs Moduli (GPa) = 50.95298 81.58856 108.34767
#
# Poissons Ratio (x) = 0.07606 0.62969
# Poissons Ratio (y) = 0.04750 0.30534
# Poissons Ratio (z) = 0.29613 0.22993
#
# Static dielectric constant tensor:
#      x y z
#    x 3.790020 -0.049760 0.227780 
#    y -0.049760 3.895480 -0.006170 
#    z 0.227780 -0.006170 3.941600 
# 
# 
# High freq. dielectric constant tensor:
#      x y z
#    x 1.834530 0.003090 0.023010 
#    y 0.003090 1.845740 -0.003990 
#    z 0.023010 -0.003990 1.839880 
# 
# From -- ./inp_files/19679.got.cif
#   From: 2010.06.25/outbox.cif.g09.slc.cpg/sg2_10_cif.got.tgz:19679.got - 2010.06.27 13:26:56.
