data_PCOD8002086
_publ_section_title
;
Structure prediction by ZEFSAII (Michael W. Deem and Ramdas Pophale) SiO2 
 PCOD8002086
Probable space group: P -1
;
_chemical_formula_sum "Si O2"
_cell_formula_units_Z 14
_cell_length_a 8.798872
_cell_length_b 8.424154
_cell_length_c 16.803839
_cell_angle_alpha 42.821375
_cell_angle_beta 114.701321
_cell_angle_gamma 126.621469
_cell_volume 679.051435
_symmetry_space_group_name_H-M "P -1"
_symmetry_group_IT_number 2
_symmetry_cell_setting 'triclinic'
loop_
_space_group_symop_operation_xyz
x,y,z
-x,-y,-z
loop_
_atom_site_type_symbol
_atom_site_label
_atom_site_fract_x
_atom_site_fract_y
_atom_site_fract_z
Si Si1 0.891506 0.972770 0.254465
Si Si2 0.457091 0.882294 0.648036
Si Si3 0.061091 0.822548 0.632873
Si Si4 0.303929 0.360302 0.167634
Si Si5 0.676621 0.399279 0.742364
Si Si6 0.413309 0.897264 0.933288
Si Si7 0.396383 0.590737 0.580141
O O1 0.893120 0.070407 0.307767
O O2 0.761230 0.043337 0.142649
O O3 0.096593 0.108088 0.208440
O O4 0.812452 0.654589 0.360841
O O5 0.239735 0.801528 0.646265
O O6 0.543668 0.746086 0.776890
O O7 0.473986 0.771982 0.607450
O O8 0.589786 0.203216 0.561931
O O9 0.885704 0.525532 0.704586
O O10 0.000000 0.000000 0.500000
O O11 0.321200 0.494163 0.207516
O O12 0.341952 0.582757 0.026357
O O13 0.541998 0.478172 0.630665
O O14 0.581716 0.077550 0.841478
O O15 0.500000 0.000000 0.000000
#
# Coordination Sequence:
#
# PCOD8002086 Si02
#       7
#     2   2   2   2   2   2   2
#     4  10  21  35  58  88 108 143 196 222 269 341
#     4  10  20  35  55  79 117 148 180 228 284 323
#     4  11  21  37  55  83 118 151 178 226 283 330
#     4   9  18  33  55  81 109 143 181 234 273 314
#     4   8  16  33  55  80 105 146 187 219 269 332
#     4   9  17  35  61  81 106 143 191 236 267 317
#     4   9  18  35  55  79 110 145 188 229 265 326
#
# _framework density 20.616997000000001
#
# number of rings (size 3 to 8) (size 9 to 14) (size 15 to 20)
#    0.000    2.571    1.429    1.286    2.000    1.143 
#    0.000    1.429    0.000    0.000    0.000    0.000 
#    0.000    0.000    0.000    0.000    0.000    0.000 
#
# Total GULP energy -173439.630493 kJ/mol
# GULP energy per Si atom -12388.545035 kJ/mol
# Density = 2.057007 g / cm^3
# Si number density = 20.616997 Si / 1000 Ang^3
#
#
#
# Elastic Constant Matrix: (Units=GPa)
#
#
# Indices 1 2 3 4 5 6 
#
# 1 105.8584 23.1041 70.7753 -21.2586 11.8992 39.9430
# 2 23.1041 56.3529 32.7629 -24.0066 -0.8042 29.3756
# 3 70.7753 32.7629 131.9040 -42.0598 6.8887 26.4178
# 4 -21.2586 -24.0066 -42.0598 54.8184 11.5861 -15.4338
# 5 11.8992 -0.8042 6.8887 11.5861 22.7439 -1.4868
# 6 39.9430 29.3756 26.4178 -15.4338 -1.4868 34.0765
#
#
#
# Elastic Compliance Matrix: (Units=1/GPa)
#
#
# Indices 1 2 3 4 5 6 
#
# 1 0.031168 0.016007 -0.010624 0.002759 -0.016646 -0.041573
# 2 0.016007 0.043684 -0.005935 0.010140 -0.013323 -0.047808
# 3 -0.010624 -0.005935 0.015901 0.008732 -0.003324 0.009052
# 4 0.002759 0.010140 0.008732 0.033686 -0.021178 -0.004412
# 5 -0.016646 -0.013323 -0.003324 -0.021178 0.065756 0.026851
# 6 -0.041573 -0.047808 0.009052 -0.004412 0.026851 0.111444
#
#
# Mechanical properties :
#
#
# Convention : Reuss Voigt Hill
#
# Bulk Modulus (GPa) = 11.15469 60.82222 35.98846
# Shear Modulus (GPa) = 15.03186 33.49263 24.26224
#
# Velocity S-wave (km/s) = 2.70311 4.03490 3.43418
# Velocity P-wave (km/s) = 3.89418 7.16047 5.76354
#
# Compressibility (1/GPa) = 0.08964837
#
# Stress axis : x y z
#
# Youngs Moduli (GPa) = 32.08454 22.89157 62.88888
#
# Poissons Ratio (x) = -0.36643 0.66815
# Poissons Ratio (y) = -0.51358 0.37325
# Poissons Ratio (z) = 0.34087 0.13586
#
# Static dielectric constant tensor:
#      x y z
#    x 3.436180 0.383070 -0.002270 
#    y 0.383070 3.747250 -0.418660 
#    z -0.002270 -0.418660 4.409850 
# 
# 
# High freq. dielectric constant tensor:
#      x y z
#    x 1.773670 0.033070 0.000150 
#    y 0.033070 1.793770 -0.017620 
#    z 0.000150 -0.017620 1.820720 
# 
# From -- ./inp_files/176941.got.cif
#   From: 2010.06.25/outbox.cif.g09.slc.cpg/sg2_89_cif.got.tgz:176941.got - 2010.06.27 13:26:56.
