data_PCOD8002134
_publ_section_title
;
Structure prediction by ZEFSAII (Michael W. Deem and Ramdas Pophale) SiO2 
 PCOD8002134
Probable space group: P -1
;
_chemical_formula_sum "Si O2"
_cell_formula_units_Z 16
_cell_length_a 14.462708
_cell_length_b 13.881865
_cell_length_c 10.089362
_cell_angle_alpha 135.825948
_cell_angle_beta 144.768577
_cell_angle_gamma 65.213809
_cell_volume 741.053913
_symmetry_space_group_name_H-M "P -1"
_symmetry_group_IT_number 2
_symmetry_cell_setting 'triclinic'
loop_
_space_group_symop_operation_xyz
x,y,z
-x,-y,-z
loop_
_atom_site_type_symbol
_atom_site_label
_atom_site_fract_x
_atom_site_fract_y
_atom_site_fract_z
Si Si1 0.429133 0.113689 0.682837
Si Si2 0.912938 0.319887 0.210828
Si Si3 0.935034 0.097663 0.833599
Si Si4 0.510744 0.167900 0.544730
Si Si5 0.011167 0.826513 0.598031
Si Si6 0.008497 0.842797 0.324108
Si Si7 0.613807 0.672742 0.658377
Si Si8 0.407761 0.329329 0.069708
O O1 0.442806 0.192520 0.633503
O O2 0.228289 0.004372 0.369104
O O3 0.541984 0.012458 0.714268
O O4 0.499362 0.243128 0.004354
O O5 0.000000 0.500000 0.500000
O O6 0.899427 0.246935 0.268431
O O7 0.022768 0.255547 0.176606
O O8 0.718618 0.269767 0.874700
O O9 0.877057 0.134174 0.654334
O O10 0.058497 0.004849 0.866879
O O11 0.409779 0.209543 0.352090
O O12 0.080693 0.805889 0.511421
O O13 0.799826 0.735780 0.265615
O O14 0.819318 0.707516 0.936084
O O15 0.000000 0.000000 0.500000
O O16 0.498448 0.504109 0.305314
O O17 0.551154 0.693358 0.752343
#
# Coordination Sequence:
#
# PCOD8002134 Si02
#       8
#     2   2   2   2   2   2   2   2
#     4   9  20  37  53  76 108 141 178 213 258 316
#     4  11  22  35  53  79 112 143 171 212 265 316
#     4   9  19  36  56  78 101 137 184 220 257 306
#     4  10  22  37  52  78 111 142 174 212 262 316
#     4   9  18  36  58  78 104 138 178 220 257 305
#     4   9  19  34  58  83 102 132 179 225 261 301
#     4  10  20  35  56  81 109 135 171 221 265 310
#     4   9  19  36  57  80 103 137 179 218 261 306
#
# _framework density 21.590871
#
# number of rings (size 3 to 8) (size 9 to 14) (size 15 to 20)
#    0.000    2.500    0.000    1.875    0.000   10.000 
#    0.000    3.125    0.000    0.000    0.000    0.000 
#    0.000    0.000    0.000    0.000    0.000    0.000 
#
# Total GULP energy -198273.619098 kJ/mol
# GULP energy per Si atom -12392.101194 kJ/mol
# Density = 2.154173 g / cm^3
# Si number density = 21.590871 Si / 1000 Ang^3
#
#
#
# Elastic Constant Matrix: (Units=GPa)
#
#
# Indices 1 2 3 4 5 6 
#
# 1 75.2458 29.9631 12.4784 1.0959 -25.1070 14.9724
# 2 29.9631 97.2421 25.2054 -4.0053 -27.4952 15.5253
# 3 12.4784 25.2054 82.7632 17.8061 -22.3860 -5.0201
# 4 1.0959 -4.0053 17.8061 30.6918 2.2817 -10.9606
# 5 -25.1070 -27.4952 -22.3860 2.2817 33.7125 0.8852
# 6 14.9724 15.5253 -5.0201 -10.9606 0.8852 24.0946
#
#
#
# Elastic Compliance Matrix: (Units=1/GPa)
#
#
# Indices 1 2 3 4 5 6 
#
# 1 0.024238 0.000862 0.003433 -0.011970 0.022399 -0.021169
# 2 0.000862 0.016153 -0.001727 -0.002520 0.013180 -0.012934
# 3 0.003433 -0.001727 0.018764 -0.013710 0.014638 -0.003885
# 4 -0.011970 -0.002520 -0.013710 0.053724 -0.024537 0.031545
# 5 0.022399 0.013180 0.014638 -0.024537 0.069342 -0.033071
# 6 -0.021169 -0.012934 -0.003885 0.031545 -0.033071 0.077747
#
#
# Mechanical properties :
#
#
# Convention : Reuss Voigt Hill
#
# Bulk Modulus (GPa) = 15.55420 43.39386 29.47403
# Shear Modulus (GPa) = 18.09864 30.20674 24.15269
#
# Velocity S-wave (km/s) = 2.89840 3.74445 3.34826
# Velocity P-wave (km/s) = 4.29193 6.23188 5.35056
#
# Compressibility (1/GPa) = 0.06429133
#
# Stress axis : x y z
#
# Youngs Moduli (GPa) = 41.25799 61.90613 53.29263
#
# Poissons Ratio (x) = -0.05337 -0.18295
# Poissons Ratio (y) = -0.03557 0.09204
# Poissons Ratio (z) = -0.14163 0.10691
#
# Static dielectric constant tensor:
#      x y z
#    x 4.315910 0.354400 -0.430970 
#    y 0.354400 3.830690 0.208510 
#    z -0.430970 0.208510 4.045640 
# 
# 
# High freq. dielectric constant tensor:
#      x y z
#    x 1.845130 0.031530 -0.018930 
#    y 0.031530 1.825020 0.008730 
#    z -0.018930 0.008730 1.847630 
# 
# From -- ./inp_files/308657.got.cif
#   From: 2010.06.25/outbox.cif.g09.slc.cpg/sg2_155_cif.got.tgz:308657.got - 2010.06.27 13:26:56.
