data_PCOD8002691
_publ_section_title
;
Structure prediction by ZEFSAII (Michael W. Deem and Ramdas Pophale) SiO2 
 PCOD8002691
Probable space group: P -1
;
_chemical_formula_sum "Si O2"
_cell_formula_units_Z 16
_cell_length_a 10.798647
_cell_length_b 11.872793
_cell_length_c 8.634643
_cell_angle_alpha 84.479428
_cell_angle_beta 119.896659
_cell_angle_gamma 54.785440
_cell_volume 659.126743
_symmetry_space_group_name_H-M "P -1"
_symmetry_group_IT_number 2
_symmetry_cell_setting 'triclinic'
loop_
_space_group_symop_operation_xyz
x,y,z
-x,-y,-z
loop_
_atom_site_type_symbol
_atom_site_label
_atom_site_fract_x
_atom_site_fract_y
_atom_site_fract_z
Si Si1 0.532787 0.481638 0.270108
Si Si2 0.408865 0.930176 0.972821
Si Si3 0.316469 0.468751 0.372198
Si Si4 0.129814 0.221618 0.965859
Si Si5 0.283855 0.027541 0.543343
Si Si6 0.176129 0.666653 0.794903
Si Si7 0.660032 0.792481 0.610566
Si Si8 0.821014 0.592024 0.249200
O O1 0.481662 0.398744 0.348510
O O2 0.575542 0.564913 0.394127
O O3 0.741016 0.341897 0.320376
O O4 0.336530 0.624697 0.023333
O O5 0.232506 0.048362 0.979751
O O6 0.316416 0.953369 0.741858
O O7 0.586183 0.736278 0.155443
O O8 0.500000 0.000000 0.000000
O O9 0.231916 0.388419 0.334313
O O10 0.115173 0.662726 0.192091
O O11 0.167681 0.311584 0.875614
O O12 0.215094 0.200387 0.191981
O O13 0.346097 0.127856 0.561209
O O14 0.043627 0.149183 0.334341
O O15 0.433750 0.887652 0.524538
O O16 0.157265 0.540473 0.807556
O O17 0.000000 0.500000 0.500000
#
# Coordination Sequence:
#
# PCOD8002691 Si02
#       8
#     2   2   2   2   2   2   2   2
#     4  10  24  41  64  84 122 170 229 260 283 361
#     4  10  20  36  57  95 132 156 194 247 315 382
#     4  11  22  41  63  91 125 171 213 252 312 369
#     4  11  21  39  66  97 129 161 199 264 326 380
#     4  11  22  40  64  98 131 160 196 264 329 378
#     4  11  22  42  66  88 121 168 218 261 302 359
#     4  11  23  38  65  98 135 161 195 259 331 392
#     4  11  21  34  64 100 126 157 201 256 328 380
#
# _framework density 24.274540999999999
#
# number of rings (size 3 to 8) (size 9 to 14) (size 15 to 20)
#    0.000    1.250    2.500    5.625    0.000    2.000 
#    0.000    1.250   11.000    0.000    0.000    0.000 
#    0.000    0.000    0.000    0.000    0.000    0.000 
#
# Total GULP energy -198294.979990 kJ/mol
# GULP energy per Si atom -12393.436249 kJ/mol
# Density = 2.421929 g / cm^3
# Si number density = 24.274541 Si / 1000 Ang^3
#
#
#
# Elastic Constant Matrix: (Units=GPa)
#
#
# Indices 1 2 3 4 5 6 
#
# 1 66.4370 12.0421 30.7531 5.4932 6.9106 -17.9965
# 2 12.0421 56.8396 31.9353 -12.6965 -3.1765 -15.3585
# 3 30.7531 31.9353 99.8031 -7.2733 1.6279 -9.0985
# 4 5.4932 -12.6965 -7.2733 37.0295 -10.5572 3.9643
# 5 6.9106 -3.1765 1.6279 -10.5572 29.2024 -4.9849
# 6 -17.9965 -15.3585 -9.0985 3.9643 -4.9849 29.2942
#
#
#
# Elastic Compliance Matrix: (Units=1/GPa)
#
#
# Indices 1 2 3 4 5 6 
#
# 1 0.022349 0.000017 -0.006260 -0.007401 -0.005592 0.011844
# 2 0.000017 0.027536 -0.007150 0.009222 0.008855 0.012485
# 3 -0.006260 -0.007150 0.014037 0.001577 -0.000100 -0.003465
# 4 -0.007401 0.009222 0.001577 0.036148 0.015482 -0.001479
# 5 -0.005592 0.008855 -0.000100 0.015482 0.043232 0.006438
# 6 0.011844 0.012485 -0.003465 -0.001479 0.006438 0.048178
#
#
# Mechanical properties :
#
#
# Convention : Reuss Voigt Hill
#
# Bulk Modulus (GPa) = 26.92908 41.39341 34.16125
# Shear Modulus (GPa) = 21.67841 28.99517 25.33679
#
# Velocity S-wave (km/s) = 2.99164 3.45986 3.23423
# Velocity P-wave (km/s) = 4.80113 5.74892 5.29627
#
# Compressibility (1/GPa) = 0.03713457
#
# Stress axis : x y z
#
# Youngs Moduli (GPa) = 44.74555 36.31657 71.23830
#
# Poissons Ratio (x) = -0.00063 0.44598
# Poissons Ratio (y) = -0.00077 0.50938
# Poissons Ratio (z) = 0.28012 0.25968
#
# Static dielectric constant tensor:
#      x y z
#    x 4.967930 -1.541740 -0.174290 
#    y -1.541740 6.678260 -0.090400 
#    z -0.174290 -0.090400 4.827840 
# 
# 
# High freq. dielectric constant tensor:
#      x y z
#    x 1.948550 -0.034770 -0.001010 
#    y -0.034770 1.947370 -0.005440 
#    z -0.001010 -0.005440 1.972140 
# 
# From -- ./inp_files/262554.got.cif
#   From: 2010.06.25/outbox.cif.g09.slc.cpg/sg2_132_cif.got.tgz:262554.got - 2010.06.27 13:26:56.
