data_PCOD8002686
_publ_section_title
;
Structure prediction by ZEFSAII (Michael W. Deem and Ramdas Pophale) SiO2 
 PCOD8002686
Probable space group: P -1
;
_chemical_formula_sum "Si O2"
_cell_formula_units_Z 14
_cell_length_a 9.488265
_cell_length_b 12.135467
_cell_length_c 15.783018
_cell_angle_alpha 57.616360
_cell_angle_beta 136.520160
_cell_angle_gamma 146.713711
_cell_volume 674.070799
_symmetry_space_group_name_H-M "P -1"
_symmetry_group_IT_number 2
_symmetry_cell_setting 'triclinic'
loop_
_space_group_symop_operation_xyz
x,y,z
-x,-y,-z
loop_
_atom_site_type_symbol
_atom_site_label
_atom_site_fract_x
_atom_site_fract_y
_atom_site_fract_z
Si Si1 0.902770 0.930374 0.245549
Si Si2 0.855085 0.223652 0.583576
Si Si3 0.847818 0.284728 0.231496
Si Si4 0.879256 0.497625 0.575612
Si Si5 0.292602 0.957246 0.004264
Si Si6 0.189089 0.629412 0.112253
Si Si7 0.837048 0.839586 0.570748
O O1 0.559831 0.784674 0.196643
O O2 0.946241 0.803738 0.284485
O O3 0.158112 0.081555 0.369696
O O4 0.948443 0.051634 0.135551
O O5 0.861227 0.335402 0.613436
O O6 0.040093 0.372946 0.522288
O O7 0.500000 0.000000 0.500000
O O8 0.837331 0.334324 0.302280
O O9 0.099912 0.498743 0.205990
O O10 0.961154 0.192036 0.317358
O O11 0.505656 0.128651 0.099940
O O12 0.539864 0.373916 0.521234
O O13 0.109938 0.742862 0.052376
O O14 0.500000 0.000000 0.000000
O O15 0.000000 0.500000 0.000000
O O16 0.000000 0.000000 0.500000
#
# Coordination Sequence:
#
# PCOD8002686 Si02
#       7
#     2   2   2   2   2   2   2
#     4  11  20  39  64  91 125 165 217 254 318 380
#     4  11  24  46  66  87 129 178 222 264 301 377
#     4  12  22  38  62  95 133 154 208 264 326 385
#     4  11  26  41  64  97 124 177 218 254 327 377
#     4  10  20  36  57  92 124 163 202 259 323 372
#     4  11  19  36  63  95 125 165 201 261 328 382
#     4  12  22  38  65  99 134 162 201 273 332 382
#
# _framework density 20.769331000000001
#
# number of rings (size 3 to 8) (size 9 to 14) (size 15 to 20)
#    0.000    0.857    7.143    3.000    0.000    0.000 
#    0.000    0.714    0.000    1.714    0.000    0.000 
#    0.000    0.000    0.000    0.000    0.000    0.000 
#
# Total GULP energy -173571.531915 kJ/mol
# GULP energy per Si atom -12397.966565 kJ/mol
# Density = 2.072206 g / cm^3
# Si number density = 20.769331 Si / 1000 Ang^3
#
#
#
# Elastic Constant Matrix: (Units=GPa)
#
#
# Indices 1 2 3 4 5 6 
#
# 1 70.3810 24.6587 37.8788 -6.0740 1.1501 -25.0364
# 2 24.6587 107.6626 36.0015 -17.4652 11.4190 -11.8167
# 3 37.8788 36.0015 116.3348 -13.0150 0.4402 -20.1185
# 4 -6.0740 -17.4652 -13.0150 47.5891 -21.1812 -1.1570
# 5 1.1501 11.4190 0.4402 -21.1812 31.5650 -3.1591
# 6 -25.0364 -11.8167 -20.1185 -1.1570 -3.1591 37.9553
#
#
#
# Elastic Compliance Matrix: (Units=1/GPa)
#
#
# Indices 1 2 3 4 5 6 
#
# 1 0.021447 -0.002202 -0.004037 0.002364 0.002821 0.011629
# 2 -0.002202 0.011276 -0.002419 0.002103 -0.002491 0.000633
# 3 -0.004037 -0.002419 0.011557 0.003357 0.003423 0.003097
# 4 0.002364 0.002103 0.003357 0.032903 0.021868 0.006816
# 5 0.002821 -0.002491 0.003423 0.021868 0.047861 0.007550
# 6 0.011629 0.000633 0.003097 0.006816 0.007550 0.036692
#
#
# Mechanical properties :
#
#
# Convention : Reuss Voigt Hill
#
# Bulk Modulus (GPa) = 37.08437 54.60628 45.84532
# Shear Modulus (GPa) = 26.59010 36.47784 31.53397
#
# Velocity S-wave (km/s) = 3.58195 4.19541 3.90076
# Velocity P-wave (km/s) = 5.91619 7.05815 6.51225
#
# Compressibility (1/GPa) = 0.02696554
#
# Stress axis : x y z
#
# Youngs Moduli (GPa) = 46.62654 88.68345 86.52759
#
# Poissons Ratio (x) = 0.19525 0.34932
# Poissons Ratio (y) = 0.10266 0.20927
# Poissons Ratio (z) = 0.18823 0.21448
#
# Static dielectric constant tensor:
#      x y z
#    x 3.645300 -0.385880 0.002610 
#    y -0.385880 4.076350 -0.437410 
#    z 0.002610 -0.437410 4.023200 
# 
# 
# High freq. dielectric constant tensor:
#      x y z
#    x 1.777790 -0.026020 -0.004470 
#    y -0.026020 1.828140 -0.009520 
#    z -0.004470 -0.009520 1.822560 
# 
# From -- ./inp_files/72071.got.cif
#   From: 2010.06.25/outbox.cif.g09.slc.cpg/sg2_37_cif.got.tgz:72071.got - 2010.06.27 13:26:56.
