data_PCOD8002243
_publ_section_title
;
Structure prediction by ZEFSAII (Michael W. Deem and Ramdas Pophale) SiO2 
 PCOD8002243
Probable space group: P -1
;
_chemical_formula_sum "Si O2"
_cell_formula_units_Z 16
_cell_length_a 12.828050
_cell_length_b 7.687850
_cell_length_c 12.952451
_cell_angle_alpha 59.533857
_cell_angle_beta 99.335882
_cell_angle_gamma 137.163234
_cell_volume 699.079185
_symmetry_space_group_name_H-M "P -1"
_symmetry_group_IT_number 2
_symmetry_cell_setting 'triclinic'
loop_
_space_group_symop_operation_xyz
x,y,z
-x,-y,-z
loop_
_atom_site_type_symbol
_atom_site_label
_atom_site_fract_x
_atom_site_fract_y
_atom_site_fract_z
Si Si1 0.203097 0.354412 0.017112
Si Si2 0.967992 0.754187 0.502589
Si Si3 0.583055 0.581221 0.259393
Si Si4 0.253670 0.305408 0.259863
Si Si5 0.831351 0.370667 0.782474
Si Si6 0.386592 0.702324 0.496207
Si Si7 0.886597 0.109473 0.022392
Si Si8 0.499348 0.120875 0.216986
O O1 0.249697 0.282670 0.142687
O O2 0.062059 0.308264 0.040256
O O3 0.357232 0.708888 0.893652
O O4 0.155152 0.134164 0.985603
O O5 0.948746 0.546239 0.646564
O O6 0.807163 0.524450 0.471721
O O7 0.000000 0.000000 0.500000
O O8 0.126956 0.955951 0.393935
O O9 0.437568 0.530139 0.259688
O O10 0.605584 0.516960 0.396656
O O11 0.541771 0.346598 0.242033
O O12 0.751098 0.935427 0.143180
O O13 0.200200 0.450377 0.237557
O O14 0.656245 0.020141 0.828147
O O15 0.909934 0.351226 0.890846
O O16 0.500000 0.000000 0.500000
O O17 0.456601 0.843004 0.349252
#
# Coordination Sequence:
#
# PCOD8002243 Si02
#       8
#     2   2   2   2   2   2   2   2
#     4  10  21  36  56  82 110 145 187 235 288 338
#     4   9  20  39  57  80 118 154 186 235 292 339
#     4  10  20  35  58  85 114 148 187 237 288 335
#     4  11  22  36  57  83 112 150 192 230 282 348
#     4  10  21  38  56  78 111 149 187 231 283 342
#     4   9  18  36  60  83 110 149 194 236 278 334
#     4  10  21  37  56  80 113 147 185 236 289 336
#     4   9  19  37  56  80 114 146 183 235 288 334
#
# _framework density 22.887249000000001
#
# number of rings (size 3 to 8) (size 9 to 14) (size 15 to 20)
#    0.000    2.250    0.000    2.250    0.000    6.500 
#    0.000   18.125    0.000    0.000    0.000    0.000 
#    0.000    0.000    0.000    0.000    0.000    0.000 
#
# Total GULP energy -198294.000547 kJ/mol
# GULP energy per Si atom -12393.375034 kJ/mol
# Density = 2.283516 g / cm^3
# Si number density = 22.887249 Si / 1000 Ang^3
#
#
#
# Elastic Constant Matrix: (Units=GPa)
#
#
# Indices 1 2 3 4 5 6 
#
# 1 77.3069 13.0490 60.2964 -9.5490 -0.5352 34.2137
# 2 13.0490 48.8555 17.0354 -13.4021 -9.8953 5.4094
# 3 60.2964 17.0354 177.7172 -18.0841 -7.0666 27.2802
# 4 -9.5490 -13.4021 -18.0841 33.5808 13.3685 -8.0065
# 5 -0.5352 -9.8953 -7.0666 13.3685 39.2797 -2.8313
# 6 34.2137 5.4094 27.2802 -8.0065 -2.8313 21.1881
#
#
#
# Elastic Compliance Matrix: (Units=1/GPa)
#
#
# Indices 1 2 3 4 5 6 
#
# 1 0.053242 -0.006378 -0.006162 -0.007769 -0.005114 -0.080030
# 2 -0.006378 0.024423 -0.000463 0.008133 0.003808 0.008242
# 3 -0.006162 -0.000463 0.007886 0.002319 0.000491 0.000856
# 4 -0.007769 0.008133 0.002319 0.041274 -0.010121 0.021728
# 5 -0.005114 0.003808 0.000491 -0.010121 0.030378 0.006889
# 6 -0.080030 0.008242 0.000856 0.021728 0.006889 0.182350
#
#
# Mechanical properties :
#
#
# Convention : Reuss Voigt Hill
#
# Bulk Modulus (GPa) = 16.79396 53.84902 35.32149
# Shear Modulus (GPa) = 12.97331 33.04297 23.00814
#
# Velocity S-wave (km/s) = 2.38341 3.80376 3.17406
# Velocity P-wave (km/s) = 3.86366 6.54756 5.37580
#
# Compressibility (1/GPa) = 0.05954522
#
# Stress axis : x y z
#
# Youngs Moduli (GPa) = 18.78226 40.94420 126.80910
#
# Poissons Ratio (x) = 0.26114 0.78136
# Poissons Ratio (y) = 0.11979 0.05877
# Poissons Ratio (z) = 0.11573 0.01897
#
# Static dielectric constant tensor:
#      x y z
#    x 3.711160 0.339620 -0.126980 
#    y 0.339620 4.318020 0.038260 
#    z -0.126980 0.038260 5.032700 
# 
# 
# High freq. dielectric constant tensor:
#      x y z
#    x 1.865410 0.012170 -0.002920 
#    y 0.012170 1.906090 -0.002170 
#    z -0.002920 -0.002170 1.925920 
# 
# From -- ./inp_files/205691.got.cif
#   From: 2010.06.25/outbox.cif.g09.slc.cpg/sg2_103_cif.got.tgz:205691.got - 2010.06.27 13:26:56.
