data_PCOD8002436
_publ_section_title
;
Structure prediction by ZEFSAII (Michael W. Deem and Ramdas Pophale) SiO2 
 PCOD8002436
Probable space group: P -1
;
_chemical_formula_sum "Si O2"
_cell_formula_units_Z 16
_cell_length_a 14.694859
_cell_length_b 13.928261
_cell_length_c 6.676238
_cell_angle_alpha 123.262407
_cell_angle_beta 97.836472
_cell_angle_gamma 45.122377
_cell_volume 733.637547
_symmetry_space_group_name_H-M "P -1"
_symmetry_group_IT_number 2
_symmetry_cell_setting 'triclinic'
loop_
_space_group_symop_operation_xyz
x,y,z
-x,-y,-z
loop_
_atom_site_type_symbol
_atom_site_label
_atom_site_fract_x
_atom_site_fract_y
_atom_site_fract_z
Si Si1 0.099309 0.757409 0.760264
Si Si2 0.903674 0.059764 0.348543
Si Si3 0.958955 0.608337 0.916044
Si Si4 0.629093 0.446301 0.176096
Si Si5 0.465683 0.708157 0.080281
Si Si6 0.271036 0.982230 0.657876
Si Si7 0.521254 0.745930 0.726256
Si Si8 0.177816 0.440488 0.461034
O O1 0.211048 0.670773 0.871419
O O2 0.096844 0.626045 0.550066
O O3 0.138291 0.781476 0.589717
O O4 0.958531 0.931766 0.029041
O O5 0.769803 0.113962 0.443633
O O6 0.000000 0.000000 0.500000
O O7 0.852856 0.639067 0.777024
O O8 0.108747 0.491025 0.718255
O O9 0.871456 0.807256 0.171636
O O10 0.000000 0.500000 0.000000
O O11 0.592545 0.527353 0.035770
O O12 0.529305 0.608160 0.487683
O O13 0.622823 0.315507 0.057725
O O14 0.368459 0.889410 0.383099
O O15 0.526743 0.731258 0.950515
O O16 0.369076 0.937279 0.819022
O O17 0.652162 0.700107 0.635144
#
# Coordination Sequence:
#
# PCOD8002436 Si02
#       8
#     2   2   2   2   2   2   2   2
#     4  10  21  38  61  91 130 165 212 264 314 383
#     4  11  23  36  60  97 135 173 207 260 322 388
#     4  11  26  47  70  91 127 171 225 279 327 386
#     4   9  19  35  57  94 131 172 214 248 317 393
#     4  10  20  35  61  94 131 174 203 260 323 387
#     4  11  24  42  63 100 133 167 221 271 321 392
#     4  10  22  40  67  92 132 166 217 269 324 388
#     4  10  24  45  68  95 121 176 219 272 328 387
#
# _framework density 21.809135000000001
#
# number of rings (size 3 to 8) (size 9 to 14) (size 15 to 20)
#    0.000    1.750    1.250    1.875    1.750   13.500 
#    0.000    1.250    0.000    0.000    0.000    0.000 
#    0.000    0.000    0.000    0.000    0.000    0.000 
#
# Total GULP energy -198295.643711 kJ/mol
# GULP energy per Si atom -12393.477732 kJ/mol
# Density = 2.175950 g / cm^3
# Si number density = 21.809135 Si / 1000 Ang^3
#
#
#
# Elastic Constant Matrix: (Units=GPa)
#
#
# Indices 1 2 3 4 5 6 
#
# 1 114.3156 41.1464 32.2530 -14.4094 -16.4027 -0.0558
# 2 41.1464 92.7633 34.6926 -16.1260 -19.8165 5.6737
# 3 32.2530 34.6926 79.0227 -14.7670 -14.4302 6.6017
# 4 -14.4094 -16.1260 -14.7670 29.4252 7.9814 -0.0093
# 5 -16.4027 -19.8165 -14.4302 7.9814 32.2658 -0.4023
# 6 -0.0558 5.6737 6.6017 -0.0093 -0.4023 32.0404
#
#
#
# Elastic Compliance Matrix: (Units=1/GPa)
#
#
# Indices 1 2 3 4 5 6 
#
# 1 0.011178 -0.003340 -0.002467 0.001840 0.002087 0.001146
# 2 -0.003340 0.015494 -0.003642 0.003596 0.005275 -0.001932
# 3 -0.002467 -0.003642 0.016860 0.004467 0.002909 -0.002795
# 4 0.001840 0.003596 0.004467 0.040420 -0.004877 -0.001603
# 5 0.002087 0.005275 0.002909 -0.004877 0.037788 -0.001057
# 6 0.001146 -0.001932 -0.002795 -0.001603 -0.001057 0.032117
#
#
# Mechanical properties :
#
#
# Convention : Reuss Voigt Hill
#
# Bulk Modulus (GPa) = 40.59431 55.80949 48.20190
# Shear Modulus (GPa) = 27.62949 30.61360 29.12154
#
# Velocity S-wave (km/s) = 3.56318 3.75067 3.65813
# Velocity P-wave (km/s) = 5.96508 6.66350 6.32394
#
# Compressibility (1/GPa) = 0.02463399
#
# Stress axis : x y z
#
# Youngs Moduli (GPa) = 89.46341 64.54085 59.31199
#
# Poissons Ratio (x) = 0.21556 0.14631
# Poissons Ratio (y) = 0.29880 0.21603
# Poissons Ratio (z) = 0.22068 0.23507
#
# Static dielectric constant tensor:
#      x y z
#    x 3.891680 0.032780 -0.003950 
#    y 0.032780 3.917770 0.041870 
#    z -0.003950 0.041870 3.943170 
# 
# 
# High freq. dielectric constant tensor:
#      x y z
#    x 1.851130 -0.003420 -0.005200 
#    y -0.003420 1.845480 -0.002200 
#    z -0.005200 -0.002200 1.859400 
# 
# From -- ./inp_files/95322.got.cif
#   From: 2010.06.25/outbox.cif.g09.slc.cpg/sg2_48_cif.got.tgz:95322.got - 2010.06.27 13:26:56.
