data_PCOD8002013
_publ_section_title
;
Structure prediction by ZEFSAII (Michael W. Deem and Ramdas Pophale) SiO2 
 PCOD8002013
Probable space group: P -1
;
_chemical_formula_sum "Si O2"
_cell_formula_units_Z 16
_cell_length_a 9.220468
_cell_length_b 22.555277
_cell_length_c 11.645476
_cell_angle_alpha 52.121290
_cell_angle_beta 153.734286
_cell_angle_gamma 116.900013
_cell_volume 811.875719
_symmetry_space_group_name_H-M "P -1"
_symmetry_group_IT_number 2
_symmetry_cell_setting 'triclinic'
loop_
_space_group_symop_operation_xyz
x,y,z
-x,-y,-z
loop_
_atom_site_type_symbol
_atom_site_label
_atom_site_fract_x
_atom_site_fract_y
_atom_site_fract_z
Si Si1 0.399452 0.455540 0.823826
Si Si2 0.521511 0.149039 0.238696
Si Si3 0.545070 0.599759 0.663405
Si Si4 0.968394 0.084888 0.829163
Si Si5 0.647387 0.782165 0.740499
Si Si6 0.527280 0.697925 0.091005
Si Si7 0.279497 0.656332 0.636602
Si Si8 0.145352 0.670739 0.074900
O O1 0.603377 0.507612 0.838692
O O2 0.478048 0.374236 0.907462
O O3 0.000000 0.500000 0.500000
O O4 0.562481 0.430963 0.094818
O O5 0.853450 0.090543 0.606304
O O6 0.241285 0.187561 0.094781
O O7 0.656699 0.216230 0.193093
O O8 0.336120 0.102356 0.078241
O O9 0.258536 0.646539 0.495278
O O10 0.404508 0.618729 0.413060
O O11 0.895547 0.622548 0.905723
O O12 0.678208 0.149021 0.620153
O O13 0.000000 0.000000 0.000000
O O14 0.534820 0.706336 0.788109
O O15 0.944072 0.754556 0.889465
O O16 0.364922 0.690952 0.105828
O O17 0.917771 0.698167 0.386359
#
# Coordination Sequence:
#
# PCOD8002013 Si02
#       8
#     2   2   2   2   2   2   2   2
#     4  12  23  38  63  88 113 159 213 262 309 352
#     4  10  20  38  62  89 117 157 198 242 282 356
#     4  11  25  42  58  84 121 159 204 256 310 358
#     4  10  20  34  64  98 120 146 194 244 292 344
#     4   9  20  37  63  85 120 154 200 237 297 349
#     4  12  24  39  62  88 119 158 210 249 302 355
#     4  11  21  40  63  86 113 159 214 251 297 359
#     4  11  27  40  59  87 124 161 200 252 307 357
#
# _framework density 19.707450999999999
#
# number of rings (size 3 to 8) (size 9 to 14) (size 15 to 20)
#    0.750    0.500    3.750    3.000    5.250    1.000 
#    0.000    0.000    0.000    1.500    0.000    0.000 
#    0.000    0.000    0.000    0.000    0.000    0.000 
#
# Total GULP energy -198260.204814 kJ/mol
# GULP energy per Si atom -12391.262801 kJ/mol
# Density = 1.966260 g / cm^3
# Si number density = 19.707451 Si / 1000 Ang^3
#
#
#
# Elastic Constant Matrix: (Units=GPa)
#
#
# Indices 1 2 3 4 5 6 
#
# 1 105.2475 32.6318 35.5549 -0.0036 -10.6754 27.4645
# 2 32.6318 92.2517 43.6688 -6.3492 -17.8303 9.1933
# 3 35.5549 43.6688 106.0096 -4.8024 -30.4210 14.9993
# 4 -0.0036 -6.3492 -4.8024 42.3700 3.0124 -5.1426
# 5 -10.6754 -17.8303 -30.4210 3.0124 24.8452 -3.5414
# 6 27.4645 9.1933 14.9993 -5.1426 -3.5414 19.8681
#
#
#
# Elastic Compliance Matrix: (Units=1/GPa)
#
#
# Indices 1 2 3 4 5 6 
#
# 1 0.016485 -0.003273 -0.001127 -0.003233 0.000735 -0.021128
# 2 -0.003273 0.014597 -0.003831 0.001666 0.004445 0.001885
# 3 -0.001127 -0.003831 0.017170 -0.000654 0.016902 -0.006789
# 4 -0.003233 0.001666 -0.000654 0.025206 -0.002589 0.010255
# 5 0.000735 0.004445 0.016902 -0.002589 0.064039 -0.005088
# 6 -0.021128 0.001885 -0.006789 0.010255 -0.005088 0.085539
#
#
# Mechanical properties :
#
#
# Convention : Reuss Voigt Hill
#
# Bulk Modulus (GPa) = 31.45524 58.57997 45.01760
# Shear Modulus (GPa) = 19.99259 30.19357 25.09308
#
# Velocity S-wave (km/s) = 3.18853 3.91844 3.57217
# Velocity P-wave (km/s) = 5.43612 7.08954 6.31715
#
# Compressibility (1/GPa) = 0.03179120
#
# Stress axis : x y z
#
# Youngs Moduli (GPa) = 60.66235 68.50767 58.24036
#
# Poissons Ratio (x) = 0.22420 0.06563
# Poissons Ratio (y) = 0.19852 0.22312
# Poissons Ratio (z) = 0.06836 0.26245
#
# Static dielectric constant tensor:
#      x y z
#    x 3.500220 -0.066640 -0.094240 
#    y -0.066640 3.647410 -0.014810 
#    z -0.094240 -0.014810 3.598630 
# 
# 
# High freq. dielectric constant tensor:
#      x y z
#    x 1.736050 -0.001800 -0.021280 
#    y -0.001800 1.768010 0.005160 
#    z -0.021280 0.005160 1.768920 
# 
# From -- ./inp_files/406630.got.cif
#   From: 2010.06.25/outbox.cif.g09.slc.cpg/sg2_204_cif.got.tgz:406630.got - 2010.06.27 13:26:56.
