data_PCOD8002023
_publ_section_title
;
Structure prediction by ZEFSAII (Michael W. Deem and Ramdas Pophale) SiO2 
 PCOD8002023
Probable space group: P -1
;
_chemical_formula_sum "Si O2"
_cell_formula_units_Z 16
_cell_length_a 27.155750
_cell_length_b 17.387708
_cell_length_c 6.541123
_cell_angle_alpha 120.210044
_cell_angle_beta 119.752213
_cell_angle_gamma 18.259312
_cell_volume 834.339672
_symmetry_space_group_name_H-M "P -1"
_symmetry_group_IT_number 2
_symmetry_cell_setting 'triclinic'
loop_
_space_group_symop_operation_xyz
x,y,z
-x,-y,-z
loop_
_atom_site_type_symbol
_atom_site_label
_atom_site_fract_x
_atom_site_fract_y
_atom_site_fract_z
Si Si1 0.617016 0.815214 0.680500
Si Si2 0.519421 0.842899 0.900847
Si Si3 0.876297 0.990057 0.852387
Si Si4 0.137066 0.802664 0.686911
Si Si5 0.187432 0.565947 0.738203
Si Si6 0.648611 0.215861 0.944379
Si Si7 0.450677 0.368393 0.548266
Si Si8 0.658067 0.298626 0.450804
O O1 0.552255 0.840449 0.746706
O O2 0.776530 0.547122 0.541265
O O3 0.500000 0.000000 0.500000
O O4 0.627637 0.893710 0.932781
O O5 0.476136 0.804513 0.703984
O O6 0.666071 0.630468 0.074478
O O7 0.791140 0.030963 0.837661
O O8 0.797965 0.118821 0.645583
O O9 0.853893 0.110126 0.101408
O O10 0.060056 0.702222 0.801329
O O11 0.110228 0.771906 0.775271
O O12 0.310006 0.522952 0.582463
O O13 0.000000 0.000000 0.500000
O O14 0.590656 0.199448 0.759961
O O15 0.500000 0.500000 0.000000
O O16 0.712253 0.137282 0.200132
O O17 0.370216 0.570090 0.551463
O O18 0.500000 0.500000 0.500000
#
# Coordination Sequence:
#
# PCOD8002023 Si02
#       8
#     2   2   2   2   2   2   2   2
#     4   9  20  39  59  86 112 145 192 239 300 346
#     4  10  20  38  62  85 114 146 191 248 291 342
#     4  12  22  35  53  79 120 157 189 225 276 339
#     4  12  22  35  52  83 127 156 187 230 280 346
#     4  11  23  35  57  86 117 157 189 228 299 345
#     4  10  20  35  50  76 107 152 197 231 265 324
#     4  11  19  35  57  80 114 149 193 236 278 330
#     4  11  19  35  54  77 114 156 197 230 267 331
#
# _framework density 19.176842000000001
#
# number of rings (size 3 to 8) (size 9 to 14) (size 15 to 20)
#    0.000    1.250    6.250    2.625    0.000    0.000 
#    0.000    0.000    0.000    0.750    0.000    8.750 
#    0.000    0.000    0.000    0.000    0.000    0.000 
#
# Total GULP energy -198239.578879 kJ/mol
# GULP energy per Si atom -12389.973680 kJ/mol
# Density = 1.913319 g / cm^3
# Si number density = 19.176842 Si / 1000 Ang^3
#
#
#
# Elastic Constant Matrix: (Units=GPa)
#
#
# Indices 1 2 3 4 5 6 
#
# 1 60.3775 28.4245 37.2983 -0.5176 -1.4448 -14.3553
# 2 28.4245 47.1132 33.6497 8.3004 9.1659 -6.6323
# 3 37.2983 33.6497 159.7993 5.2937 23.0396 2.1603
# 4 -0.5176 8.3004 5.2937 41.1976 2.2712 -8.8474
# 5 -1.4448 9.1659 23.0396 2.2712 39.3646 -3.4737
# 6 -14.3553 -6.6323 2.1603 -8.8474 -3.4737 26.7220
#
#
#
# Elastic Compliance Matrix: (Units=1/GPa)
#
#
# Indices 1 2 3 4 5 6 
#
# 1 0.032260 -0.015853 -0.006059 0.007644 0.009538 0.017656
# 2 -0.015853 0.034648 -0.002285 -0.007142 -0.007167 -0.003028
# 3 -0.006059 -0.002285 0.009070 -0.001736 -0.005414 -0.005833
# 4 0.007644 -0.007142 -0.001736 0.028526 0.002393 0.012230
# 5 0.009538 -0.007167 -0.005414 0.002393 0.031215 0.008633
# 6 0.017656 -0.003028 -0.005833 0.012230 0.008633 0.051799
#
#
# Mechanical properties :
#
#
# Convention : Reuss Voigt Hill
#
# Bulk Modulus (GPa) = 36.25114 51.78167 44.01640
# Shear Modulus (GPa) = 20.39938 32.65136 26.52537
#
# Velocity S-wave (km/s) = 3.26506 4.13079 3.72317
# Velocity P-wave (km/s) = 5.75837 7.05776 6.44092
#
# Compressibility (1/GPa) = 0.02758534
#
# Stress axis : x y z
#
# Youngs Moduli (GPa) = 30.99801 28.86153 110.25347
#
# Poissons Ratio (x) = 0.45754 0.66799
# Poissons Ratio (y) = 0.49141 0.25192
# Poissons Ratio (z) = 0.18781 0.06595
#
# Static dielectric constant tensor:
#      x y z
#    x 3.317300 -0.086750 0.115050 
#    y -0.086750 3.509790 0.049170 
#    z 0.115050 0.049170 4.390810 
# 
# 
# High freq. dielectric constant tensor:
#      x y z
#    x 1.728230 -0.008230 -0.010330 
#    y -0.008230 1.708760 0.003150 
#    z -0.010330 0.003150 1.775770 
# 
# From -- ./inp_files/127523.got.cif
#   From: 2010.06.25/outbox.cif.g09.slc.cpg/sg2_64_cif.got.tgz:127523.got - 2010.06.27 13:26:56.
