data_PCOD8002669
_publ_section_title
;
Structure prediction by ZEFSAII (Michael W. Deem and Ramdas Pophale) SiO2 
 PCOD8002669
Probable space group: P -1
;
_chemical_formula_sum "Si O2"
_cell_formula_units_Z 16
_cell_length_a 23.352169
_cell_length_b 6.814110
_cell_length_c 18.575538
_cell_angle_alpha 57.395539
_cell_angle_beta 158.921320
_cell_angle_gamma 111.965796
_cell_volume 810.678110
_symmetry_space_group_name_H-M "P -1"
_symmetry_group_IT_number 2
_symmetry_cell_setting 'triclinic'
loop_
_space_group_symop_operation_xyz
x,y,z
-x,-y,-z
loop_
_atom_site_type_symbol
_atom_site_label
_atom_site_fract_x
_atom_site_fract_y
_atom_site_fract_z
Si Si1 0.805601 0.528838 0.788488
Si Si2 0.209914 0.473357 0.830255
Si Si3 0.033789 0.016196 0.951626
Si Si4 0.510114 0.949322 0.265197
Si Si5 0.076046 0.703987 0.483897
Si Si6 0.117825 0.489463 0.963139
Si Si7 0.771148 0.224160 0.077395
Si Si8 0.179261 0.988210 0.432966
O O1 0.649406 0.754570 0.521399
O O2 0.763873 0.599871 0.809041
O O3 0.000000 0.500000 0.000000
O O4 0.801456 0.253665 0.821564
O O5 0.220061 0.541070 0.744668
O O6 0.023982 0.462217 0.629941
O O7 0.219861 0.696478 0.845997
O O8 0.369205 0.200014 0.090852
O O9 0.074993 0.256209 0.932395
O O10 0.872633 0.038397 0.705765
O O11 0.000000 0.000000 0.000000
O O12 0.410966 0.802347 0.137565
O O13 0.621722 0.040748 0.323440
O O14 0.171237 0.761928 0.516556
O O15 0.935705 0.958475 0.307302
O O16 0.227228 0.554030 0.017427
O O17 0.941529 0.736611 0.728685
#
# Coordination Sequence:
#
# PCOD8002669 Si02
#       8
#     2   2   2   2   2   2   2   2
#     4  11  20  38  55  82 119 152 187 229 282 335
#     4  10  21  39  60  85 113 148 190 234 291 338
#     4  11  18  31  58  83 110 147 192 227 273 334
#     4  11  22  37  55  84 121 147 182 242 289 330
#     4   9  20  40  64  81 109 153 192 234 281 344
#     4  10  20  36  58  83 108 154 195 227 271 343
#     4  10  22  38  58  84 117 147 189 233 285 338
#     4  10  20  36  57  86 115 146 191 237 281 333
#
# _framework density 19.736564000000001
#
# number of rings (size 3 to 8) (size 9 to 14) (size 15 to 20)
#    0.000    1.750    3.750    1.125    0.000    5.000 
#    0.000    1.875    0.000    0.000    0.000    0.000 
#    0.000    0.000    0.000    0.000    0.000    0.000 
#
# Total GULP energy -198347.354097 kJ/mol
# GULP energy per Si atom -12396.709631 kJ/mol
# Density = 1.969164 g / cm^3
# Si number density = 19.736564 Si / 1000 Ang^3
#
#
#
# Elastic Constant Matrix: (Units=GPa)
#
#
# Indices 1 2 3 4 5 6 
#
# 1 92.0872 33.5436 33.8900 21.4880 -4.4979 16.1339
# 2 33.5436 118.8641 34.4204 18.7569 -2.8610 6.4576
# 3 33.8900 34.4204 89.9595 12.3376 -7.0161 0.7779
# 4 21.4880 18.7569 12.3376 25.3503 6.9668 -0.6995
# 5 -4.4979 -2.8610 -7.0161 6.9668 20.5410 0.6267
# 6 16.1339 6.4576 0.7779 -0.6995 0.6267 34.4279
#
#
#
# Elastic Compliance Matrix: (Units=1/GPa)
#
#
# Indices 1 2 3 4 5 6 
#
# 1 0.017996 -0.000968 -0.003626 -0.015206 0.007988 -0.008624
# 2 -0.000968 0.010623 -0.002578 -0.006563 0.002664 -0.001662
# 3 -0.003626 -0.002578 0.014267 -0.003224 0.004762 0.001708
# 4 -0.015206 -0.006563 -0.003224 0.066830 -0.028326 0.010303
# 5 0.007988 0.002664 0.004762 -0.028326 0.062222 -0.006059
# 6 -0.008624 -0.001662 0.001708 0.010303 -0.006059 0.033681
#
#
# Mechanical properties :
#
#
# Convention : Reuss Voigt Hill
#
# Bulk Modulus (GPa) = 35.03598 56.06876 45.55237
# Shear Modulus (GPa) = 21.78883 29.33430 25.56156
#
# Velocity S-wave (km/s) = 3.32623 3.85943 3.60271
# Velocity P-wave (km/s) = 5.70457 6.95201 6.35895
#
# Compressibility (1/GPa) = 0.02854209
#
# Stress axis : x y z
#
# Youngs Moduli (GPa) = 55.56874 94.13913 70.09099
#
# Poissons Ratio (x) = 0.09113 0.25415
# Poissons Ratio (y) = 0.05379 0.18066
# Poissons Ratio (z) = 0.20149 0.24265
#
# Static dielectric constant tensor:
#      x y z
#    x 3.639210 0.205030 -0.124720 
#    y 0.205030 3.874150 0.003200 
#    z -0.124720 0.003200 3.525690 
# 
# 
# High freq. dielectric constant tensor:
#      x y z
#    x 1.760320 0.011820 -0.019090 
#    y 0.011820 1.785140 -0.001040 
#    z -0.019090 -0.001040 1.748910 
# 
# From -- ./inp_files/349696.got.cif
#   From: 2010.06.25/outbox.cif.g09.slc.cpg/sg2_175_cif.got.tgz:349696.got - 2010.06.27 13:26:56.
