data_PCOD8002292
_publ_section_title
;
Structure prediction by ZEFSAII (Michael W. Deem and Ramdas Pophale) SiO2 
 PCOD8002292
Probable space group: P -1
;
_chemical_formula_sum "Si O2"
_cell_formula_units_Z 16
_cell_length_a 11.530056
_cell_length_b 14.223825
_cell_length_c 19.659401
_cell_angle_alpha 34.145060
_cell_angle_beta 142.639260
_cell_angle_gamma 150.082842
_cell_volume 867.309116
_symmetry_space_group_name_H-M "P -1"
_symmetry_group_IT_number 2
_symmetry_cell_setting 'triclinic'
loop_
_space_group_symop_operation_xyz
x,y,z
-x,-y,-z
loop_
_atom_site_type_symbol
_atom_site_label
_atom_site_fract_x
_atom_site_fract_y
_atom_site_fract_z
Si Si1 0.773969 0.168785 0.548575
Si Si2 0.821957 0.060243 0.876615
Si Si3 0.103026 0.732468 0.076463
Si Si4 0.026355 0.400942 0.654911
Si Si5 0.485267 0.179184 0.861207
Si Si6 0.574375 0.393095 0.047528
Si Si7 0.494841 0.538293 0.181173
Si Si8 0.031789 0.093277 0.212194
O O1 0.908308 0.367899 0.439047
O O2 0.804804 0.271115 0.575800
O O3 0.896291 0.055971 0.680974
O O4 0.500000 0.000000 0.500000
O O5 0.767479 0.106036 0.897546
O O6 0.940563 0.270401 0.762163
O O7 0.570612 0.853997 0.851994
O O8 0.000000 0.000000 0.000000
O O9 0.283356 0.681924 0.164143
O O10 0.857905 0.507606 0.119867
O O11 0.030680 0.840540 0.925597
O O12 0.266564 0.444721 0.708526
O O13 0.503948 0.309587 0.856562
O O14 0.222761 0.056491 0.774772
O O15 0.500000 0.000000 0.000000
O O16 0.500000 0.500000 0.000000
O O17 0.510770 0.404163 0.933611
O O18 0.251939 0.302652 0.228002
#
# Coordination Sequence:
#
# PCOD8002292 Si02
#       8
#     2   2   2   2   2   2   2   2
#     4  11  22  37  58  85 113 150 191 238 285 338
#     4  12  21  35  58  81 119 151 184 234 291 348
#     4  10  22  36  56  88 116 152 186 228 291 346
#     4  11  23  35  57  87 116 148 189 233 293 343
#     4  10  21  35  55  81 119 154 190 231 282 340
#     4  11  21  31  53  83 116 153 184 224 286 344
#     4  11  20  34  56  84 117 151 191 230 285 338
#     4  10  20  35  59  83 118 148 189 238 281 334
#
# _framework density 18.447863000000002
#
# number of rings (size 3 to 8) (size 9 to 14) (size 15 to 20)
#    0.000    1.250    5.000    2.250    1.750    6.500 
#    0.000    0.000    0.000    0.750    0.000    2.625 
#    0.000    0.000    0.000    0.000    0.000    0.000 
#
# Total GULP energy -198257.915251 kJ/mol
# GULP energy per Si atom -12391.119703 kJ/mol
# Density = 1.840587 g / cm^3
# Si number density = 18.447863 Si / 1000 Ang^3
#
#
#
# Elastic Constant Matrix: (Units=GPa)
#
#
# Indices 1 2 3 4 5 6 
#
# 1 105.1288 52.7357 16.1339 -0.7275 7.5125 5.9069
# 2 52.7357 152.1705 28.8628 -10.8260 5.5755 12.2430
# 3 16.1339 28.8628 69.7202 -14.2718 0.5364 1.6334
# 4 -0.7275 -10.8260 -14.2718 30.6533 0.1963 2.9964
# 5 7.5125 5.5755 0.5364 0.1963 19.9022 -1.3345
# 6 5.9069 12.2430 1.6334 2.9964 -1.3345 35.9168
#
#
#
# Elastic Compliance Matrix: (Units=1/GPa)
#
#
# Indices 1 2 3 4 5 6 
#
# 1 0.011908 -0.003791 -0.001488 -0.001670 -0.003415 -0.000586
# 2 -0.003791 0.008701 -0.002207 0.002204 -0.001134 -0.002468
# 3 -0.001488 -0.002207 0.017071 0.007164 0.000625 -0.000354
# 4 -0.001670 0.002204 0.007164 0.037086 -0.000809 -0.003926
# 5 -0.003415 -0.001134 0.000625 -0.000809 0.052040 0.002921
# 6 -0.000586 -0.002468 -0.000354 -0.003926 0.002921 0.029232
#
#
# Mechanical properties :
#
#
# Convention : Reuss Voigt Hill
#
# Bulk Modulus (GPa) = 44.03826 58.05381 51.04603
# Shear Modulus (GPa) = 27.99894 32.58027 30.28960
#
# Velocity S-wave (km/s) = 3.90004 4.20703 4.05644
# Velocity P-wave (km/s) = 6.64860 7.42538 7.04770
#
# Compressibility (1/GPa) = 0.02270753
#
# Stress axis : x y z
#
# Youngs Moduli (GPa) = 83.98014 114.93075 58.57906
#
# Poissons Ratio (x) = 0.43569 0.08716
# Poissons Ratio (y) = 0.31836 0.12929
# Poissons Ratio (z) = 0.12496 0.25366
#
# Static dielectric constant tensor:
#      x y z
#    x 4.023190 0.629070 0.160240 
#    y 0.629070 4.294830 -0.111950 
#    z 0.160240 -0.111950 3.382220 
# 
# 
# High freq. dielectric constant tensor:
#      x y z
#    x 1.692360 0.006480 0.009080 
#    y 0.006480 1.748830 -0.012250 
#    z 0.009080 -0.012250 1.684800 
# 
# From -- ./inp_files/449973.got.cif
#   From: 2010.06.25/outbox.cif.g09.slc.cpg/sg2_225_cif.got.tgz:449973.got - 2010.06.27 13:26:56.
