data_PCOD8002231
_publ_section_title
;
Structure prediction by ZEFSAII (Michael W. Deem and Ramdas Pophale) SiO2 
 PCOD8002231
Probable space group: P -1
;
_chemical_formula_sum "Si O2"
_cell_formula_units_Z 16
_cell_length_a 11.351585
_cell_length_b 10.807839
_cell_length_c 9.216512
_cell_angle_alpha 117.383868
_cell_angle_beta 70.853534
_cell_angle_gamma 124.280779
_cell_volume 825.951628
_symmetry_space_group_name_H-M "P -1"
_symmetry_group_IT_number 2
_symmetry_cell_setting 'triclinic'
loop_
_space_group_symop_operation_xyz
x,y,z
-x,-y,-z
loop_
_atom_site_type_symbol
_atom_site_label
_atom_site_fract_x
_atom_site_fract_y
_atom_site_fract_z
Si Si1 0.552121 0.552561 0.668039
Si Si2 0.401630 0.994565 0.735700
Si Si3 0.687144 0.994100 0.628088
Si Si4 0.858730 0.834724 0.984824
Si Si5 0.653243 0.769280 0.284182
Si Si6 0.154209 0.413521 0.341860
Si Si7 0.352048 0.114484 0.102611
Si Si8 0.159070 0.737074 0.502361
O O1 0.500000 0.500000 0.500000
O O2 0.454846 0.418212 0.752333
O O3 0.715807 0.588698 0.626952
O O4 0.532023 0.706836 0.793918
O O5 0.527010 0.955679 0.630461
O O6 0.430599 0.156491 0.730370
O O7 0.249907 0.849147 0.662275
O O8 0.407174 0.023711 0.923362
O O9 0.799091 0.166263 0.612809
O O10 0.706248 0.855713 0.465630
O O11 0.715878 0.996747 0.788811
O O12 0.876514 0.683376 0.849609
O O13 0.759407 0.854706 0.920845
O O14 0.793829 0.800319 0.154229
O O15 0.000000 0.000000 0.000000
O O16 0.194483 0.594589 0.391904
O O17 0.009037 0.326432 0.446796
#
# Coordination Sequence:
#
# PCOD8002231 Si02
#       8
#     2   2   2   2   2   2   2   2
#     4  11  21  37  55  83 121 144 188 245 281 333
#     4  10  20  35  58  83 113 151 190 236 279 337
#     4  11  19  35  55  87 115 149 190 236 284 340
#     4  10  21  40  60  83 115 148 187 239 281 342
#     4  10  20  35  59  83 108 153 195 226 286 334
#     4  10  21  38  60  83 111 153 191 235 283 337
#     4  10  22  34  56  85 116 147 189 233 296 328
#     4  10  21  37  62  82 111 151 198 229 281 345
#
# _framework density 19.371593000000001
#
# number of rings (size 3 to 8) (size 9 to 14) (size 15 to 20)
#    0.000    1.750    1.250    5.625    0.000    5.500 
#    2.250    1.875    0.000    2.250    0.000    0.000 
#    0.000    0.000    0.000    0.000    0.000    0.000 
#
# Total GULP energy -198337.619629 kJ/mol
# GULP energy per Si atom -12396.101227 kJ/mol
# Density = 1.932750 g / cm^3
# Si number density = 19.371593 Si / 1000 Ang^3
#
#
#
# Elastic Constant Matrix: (Units=GPa)
#
#
# Indices 1 2 3 4 5 6 
#
# 1 27.9171 24.0396 17.8166 -2.2164 -15.1671 8.7154
# 2 24.0396 133.8458 62.2398 -0.1185 -5.8736 4.3248
# 3 17.8166 62.2398 137.9339 -1.2083 -7.2907 -4.1990
# 4 -2.2164 -0.1185 -1.2083 36.7584 -3.6417 -0.9743
# 5 -15.1671 -5.8736 -7.2907 -3.6417 27.1920 -0.6098
# 6 8.7154 4.3248 -4.1990 -0.9743 -0.6098 26.1523
#
#
#
# Elastic Compliance Matrix: (Units=1/GPa)
#
#
# Indices 1 2 3 4 5 6 
#
# 1 0.075821 -0.009167 -0.004198 0.007722 0.039700 -0.023213
# 2 -0.009167 0.010718 -0.003854 -0.001023 -0.003956 0.000533
# 3 -0.004198 -0.003854 0.009614 0.000095 -0.000503 0.003572
# 4 0.007722 -0.001023 0.000095 0.028422 0.007892 -0.001146
# 5 0.039700 -0.003956 -0.000503 0.007892 0.058740 -0.010993
# 6 -0.023213 0.000533 0.003572 -0.001146 -0.010993 0.046159
#
#
# Mechanical properties :
#
#
# Convention : Reuss Voigt Hill
#
# Bulk Modulus (GPa) = 16.20333 56.43209 36.31771
# Shear Modulus (GPa) = 17.57565 31.06060 24.31813
#
# Velocity S-wave (km/s) = 3.01539 4.00860 3.54694
# Velocity P-wave (km/s) = 4.52837 7.11476 5.96347
#
# Compressibility (1/GPa) = 0.06171570
#
# Stress axis : x y z
#
# Youngs Moduli (GPa) = 13.18891 93.29936 104.01360
#
# Poissons Ratio (x) = 0.85527 0.43663
# Poissons Ratio (y) = 0.12090 0.40088
# Poissons Ratio (z) = 0.05537 0.35959
#
# Static dielectric constant tensor:
#      x y z
#    x 3.336970 -0.070550 -0.254090 
#    y -0.070550 3.574520 0.024620 
#    z -0.254090 0.024620 3.936000 
# 
# 
# High freq. dielectric constant tensor:
#      x y z
#    x 1.732730 -0.002790 -0.011370 
#    y -0.002790 1.758580 0.006750 
#    z -0.011370 0.006750 1.766390 
# 
# From -- ./inp_files/259998.got.cif
#   From: 2010.06.25/outbox.cif.g09.slc.cpg/sg2_130_cif.got.tgz:259998.got - 2010.06.27 13:26:56.
