data_PCOD8002995
_publ_section_title
;
Structure prediction by ZEFSAII (Michael W. Deem and Ramdas Pophale) SiO2 
 PCOD8002995
Probable space group: P -1
;
_chemical_formula_sum "Si O2"
_cell_formula_units_Z 12
_cell_length_a 10.579528
_cell_length_b 9.405874
_cell_length_c 20.651787
_cell_angle_alpha 28.046516
_cell_angle_beta 32.987328
_cell_angle_gamma 41.806360
_cell_volume 525.979731
_symmetry_space_group_name_H-M "P -1"
_symmetry_group_IT_number 2
_symmetry_cell_setting 'triclinic'
loop_
_space_group_symop_operation_xyz
x,y,z
-x,-y,-z
loop_
_atom_site_type_symbol
_atom_site_label
_atom_site_fract_x
_atom_site_fract_y
_atom_site_fract_z
Si Si1 0.346927 0.253308 0.383196
Si Si2 0.827225 0.261285 0.243166
Si Si3 0.741406 0.090921 0.828077
Si Si4 0.546566 0.174364 0.198621
Si Si5 0.958066 0.893837 0.987825
Si Si6 0.480638 0.138935 0.099038
O O1 0.605929 0.333728 0.264202
O O2 0.195491 0.564196 0.322445
O O3 0.357586 0.135372 0.351650
O O4 0.223931 0.011357 0.576747
O O5 0.889504 0.544663 0.147244
O O6 0.044804 0.143490 0.151180
O O7 0.702999 0.065605 0.777110
O O8 0.500000 0.000000 0.000000
O O9 0.470008 0.019758 0.226062
O O10 0.790017 0.044744 0.176595
O O11 0.595642 0.516917 0.017839
O O12 0.742150 0.096928 0.972312
O O13 0.000000 0.000000 0.000000
#
# Coordination Sequence:
#
# PCOD8002995 Si02
#       6
#     2   2   2   2   2   2
#     4  11  24  40  60  88 124 165 193 240 304 363
#     4  11  24  40  59  88 129 155 198 247 298 358
#     4  12  22  38  65  90 116 159 204 251 294 349
#     4  10  21  38  61  87 116 157 201 246 296 347
#     4  10  20  37  62  86 116 155 199 249 291 344
#     4  10  20  36  61  88 117 145 205 253 287 341
#
# _framework density 22.814568000000001
#
# number of rings (size 3 to 8) (size 9 to 14) (size 15 to 20)
#    0.000    1.333    5.000    0.500    2.333    1.333 
#    0.000    4.167    0.000    0.000    0.000    0.000 
#    0.000    0.000    0.000    0.000    0.000    0.000 
#
# Total GULP energy -148686.578291 kJ/mol
# GULP energy per Si atom -12390.548191 kJ/mol
# Density = 2.276264 g / cm^3
# Si number density = 22.814568 Si / 1000 Ang^3
#
#
#
# Elastic Constant Matrix: (Units=GPa)
#
#
# Indices 1 2 3 4 5 6 
#
# 1 57.4421 13.9898 -8.9038 -0.8470 -10.1617 -10.8418
# 2 13.9898 116.7660 5.3899 1.5054 -10.0529 -3.8595
# 3 -8.9038 5.3899 36.6968 1.2109 -0.2271 13.8128
# 4 -0.8470 1.5054 1.2109 28.2236 -0.3461 -2.9475
# 5 -10.1617 -10.0529 -0.2271 -0.3461 24.9325 2.2776
# 6 -10.8418 -3.8595 13.8128 -2.9475 2.2776 30.8249
#
#
#
# Elastic Compliance Matrix: (Units=1/GPa)
#
#
# Indices 1 2 3 4 5 6 
#
# 1 0.020644 -0.001852 0.003367 0.001195 0.007249 0.005099
# 2 -0.001852 0.009177 -0.002249 -0.000281 0.002805 0.001271
# 3 0.003367 -0.002249 0.034065 -0.002758 0.002088 -0.014780
# 4 0.001195 -0.000281 -0.002758 0.036132 0.000389 0.005048
# 5 0.007249 0.002805 0.002088 0.000389 0.044334 -0.001273
# 6 0.005099 0.001271 -0.014780 0.005048 -0.001273 0.041594
#
#
# Mechanical properties :
#
#
# Convention : Reuss Voigt Hill
#
# Bulk Modulus (GPa) = 16.02094 25.76185 20.89140
# Shear Modulus (GPa) = 24.01310 30.15814 27.08562
#
# Velocity S-wave (km/s) = 3.24780 3.63971 3.44933
# Velocity P-wave (km/s) = 4.59366 5.38328 5.00407
#
# Compressibility (1/GPa) = 0.06241831
#
# Stress axis : x y z
#
# Youngs Moduli (GPa) = 48.44017 108.96873 29.35584
#
# Poissons Ratio (x) = 0.20176 -0.09884
# Poissons Ratio (y) = 0.08969 0.06602
# Poissons Ratio (z) = -0.16309 0.24508
#
# Static dielectric constant tensor:
#      x y z
#    x 4.596010 -0.017160 -0.193010 
#    y -0.017160 4.798720 0.198350 
#    z -0.193010 0.198350 3.515050 
# 
# 
# High freq. dielectric constant tensor:
#      x y z
#    x 1.914820 0.001390 -0.001990 
#    y 0.001390 1.931050 0.012550 
#    z -0.001990 0.012550 1.843360 
# 
# From -- ./inp_files/186843.got.cif
#   From: 2010.06.25/outbox.cif.g09.slc.cpg/sg2_94_cif.got.tgz:186843.got - 2010.06.27 13:26:56.
