data_PCOD8002853
_publ_section_title
;
Structure prediction by ZEFSAII (Michael W. Deem and Ramdas Pophale) SiO2 
 PCOD8002853
Probable space group: P -1
;
_chemical_formula_sum "Si O2"
_cell_formula_units_Z 16
_cell_length_a 11.421985
_cell_length_b 12.092621
_cell_length_c 18.227463
_cell_angle_alpha 33.577721
_cell_angle_beta 139.641627
_cell_angle_gamma 117.634158
_cell_volume 792.217920
_symmetry_space_group_name_H-M "P -1"
_symmetry_group_IT_number 2
_symmetry_cell_setting 'triclinic'
loop_
_space_group_symop_operation_xyz
x,y,z
-x,-y,-z
loop_
_atom_site_type_symbol
_atom_site_label
_atom_site_fract_x
_atom_site_fract_y
_atom_site_fract_z
Si Si1 0.003770 0.435093 0.193336
Si Si2 0.097883 0.106697 0.866897
Si Si3 0.138221 0.733250 0.909817
Si Si4 0.402640 0.353170 0.350814
Si Si5 0.775336 0.874806 0.241357
Si Si6 0.514772 0.701136 0.282795
Si Si7 0.071179 0.443338 0.383014
Si Si8 0.183171 0.071808 0.225158
O O1 0.921796 0.286671 0.191206
O O2 0.240299 0.354636 0.330921
O O3 0.994240 0.387794 0.301183
O O4 0.854375 0.700591 0.959927
O O5 0.063830 0.290212 0.810991
O O6 0.131000 0.199297 0.753624
O O7 0.906519 0.057888 0.796666
O O8 0.292475 0.870772 0.115318
O O9 0.929585 0.865644 0.784471
O O10 0.268333 0.869131 0.902253
O O11 0.276423 0.478562 0.147938
O O12 0.515118 0.488261 0.361590
O O13 0.573425 0.096246 0.554955
O O14 0.569896 0.846093 0.168376
O O15 0.945239 0.707655 0.474790
O O16 0.688534 0.612591 0.478057
#
# Coordination Sequence:
#
# PCOD8002853 Si02
#       8
#     2   2   2   2   2   2   2   2
#     4  11  24  40  53  83 124 157 185 221 281 347
#     4  11  18  37  60  87 116 139 190 240 289 332
#     4  10  22  39  61  83 113 152 194 235 272 330
#     4  11  20  38  63  87 113 141 195 243 280 329
#     4   9  20  38  59  86 112 146 189 242 277 329
#     4  10  20  36  59  92 109 144 187 236 299 321
#     4  10  24  35  56  89 116 155 179 229 291 343
#     4  10  20  37  62  89 106 150 191 239 283 322
#
# _framework density 20.196462
#
# number of rings (size 3 to 8) (size 9 to 14) (size 15 to 20)
#    0.750    1.000    5.000    2.250    0.000    4.500 
#    0.000    0.000    0.000    0.750    0.000    0.000 
#    0.000    0.000    0.000    0.000    0.000    0.000 
#
# Total GULP energy -198333.693121 kJ/mol
# GULP energy per Si atom -12395.855820 kJ/mol
# Density = 2.015049 g / cm^3
# Si number density = 20.196462 Si / 1000 Ang^3
#
#
#
# Elastic Constant Matrix: (Units=GPa)
#
#
# Indices 1 2 3 4 5 6 
#
# 1 35.1367 25.2816 20.7702 1.3691 4.5770 -2.7140
# 2 25.2816 71.2840 17.9730 15.7288 4.4224 -16.6605
# 3 20.7702 17.9730 115.2564 -13.4137 25.6463 -18.3239
# 4 1.3691 15.7288 -13.4137 25.2878 -8.6701 -6.2817
# 5 4.5770 4.4224 25.6463 -8.6701 20.2867 2.4376
# 6 -2.7140 -16.6605 -18.3239 -6.2817 2.4376 31.1458
#
#
#
# Elastic Compliance Matrix: (Units=1/GPa)
#
#
# Indices 1 2 3 4 5 6 
#
# 1 0.043492 -0.016994 -0.007666 0.003993 0.006433 -0.009509
# 2 -0.016994 0.026659 0.001550 -0.016206 -0.012230 0.011380
# 3 -0.007666 0.001550 0.016563 0.004799 -0.018981 0.012359
# 4 0.003993 -0.016206 0.004799 0.060716 0.021909 0.005033
# 5 0.006433 -0.012230 -0.018981 0.021909 0.086208 -0.019477
# 6 -0.009509 0.011380 0.012359 0.005033 -0.019477 0.047177
#
#
# Mechanical properties :
#
#
# Convention : Reuss Voigt Hill
#
# Bulk Modulus (GPa) = 24.69549 38.85852 31.77701
# Shear Modulus (GPa) = 14.68281 25.85419 20.26850
#
# Velocity S-wave (km/s) = 2.69922 3.58178 3.17135
# Velocity P-wave (km/s) = 4.68706 6.03221 5.40167
#
# Compressibility (1/GPa) = 0.04049322
#
# Stress axis : x y z
#
# Youngs Moduli (GPa) = 22.99288 37.51047 60.37491
#
# Poissons Ratio (x) = 0.63747 0.46283
# Poissons Ratio (y) = 0.39075 -0.09358
# Poissons Ratio (z) = 0.17626 -0.05814
#
# Static dielectric constant tensor:
#      x y z
#    x 3.317370 0.090550 -0.016650 
#    y 0.090550 3.543160 -0.026480 
#    z -0.016650 -0.026480 3.641260 
# 
# 
# High freq. dielectric constant tensor:
#      x y z
#    x 1.752240 0.003000 0.000000 
#    y 0.003000 1.784770 -0.003530 
#    z 0.000000 -0.003530 1.793380 
# 
# From -- ./inp_files/450317.got.cif
#   From: 2010.06.25/outbox.cif.g09.slc.cpg/sg2_226_cif.got.tgz:450317.got - 2010.06.27 13:26:56.
