data_PCOD8002270
_publ_section_title
;
Structure prediction by ZEFSAII (Michael W. Deem and Ramdas Pophale) SiO2 
 PCOD8002270
Probable space group: P -1
;
_chemical_formula_sum "Si O2"
_cell_formula_units_Z 16
_cell_length_a 13.049806
_cell_length_b 12.183173
_cell_length_c 11.576514
_cell_angle_alpha 132.557592
_cell_angle_beta 73.813207
_cell_angle_gamma 68.570822
_cell_volume 809.864749
_symmetry_space_group_name_H-M "P -1"
_symmetry_group_IT_number 2
_symmetry_cell_setting 'triclinic'
loop_
_space_group_symop_operation_xyz
x,y,z
-x,-y,-z
loop_
_atom_site_type_symbol
_atom_site_label
_atom_site_fract_x
_atom_site_fract_y
_atom_site_fract_z
Si Si1 0.580891 0.530925 0.081039
Si Si2 0.066285 0.546449 0.606933
Si Si3 0.798136 0.158442 0.928945
Si Si4 0.354423 0.338703 0.048583
Si Si5 0.550930 0.349300 0.553146
Si Si6 0.313378 0.040159 0.176010
Si Si7 0.296750 0.073275 0.940411
Si Si8 0.163567 0.723277 0.563472
O O1 0.446761 0.707693 0.353879
O O2 0.500000 0.500000 0.000000
O O3 0.757982 0.271709 0.895658
O O4 0.617744 0.641938 0.078755
O O5 0.148819 0.607103 0.577787
O O6 0.000000 0.500000 0.500000
O O7 0.218289 0.288051 0.439808
O O8 0.901051 0.766515 0.893370
O O9 0.814413 0.961210 0.781525
O O10 0.639897 0.375712 0.219563
O O11 0.983161 0.010632 0.811593
O O12 0.208940 0.601794 0.338414
O O13 0.522548 0.184011 0.962025
O O14 0.305537 0.220136 0.976085
O O15 0.693329 0.319686 0.466632
O O16 0.580948 0.177680 0.338716
O O17 0.363048 0.022538 0.014729
#
# Coordination Sequence:
#
# PCOD8002270 Si02
#       8
#     2   2   2   2   2   2   2   2
#     4  10  20  42  62  92 122 162 215 254 291 371
#     4  10  20  35  58  90 123 153 206 249 296 377
#     4  10  21  39  62  92 124 154 212 251 300 369
#     4  12  21  38  70  88 119 173 207 251 309 358
#     4  10  25  42  59  92 131 161 205 255 313 362
#     4  11  19  38  62  95 122 157 209 252 301 373
#     4  11  23  40  60  94 129 161 200 260 314 367
#     4  12  20  40  65  90 123 166 204 248 316 365
#
# _framework density 19.756385000000002
#
# number of rings (size 3 to 8) (size 9 to 14) (size 15 to 20)
#    0.750    0.500    8.750    0.375    0.000    2.000 
#    2.250    0.000    0.000    1.500    0.000    0.000 
#    0.000    0.000    0.000    0.000    0.000    0.000 
#
# Total GULP energy -198318.557707 kJ/mol
# GULP energy per Si atom -12394.909857 kJ/mol
# Density = 1.971142 g / cm^3
# Si number density = 19.756385 Si / 1000 Ang^3
#
#
#
# Elastic Constant Matrix: (Units=GPa)
#
#
# Indices 1 2 3 4 5 6 
#
# 1 59.3327 21.5437 32.0816 4.9709 -10.1182 14.7668
# 2 21.5437 108.4353 28.3658 8.8345 -4.8560 22.9349
# 3 32.0816 28.3658 114.2186 18.5507 -11.9543 -7.2030
# 4 4.9709 8.8345 18.5507 26.0276 -1.1196 -7.5480
# 5 -10.1182 -4.8560 -11.9543 -1.1196 29.9876 1.6231
# 6 14.7668 22.9349 -7.2030 -7.5480 1.6231 30.3954
#
#
#
# Elastic Compliance Matrix: (Units=1/GPa)
#
#
# Indices 1 2 3 4 5 6 
#
# 1 0.026044 0.000864 -0.007093 -0.004709 0.006818 -0.016519
# 2 0.000864 0.013102 -0.003157 -0.005952 0.001616 -0.012619
# 3 -0.007093 -0.003157 0.012918 -0.004480 0.001662 0.007688
# 4 -0.004709 -0.005952 -0.004480 0.049673 -0.003471 0.018238
# 5 0.006818 0.001616 0.001662 -0.003471 0.036819 -0.006966
# 6 -0.016519 -0.012619 0.007688 0.018238 -0.006966 0.057170
#
#
# Mechanical properties :
#
#
# Convention : Reuss Voigt Hill
#
# Bulk Modulus (GPa) = 30.03627 49.55209 39.79418
# Shear Modulus (GPa) = 22.16353 30.61514 26.38933
#
# Velocity S-wave (km/s) = 3.35302 3.94081 3.65874
# Velocity P-wave (km/s) = 5.49788 6.77072 6.16722
#
# Compressibility (1/GPa) = 0.03329309
#
# Stress axis : x y z
#
# Youngs Moduli (GPa) = 38.39594 76.32185 77.41299
#
# Poissons Ratio (x) = -0.06595 0.54911
# Poissons Ratio (y) = -0.03318 0.24436
# Poissons Ratio (z) = 0.27235 0.24091
#
# Static dielectric constant tensor:
#      x y z
#    x 3.401390 0.232770 -0.309430 
#    y 0.232770 3.684870 0.184790 
#    z -0.309430 0.184790 3.881050 
# 
# 
# High freq. dielectric constant tensor:
#      x y z
#    x 1.755690 0.020180 -0.017750 
#    y 0.020180 1.757000 0.018280 
#    z -0.017750 0.018280 1.766750 
# 
# From -- ./inp_files/450633.got.cif
#   From: 2010.06.25/outbox.cif.g09.slc.cpg/sg2_226_cif.got.tgz:450633.got - 2010.06.27 13:26:56.
