data_PCOD8002395
_publ_section_title
;
Structure prediction by ZEFSAII (Michael W. Deem and Ramdas Pophale) SiO2 
 PCOD8002395
Probable space group: P -1
;
_chemical_formula_sum "Si O2"
_cell_formula_units_Z 16
_cell_length_a 16.182028
_cell_length_b 11.028960
_cell_length_c 9.325924
_cell_angle_alpha 63.857252
_cell_angle_beta 131.755236
_cell_angle_gamma 142.419397
_cell_volume 743.224749
_symmetry_space_group_name_H-M "P -1"
_symmetry_group_IT_number 2
_symmetry_cell_setting 'triclinic'
loop_
_space_group_symop_operation_xyz
x,y,z
-x,-y,-z
loop_
_atom_site_type_symbol
_atom_site_label
_atom_site_fract_x
_atom_site_fract_y
_atom_site_fract_z
Si Si1 0.730260 0.242324 0.538344
Si Si2 0.954779 0.085237 0.305243
Si Si3 0.610082 0.845549 0.531094
Si Si4 0.337729 0.718880 0.856380
Si Si5 0.056779 0.413746 0.872426
Si Si6 0.311841 0.003489 0.766643
Si Si7 0.125000 0.020324 0.048985
Si Si8 0.755615 0.458485 0.703442
O O1 0.665817 0.280799 0.318074
O O2 0.690946 0.282786 0.617247
O O3 0.932105 0.416264 0.671131
O O4 0.630094 0.011580 0.538735
O O5 0.869708 0.948608 0.132390
O O6 0.123187 0.320025 0.341179
O O7 0.829303 0.070284 0.251536
O O8 0.000000 0.000000 0.500000
O O9 0.699606 0.930750 0.433953
O O10 0.417126 0.628034 0.401382
O O11 0.695364 0.810747 0.752068
O O12 0.186339 0.488684 0.858821
O O13 0.296859 0.828721 0.820792
O O14 0.508738 0.806423 0.055786
O O15 0.160263 0.545630 0.065776
O O16 0.935177 0.184865 0.892392
O O17 0.000000 0.000000 0.000000
#
# Coordination Sequence:
#
# PCOD8002395 Si02
#       8
#     2   2   2   2   2   2   2   2
#     4  10  21  33  60  93 128 158 195 249 298 361
#     4  11  25  44  64  87 120 164 206 255 308 356
#     4  10  21  40  62  90 123 160 200 244 303 359
#     4  10  20  35  60  94 124 163 197 243 304 358
#     4  10  20  38  58  91 119 163 201 242 306 361
#     4  10  21  39  61  88 131 159 197 247 303 361
#     4  10  23  42  64  87 118 159 206 256 303 354
#     4  11  22  39  60  92 122 159 203 248 301 363
#
# _framework density 21.527806999999999
#
# number of rings (size 3 to 8) (size 9 to 14) (size 15 to 20)
#    0.000    1.750    1.250    2.625    1.750    5.000 
#    2.250    2.500    0.000    0.000    0.000    0.000 
#    0.000    0.000    0.000    0.000    0.000    0.000 
#
# Total GULP energy -198319.130488 kJ/mol
# GULP energy per Si atom -12394.945655 kJ/mol
# Density = 2.147881 g / cm^3
# Si number density = 21.527807 Si / 1000 Ang^3
#
#
#
# Elastic Constant Matrix: (Units=GPa)
#
#
# Indices 1 2 3 4 5 6 
#
# 1 89.7903 13.8762 28.0156 6.6620 -4.2084 11.0396
# 2 13.8762 58.0125 28.7606 7.2060 5.7506 28.4681
# 3 28.0156 28.7606 150.7119 7.2874 -0.3294 5.0549
# 4 6.6620 7.2060 7.2874 30.7966 4.6505 4.7530
# 5 -4.2084 5.7506 -0.3294 4.6505 25.3973 8.8547
# 6 11.0396 28.4681 5.0549 4.7530 8.8547 25.6402
#
#
#
# Elastic Compliance Matrix: (Units=1/GPa)
#
#
# Indices 1 2 3 4 5 6 
#
# 1 0.013065 0.002302 -0.002447 -0.002165 0.005176 -0.009085
# 2 0.002302 0.045618 -0.007215 -0.002655 0.008847 -0.052781
# 3 -0.002447 -0.007215 0.008232 -0.000771 -0.001328 0.008044
# 4 -0.002165 -0.002655 -0.000771 0.034701 -0.006008 -0.000326
# 5 0.005176 0.008847 -0.001328 -0.006008 0.048924 -0.027572
# 6 -0.009085 -0.052781 0.008044 -0.000326 -0.027572 0.109512
#
#
# Mechanical properties :
#
#
# Convention : Reuss Voigt Hill
#
# Bulk Modulus (GPa) = 19.15924 48.86884 34.01404
# Shear Modulus (GPa) = 17.11333 31.55766 24.33549
#
# Velocity S-wave (km/s) = 2.82253 3.83286 3.36582
# Velocity P-wave (km/s) = 4.42055 6.50672 5.56232
#
# Compressibility (1/GPa) = 0.05219414
#
# Stress axis : x y z
#
# Youngs Moduli (GPa) = 76.53982 21.92129 121.48289
#
# Poissons Ratio (x) = -0.05047 0.29730
# Poissons Ratio (y) = -0.17623 0.87654
# Poissons Ratio (z) = 0.18732 0.15817
#
# Static dielectric constant tensor:
#      x y z
#    x 3.543080 0.379520 -0.059730 
#    y 0.379520 3.416000 0.164810 
#    z -0.059730 0.164810 4.500720 
# 
# 
# High freq. dielectric constant tensor:
#      x y z
#    x 1.829280 0.023770 -0.006740 
#    y 0.023770 1.824660 0.011950 
#    z -0.006740 0.011950 1.869060 
# 
# From -- ./inp_files/176043.got.cif
#   From: 2010.06.25/outbox.cif.g09.slc.cpg/sg2_89_cif.got.tgz:176043.got - 2010.06.27 13:26:56.
