data_PCOD8002969
_publ_section_title
;
Structure prediction by ZEFSAII (Michael W. Deem and Ramdas Pophale) SiO2 
 PCOD8002969
Probable space group: P -1
;
_chemical_formula_sum "Si O2"
_cell_formula_units_Z 16
_cell_length_a 8.519118
_cell_length_b 11.260899
_cell_length_c 17.811703
_cell_angle_alpha 119.656055
_cell_angle_beta 49.495161
_cell_angle_gamma 141.545060
_cell_volume 807.646074
_symmetry_space_group_name_H-M "P -1"
_symmetry_group_IT_number 2
_symmetry_cell_setting 'triclinic'
loop_
_space_group_symop_operation_xyz
x,y,z
-x,-y,-z
loop_
_atom_site_type_symbol
_atom_site_label
_atom_site_fract_x
_atom_site_fract_y
_atom_site_fract_z
Si Si1 0.710022 0.489374 0.890414
Si Si2 0.302121 0.999101 0.386011
Si Si3 0.021231 0.450146 0.894632
Si Si4 0.668082 0.046956 0.806022
Si Si5 0.241889 0.053193 0.890184
Si Si6 0.359096 0.276941 0.261764
Si Si7 0.279287 0.297627 0.464403
Si Si8 0.946911 0.205386 0.252063
O O1 0.513866 0.272964 0.858200
O O2 0.946775 0.541377 0.891045
O O3 0.870434 0.613997 0.804749
O O4 0.500000 0.500000 0.000000
O O5 0.301839 0.160201 0.452411
O O6 0.627271 0.109316 0.341151
O O7 0.204060 0.911048 0.304608
O O8 0.058227 0.813132 0.455875
O O9 0.341792 0.543307 0.812560
O O10 0.825180 0.226783 0.868783
O O11 0.000000 0.500000 0.000000
O O12 0.343606 0.955928 0.865480
O O13 0.676904 0.902440 0.796093
O O14 0.088247 0.956260 0.828439
O O15 0.000000 0.000000 0.000000
O O16 0.367377 0.327749 0.360394
O O17 0.112384 0.253377 0.292429
O O18 0.500000 0.500000 0.500000
#
# Coordination Sequence:
#
# PCOD8002969 Si02
#       8
#     2   2   2   2   2   2   2   2
#     4  11  21  36  58  80 116 160 205 249 292 350
#     4   9  20  39  64  88 116 154 198 249 303 365
#     4  11  23  37  57  87 118 159 206 250 299 348
#     4   9  21  40  57  84 118 155 201 249 298 354
#     4  10  20  36  61  81 109 161 209 245 291 348
#     4  11  24  39  59  88 125 158 197 253 303 360
#     4  10  20  40  68  90 113 153 200 249 310 365
#     4  11  23  39  56  88 125 158 200 244 300 363
#
# _framework density 19.810659000000001
#
# number of rings (size 3 to 8) (size 9 to 14) (size 15 to 20)
#    0.000    1.750    1.250    3.750    1.750    5.000 
#    0.000    0.625    0.000    0.000    0.000    0.000 
#    0.000    0.000    0.000    0.000    0.000    0.000 
#
# Total GULP energy -198274.266313 kJ/mol
# GULP energy per Si atom -12392.141645 kJ/mol
# Density = 1.976557 g / cm^3
# Si number density = 19.810659 Si / 1000 Ang^3
#
#
#
# Elastic Constant Matrix: (Units=GPa)
#
#
# Indices 1 2 3 4 5 6 
#
# 1 99.7908 46.0795 32.8742 -2.9804 -3.0244 7.3656
# 2 46.0795 112.5819 53.8826 3.3999 5.5490 10.9490
# 3 32.8742 53.8826 115.6967 -7.6018 -8.6630 10.4906
# 4 -2.9804 3.3999 -7.6018 42.6981 9.9948 -3.8530
# 5 -3.0244 5.5490 -8.6630 9.9948 31.5155 -2.5138
# 6 7.3656 10.9490 10.4906 -3.8530 -2.5138 27.5760
#
#
#
# Elastic Compliance Matrix: (Units=1/GPa)
#
#
# Indices 1 2 3 4 5 6 
#
# 1 0.012679 -0.004604 -0.001232 0.000620 0.001422 -0.000874
# 2 -0.004604 0.013820 -0.005281 -0.001678 -0.004022 -0.002850
# 3 -0.001232 -0.005281 0.011958 0.001501 0.003495 -0.001595
# 4 0.000620 -0.001678 0.001501 0.025807 -0.007187 0.002880
# 5 0.001422 -0.004022 0.003495 -0.007187 0.035988 0.002164
# 6 -0.000874 -0.002850 -0.001595 0.002880 0.002164 0.038835
#
#
# Mechanical properties :
#
#
# Convention : Reuss Voigt Hill
#
# Bulk Modulus (GPa) = 61.64090 65.97133 63.80611
# Shear Modulus (GPa) = 29.98895 33.37344 31.68120
#
# Velocity S-wave (km/s) = 3.89495 4.10887 4.00334
# Velocity P-wave (km/s) = 7.17008 7.47553 7.32440
#
# Compressibility (1/GPa) = 0.01622299
#
# Stress axis : x y z
#
# Youngs Moduli (GPa) = 78.87236 72.35658 83.62575
#
# Poissons Ratio (x) = 0.33310 0.10304
# Poissons Ratio (y) = 0.36309 0.44167
# Poissons Ratio (z) = 0.09718 0.38215
#
# Static dielectric constant tensor:
#      x y z
#    x 3.606530 -0.055550 -0.207560 
#    y -0.055550 3.979310 0.016460 
#    z -0.207560 0.016460 3.672450 
# 
# 
# High freq. dielectric constant tensor:
#      x y z
#    x 1.757230 0.012010 -0.014630 
#    y 0.012010 1.782590 0.001200 
#    z -0.014630 0.001200 1.779420 
# 
# From -- ./inp_files/472234.got.cif
#   From: 2010.06.25/outbox.cif.g09.slc.cpg/sg2_237_cif.got.tgz:472234.got - 2010.06.27 13:26:56.
