data_PCOD8002535
_publ_section_title
;
Structure prediction by ZEFSAII (Michael W. Deem and Ramdas Pophale) SiO2 
 PCOD8002535
Probable space group: P -1
;
_chemical_formula_sum "Si O2"
_cell_formula_units_Z 14
_cell_length_a 8.494966
_cell_length_b 9.172513
_cell_length_c 11.697381
_cell_angle_alpha 82.457712
_cell_angle_beta 91.575270
_cell_angle_gamma 133.984022
_cell_volume 647.558851
_symmetry_space_group_name_H-M "P -1"
_symmetry_group_IT_number 2
_symmetry_cell_setting 'triclinic'
loop_
_space_group_symop_operation_xyz
x,y,z
-x,-y,-z
loop_
_atom_site_type_symbol
_atom_site_label
_atom_site_fract_x
_atom_site_fract_y
_atom_site_fract_z
Si Si1 0.207245 0.708401 0.536703
Si Si2 0.255160 0.139800 0.222304
Si Si3 0.224223 0.116342 0.717211
Si Si4 0.373319 0.540334 0.160706
Si Si5 0.669731 0.890358 0.521809
Si Si6 0.883968 0.288368 0.216952
Si Si7 0.448502 0.821771 0.945400
O O1 0.423319 0.768143 0.488664
O O2 0.205126 0.689022 0.675022
O O3 0.000000 0.500000 0.500000
O O4 0.198108 0.872278 0.482003
O O5 0.329737 0.342845 0.147266
O O6 0.325582 0.194950 0.351061
O O7 0.367590 0.080449 0.160323
O O8 0.992182 0.945460 0.229918
O O9 0.440772 0.330137 0.751935
O O10 0.225177 0.136332 0.576819
O O11 0.216132 0.939894 0.767614
O O12 0.147095 0.464579 0.208483
O O13 0.452624 0.679291 0.036880
O O14 0.790334 0.316090 0.103485
O O15 0.500000 0.000000 0.000000
#
# Coordination Sequence:
#
# PCOD8002535 Si02
#       7
#     2   2   2   2   2   2   2
#     4  10  20  35  65  99 131 165 211 266 324 378
#     4  11  25  43  64  96 135 167 215 269 323 388
#     4  10  22  42  66  95 129 172 209 264 330 386
#     4  11  24  43  65  93 131 174 217 266 321 382
#     4  10  21  39  63  96 135 164 212 266 319 394
#     4  10  21  42  64  95 129 166 220 270 313 383
#     4  12  24  45  69  92 128 176 222 270 321 369
#
# _framework density 21.619655999999999
#
# number of rings (size 3 to 8) (size 9 to 14) (size 15 to 20)
#    0.000    1.429    2.857    2.143    0.000    3.429 
#    5.143    0.000    0.000    0.000    0.000    0.000 
#    0.000    0.000    0.000    0.000    0.000    0.000 
#
# Total GULP energy -173648.816092 kJ/mol
# GULP energy per Si atom -12403.486864 kJ/mol
# Density = 2.157045 g / cm^3
# Si number density = 21.619656 Si / 1000 Ang^3
#
#
#
# Elastic Constant Matrix: (Units=GPa)
#
#
# Indices 1 2 3 4 5 6 
#
# 1 107.4516 49.2255 39.7929 10.4737 -15.8945 14.5095
# 2 49.2255 115.7885 32.4302 12.0499 -2.6950 24.7105
# 3 39.7929 32.4302 109.4792 -4.2341 1.2070 -2.5541
# 4 10.4737 12.0499 -4.2341 25.0841 2.0216 4.4874
# 5 -15.8945 -2.6950 1.2070 2.0216 38.4905 -4.0597
# 6 14.5095 24.7105 -2.5541 4.4874 -4.0597 27.2710
#
#
#
# Elastic Compliance Matrix: (Units=1/GPa)
#
#
# Indices 1 2 3 4 5 6 
#
# 1 0.014346 -0.003502 -0.004507 -0.004957 0.005742 -0.003211
# 2 -0.003502 0.013537 -0.003103 -0.003619 -0.001296 -0.010291
# 3 -0.004507 -0.003103 0.012017 0.004634 -0.002145 0.005253
# 4 -0.004957 -0.003619 0.004634 0.045188 -0.005012 -0.001831
# 5 0.005742 -0.001296 -0.002145 -0.005012 0.028913 0.003048
# 6 -0.003211 -0.010291 0.005253 -0.001831 0.003048 0.048949
#
#
# Mechanical properties :
#
#
# Convention : Reuss Voigt Hill
#
# Bulk Modulus (GPa) = 56.57260 63.95740 60.26500
# Shear Modulus (GPa) = 26.16911 32.25383 29.21147
#
# Velocity S-wave (km/s) = 3.48290 3.86667 3.67979
# Velocity P-wave (km/s) = 6.51138 7.04145 6.78160
#
# Compressibility (1/GPa) = 0.01767640
#
# Stress axis : x y z
#
# Youngs Moduli (GPa) = 69.70566 73.87259 83.21603
#
# Poissons Ratio (x) = 0.25868 0.37506
# Poissons Ratio (y) = 0.24409 0.25821
# Poissons Ratio (z) = 0.31417 0.22922
#
# Static dielectric constant tensor:
#      x y z
#    x 3.897460 0.145210 0.022920 
#    y 0.145210 3.746100 0.018360 
#    z 0.022920 0.018360 4.390590 
# 
# 
# High freq. dielectric constant tensor:
#      x y z
#    x 1.853790 0.014510 -0.001130 
#    y 0.014510 1.837210 -0.004080 
#    z -0.001130 -0.004080 1.853110 
# 
# From -- ./inp_files/26885.got.cif
#   From: 2010.06.25/outbox.cif.g09.slc.cpg/sg2_14_cif.got.tgz:26885.got - 2010.06.27 13:26:56.
