data_PCOD8002487
_publ_section_title
;
Structure prediction by ZEFSAII (Michael W. Deem and Ramdas Pophale) SiO2 
 PCOD8002487
Probable space group: P -1
;
_chemical_formula_sum "Si O2"
_cell_formula_units_Z 16
_cell_length_a 17.301733
_cell_length_b 12.100916
_cell_length_c 11.161748
_cell_angle_alpha 133.282073
_cell_angle_beta 149.145104
_cell_angle_gamma 44.260543
_cell_volume 819.954670
_symmetry_space_group_name_H-M "P -1"
_symmetry_group_IT_number 2
_symmetry_cell_setting 'triclinic'
loop_
_space_group_symop_operation_xyz
x,y,z
-x,-y,-z
loop_
_atom_site_type_symbol
_atom_site_label
_atom_site_fract_x
_atom_site_fract_y
_atom_site_fract_z
Si Si1 0.759309 0.606207 0.657829
Si Si2 0.255049 0.595001 0.912436
Si Si3 0.196477 0.740143 0.523160
Si Si4 0.029721 0.168099 0.156931
Si Si5 0.064031 0.167082 0.937631
Si Si6 0.685894 0.164550 0.013690
Si Si7 0.520463 0.504409 0.390389
Si Si8 0.321635 0.269200 0.620958
O O1 0.854934 0.414629 0.624791
O O2 0.612028 0.629976 0.571941
O O3 0.689006 0.684480 0.496986
O O4 0.873788 0.695242 0.931690
O O5 0.254510 0.428673 0.731442
O O6 0.076758 0.707491 0.794334
O O7 0.331310 0.684724 0.984138
O O8 0.352950 0.559127 0.139469
O O9 0.370744 0.675199 0.642406
O O10 0.065689 0.856688 0.345057
O O11 0.209420 0.835560 0.729598
O O12 0.213765 0.156408 0.420043
O O13 0.982309 0.230954 0.004721
O O14 0.000000 0.000000 0.000000
O O15 0.214111 0.003583 0.041271
O O16 0.508909 0.170279 0.822175
O O17 0.500000 0.500000 0.500000
#
# Coordination Sequence:
#
# PCOD8002487 Si02
#       8
#     2   2   2   2   2   2   2   2
#     4   9  20  36  61  87 114 159 207 249 287 366
#     4  12  20  41  63  93 122 159 206 253 302 364
#     4  10  20  39  59  88 118 158 207 244 296 362
#     4  11  25  40  59  92 128 157 195 257 316 359
#     4  11  23  38  59  89 127 160 201 248 308 357
#     4  12  21  38  67  89 122 159 205 256 299 359
#     4  10  20  35  63  88 121 155 200 252 300 354
#     4  11  21  41  64  92 116 160 211 252 297 361
#
# _framework density 19.513273000000002
#
# number of rings (size 3 to 8) (size 9 to 14) (size 15 to 20)
#    0.750    0.500    5.000    2.250    0.000    3.000 
#    0.000    0.000    0.000    1.500    0.000    0.000 
#    0.000    0.000    0.000    0.000    0.000    0.000 
#
# Total GULP energy -198312.132668 kJ/mol
# GULP energy per Si atom -12394.508292 kJ/mol
# Density = 1.946886 g / cm^3
# Si number density = 19.513273 Si / 1000 Ang^3
#
#
#
# Elastic Constant Matrix: (Units=GPa)
#
#
# Indices 1 2 3 4 5 6 
#
# 1 102.7035 15.7923 48.7002 4.8220 4.8936 -5.6427
# 2 15.7923 66.8294 20.3814 -4.7813 12.3039 -10.2213
# 3 48.7002 20.3814 110.3143 -8.9124 4.8330 5.3767
# 4 4.8220 -4.7813 -8.9124 27.8851 3.1169 0.6542
# 5 4.8936 12.3039 4.8330 3.1169 34.0890 2.6827
# 6 -5.6427 -10.2213 5.3767 0.6542 2.6827 26.9059
#
#
#
# Elastic Compliance Matrix: (Units=1/GPa)
#
#
# Indices 1 2 3 4 5 6 
#
# 1 0.013269 -0.000851 -0.006222 -0.004451 -0.000613 0.003872
# 2 -0.000851 0.018864 -0.002948 0.003051 -0.007194 0.008220
# 3 -0.006222 -0.002948 0.012995 0.004836 0.000078 -0.005147
# 4 -0.004451 0.003051 0.004836 0.039247 -0.004639 -0.001233
# 5 -0.000613 -0.007194 0.000078 -0.004639 0.032909 -0.006046
# 6 0.003872 0.008220 -0.005147 -0.001233 -0.006046 0.042763
#
#
# Mechanical properties :
#
#
# Convention : Reuss Voigt Hill
#
# Bulk Modulus (GPa) = 39.86611 49.95503 44.91057
# Shear Modulus (GPa) = 26.53212 30.77421 28.65317
#
# Velocity S-wave (km/s) = 3.69141 3.97557 3.83612
# Velocity P-wave (km/s) = 6.21637 6.83591 6.53349
#
# Compressibility (1/GPa) = 0.02508396
#
# Stress axis : x y z
#
# Youngs Moduli (GPa) = 75.36354 53.01151 76.95445
#
# Poissons Ratio (x) = 0.04513 0.47881
# Poissons Ratio (y) = 0.06416 0.22689
# Poissons Ratio (z) = 0.46892 0.15630
#
# Static dielectric constant tensor:
#      x y z
#    x 3.502840 -0.077200 0.106140 
#    y -0.077200 3.322130 0.028010 
#    z 0.106140 0.028010 3.597420 
# 
# 
# High freq. dielectric constant tensor:
#      x y z
#    x 1.752750 -0.009480 -0.003910 
#    y -0.009480 1.744570 -0.002180 
#    z -0.003910 -0.002180 1.763570 
# 
# From -- ./inp_files/465944.got.cif
#   From: 2010.06.25/outbox.cif.g09.slc.cpg/sg2_233_cif.got.tgz:465944.got - 2010.06.27 13:26:56.
