data_PCOD8002428
_publ_section_title
;
Structure prediction by ZEFSAII (Michael W. Deem and Ramdas Pophale) SiO2 
 PCOD8002428
Probable space group: P -1
;
_chemical_formula_sum "Si O2"
_cell_formula_units_Z 16
_cell_length_a 11.134348
_cell_length_b 14.548786
_cell_length_c 9.124914
_cell_angle_alpha 120.755421
_cell_angle_beta 140.003237
_cell_angle_gamma 79.674587
_cell_volume 753.605906
_symmetry_space_group_name_H-M "P -1"
_symmetry_group_IT_number 2
_symmetry_cell_setting 'triclinic'
loop_
_space_group_symop_operation_xyz
x,y,z
-x,-y,-z
loop_
_atom_site_type_symbol
_atom_site_label
_atom_site_fract_x
_atom_site_fract_y
_atom_site_fract_z
Si Si1 0.393105 0.259342 0.495056
Si Si2 0.537709 0.744958 0.110002
Si Si3 0.417643 0.884939 0.630742
Si Si4 0.518126 0.527409 0.756186
Si Si5 0.164528 0.450606 0.153057
Si Si6 0.306896 0.863322 0.842935
Si Si7 0.973088 0.789492 0.065129
Si Si8 0.910153 0.869717 0.367043
O O1 0.424047 0.226092 0.660685
O O2 0.518460 0.210588 0.464797
O O3 0.466099 0.397467 0.657931
O O4 0.153232 0.195957 0.180823
O O5 0.333295 0.762408 0.884404
O O6 0.713082 0.841988 0.259094
O O7 0.524396 0.614636 0.964811
O O8 0.205575 0.879218 0.356044
O O9 0.580855 0.014510 0.868942
O O10 0.394183 0.857818 0.759012
O O11 0.352664 0.536348 0.493759
O O12 0.740103 0.576331 0.929441
O O13 0.000000 0.500000 0.000000
O O14 0.038023 0.340889 0.045465
O O15 0.071213 0.839806 0.591138
O O16 0.851409 0.796517 0.103680
O O17 0.000000 0.000000 0.500000
#
# Coordination Sequence:
#
# PCOD8002428 Si02
#       8
#     2   2   2   2   2   2   2   2
#     4  11  24  40  60  89 130 169 199 247 307 375
#     4  12  24  40  62  91 130 166 201 247 312 375
#     4  10  21  41  64  90 121 155 210 261 310 355
#     4  10  23  38  59  91 127 161 204 247 303 370
#     4  10  20  35  61  93 115 153 207 261 299 345
#     4  10  23  39  65  93 118 159 210 264 307 356
#     4  10  20  37  61  88 117 157 203 254 302 355
#     4  11  22  41  65  90 120 155 209 262 306 354
#
# _framework density 21.231255999999998
#
# number of rings (size 3 to 8) (size 9 to 14) (size 15 to 20)
#    0.000    1.500    1.250    4.875    7.000    1.500 
#    0.000    4.375    0.000    6.000    0.000    0.000 
#    0.000    0.000    0.000    0.000    0.000    0.000 
#
# Total GULP energy -198365.229380 kJ/mol
# GULP energy per Si atom -12397.826836 kJ/mol
# Density = 2.118293 g / cm^3
# Si number density = 21.231256 Si / 1000 Ang^3
#
#
#
# Elastic Constant Matrix: (Units=GPa)
#
#
# Indices 1 2 3 4 5 6 
#
# 1 44.6020 29.6312 29.2820 -9.5169 -4.0643 -11.3653
# 2 29.6312 102.1579 40.2047 -16.7829 -10.5388 -14.9524
# 3 29.2820 40.2047 99.3226 -13.4765 -11.6640 -7.7695
# 4 -9.5169 -16.7829 -13.4765 43.9093 1.8649 2.9512
# 5 -4.0643 -10.5388 -11.6640 1.8649 22.9598 -0.6357
# 6 -11.3653 -14.9524 -7.7695 2.9512 -0.6357 24.9877
#
#
#
# Elastic Compliance Matrix: (Units=1/GPa)
#
#
# Indices 1 2 3 4 5 6 
#
# 1 0.033201 -0.005195 -0.006559 0.002539 0.000222 0.009659
# 2 -0.005195 0.014034 -0.002917 0.002847 0.003945 0.004892
# 3 -0.006559 -0.002917 0.013875 0.001567 0.004408 -0.000488
# 4 0.002539 0.002847 0.001567 0.024842 0.000546 0.000425
# 5 0.000222 0.003945 0.004408 0.000546 0.047737 0.004982
# 6 0.009659 0.004892 -0.000488 0.000425 0.004982 0.047265
#
#
# Mechanical properties :
#
#
# Convention : Reuss Voigt Hill
#
# Bulk Modulus (GPa) = 31.47887 49.36868 40.42377
# Shear Modulus (GPa) = 22.63606 28.16901 25.40254
#
# Velocity S-wave (km/s) = 3.26876 3.64644 3.46275
# Velocity P-wave (km/s) = 5.39493 6.40562 5.92188
#
# Compressibility (1/GPa) = 0.03176734
#
# Stress axis : x y z
#
# Youngs Moduli (GPa) = 30.11938 71.25413 72.07202
#
# Poissons Ratio (x) = 0.37017 0.47275
# Poissons Ratio (y) = 0.15647 0.21025
# Poissons Ratio (z) = 0.19756 0.20786
#
# Static dielectric constant tensor:
#      x y z
#    x 3.554140 -0.217670 0.070960 
#    y -0.217670 3.939770 0.110060 
#    z 0.070960 0.110060 4.156710 
# 
# 
# High freq. dielectric constant tensor:
#      x y z
#    x 1.799990 -0.021470 0.005140 
#    y -0.021470 1.837430 -0.000150 
#    z 0.005140 -0.000150 1.843810 
# 
# From -- ./inp_files/258542.got.cif
#   From: 2010.06.25/outbox.cif.g09.slc.cpg/sg2_130_cif.got.tgz:258542.got - 2010.06.27 13:26:56.
