data_PCOD8002199
_publ_section_title
;
Structure prediction by ZEFSAII (Michael W. Deem and Ramdas Pophale) SiO2 
 PCOD8002199
Probable space group: P -1
;
_chemical_formula_sum "Si O2"
_cell_formula_units_Z 16
_cell_length_a 7.041442
_cell_length_b 10.171747
_cell_length_c 17.358717
_cell_angle_alpha 123.808947
_cell_angle_beta 78.876234
_cell_angle_gamma 130.935605
_cell_volume 750.670162
_symmetry_space_group_name_H-M "P -1"
_symmetry_group_IT_number 2
_symmetry_cell_setting 'triclinic'
loop_
_space_group_symop_operation_xyz
x,y,z
-x,-y,-z
loop_
_atom_site_type_symbol
_atom_site_label
_atom_site_fract_x
_atom_site_fract_y
_atom_site_fract_z
Si Si1 0.469885 0.992738 0.609080
Si Si2 0.635899 0.553663 0.715274
Si Si3 0.646911 0.282690 0.228166
Si Si4 0.276199 0.103055 0.539132
Si Si5 0.669345 0.146916 0.958144
Si Si6 0.929523 0.365242 0.383848
Si Si7 0.174313 0.550599 0.208184
Si Si8 0.722978 0.489236 0.976002
O O1 0.557859 0.862834 0.536845
O O2 0.303942 0.885903 0.664337
O O3 0.272659 0.948025 0.544147
O O4 0.712412 0.243030 0.682905
O O5 0.564670 0.697114 0.762588
O O6 0.376671 0.308749 0.644975
O O7 0.826556 0.608064 0.649209
O O8 0.764233 0.582640 0.797273
O O9 0.817742 0.404424 0.332611
O O10 0.859456 0.398430 0.178973
O O11 0.475511 0.027904 0.156626
O O12 0.000000 0.000000 0.500000
O O13 0.666291 0.334369 0.999957
O O14 0.981328 0.272822 0.972712
O O15 0.500000 0.000000 0.000000
O O16 0.000000 0.500000 0.500000
O O17 0.303781 0.622307 0.137847
O O18 0.500000 0.500000 0.000000
#
# Coordination Sequence:
#
# PCOD8002199 Si02
#       8
#     2   2   2   2   2   2   2   2
#     4  10  21  37  57  82 126 162 213 274 320 391
#     4  10  23  38  63  94 123 176 225 263 337 406
#     4  11  24  42  67  94 137 176 220 280 340 403
#     4  10  20  35  57  85 114 165 215 262 325 385
#     4  11  25  47  71 108 142 180 226 290 354 409
#     4  11  23  40  60  90 132 173 219 277 335 396
#     4  10  22  42  63  94 132 174 222 279 336 401
#     4  11  26  45  76 106 139 179 231 282 350 427
#
# _framework density 21.314288000000001
#
# number of rings (size 3 to 8) (size 9 to 14) (size 15 to 20)
#    0.000    1.500    2.500    1.500    5.250    5.000 
#    0.000    2.500    0.000    0.000    0.000    0.000 
#    0.000    0.000    0.000    0.000    0.000    0.000 
#
# Total GULP energy -198226.571306 kJ/mol
# GULP energy per Si atom -12389.160707 kJ/mol
# Density = 2.126578 g / cm^3
# Si number density = 21.314288 Si / 1000 Ang^3
#
#
#
# Elastic Constant Matrix: (Units=GPa)
#
#
# Indices 1 2 3 4 5 6 
#
# 1 152.0098 52.4062 32.6444 -1.2651 -6.1353 7.1534
# 2 52.4062 118.4831 26.5285 -8.4737 -3.6410 9.3210
# 3 32.6444 26.5285 79.7690 -2.4065 3.3997 0.7229
# 4 -1.2651 -8.4737 -2.4065 34.5045 4.0629 -1.4957
# 5 -6.1353 -3.6410 3.3997 4.0629 24.2001 3.4113
# 6 7.1534 9.3210 0.7229 -1.4957 3.4113 24.8124
#
#
#
# Elastic Compliance Matrix: (Units=1/GPa)
#
#
# Indices 1 2 3 4 5 6 
#
# 1 0.008312 -0.002980 -0.002527 -0.000955 0.002399 -0.001591
# 2 -0.002980 0.010709 -0.002305 0.002073 0.001275 -0.003147
# 3 -0.002527 -0.002305 0.014492 0.000826 -0.003400 0.001690
# 4 -0.000955 0.002073 0.000826 0.030239 -0.005410 0.002039
# 5 0.002399 0.001275 -0.003400 -0.005410 0.044569 -0.007525
# 6 -0.001591 -0.003147 0.001690 0.002039 -0.007525 0.043051
#
#
# Mechanical properties :
#
#
# Convention : Reuss Voigt Hill
#
# Bulk Modulus (GPa) = 55.90345 63.71333 59.80839
# Shear Modulus (GPa) = 28.90828 32.61558 30.76193
#
# Velocity S-wave (km/s) = 3.68677 3.91605 3.80314
# Velocity P-wave (km/s) = 6.66395 7.09961 6.88522
#
# Compressibility (1/GPa) = 0.01788798
#
# Stress axis : x y z
#
# Youngs Moduli (GPa) = 120.30181 93.37575 69.00552
#
# Poissons Ratio (x) = 0.27828 0.17439
# Poissons Ratio (y) = 0.35853 0.15907
# Poissons Ratio (z) = 0.30403 0.21525
#
# Static dielectric constant tensor:
#      x y z
#    x 4.182290 0.111520 0.071220 
#    y 0.111520 4.067430 -0.079200 
#    z 0.071220 -0.079200 3.899540 
# 
# 
# High freq. dielectric constant tensor:
#      x y z
#    x 1.833720 0.012410 0.011790 
#    y 0.012410 1.838140 -0.001130 
#    z 0.011790 -0.001130 1.834440 
# 
# From -- ./inp_files/548305.got.cif
#   From: 2010.06.25/outbox.cif.g09.slc.cpg/sg2_275_cif.got.tgz:548305.got - 2010.06.27 13:26:56.
