data_PCOD8002046
_publ_section_title
;
Structure prediction by ZEFSAII (Michael W. Deem and Ramdas Pophale) SiO2 
 PCOD8002046
Probable space group: P -1
;
_chemical_formula_sum "Si O2"
_cell_formula_units_Z 16
_cell_length_a 16.969440
_cell_length_b 13.315727
_cell_length_c 8.914756
_cell_angle_alpha 68.620879
_cell_angle_beta 92.872702
_cell_angle_gamma 33.701097
_cell_volume 759.270373
_symmetry_space_group_name_H-M "P -1"
_symmetry_group_IT_number 2
_symmetry_cell_setting 'triclinic'
loop_
_space_group_symop_operation_xyz
x,y,z
-x,-y,-z
loop_
_atom_site_type_symbol
_atom_site_label
_atom_site_fract_x
_atom_site_fract_y
_atom_site_fract_z
Si Si1 0.608284 0.634302 0.048554
Si Si2 0.775896 0.176015 0.826823
Si Si3 0.397043 0.101241 0.113897
Si Si4 0.784224 0.872053 0.399402
Si Si5 0.198382 0.356241 0.665339
Si Si6 0.420715 0.900432 0.447402
Si Si7 0.798678 0.350723 0.931359
Si Si8 0.528638 0.617479 0.343213
O O1 0.634321 0.560162 0.260524
O O2 0.619884 0.748669 0.969065
O O3 0.774450 0.378350 0.094681
O O4 0.397621 0.851484 0.857470
O O5 0.776924 0.255574 0.924124
O O6 0.698134 0.333165 0.585236
O O7 0.637330 0.250211 0.818327
O O8 0.992537 0.862654 0.980911
O O9 0.623565 0.783963 0.273276
O O10 0.355719 0.100077 0.272308
O O11 0.257961 0.225153 0.902901
O O12 0.817327 0.707624 0.438527
O O13 0.989237 0.677669 0.491178
O O14 0.743541 0.928956 0.542289
O O15 0.632332 0.636615 0.690396
O O16 0.419557 0.822643 0.348092
#
# Coordination Sequence:
#
# PCOD8002046 Si02
#       8
#     2   2   2   2   2   2   2   2
#     4  10  21  36  55  81 111 143 179 216 264 322
#     4   9  20  39  59  80 106 136 178 229 275 317
#     4  10  20  35  53  78 113 147 178 215 257 314
#     4   9  19  33  49  73 104 140 182 218 253 305
#     4   9  18  33  49  68 103 145 181 214 252 297
#     4  10  20  35  55  79 111 146 178 215 263 317
#     4   9  20  38  58  82 107 137 179 224 271 321
#     4  10  20  36  58  81 107 140 177 223 273 318
#
# _framework density 21.072859999999999
#
# number of rings (size 3 to 8) (size 9 to 14) (size 15 to 20)
#    0.000    2.500    0.000    2.250    0.000    8.000 
#    0.000    5.000    0.000    0.000    0.000    0.000 
#    0.000    0.000    0.000    0.000    0.000    0.000 
#
# Total GULP energy -198262.961555 kJ/mol
# GULP energy per Si atom -12391.435097 kJ/mol
# Density = 2.102490 g / cm^3
# Si number density = 21.072860 Si / 1000 Ang^3
#
#
#
# Elastic Constant Matrix: (Units=GPa)
#
#
# Indices 1 2 3 4 5 6 
#
# 1 64.0397 22.2628 20.0618 4.1921 -0.3852 5.5580
# 2 22.2628 121.0329 26.0089 11.9554 2.7922 9.0120
# 3 20.0618 26.0089 42.4563 10.9705 -3.2402 4.8869
# 4 4.1921 11.9554 10.9705 36.7997 -6.9422 7.3574
# 5 -0.3852 2.7922 -3.2402 -6.9422 30.9781 1.2436
# 6 5.5580 9.0120 4.8869 7.3574 1.2436 12.8243
#
#
#
# Elastic Compliance Matrix: (Units=1/GPa)
#
#
# Indices 1 2 3 4 5 6 
#
# 1 0.018955 -0.001599 -0.007826 0.001749 0.000159 -0.005127
# 2 -0.001599 0.010008 -0.004757 -0.001205 -0.001542 -0.003686
# 3 -0.007826 -0.004757 0.032222 -0.006286 0.002380 -0.002168
# 4 0.001749 -0.001205 -0.006286 0.034321 0.007886 -0.017971
# 5 0.000159 -0.001542 0.002380 0.007886 0.034750 -0.007786
# 6 -0.005127 -0.003686 -0.002168 -0.017971 -0.007786 0.094681
#
#
# Mechanical properties :
#
#
# Convention : Reuss Voigt Hill
#
# Bulk Modulus (GPa) = 30.47079 40.46619 35.46849
# Shear Modulus (GPa) = 18.92217 26.73346 22.82781
#
# Velocity S-wave (km/s) = 2.99982 3.56563 3.29489
# Velocity P-wave (km/s) = 5.14681 6.01634 5.59848
#
# Compressibility (1/GPa) = 0.03281831
#
# Stress axis : x y z
#
# Youngs Moduli (GPa) = 52.75780 99.92329 31.03517
#
# Poissons Ratio (x) = 0.15981 0.24289
# Poissons Ratio (y) = 0.08438 0.14764
# Poissons Ratio (z) = 0.41290 0.47534
#
# Static dielectric constant tensor:
#      x y z
#    x 3.543460 -0.042250 0.275030 
#    y -0.042250 3.971540 0.011890 
#    z 0.275030 0.011890 3.932480 
# 
# 
# High freq. dielectric constant tensor:
#      x y z
#    x 1.795040 0.001350 0.019670 
#    y 0.001350 1.831670 0.007070 
#    z 0.019670 0.007070 1.816810 
# 
# From -- ./inp_files/207279.got.cif
#   From: 2010.06.25/outbox.cif.g09.slc.cpg/sg2_104_cif.got.tgz:207279.got - 2010.06.27 13:26:56.
