data_PCOD8002083
_publ_section_title
;
Structure prediction by ZEFSAII (Michael W. Deem and Ramdas Pophale) SiO2 
 PCOD8002083
Probable space group: P -1
;
_chemical_formula_sum "Si O2"
_cell_formula_units_Z 16
_cell_length_a 13.613905
_cell_length_b 28.829058
_cell_length_c 7.696472
_cell_angle_alpha 133.232631
_cell_angle_beta 130.196860
_cell_angle_gamma 19.865441
_cell_volume 747.851251
_symmetry_space_group_name_H-M "P -1"
_symmetry_group_IT_number 2
_symmetry_cell_setting 'triclinic'
loop_
_space_group_symop_operation_xyz
x,y,z
-x,-y,-z
loop_
_atom_site_type_symbol
_atom_site_label
_atom_site_fract_x
_atom_site_fract_y
_atom_site_fract_z
Si Si1 0.205428 0.167556 0.638713
Si Si2 0.750916 0.709566 0.530433
Si Si3 0.557890 0.482629 0.297278
Si Si4 0.927942 0.399804 0.727778
Si Si5 0.435431 0.348742 0.841325
Si Si6 0.504244 0.938363 0.967824
Si Si7 0.259234 0.521428 0.838649
Si Si8 0.092918 0.778475 0.820259
O O1 0.181682 0.242548 0.689006
O O2 0.932450 0.242751 0.458365
O O3 0.500000 0.000000 0.500000
O O4 0.214353 0.179718 0.885952
O O5 0.955405 0.622966 0.375828
O O6 0.576420 0.721350 0.366957
O O7 0.523455 0.868028 0.685576
O O8 0.945729 0.631248 0.725014
O O9 0.605724 0.504656 0.240035
O O10 0.814242 0.316283 0.174839
O O11 0.612537 0.501740 0.585335
O O12 0.262384 0.570906 0.141283
O O13 0.861381 0.489526 0.004170
O O14 0.461813 0.371333 0.740218
O O15 0.701190 0.250850 0.018529
O O16 0.500000 0.000000 0.000000
O O17 0.221039 0.057176 0.065158
#
# Coordination Sequence:
#
# PCOD8002083 Si02
#       8
#     2   2   2   2   2   2   2   2
#     4   9  18  35  59  83 105 134 180 229 271 316
#     4  11  22  35  53  79 112 146 183 221 266 326
#     4   8  16  32  53  80 109 134 174 229 271 312
#     4  10  20  35  55  78 108 146 183 223 269 317
#     4  11  22  35  52  77 114 152 180 217 267 326
#     4  11  21  37  62  83 104 136 177 231 277 318
#     4   9  17  31  52  79 108 137 176 222 270 313
#     4   9  20  36  55  82 110 140 182 222 271 322
#
# _framework density 21.394628999999998
#
# number of rings (size 3 to 8) (size 9 to 14) (size 15 to 20)
#    0.000    2.250    0.000    4.500    0.000    6.000 
#    0.000    2.500    0.000    6.750    0.000    0.000 
#    0.000    0.000    0.000    0.000    0.000    0.000 
#
# Total GULP energy -198257.987701 kJ/mol
# GULP energy per Si atom -12391.124231 kJ/mol
# Density = 2.134593 g / cm^3
# Si number density = 21.394629 Si / 1000 Ang^3
#
#
#
# Elastic Constant Matrix: (Units=GPa)
#
#
# Indices 1 2 3 4 5 6 
#
# 1 68.6806 36.7722 61.1193 -8.0595 18.1212 17.6440
# 2 36.7722 72.4184 53.6973 -18.1983 10.9652 20.6262
# 3 61.1193 53.6973 158.2115 -6.8076 27.2818 15.1027
# 4 -8.0595 -18.1983 -6.8076 35.9626 2.5290 0.9751
# 5 18.1212 10.9652 27.2818 2.5290 38.1021 -1.0570
# 6 17.6440 20.6262 15.1027 0.9751 -1.0570 23.1361
#
#
#
# Elastic Compliance Matrix: (Units=1/GPa)
#
#
# Indices 1 2 3 4 5 6 
#
# 1 0.029366 -0.002247 -0.007273 0.005135 -0.008905 -0.016268
# 2 -0.002247 0.029808 -0.005659 0.014460 -0.005028 -0.022006
# 3 -0.007273 -0.005659 0.011082 -0.002303 -0.002602 0.003336
# 4 0.005135 0.014460 -0.002303 0.036859 -0.007878 -0.017217
# 5 -0.008905 -0.005028 -0.002602 -0.007878 0.034726 0.014890
# 6 -0.016268 -0.022006 0.003336 -0.017217 0.014890 0.074476
#
#
# Mechanical properties :
#
#
# Convention : Reuss Voigt Hill
#
# Bulk Modulus (GPa) = 25.06288 66.94313 46.00300
# Shear Modulus (GPa) = 19.23253 29.28827 24.26040
#
# Velocity S-wave (km/s) = 3.00149 3.70395 3.37107
# Velocity P-wave (km/s) = 4.87359 7.04627 6.05813
#
# Compressibility (1/GPa) = 0.03989964
#
# Stress axis : x y z
#
# Youngs Moduli (GPa) = 34.05251 33.54750 90.23524
#
# Poissons Ratio (x) = 0.07537 0.65626
# Poissons Ratio (y) = 0.07651 0.51066
# Poissons Ratio (z) = 0.24765 0.18985
#
# Static dielectric constant tensor:
#      x y z
#    x 3.633570 0.113810 -0.158960 
#    y 0.113810 4.258470 -0.363140 
#    z -0.158960 -0.363140 4.263990 
# 
# 
# High freq. dielectric constant tensor:
#      x y z
#    x 1.816680 0.010790 -0.016390 
#    y 0.010790 1.844500 -0.012430 
#    z -0.016390 -0.012430 1.849920 
# 
# From -- ./inp_files/321103.got.cif
#   From: 2010.06.25/outbox.cif.g09.slc.cpg/sg2_161_cif.got.tgz:321103.got - 2010.06.27 13:26:56.
