data_PCOD8002079
_publ_section_title
;
Structure prediction by ZEFSAII (Michael W. Deem and Ramdas Pophale) SiO2 
 PCOD8002079
Probable space group: P -1
;
_chemical_formula_sum "Si O2"
_cell_formula_units_Z 14
_cell_length_a 10.008305
_cell_length_b 18.212080
_cell_length_c 11.174519
_cell_angle_alpha 139.845370
_cell_angle_beta 110.988415
_cell_angle_gamma 39.659774
_cell_volume 694.851887
_symmetry_space_group_name_H-M "P -1"
_symmetry_group_IT_number 2
_symmetry_cell_setting 'triclinic'
loop_
_space_group_symop_operation_xyz
x,y,z
-x,-y,-z
loop_
_atom_site_type_symbol
_atom_site_label
_atom_site_fract_x
_atom_site_fract_y
_atom_site_fract_z
Si Si1 0.201699 0.432439 0.736087
Si Si2 0.591168 0.124808 0.659333
Si Si3 0.226595 0.160594 0.331268
Si Si4 0.594371 0.309333 0.309326
Si Si5 0.875563 0.459871 0.409935
Si Si6 0.286800 0.180149 0.808364
Si Si7 0.881230 0.004620 0.808912
O O1 0.465142 0.274402 0.694476
O O2 0.139775 0.340317 0.576800
O O3 0.211740 0.505491 0.711266
O O4 0.990699 0.616812 0.984524
O O5 0.379259 0.223999 0.810654
O O6 0.786926 0.080830 0.736158
O O7 0.731154 0.921705 0.402656
O O8 0.101126 0.228148 0.242075
O O9 0.530622 0.954007 0.182470
O O10 0.109734 0.137066 0.343560
O O11 0.500000 0.500000 0.500000
O O12 0.366126 0.386376 0.388257
O O13 0.681458 0.199883 0.074294
O O14 0.833606 0.138484 0.262327
O O15 0.000000 0.500000 0.500000
#
# Coordination Sequence:
#
# PCOD8002079 Si02
#       7
#     2   2   2   2   2   2   2
#     4  10  20  35  54  88 125 156 184 239 300 346
#     4   9  19  34  53  86 113 152 202 237 282 350
#     4   9  19  34  54  90 114 152 195 235 287 345
#     4  11  23  42  61  88 116 153 204 243 285 355
#     4  10  22  38  58  89 125 151 191 242 299 349
#     4   9  18  32  54  84 122 151 197 237 287 346
#     4  10  22  38  64  84 113 156 203 242 291 331
#
# _framework density 20.148178000000001
#
# number of rings (size 3 to 8) (size 9 to 14) (size 15 to 20)
#    0.000    2.286    1.429    1.286    8.000    1.714 
#    5.143    0.714    0.000    1.714    0.000    0.000 
#    0.000    0.000    0.000    0.000    0.000    0.000 
#
# Total GULP energy -173451.487575 kJ/mol
# GULP energy per Si atom -12389.391970 kJ/mol
# Density = 2.010232 g / cm^3
# Si number density = 20.148178 Si / 1000 Ang^3
#
#
#
# Elastic Constant Matrix: (Units=GPa)
#
#
# Indices 1 2 3 4 5 6 
#
# 1 55.4303 21.1023 22.7018 2.1940 -5.6138 -6.1390
# 2 21.1023 169.6259 28.5892 -9.4016 11.8066 6.2689
# 3 22.7018 28.5892 70.8760 0.0854 -4.7708 -0.2959
# 4 2.1940 -9.4016 0.0854 16.7019 -0.9579 -0.2872
# 5 -5.6138 11.8066 -4.7708 -0.9579 10.1273 -1.0016
# 6 -6.1390 6.2689 -0.2959 -0.2872 -1.0016 29.8317
#
#
#
# Elastic Compliance Matrix: (Units=1/GPa)
#
#
# Indices 1 2 3 4 5 6 
#
# 1 0.023915 -0.003630 -0.005137 -0.004177 0.015277 0.006106
# 2 -0.003630 0.008072 -0.002965 0.004258 -0.012700 -0.002858
# 3 -0.005137 -0.002965 0.017545 -0.000578 0.008823 0.000031
# 4 -0.004177 0.004258 -0.000578 0.062702 -0.001742 -0.001215
# 5 0.015277 -0.012700 0.008823 -0.001742 0.127013 0.010148
# 6 0.006106 -0.002858 0.000031 -0.001215 0.010148 0.035708
#
#
# Mechanical properties :
#
#
# Convention : Reuss Voigt Hill
#
# Bulk Modulus (GPa) = 38.36066 48.96876 43.66471
# Shear Modulus (GPa) = 16.28084 26.23476 21.25780
#
# Velocity S-wave (km/s) = 2.84572 3.61236 3.25171
# Velocity P-wave (km/s) = 5.46608 6.46189 5.98473
#
# Compressibility (1/GPa) = 0.02606837
#
# Stress axis : x y z
#
# Youngs Moduli (GPa) = 41.81411 123.88042 56.99492
#
# Poissons Ratio (x) = 0.44968 0.29279
# Poissons Ratio (y) = 0.15178 0.16901
# Poissons Ratio (z) = 0.21480 0.36735
#
# Static dielectric constant tensor:
#      x y z
#    x 3.448860 0.253150 0.064960 
#    y 0.253150 4.846700 0.087950 
#    z 0.064960 0.087950 3.511180 
# 
# 
# High freq. dielectric constant tensor:
#      x y z
#    x 1.740730 -0.000240 0.006640 
#    y -0.000240 1.813430 0.010060 
#    z 0.006640 0.010060 1.771050 
# 
# From -- ./inp_files/362762.got.cif
#   From: 2010.06.25/outbox.cif.g09.slc.cpg/sg2_182_cif.got.tgz:362762.got - 2010.06.27 13:26:56.
