data_PCOD8002489
_publ_section_title
;
Structure prediction by ZEFSAII (Michael W. Deem and Ramdas Pophale) SiO2 
 PCOD8002489
Probable space group: P -1
;
_chemical_formula_sum "Si O2"
_cell_formula_units_Z 14
_cell_length_a 5.431176
_cell_length_b 14.700727
_cell_length_c 11.450521
_cell_angle_alpha 126.158250
_cell_angle_beta 98.219929
_cell_angle_gamma 103.055774
_cell_volume 673.249157
_symmetry_space_group_name_H-M "P -1"
_symmetry_group_IT_number 2
_symmetry_cell_setting 'triclinic'
loop_
_space_group_symop_operation_xyz
x,y,z
-x,-y,-z
loop_
_atom_site_type_symbol
_atom_site_label
_atom_site_fract_x
_atom_site_fract_y
_atom_site_fract_z
Si Si1 0.413425 0.327020 0.766194
Si Si2 0.309224 0.783586 0.142898
Si Si3 0.102837 0.210284 0.436681
Si Si4 0.240779 0.408931 0.056223
Si Si5 0.450086 0.796415 0.691945
Si Si6 0.383574 0.225343 0.063360
Si Si7 0.872456 0.026508 0.807617
O O1 0.536968 0.227931 0.738039
O O2 0.172412 0.262648 0.611114
O O3 0.645268 0.445231 0.812405
O O4 0.297312 0.368386 0.901950
O O5 0.189466 0.888440 0.230577
O O6 0.496564 0.824283 0.073073
O O7 0.082482 0.648605 0.996628
O O8 0.376393 0.266394 0.417576
O O9 0.859820 0.247122 0.403507
O O10 0.008208 0.062452 0.318421
O O11 0.371163 0.354732 0.125469
O O12 0.438806 0.756325 0.795086
O O13 0.604468 0.943757 0.799545
O O14 0.085603 0.119141 0.983245
#
# Coordination Sequence:
#
# PCOD8002489 Si02
#       7
#     2   2   2   2   2   2   2
#     4  10  21  41  60  84 123 152 210 248 301 358
#     4  10  20  35  63  89 116 155 203 254 297 348
#     4  10  24  39  60  90 125 163 195 243 305 357
#     4   9  21  38  64  89 108 162 202 257 300 346
#     4  10  23  40  61  90 125 163 197 241 302 358
#     4  10  20  38  60  91 120 152 208 248 292 359
#     4   9  21  36  59  93 119 159 200 239 309 346
#
# _framework density 20.794681000000001
#
# number of rings (size 3 to 8) (size 9 to 14) (size 15 to 20)
#    0.857    1.429    0.000    1.714    6.000    1.714 
#    0.000    8.571    0.000    0.000    0.000    0.000 
#    0.000    0.000    0.000    0.000    0.000    0.000 
#
# Total GULP energy -173497.601453 kJ/mol
# GULP energy per Si atom -12392.685818 kJ/mol
# Density = 2.074735 g / cm^3
# Si number density = 20.794681 Si / 1000 Ang^3
#
#
#
# Elastic Constant Matrix: (Units=GPa)
#
#
# Indices 1 2 3 4 5 6 
#
# 1 96.0324 27.4899 37.9771 -14.2354 26.8036 -7.8260
# 2 27.4899 95.8593 54.9151 -22.8241 11.6238 -6.0163
# 3 37.9771 54.9151 105.1696 -31.5410 28.2595 -20.6443
# 4 -14.2354 -22.8241 -31.5410 19.4790 -13.2044 9.5265
# 5 26.8036 11.6238 28.2595 -13.2044 27.2240 -3.8409
# 6 -7.8260 -6.0163 -20.6443 9.5265 -3.8409 22.7297
#
#
#
# Elastic Compliance Matrix: (Units=1/GPa)
#
#
# Indices 1 2 3 4 5 6 
#
# 1 0.015345 -0.003307 -0.000838 -0.006179 -0.015309 0.003650
# 2 -0.003307 0.018200 -0.007406 0.018828 0.011024 -0.009076
# 3 -0.000838 -0.007406 0.023608 0.016231 -0.011164 0.010504
# 4 -0.006179 0.018828 0.016231 0.143102 0.045716 -0.034654
# 5 -0.015309 0.011024 -0.011164 0.045716 0.078260 -0.018429
# 6 0.003650 -0.009076 0.010504 -0.034654 -0.018429 0.063800
#
#
# Mechanical properties :
#
#
# Convention : Reuss Voigt Hill
#
# Bulk Modulus (GPa) = 29.36754 59.75841 44.56297
# Shear Modulus (GPa) = 13.27083 25.66515 19.46799
#
# Velocity S-wave (km/s) = 2.52897 3.51695 3.06306
# Velocity P-wave (km/s) = 4.76244 6.72991 5.82978
#
# Compressibility (1/GPa) = 0.03405120
#
# Stress axis : x y z
#
# Youngs Moduli (GPa) = 65.16627 54.94646 42.35915
#
# Poissons Ratio (x) = 0.18168 0.03549
# Poissons Ratio (y) = 0.21547 0.31373
# Poissons Ratio (z) = 0.05460 0.40695
#
# Static dielectric constant tensor:
#      x y z
#    x 3.696670 -0.030870 0.252390 
#    y -0.030870 3.813620 0.022180 
#    z 0.252390 0.022180 3.353610 
# 
# 
# High freq. dielectric constant tensor:
#      x y z
#    x 1.811750 -0.003910 0.022410 
#    y -0.003910 1.812850 -0.004800 
#    z 0.022410 -0.004800 1.779180 
# 
# From -- ./inp_files/123329.got.cif
#   From: 2010.06.25/outbox.cif.g09.slc.cpg/sg2_62_cif.got.tgz:123329.got - 2010.06.27 13:26:56.
