data_PCOD8002439
_publ_section_title
;
Structure prediction by ZEFSAII (Michael W. Deem and Ramdas Pophale) SiO2 
 PCOD8002439
Probable space group: P -1
;
_chemical_formula_sum "Si O2"
_cell_formula_units_Z 14
_cell_length_a 8.963722
_cell_length_b 9.120658
_cell_length_c 8.966021
_cell_angle_alpha 122.660288
_cell_angle_beta 87.460107
_cell_angle_gamma 94.348452
_cell_volume 615.334909
_symmetry_space_group_name_H-M "P -1"
_symmetry_group_IT_number 2
_symmetry_cell_setting 'triclinic'
loop_
_space_group_symop_operation_xyz
x,y,z
-x,-y,-z
loop_
_atom_site_type_symbol
_atom_site_label
_atom_site_fract_x
_atom_site_fract_y
_atom_site_fract_z
Si Si1 0.363113 0.376677 0.882738
Si Si2 0.600075 0.012749 0.359540
Si Si3 0.913807 0.848495 0.824009
Si Si4 0.573782 0.860468 0.826031
Si Si5 0.478537 0.514571 0.333886
Si Si6 0.927839 0.151678 0.495486
Si Si7 0.827555 0.492926 0.792664
O O1 0.376715 0.392826 0.708600
O O2 0.379291 0.176196 0.820124
O O3 0.500000 0.500000 0.000000
O O4 0.214364 0.451954 0.004514
O O5 0.512738 0.146083 0.332570
O O6 0.759405 0.094227 0.438250
O O7 0.500000 0.000000 0.500000
O O8 0.749539 0.909242 0.825735
O O9 0.908269 0.663993 0.808337
O O10 0.992128 0.815114 0.646532
O O11 0.000000 0.000000 0.000000
O O12 0.544757 0.685987 0.827841
O O13 0.500000 0.000000 0.000000
O O14 0.500000 0.500000 0.500000
O O15 0.320293 0.588594 0.334597
O O16 0.937066 0.332051 0.692188
O O17 0.000000 0.000000 0.500000
#
# Coordination Sequence:
#
# PCOD8002439 Si02
#       7
#     2   2   2   2   2   2   2
#     4  10  20  38  62  91 129 168 211 269 327 385
#     4  12  23  41  66  96 130 168 216 270 322 388
#     4  11  24  44  67  96 134 172 216 270 333 400
#     4  11  22  39  65  95 124 164 210 260 320 387
#     4  10  20  35  61  96 126 158 208 266 323 379
#     4  12  26  44  65  95 131 175 223 276 334 391
#     4  10  22  43  63  87 129 177 217 265 325 396
#
# _framework density 22.751836999999998
#
# number of rings (size 3 to 8) (size 9 to 14) (size 15 to 20)
#    0.000    1.143    0.000    9.000    0.000    2.286 
#    0.000    7.143    0.000    0.000    0.000    0.000 
#    0.000    0.000    0.000    0.000    0.000    0.000 
#
# Total GULP energy -173503.499857 kJ/mol
# GULP energy per Si atom -12393.107133 kJ/mol
# Density = 2.270005 g / cm^3
# Si number density = 22.751837 Si / 1000 Ang^3
#
#
#
# Elastic Constant Matrix: (Units=GPa)
#
#
# Indices 1 2 3 4 5 6 
#
# 1 124.2456 60.6642 40.5080 3.8573 -13.6945 4.6970
# 2 60.6642 142.2675 50.0394 7.6366 -23.0788 0.9333
# 3 40.5080 50.0394 99.1262 5.8889 -33.2634 -2.3804
# 4 3.8573 7.6366 5.8889 50.9193 -0.7317 -9.1154
# 5 -13.6945 -23.0788 -33.2634 -0.7317 50.5295 -5.2798
# 6 4.6970 0.9333 -2.3804 -9.1154 -5.2798 40.0817
#
#
#
# Elastic Compliance Matrix: (Units=1/GPa)
#
#
# Indices 1 2 3 4 5 6 
#
# 1 0.010748 -0.003701 -0.002811 -0.000213 -0.000787 -0.001492
# 2 -0.003701 0.009938 -0.002912 -0.000841 0.001612 0.000050
# 3 -0.002811 -0.002912 0.015627 -0.000626 0.008425 0.002293
# 4 -0.000213 -0.000841 -0.000626 0.020695 -0.000063 0.004706
# 5 -0.000787 0.001612 0.008425 -0.000063 0.026277 0.004002
# 6 -0.001492 0.000050 0.002293 0.004706 0.004002 0.026856
#
#
# Mechanical properties :
#
#
# Convention : Reuss Voigt Hill
#
# Bulk Modulus (GPa) = 57.26114 74.22917 65.74515
# Shear Modulus (GPa) = 37.08887 42.60130 39.84509
#
# Velocity S-wave (km/s) = 4.04189 4.33186 4.18938
# Velocity P-wave (km/s) = 6.85601 7.59713 7.23606
#
# Compressibility (1/GPa) = 0.01746385
#
# Stress axis : x y z
#
# Youngs Moduli (GPa) = 93.03668 100.62710 63.99315
#
# Poissons Ratio (x) = 0.37241 0.17992
# Poissons Ratio (y) = 0.34431 0.18636
# Poissons Ratio (z) = 0.26157 0.29304
#
# Static dielectric constant tensor:
#      x y z
#    x 3.986970 0.434000 -0.482560 
#    y 0.434000 4.433400 0.189460 
#    z -0.482560 0.189460 4.452430 
# 
# 
# High freq. dielectric constant tensor:
#      x y z
#    x 1.881410 0.009190 -0.016700 
#    y 0.009190 1.916920 0.010030 
#    z -0.016700 0.010030 1.920110 
# 
# From -- ./inp_files/156700.got.cif
#   From: 2010.06.25/outbox.cif.g09.slc.cpg/sg2_79_cif.got.tgz:156700.got - 2010.06.27 13:26:56.
