data_PCOD8002970
_publ_section_title
;
Structure prediction by ZEFSAII (Michael W. Deem and Ramdas Pophale) SiO2 
 PCOD8002970
Probable space group: P -1
;
_chemical_formula_sum "Si O2"
_cell_formula_units_Z 14
_cell_length_a 8.130818
_cell_length_b 18.335107
_cell_length_c 20.922940
_cell_angle_alpha 19.696317
_cell_angle_beta 135.144514
_cell_angle_gamma 125.204485
_cell_volume 685.112270
_symmetry_space_group_name_H-M "P -1"
_symmetry_group_IT_number 2
_symmetry_cell_setting 'triclinic'
loop_
_space_group_symop_operation_xyz
x,y,z
-x,-y,-z
loop_
_atom_site_type_symbol
_atom_site_label
_atom_site_fract_x
_atom_site_fract_y
_atom_site_fract_z
Si Si1 0.204657 0.877377 0.863277
Si Si2 0.547992 0.398174 0.404846
Si Si3 0.140258 0.697784 0.806577
Si Si4 0.737085 0.929032 0.411097
Si Si5 0.131316 0.122242 0.775603
Si Si6 0.474339 0.647392 0.307513
Si Si7 0.228286 0.195625 0.265317
O O1 0.947075 0.840111 0.809127
O O2 0.269134 0.023925 0.704648
O O3 0.170390 0.032360 0.788395
O O4 0.434161 0.623697 0.141188
O O5 0.453081 0.197061 0.521493
O O6 0.452323 0.482083 0.380723
O O7 0.847352 0.286532 0.576685
O O8 0.021354 0.766061 0.646800
O O9 0.904153 0.787335 0.717046
O O10 0.333042 0.825166 0.772054
O O11 0.288518 0.423785 0.078749
O O12 0.284367 0.287992 0.692512
O O13 0.228887 0.893755 0.037789
O O14 0.500000 0.500000 0.500000
O O15 0.500000 0.000000 0.500000
#
# Coordination Sequence:
#
# PCOD8002970 Si02
#       7
#     2   2   2   2   2   2   2
#     4  10  22  38  56  87 122 155 199 249 293 351
#     4  11  22  39  63  87 121 158 197 243 297 356
#     4   9  20  38  55  82 120 156 203 252 293 345
#     4  10  20  38  60  83 120 160 198 250 297 342
#     4  10  23  39  62  90 119 155 195 241 299 357
#     4  10  22  42  63  90 122 150 191 246 297 358
#     4  10  20  36  61  83 116 163 202 247 301 344
#
# _framework density 20.434608000000001
#
# number of rings (size 3 to 8) (size 9 to 14) (size 15 to 20)
#    0.000    2.000    1.429    1.286    2.000    1.714 
#    0.000   13.571    0.000    0.000    0.000    0.000 
#    0.000    0.000    0.000    0.000    0.000    0.000 
#
# Total GULP energy -173565.873557 kJ/mol
# GULP energy per Si atom -12397.562397 kJ/mol
# Density = 2.038810 g / cm^3
# Si number density = 20.434608 Si / 1000 Ang^3
#
#
#
# Elastic Constant Matrix: (Units=GPa)
#
#
# Indices 1 2 3 4 5 6 
#
# 1 33.9755 9.2239 48.1513 6.1398 -5.3902 0.1259
# 2 9.2239 89.4476 35.5961 -1.5079 -3.3639 9.8771
# 3 48.1513 35.5961 158.6125 6.6170 -0.7583 0.1043
# 4 6.1398 -1.5079 6.6170 37.3452 1.1233 -10.6706
# 5 -5.3902 -3.3639 -0.7583 1.1233 42.1680 11.1145
# 6 0.1259 9.8771 0.1043 -10.6706 11.1145 23.7153
#
#
#
# Elastic Compliance Matrix: (Units=1/GPa)
#
#
# Indices 1 2 3 4 5 6 
#
# 1 0.056566 0.002372 -0.017260 -0.009336 0.010023 -0.010110
# 2 0.002372 0.013349 -0.003629 -0.001556 0.003415 -0.007857
# 3 -0.017260 -0.003629 0.012268 0.001732 -0.003349 0.003898
# 4 -0.009336 -0.001556 0.001732 0.033656 -0.007252 0.019232
# 5 0.010023 0.003415 -0.003349 -0.007252 0.030402 -0.018972
# 6 -0.010110 -0.007857 0.003898 0.019232 -0.018972 0.063021
#
#
# Mechanical properties :
#
#
# Convention : Reuss Voigt Hill
#
# Bulk Modulus (GPa) = 22.14978 51.99756 37.07367
# Shear Modulus (GPa) = 19.13166 33.25001 26.19083
#
# Velocity S-wave (km/s) = 3.06312 4.03816 3.58395
# Velocity P-wave (km/s) = 4.83458 6.87338 5.94208
#
# Compressibility (1/GPa) = 0.04514717
#
# Stress axis : x y z
#
# Youngs Moduli (GPa) = 17.67851 74.91013 81.51128
#
# Poissons Ratio (x) = -0.17767 1.40691
# Poissons Ratio (y) = -0.04193 0.29584
# Poissons Ratio (z) = 0.30514 0.27189
#
# Static dielectric constant tensor:
#      x y z
#    x 3.315650 -0.011440 -0.282930 
#    y -0.011440 4.030320 0.007580 
#    z -0.282930 0.007580 3.976490 
# 
# 
# High freq. dielectric constant tensor:
#      x y z
#    x 1.762570 0.000340 -0.020750 
#    y 0.000340 1.819420 -0.002570 
#    z -0.020750 -0.002570 1.814360 
# 
# From -- ./inp_files/503613.got.cif
#   From: 2010.06.25/outbox.cif.g09.slc.cpg/sg2_252_cif.got.tgz:503613.got - 2010.06.27 13:26:56.
