data_PCOD8002811
_publ_section_title
;
Structure prediction by ZEFSAII (Michael W. Deem and Ramdas Pophale) SiO2 
 PCOD8002811
Probable space group: P -1
;
_chemical_formula_sum "Si O2"
_cell_formula_units_Z 16
_cell_length_a 6.702516
_cell_length_b 9.779066
_cell_length_c 22.979100
_cell_angle_alpha 129.069088
_cell_angle_beta 121.303468
_cell_angle_gamma 47.983330
_cell_volume 856.216777
_symmetry_space_group_name_H-M "P -1"
_symmetry_group_IT_number 2
_symmetry_cell_setting 'triclinic'
loop_
_space_group_symop_operation_xyz
x,y,z
-x,-y,-z
loop_
_atom_site_type_symbol
_atom_site_label
_atom_site_fract_x
_atom_site_fract_y
_atom_site_fract_z
Si Si1 0.298451 0.388720 0.041421
Si Si2 0.699620 0.401387 0.588923
Si Si3 0.419978 0.356008 0.844716
Si Si4 0.638507 0.105136 0.582890
Si Si5 0.700437 0.113998 0.928970
Si Si6 0.933795 0.732295 0.929819
Si Si7 0.708064 0.794376 0.332320
Si Si8 0.256097 0.816711 0.582768
O O1 0.395832 0.546157 0.114412
O O2 0.301374 0.274761 0.070988
O O3 0.491987 0.229986 0.980456
O O4 0.000000 0.500000 0.000000
O O5 0.591679 0.298432 0.589893
O O6 0.472355 0.643009 0.613051
O O7 0.763476 0.287920 0.506713
O O8 0.982982 0.370888 0.646790
O O9 0.576694 0.160564 0.858488
O O10 0.353233 0.284965 0.756640
O O11 0.148456 0.507408 0.879468
O O12 0.498266 0.194398 0.647195
O O13 0.500000 0.000000 0.500000
O O14 0.956072 0.939091 0.598420
O O15 0.816893 0.873766 0.892754
O O16 0.930927 0.175063 0.982362
O O17 0.651089 0.022975 0.375781
#
# Coordination Sequence:
#
# PCOD8002811 Si02
#       8
#     2   2   2   2   2   2   2   2
#     4  11  18  36  62  86 112 147 196 241 281 340
#     4  10  21  38  62  87 113 151 197 242 291 348
#     4  11  23  37  56  82 117 158 185 236 302 343
#     4  11  19  37  61  90 116 151 196 244 290 346
#     4  10  20  36  59  86 109 151 193 236 285 341
#     4  10  20  37  60  83 114 146 197 239 278 342
#     4  11  23  39  57  83 125 154 192 245 300 350
#     4  10  21  38  62  87 112 152 197 241 290 350
#
# _framework density 18.686855999999999
#
# number of rings (size 3 to 8) (size 9 to 14) (size 15 to 20)
#    0.000    1.500    5.000    1.875    0.000    4.500 
#    0.000    0.000    0.000    0.000    0.000    0.000 
#    0.000    0.000    0.000    0.000    0.000    0.000 
#
# Total GULP energy -198412.941977 kJ/mol
# GULP energy per Si atom -12400.808874 kJ/mol
# Density = 1.864432 g / cm^3
# Si number density = 18.686856 Si / 1000 Ang^3
#
#
#
# Elastic Constant Matrix: (Units=GPa)
#
#
# Indices 1 2 3 4 5 6 
#
# 1 113.4570 43.4168 25.5918 -19.9240 -15.0609 4.8254
# 2 43.4168 140.9964 32.5457 -25.5615 -1.9423 2.2418
# 3 25.5918 32.5457 82.2146 -31.3259 3.7484 7.2463
# 4 -19.9240 -25.5615 -31.3259 17.1567 1.0402 -0.9287
# 5 -15.0609 -1.9423 3.7484 1.0402 10.3052 -12.3667
# 6 4.8254 2.2418 7.2463 -0.9287 -12.3667 19.0959
#
#
#
# Elastic Compliance Matrix: (Units=1/GPa)
#
#
# Indices 1 2 3 4 5 6 
#
# 1 0.008876 0.001690 0.020051 0.049962 -0.036757 -0.031424
# 2 0.001690 0.008719 -0.005247 0.004671 0.029040 0.019574
# 3 0.020051 -0.005247 -0.016731 -0.019333 0.168292 0.109946
# 4 0.049962 0.004671 -0.019333 0.079766 0.316512 0.203019
# 5 -0.036757 0.029040 0.168292 0.316512 -0.428481 -0.320077
# 6 -0.031424 0.019574 0.109946 0.203019 -0.320077 -0.181122
#
#
# Mechanical properties :
#
#
# Convention : Reuss Voigt Hill
#
# Bulk Modulus (GPa) = 29.54178 59.97518 44.75848
# Shear Modulus (GPa) = -9.07974 24.98581 7.95303
#
# Velocity S-wave (km/s) = -2.20668 3.66058 2.06523
# Velocity P-wave (km/s) = 3.05787 7.07326 5.44892
#
# Compressibility (1/GPa) = 0.03385037
#
# Stress axis : x y z
#
# Youngs Moduli (GPa) = 112.66943 114.69443 -59.77019
#
# Poissons Ratio (x) = -0.19380 1.19843
# Poissons Ratio (y) = -0.19038 -0.31361
# Poissons Ratio (z) = -2.25909 0.60179
#
# Static dielectric constant tensor:
#      x y z
#    x 3.651730 0.888630 0.132940 
#    y 0.888630 18.168340 0.798740 
#    z 0.132940 0.798740 3.212190 
# 
# 
# High freq. dielectric constant tensor:
#      x y z
#    x 1.737320 0.003060 -0.004400 
#    y 0.003060 1.736540 -0.006520 
#    z -0.004400 -0.006520 1.699440 
# 
# From -- ./inp_files/55005.got.cif
#   From: 2010.06.25/outbox.cif.g09.slc.cpg/sg2_28_cif.got.tgz:55005.got - 2010.06.27 13:26:56.
