data_PCOD8002877
_publ_section_title
;
Structure prediction by ZEFSAII (Michael W. Deem and Ramdas Pophale) SiO2 
 PCOD8002877
Probable space group: P -1
;
_chemical_formula_sum "Si O2"
_cell_formula_units_Z 14
_cell_length_a 18.587741
_cell_length_b 6.592156
_cell_length_c 8.621808
_cell_angle_alpha 127.923202
_cell_angle_beta 112.363132
_cell_angle_gamma 57.336890
_cell_volume 699.686204
_symmetry_space_group_name_H-M "P -1"
_symmetry_group_IT_number 2
_symmetry_cell_setting 'triclinic'
loop_
_space_group_symop_operation_xyz
x,y,z
-x,-y,-z
loop_
_atom_site_type_symbol
_atom_site_label
_atom_site_fract_x
_atom_site_fract_y
_atom_site_fract_z
Si Si1 0.982044 0.362630 0.069517
Si Si2 0.831251 0.810033 0.334614
Si Si3 0.677471 0.839515 0.425207
Si Si4 0.897800 0.976876 0.756094
Si Si5 0.298658 0.763476 0.797433
Si Si6 0.287431 0.734642 0.135271
Si Si7 0.404170 0.077567 0.910056
O O1 0.891612 0.544460 0.160780
O O2 0.063396 0.287895 0.216607
O O3 0.000000 0.500000 0.000000
O O4 0.971512 0.089289 0.868692
O O5 0.764909 0.732402 0.344484
O O6 0.892302 0.884619 0.533621
O O7 0.782686 0.066370 0.297188
O O8 0.672480 0.568073 0.376528
O O9 0.599190 0.970669 0.300555
O O10 0.671139 0.074259 0.656177
O O11 0.804541 0.200938 0.837978
O O12 0.373802 0.863775 0.873835
O O13 0.275857 0.816384 0.984255
O O14 0.346092 0.404936 0.059380
O O15 0.500000 0.000000 0.000000
#
# Coordination Sequence:
#
# PCOD8002877 Si02
#       7
#     2   2   2   2   2   2   2
#     4  11  22  35  54  81 112 148 188 230 277 328
#     4  10  21  37  56  80 113 148 187 234 279 324
#     4   9  21  38  59  85 112 148 191 232 278 333
#     4  10  22  37  54  79 111 145 187 233 278 329
#     4  10  20  36  60  83 110 147 190 229 276 335
#     4  10  21  39  60  82 111 148 190 234 280 334
#     4  10  22  39  58  85 119 148 180 229 284 337
#
# _framework density 20.008970000000001
#
# number of rings (size 3 to 8) (size 9 to 14) (size 15 to 20)
#    0.000    2.000    0.000    3.857    0.000   11.429 
#    0.000    1.429    0.000    0.000    0.000    0.000 
#    0.000    0.000    0.000    0.000    0.000    0.000 
#
# Total GULP energy -173568.555109 kJ/mol
# GULP energy per Si atom -12397.753936 kJ/mol
# Density = 1.996343 g / cm^3
# Si number density = 20.008970 Si / 1000 Ang^3
#
#
#
# Elastic Constant Matrix: (Units=GPa)
#
#
# Indices 1 2 3 4 5 6 
#
# 1 58.1174 44.8455 32.5081 -1.9795 16.4728 2.3739
# 2 44.8455 116.6325 51.1944 -8.7593 13.1021 8.8748
# 3 32.5081 51.1944 123.1703 -12.4772 23.3565 10.7617
# 4 -1.9795 -8.7593 -12.4772 37.3564 -2.3999 9.9773
# 5 16.4728 13.1021 23.3565 -2.3999 27.8704 -4.6908
# 6 2.3739 8.8748 10.7617 9.9773 -4.6908 34.1147
#
#
#
# Elastic Compliance Matrix: (Units=1/GPa)
#
#
# Indices 1 2 3 4 5 6 
#
# 1 0.028209 -0.008944 -0.001809 -0.001911 -0.011123 -0.000036
# 2 -0.008944 0.013587 -0.003061 0.002434 0.001255 -0.002486
# 3 -0.001809 -0.003061 0.012352 0.004204 -0.008383 -0.005357
# 4 -0.001911 0.002434 0.004204 0.031517 -0.002746 -0.011422
# 5 -0.011123 0.001255 -0.008383 -0.002746 0.050477 0.010836
# 6 -0.000036 -0.002486 -0.005357 -0.011422 0.010836 0.036482
#
#
# Mechanical properties :
#
#
# Convention : Reuss Voigt Hill
#
# Bulk Modulus (GPa) = 37.70660 61.66846 49.68753
# Shear Modulus (GPa) = 23.91294 31.15979 27.53637
#
# Velocity S-wave (km/s) = 3.46079 3.95053 3.71374
# Velocity P-wave (km/s) = 5.90383 7.19001 6.57843
#
# Compressibility (1/GPa) = 0.02652055
#
# Stress axis : x y z
#
# Youngs Moduli (GPa) = 35.45017 73.59751 80.95754
#
# Poissons Ratio (x) = 0.65822 0.14646
# Poissons Ratio (y) = 0.31705 0.24783
# Poissons Ratio (z) = 0.06413 0.22530
#
# Static dielectric constant tensor:
#      x y z
#    x 3.625680 -0.214210 0.065830 
#    y -0.214210 4.025030 -0.062280 
#    z 0.065830 -0.062280 3.967660 
# 
# 
# High freq. dielectric constant tensor:
#      x y z
#    x 1.763310 0.003500 0.014220 
#    y 0.003500 1.789070 -0.009760 
#    z 0.014220 -0.009760 1.792690 
# 
# From -- ./inp_files/38301.got.cif
#   From: 2010.06.25/outbox.cif.g09.slc.cpg/sg2_20_cif.got.tgz:38301.got - 2010.06.27 13:26:56.
