data_PCOD8002720
_publ_section_title
;
Structure prediction by ZEFSAII (Michael W. Deem and Ramdas Pophale) SiO2 
 PCOD8002720
Probable space group: P -1
;
_chemical_formula_sum "Si O2"
_cell_formula_units_Z 16
_cell_length_a 8.340085
_cell_length_b 20.661494
_cell_length_c 12.606847
_cell_angle_alpha 23.059379
_cell_angle_beta 104.373693
_cell_angle_gamma 114.096064
_cell_volume 725.767992
_symmetry_space_group_name_H-M "P -1"
_symmetry_group_IT_number 2
_symmetry_cell_setting 'triclinic'
loop_
_space_group_symop_operation_xyz
x,y,z
-x,-y,-z
loop_
_atom_site_type_symbol
_atom_site_label
_atom_site_fract_x
_atom_site_fract_y
_atom_site_fract_z
Si Si1 0.539816 0.828320 0.243970
Si Si2 0.393218 0.780625 0.797053
Si Si3 0.836421 0.539948 0.611805
Si Si4 0.284340 0.198315 0.893474
Si Si5 0.163855 0.474808 0.768048
Si Si6 0.908136 0.831373 0.366580
Si Si7 0.031321 0.752217 0.724494
Si Si8 0.242856 0.165748 0.176391
O O1 0.557138 0.798392 0.165295
O O2 0.373494 0.640577 0.547652
O O3 0.726443 0.862806 0.285449
O O4 0.500000 0.000000 0.000000
O O5 0.219639 0.728900 0.764519
O O6 0.569826 0.743030 0.853129
O O7 0.500000 0.000000 0.500000
O O8 0.303354 0.671777 0.056125
O O9 0.731476 0.608591 0.406760
O O10 0.893873 0.676367 0.516238
O O11 0.022924 0.542381 0.590390
O O12 0.320585 0.167148 0.067419
O O13 0.088271 0.029362 0.073635
O O14 0.140677 0.292432 0.975376
O O15 0.108258 0.417934 0.967461
O O16 0.920648 0.749645 0.605839
O O17 0.097457 0.948267 0.504911
#
# Coordination Sequence:
#
# PCOD8002720 Si02
#       8
#     2   2   2   2   2   2   2   2
#     4  11  22  38  59  86 116 144 185 237 280 330
#     4   9  19  36  55  77 109 149 191 227 269 326
#     4  10  20  36  58  84 115 150 185 229 280 336
#     4  10  21  38  61  83 112 150 187 229 281 337
#     4  11  22  35  56  84 118 150 185 232 278 328
#     4  10  20  39  62  83 112 149 188 228 281 338
#     4   9  21  39  59  82 111 150 187 230 282 334
#     4  10  20  38  60  84 112 147 190 233 277 329
#
# _framework density 22.045611000000001
#
# number of rings (size 3 to 8) (size 9 to 14) (size 15 to 20)
#    0.000    2.000    0.000    4.875    0.000    5.000 
#    0.000   13.750    0.000    0.000    0.000    0.000 
#    0.000    0.000    0.000    0.000    0.000    0.000 
#
# Total GULP energy -198260.164668 kJ/mol
# GULP energy per Si atom -12391.260292 kJ/mol
# Density = 2.199543 g / cm^3
# Si number density = 22.045611 Si / 1000 Ang^3
#
#
#
# Elastic Constant Matrix: (Units=GPa)
#
#
# Indices 1 2 3 4 5 6 
#
# 1 132.9156 21.9615 42.4125 -7.8812 18.6826 5.2186
# 2 21.9615 43.6775 8.6576 2.9730 5.1688 2.4353
# 3 42.4125 8.6576 128.6208 2.8768 -4.9812 0.0157
# 4 -7.8812 2.9730 2.8768 23.8696 1.5053 -2.8730
# 5 18.6826 5.1688 -4.9812 1.5053 45.4041 -0.4720
# 6 5.2186 2.4353 0.0157 -2.8730 -0.4720 22.3064
#
#
#
# Elastic Compliance Matrix: (Units=1/GPa)
#
#
# Indices 1 2 3 4 5 6 
#
# 1 0.010194 -0.004178 -0.003343 0.004382 -0.004246 -0.001452
# 2 -0.004178 0.025644 -0.000284 -0.004766 -0.001099 -0.002459
# 3 -0.003343 -0.000284 0.009042 -0.002246 0.002480 0.000570
# 4 0.004382 -0.004766 -0.002246 0.045021 -0.002945 0.005233
# 5 -0.004246 -0.001099 0.002480 -0.002945 0.024279 0.001246
# 6 -0.001452 -0.002459 0.000570 0.005233 0.001246 0.046138
#
#
# Mechanical properties :
#
#
# Convention : Reuss Voigt Hill
#
# Bulk Modulus (GPa) = 34.16362 50.14190 42.15276
# Shear Modulus (GPa) = 26.92729 33.79485 30.36107
#
# Velocity S-wave (km/s) = 3.49870 3.91954 3.71508
# Velocity P-wave (km/s) = 5.64372 6.57858 6.12900
#
# Compressibility (1/GPa) = 0.02927090
#
# Stress axis : x y z
#
# Youngs Moduli (GPa) = 98.09530 38.99588 110.59101
#
# Poissons Ratio (x) = 0.16293 0.36966
# Poissons Ratio (y) = 0.40985 0.03141
# Poissons Ratio (z) = 0.32789 0.01108
#
# Static dielectric constant tensor:
#      x y z
#    x 4.350060 0.361270 0.105170 
#    y 0.361270 3.703390 0.135040 
#    z 0.105170 0.135040 4.376500 
# 
# 
# High freq. dielectric constant tensor:
#      x y z
#    x 1.869030 0.024500 0.002530 
#    y 0.024500 1.828470 0.006630 
#    z 0.002530 0.006630 1.897520 
# 
# From -- ./inp_files/508567.got.cif
#   From: 2010.06.25/outbox.cif.g09.slc.cpg/sg2_255_cif.got.tgz:508567.got - 2010.06.27 13:26:56.
