data_PCOD8002767
_publ_section_title
;
Structure prediction by ZEFSAII (Michael W. Deem and Ramdas Pophale) SiO2 
 PCOD8002767
Probable space group: P -1
;
_chemical_formula_sum "Si O2"
_cell_formula_units_Z 16
_cell_length_a 12.666310
_cell_length_b 9.985181
_cell_length_c 8.874871
_cell_angle_alpha 91.141207
_cell_angle_beta 138.493542
_cell_angle_gamma 86.212889
_cell_volume 741.488876
_symmetry_space_group_name_H-M "P -1"
_symmetry_group_IT_number 2
_symmetry_cell_setting 'triclinic'
loop_
_space_group_symop_operation_xyz
x,y,z
-x,-y,-z
loop_
_atom_site_type_symbol
_atom_site_label
_atom_site_fract_x
_atom_site_fract_y
_atom_site_fract_z
Si Si1 0.663157 0.956169 0.753415
Si Si2 0.766619 0.116542 0.286172
Si Si3 0.533495 0.215847 0.280010
Si Si4 0.729599 0.246237 0.781197
Si Si5 0.330306 0.389766 0.837028
Si Si6 0.054553 0.135634 0.132349
Si Si7 0.103372 0.164939 0.541436
Si Si8 0.381596 0.647546 0.040482
O O1 0.612105 0.878802 0.847081
O O2 0.774607 0.850465 0.766799
O O3 0.500000 0.000000 0.500000
O O4 0.740184 0.096946 0.868105
O O5 0.686000 0.135618 0.364157
O O6 0.654282 0.198595 0.048670
O O7 0.941208 0.173315 0.465188
O O8 0.780668 0.956486 0.266639
O O9 0.608402 0.270315 0.514285
O O10 0.457577 0.336053 0.099556
O O11 0.665151 0.358670 0.834711
O O12 0.918991 0.256910 0.946109
O O13 0.178109 0.306058 0.649953
O O14 0.277695 0.542696 0.834798
O O15 0.429163 0.389588 0.785467
O O16 0.074640 0.133184 0.334648
O O17 0.000000 0.000000 0.000000
#
# Coordination Sequence:
#
# PCOD8002767 Si02
#       8
#     2   2   2   2   2   2   2   2
#     4   9  19  32  58  91 122 151 198 252 305 356
#     4  10  22  38  61  91 125 153 205 245 318 360
#     4  10  22  38  58  92 120 163 197 267 297 364
#     4  10  20  36  62  82 124 164 204 247 311 357
#     4  10  25  39  62  88 127 161 211 251 308 361
#     4  10  20  36  58  93 128 157 200 250 312 362
#     4  11  22  37  64  95 119 164 197 260 305 369
#     4  10  22  43  59  89 122 171 204 252 302 371
#
# _framework density 21.578206000000002
#
# number of rings (size 3 to 8) (size 9 to 14) (size 15 to 20)
#    0.000    2.000    1.250    2.250    7.000    4.000 
#    0.000    0.000    0.000    1.500    0.000    0.000 
#    0.000    0.000    0.000    0.000    0.000    0.000 
#
# Total GULP energy -198211.920383 kJ/mol
# GULP energy per Si atom -12388.245024 kJ/mol
# Density = 2.152909 g / cm^3
# Si number density = 21.578206 Si / 1000 Ang^3
#
#
#
# Elastic Constant Matrix: (Units=GPa)
#
#
# Indices 1 2 3 4 5 6 
#
# 1 161.2625 21.6887 30.4202 12.1307 4.9060 -21.3177
# 2 21.6887 32.0003 9.7626 7.1427 -3.3315 -1.6815
# 3 30.4202 9.7626 69.7307 7.3681 -2.1683 -10.4186
# 4 12.1307 7.1427 7.3681 26.1940 -1.8060 2.4334
# 5 4.9060 -3.3315 -2.1683 -1.8060 24.7964 4.9993
# 6 -21.3177 -1.6815 -10.4186 2.4334 4.9993 33.1432
#
#
#
# Elastic Compliance Matrix: (Units=1/GPa)
#
#
# Indices 1 2 3 4 5 6 
#
# 1 0.008170 -0.004422 -0.001998 -0.002744 -0.003624 0.005151
# 2 -0.004422 0.037032 -0.002697 -0.006708 0.005561 -0.002159
# 3 -0.001998 -0.002697 0.016547 -0.003331 0.000439 0.003958
# 4 -0.002744 -0.006708 -0.003331 0.043123 0.003883 -0.006904
# 5 -0.003624 0.005561 0.000439 0.003883 0.043891 -0.008816
# 6 0.005151 -0.002159 0.003958 -0.006904 -0.008816 0.036456
#
#
# Mechanical properties :
#
#
# Convention : Reuss Voigt Hill
#
# Bulk Modulus (GPa) = 22.98014 42.97073 32.97543
# Shear Modulus (GPa) = 22.94012 30.23488 26.58750
#
# Velocity S-wave (km/s) = 3.26408 3.74729 3.51400
# Velocity P-wave (km/s) = 4.98783 6.21933 5.63731
#
# Compressibility (1/GPa) = 0.04351584
#
# Stress axis : x y z
#
# Youngs Moduli (GPa) = 122.39442 27.00363 60.43321
#
# Poissons Ratio (x) = 0.11941 0.12077
# Poissons Ratio (y) = 0.54123 0.16296
# Poissons Ratio (z) = 0.24459 0.07282
#
# Static dielectric constant tensor:
#      x y z
#    x 5.305330 0.278030 0.270680 
#    y 0.278030 4.052760 0.020350 
#    z 0.270680 0.020350 3.634370 
# 
# 
# High freq. dielectric constant tensor:
#      x y z
#    x 1.866770 -0.017620 0.005200 
#    y -0.017620 1.815980 -0.001430 
#    z 0.005200 -0.001430 1.830910 
# 
# From -- ./inp_files/222214.got.cif
#   From: 2010.06.25/outbox.cif.g09.slc.cpg/sg2_112_cif.got.tgz:222214.got - 2010.06.27 13:26:56.
