data_PCOD8002456
_publ_section_title
;
Structure prediction by ZEFSAII (Michael W. Deem and Ramdas Pophale) SiO2 
 PCOD8002456
Probable space group: P -1
;
_chemical_formula_sum "Si O2"
_cell_formula_units_Z 16
_cell_length_a 9.273263
_cell_length_b 18.140399
_cell_length_c 11.266219
_cell_angle_alpha 120.162693
_cell_angle_beta 125.032927
_cell_angle_gamma 105.746598
_cell_volume 821.318900
_symmetry_space_group_name_H-M "P -1"
_symmetry_group_IT_number 2
_symmetry_cell_setting 'triclinic'
loop_
_space_group_symop_operation_xyz
x,y,z
-x,-y,-z
loop_
_atom_site_type_symbol
_atom_site_label
_atom_site_fract_x
_atom_site_fract_y
_atom_site_fract_z
Si Si1 0.578482 0.401569 0.175438
Si Si2 0.360964 0.480993 0.038965
Si Si3 0.300392 0.737466 0.458532
Si Si4 0.307954 0.148341 0.731903
Si Si5 0.401675 0.853025 0.953521
Si Si6 0.602794 0.761794 0.418726
Si Si7 0.768983 0.027715 0.049321
Si Si8 0.157019 0.600213 0.503695
O O1 0.476631 0.460340 0.178156
O O2 0.699836 0.424885 0.381968
O O3 0.811674 0.463736 0.233911
O O4 0.319134 0.240966 0.885831
O O5 0.474140 0.618122 0.231209
O O6 0.500000 0.500000 0.000000
O O7 0.014571 0.339714 0.756339
O O8 0.377173 0.732325 0.361251
O O9 0.276922 0.647704 0.464983
O O10 0.548879 0.896347 0.750232
O O11 0.360674 0.179621 0.643136
O O12 0.522922 0.158339 0.892499
O O13 0.000000 0.000000 0.500000
O O14 0.210690 0.711943 0.679966
O O15 0.679377 0.982291 0.108253
O O16 0.220842 0.869528 0.900818
O O17 0.903282 0.879408 0.728646
#
# Coordination Sequence:
#
# PCOD8002456 Si02
#       8
#     2   2   2   2   2   2   2   2
#     4  10  20  35  62  90 114 150 203 254 288 342
#     4  12  23  39  65  94 117 156 210 252 291 356
#     4  11  24  40  59  90 130 160 193 245 313 365
#     4  11  21  35  58  89 119 152 200 247 300 347
#     4   9  19  33  60  88 113 148 201 259 281 337
#     4  12  24  41  61  89 126 164 195 247 311 359
#     4  10  21  37  61  86 121 158 205 241 294 358
#     4   9  18  37  58  90 119 149 195 251 301 348
#
# _framework density 19.480861000000001
#
# number of rings (size 3 to 8) (size 9 to 14) (size 15 to 20)
#    0.000    1.500    3.750    1.500    5.250    0.000 
#    0.000    2.500    0.000    0.000    0.000    0.000 
#    0.000    0.000    0.000    0.000    0.000    0.000 
#
# Total GULP energy -198332.392395 kJ/mol
# GULP energy per Si atom -12395.774525 kJ/mol
# Density = 1.943652 g / cm^3
# Si number density = 19.480861 Si / 1000 Ang^3
#
#
#
# Elastic Constant Matrix: (Units=GPa)
#
#
# Indices 1 2 3 4 5 6 
#
# 1 90.3240 45.8261 34.9679 -11.8041 7.1727 1.2967
# 2 45.8261 136.6713 40.2214 -15.7834 0.1614 -10.9392
# 3 34.9679 40.2214 110.2279 -0.0783 8.7801 -3.3874
# 4 -11.8041 -15.7834 -0.0783 30.2624 -2.6578 0.8870
# 5 7.1727 0.1614 8.7801 -2.6578 23.7306 0.6273
# 6 1.2967 -10.9392 -3.3874 0.8870 0.6273 25.0803
#
#
#
# Elastic Compliance Matrix: (Units=1/GPa)
#
#
# Indices 1 2 3 4 5 6 
#
# 1 0.015045 -0.003913 -0.003207 0.003656 -0.002846 -0.002976
# 2 -0.003913 0.010138 -0.002518 0.003843 0.002368 0.004089
# 3 -0.003207 -0.002518 0.011312 -0.002869 -0.003541 0.000785
# 4 0.003656 0.003843 -0.002869 0.036833 0.004064 -0.000305
# 5 -0.002846 0.002368 -0.003541 0.004064 0.044764 -0.000562
# 6 -0.002976 0.004089 0.000785 -0.000305 -0.000562 0.041940
#
#
# Mechanical properties :
#
#
# Convention : Reuss Voigt Hill
#
# Bulk Modulus (GPa) = 58.07632 64.36155 61.21894
# Shear Modulus (GPa) = 27.01982 30.22851 28.62416
#
# Velocity S-wave (km/s) = 3.72828 3.94344 3.83737
# Velocity P-wave (km/s) = 6.95774 7.33787 7.15033
#
# Compressibility (1/GPa) = 0.01721872
#
# Stress axis : x y z
#
# Youngs Moduli (GPa) = 66.46826 98.63535 88.39795
#
# Poissons Ratio (x) = 0.38600 0.28348
# Poissons Ratio (y) = 0.26011 0.22260
# Poissons Ratio (z) = 0.21316 0.24838
#
# Static dielectric constant tensor:
#      x y z
#    x 3.222910 -0.153270 0.142080 
#    y -0.153270 3.761550 0.283830 
#    z 0.142080 0.283830 3.467570 
# 
# 
# High freq. dielectric constant tensor:
#      x y z
#    x 1.713150 -0.006050 0.006230 
#    y -0.006050 1.773470 0.004500 
#    z 0.006230 0.004500 1.776260 
# 
# From -- ./inp_files/284861.got.cif
#   From: 2010.06.25/outbox.cif.g09.slc.cpg/sg2_143_cif.got.tgz:284861.got - 2010.06.27 13:26:56.
