data_PCOD8002679
_publ_section_title
;
Structure prediction by ZEFSAII (Michael W. Deem and Ramdas Pophale) SiO2 
 PCOD8002679
Probable space group: P -1
;
_chemical_formula_sum "Si O2"
_cell_formula_units_Z 16
_cell_length_a 13.335087
_cell_length_b 15.224231
_cell_length_c 10.763954
_cell_angle_alpha 43.161787
_cell_angle_beta 147.038797
_cell_angle_gamma 136.257855
_cell_volume 776.670399
_symmetry_space_group_name_H-M "P -1"
_symmetry_group_IT_number 2
_symmetry_cell_setting 'triclinic'
loop_
_space_group_symop_operation_xyz
x,y,z
-x,-y,-z
loop_
_atom_site_type_symbol
_atom_site_label
_atom_site_fract_x
_atom_site_fract_y
_atom_site_fract_z
Si Si1 0.627430 0.364992 0.741880
Si Si2 0.087641 0.689574 0.739367
Si Si3 0.413616 0.852062 0.508660
Si Si4 0.800605 0.025346 0.312259
Si Si5 0.384498 0.356158 0.973806
Si Si6 0.443015 0.882583 0.221049
Si Si7 0.958590 0.350270 0.554531
Si Si8 0.357173 0.374954 0.640860
O O1 0.668452 0.266643 0.784264
O O2 0.453042 0.291302 0.733159
O O3 0.563105 0.473225 0.482454
O O4 0.820199 0.409605 0.983452
O O5 0.180671 0.842726 0.720446
O O6 0.114910 0.658697 0.654780
O O7 0.867739 0.663829 0.570714
O O8 0.551478 0.761809 0.774917
O O9 0.413014 0.886062 0.330329
O O10 0.197719 0.766737 0.413029
O O11 0.500000 0.000000 0.500000
O O12 0.668878 0.913105 0.384373
O O13 0.669005 0.021099 0.057778
O O14 0.000000 0.000000 0.500000
O O15 0.500000 0.500000 0.000000
O O16 0.426901 0.360162 0.867199
O O17 0.158365 0.316304 0.805888
O O18 0.000000 0.500000 0.500000
#
# Coordination Sequence:
#
# PCOD8002679 Si02
#       8
#     2   2   2   2   2   2   2   2
#     4  10  20  36  57  88 121 156 201 262 320 363
#     4  10  21  37  59  89 122 157 209 263 315 382
#     4  12  26  44  67  99 134 175 221 279 330 386
#     4  10  21  40  65  89 123 169 205 259 336 387
#     4  11  23  42  66  93 131 175 220 268 328 397
#     4  10  23  39  60  90 128 158 212 262 315 392
#     4  11  24  42  67  96 132 181 225 268 333 398
#     4  10  21  36  59  88 119 158 208 255 312 382
#
# _framework density 20.600760000000001
#
# number of rings (size 3 to 8) (size 9 to 14) (size 15 to 20)
#    0.000    1.500    1.250    3.375    1.750    5.500 
#    0.000    0.000    0.000    0.000    0.000    0.000 
#    0.000    0.000    0.000    0.000    0.000    0.000 
#
# Total GULP energy -198231.685141 kJ/mol
# GULP energy per Si atom -12389.480321 kJ/mol
# Density = 2.055387 g / cm^3
# Si number density = 20.600760 Si / 1000 Ang^3
#
#
#
# Elastic Constant Matrix: (Units=GPa)
#
#
# Indices 1 2 3 4 5 6 
#
# 1 175.5252 31.3482 19.7835 2.6640 -9.2274 7.3237
# 2 31.3482 117.1119 47.3460 8.4443 -17.2344 -6.1627
# 3 19.7835 47.3460 114.6216 17.8429 -9.7757 -6.6575
# 4 2.6640 8.4443 17.8429 33.2810 -4.0293 1.7809
# 5 -9.2274 -17.2344 -9.7757 -4.0293 38.5772 6.5334
# 6 7.3237 -6.1627 -6.6575 1.7809 6.5334 40.6310
#
#
#
# Elastic Compliance Matrix: (Units=1/GPa)
#
#
# Indices 1 2 3 4 5 6 
#
# 1 0.006119 -0.001376 -0.000549 0.000361 0.001015 -0.001581
# 2 -0.001376 0.011074 -0.003969 -0.000191 0.003469 0.000728
# 3 -0.000549 -0.003969 0.011358 -0.005100 0.000178 0.001553
# 4 0.000361 -0.000191 -0.005100 0.033274 0.002661 -0.002816
# 5 0.001015 0.003469 0.000178 0.002661 0.028778 -0.004372
# 6 -0.001581 0.000728 0.001553 -0.002816 -0.004372 0.026088
#
#
# Mechanical properties :
#
#
# Convention : Reuss Voigt Hill
#
# Bulk Modulus (GPa) = 59.65579 67.13491 63.39535
# Shear Modulus (GPa) = 37.29497 43.08322 40.18910
#
# Velocity S-wave (km/s) = 4.25946 4.57808 4.42164
# Velocity P-wave (km/s) = 7.29463 7.78488 7.54374
#
# Compressibility (1/GPa) = 0.01676283
#
# Stress axis : x y z
#
# Youngs Moduli (GPa) = 163.43582 90.29913 88.04431
#
# Poissons Ratio (x) = 0.12421 0.04837
# Poissons Ratio (y) = 0.22481 0.34946
# Poissons Ratio (z) = 0.08978 0.35841
#
# Static dielectric constant tensor:
#      x y z
#    x 4.012590 0.087980 0.026990 
#    y 0.087980 3.894640 0.099430 
#    z 0.026990 0.099430 3.869800 
# 
# 
# High freq. dielectric constant tensor:
#      x y z
#    x 1.822020 -0.003020 0.002860 
#    y -0.003020 1.803790 0.009630 
#    z 0.002860 0.009630 1.812030 
# 
# From -- ./inp_files/271999.got.cif
#   From: 2010.06.25/outbox.cif.g09.slc.cpg/sg2_136_cif.got.tgz:271999.got - 2010.06.27 13:26:56.
