data_PCOD8002420
_publ_section_title
;
Structure prediction by ZEFSAII (Michael W. Deem and Ramdas Pophale) SiO2 
 PCOD8002420
Probable space group: P -1
;
_chemical_formula_sum "Si O2"
_cell_formula_units_Z 16
_cell_length_a 9.014450
_cell_length_b 14.656377
_cell_length_c 9.095369
_cell_angle_alpha 115.150309
_cell_angle_beta 115.615098
_cell_angle_gamma 51.114078
_cell_volume 823.006419
_symmetry_space_group_name_H-M "P -1"
_symmetry_group_IT_number 2
_symmetry_cell_setting 'triclinic'
loop_
_space_group_symop_operation_xyz
x,y,z
-x,-y,-z
loop_
_atom_site_type_symbol
_atom_site_label
_atom_site_fract_x
_atom_site_fract_y
_atom_site_fract_z
Si Si1 0.661678 0.376363 0.412479
Si Si2 0.029872 0.380460 0.495890
Si Si3 0.605412 0.058090 0.833874
Si Si4 0.775017 0.050474 0.603104
Si Si5 0.385998 0.172834 0.332599
Si Si6 0.060466 0.819304 0.385603
Si Si7 0.800852 0.727789 0.204731
Si Si8 0.528974 0.745715 0.871994
O O1 0.500000 0.500000 0.500000
O O2 0.748668 0.276525 0.508153
O O3 0.560318 0.336657 0.222132
O O4 0.825106 0.388745 0.409794
O O5 0.184034 0.267534 0.389108
O O6 0.105411 0.366488 0.686337
O O7 0.000000 0.500000 0.500000
O O8 0.762166 0.035613 0.761316
O O9 0.387514 0.145850 0.731923
O O10 0.634043 0.933611 0.811796
O O11 0.626580 0.123979 0.031024
O O12 0.562026 0.121428 0.487771
O O13 0.878073 0.124671 0.677591
O O14 0.909131 0.919205 0.502985
O O15 0.423059 0.236769 0.259835
O O16 0.959332 0.754535 0.226816
O O17 0.730498 0.676988 0.008152
#
# Coordination Sequence:
#
# PCOD8002420 Si02
#       8
#     2   2   2   2   2   2   2   2
#     4  11  23  43  64  89 123 162 207 257 303 366
#     4  11  24  41  66  93 117 164 217 250 295 377
#     4  10  20  35  61  89 127 160 195 252 315 354
#     4  11  19  35  64  89 127 159 212 252 301 359
#     4  12  19  38  64  91 125 169 204 249 311 365
#     4  10  21  36  61  94 116 167 212 248 296 373
#     4   9  20  40  61  86 125 153 204 246 312 358
#     4  10  22  40  62  92 126 163 197 256 317 367
#
# _framework density 19.440918
#
# number of rings (size 3 to 8) (size 9 to 14) (size 15 to 20)
#    0.750    0.750    3.750    3.000    0.000    0.000 
#    2.250    7.500    0.000    0.000    0.000    0.000 
#    0.000    0.000    0.000    0.000    0.000    0.000 
#
# Total GULP energy -198361.406995 kJ/mol
# GULP energy per Si atom -12397.587937 kJ/mol
# Density = 1.939667 g / cm^3
# Si number density = 19.440918 Si / 1000 Ang^3
#
#
#
# Elastic Constant Matrix: (Units=GPa)
#
#
# Indices 1 2 3 4 5 6 
#
# 1 125.1128 46.1357 51.8599 7.1233 5.8319 3.0740
# 2 46.1357 100.2157 31.1438 5.0240 13.9315 -1.6470
# 3 51.8599 31.1438 87.3021 7.4523 18.8081 2.1219
# 4 7.1233 5.0240 7.4523 24.9818 3.8442 -4.7139
# 5 5.8319 13.9315 18.8081 3.8442 36.1902 4.6190
# 6 3.0740 -1.6470 2.1219 -4.7139 4.6190 35.9899
#
#
#
# Elastic Compliance Matrix: (Units=1/GPa)
#
#
# Indices 1 2 3 4 5 6 
#
# 1 0.012024 -0.003986 -0.006242 -0.001529 0.003188 -0.001451
# 2 -0.003986 0.012804 -0.001420 -0.000166 -0.003718 0.001466
# 3 -0.006242 -0.001420 0.017408 -0.001982 -0.007299 0.000119
# 4 -0.001529 -0.000166 -0.001982 0.042914 -0.004032 0.006378
# 5 0.003188 -0.003718 -0.007299 -0.004032 0.033387 -0.004825
# 6 -0.001451 0.001466 0.000119 0.006378 -0.004825 0.029424
#
#
# Mechanical properties :
#
#
# Convention : Reuss Voigt Hill
#
# Bulk Modulus (GPa) = 52.79940 63.43437 58.11688
# Shear Modulus (GPa) = 28.15797 31.66513 29.91155
#
# Velocity S-wave (km/s) = 3.80990 4.04020 3.92674
# Velocity P-wave (km/s) = 6.82434 7.38000 7.10760
#
# Compressibility (1/GPa) = 0.01893961
#
# Stress axis : x y z
#
# Youngs Moduli (GPa) = 83.16715 78.09959 57.44609
#
# Poissons Ratio (x) = 0.31131 0.35856
# Poissons Ratio (y) = 0.33151 0.08159
# Poissons Ratio (z) = 0.51910 0.11093
#
# Static dielectric constant tensor:
#      x y z
#    x 3.701980 0.055640 0.058680 
#    y 0.055640 3.584270 -0.038320 
#    z 0.058680 -0.038320 3.280930 
# 
# 
# High freq. dielectric constant tensor:
#      x y z
#    x 1.769830 0.002810 0.004230 
#    y 0.002810 1.752160 0.000500 
#    z 0.004230 0.000500 1.733450 
# 
# From -- ./inp_files/208488.got.cif
#   From: 2010.06.25/outbox.cif.g09.slc.cpg/sg2_105_cif.got.tgz:208488.got - 2010.06.27 13:26:56.
