data_PCOD8002694
_publ_section_title
;
Structure prediction by ZEFSAII (Michael W. Deem and Ramdas Pophale) SiO2 
 PCOD8002694
Probable space group: P -1
;
_chemical_formula_sum "Si O2"
_cell_formula_units_Z 16
_cell_length_a 15.392342
_cell_length_b 9.394590
_cell_length_c 8.269823
_cell_angle_alpha 120.334618
_cell_angle_beta 86.241696
_cell_angle_gamma 123.734470
_cell_volume 818.956046
_symmetry_space_group_name_H-M "P -1"
_symmetry_group_IT_number 2
_symmetry_cell_setting 'triclinic'
loop_
_space_group_symop_operation_xyz
x,y,z
-x,-y,-z
loop_
_atom_site_type_symbol
_atom_site_label
_atom_site_fract_x
_atom_site_fract_y
_atom_site_fract_z
Si Si1 0.270806 0.350624 0.874205
Si Si2 0.257578 0.791574 0.508607
Si Si3 0.949340 0.609424 0.624765
Si Si4 0.819928 0.046375 0.136122
Si Si5 0.274215 0.211930 0.300548
Si Si6 0.381524 0.214172 0.580994
Si Si7 0.889485 0.796386 0.465915
Si Si8 0.375112 0.617481 0.316732
O O1 0.366382 0.362106 0.773936
O O2 0.189566 0.349008 0.756905
O O3 0.201809 0.138773 0.860702
O O4 0.326320 0.547333 0.100303
O O5 0.153210 0.553790 0.338916
O O6 0.229327 0.842678 0.714755
O O7 0.359888 0.782896 0.488761
O O8 0.283712 0.969869 0.485236
O O9 0.911994 0.667699 0.504844
O O10 0.000000 0.500000 0.500000
O O11 0.048225 0.810163 0.824305
O O12 0.761993 0.967581 0.925456
O O13 0.374428 0.251493 0.414146
O O14 0.172536 0.133256 0.385244
O O15 0.314224 0.422046 0.329481
O O16 0.496678 0.268566 0.642878
O O17 0.000000 0.000000 0.500000
#
# Coordination Sequence:
#
# PCOD8002694 Si02
#       8
#     2   2   2   2   2   2   2   2
#     4   9  20  35  60  87 112 145 191 236 275 335
#     4  10  21  38  57  81 116 153 186 231 279 339
#     4  10  20  36  58  79 116 151 177 220 295 332
#     4   9  19  38  58  81 117 152 181 226 292 336
#     4  10  22  37  59  88 112 145 193 236 274 335
#     4  10  21  39  58  81 118 151 188 235 283 325
#     4  11  20  36  60  87 114 143 187 234 277 334
#     4  11  20  38  61  85 109 152 194 235 279 327
#
# _framework density 19.537068000000001
#
# number of rings (size 3 to 8) (size 9 to 14) (size 15 to 20)
#    0.000    2.000    2.500    1.125    1.750    1.500 
#    4.500    1.250    0.000    0.000    0.000    0.000 
#    0.000    0.000    0.000    0.000    0.000    0.000 
#
# Total GULP energy -198289.915354 kJ/mol
# GULP energy per Si atom -12393.119710 kJ/mol
# Density = 1.949260 g / cm^3
# Si number density = 19.537068 Si / 1000 Ang^3
#
#
#
# Elastic Constant Matrix: (Units=GPa)
#
#
# Indices 1 2 3 4 5 6 
#
# 1 103.2366 22.8824 46.4533 -2.2152 5.7283 -4.2480
# 2 22.8824 53.1550 36.5518 -3.9932 2.8426 0.8514
# 3 46.4533 36.5518 115.6129 -10.9751 10.8315 -9.0714
# 4 -2.2152 -3.9932 -10.9751 20.3326 -2.5453 -0.4095
# 5 5.7283 2.8426 10.8315 -2.5453 24.9513 -0.0632
# 6 -4.2480 0.8514 -9.0714 -0.4095 -0.0632 30.5603
#
#
#
# Elastic Compliance Matrix: (Units=1/GPa)
#
#
# Indices 1 2 3 4 5 6 
#
# 1 0.012119 -0.002464 -0.004110 -0.001480 -0.000867 0.000512
# 2 -0.002464 0.024828 -0.007112 0.000818 0.000900 -0.003132
# 3 -0.004110 -0.007112 0.013674 0.005156 -0.003647 0.003747
# 4 -0.001480 0.000818 0.005156 0.052426 0.003362 0.002011
# 5 -0.000867 0.000900 -0.003647 0.003362 0.042098 -0.001096
# 6 0.000512 -0.003132 0.003747 0.002011 -0.001096 0.034018
#
#
# Mechanical properties :
#
#
# Convention : Reuss Voigt Hill
#
# Bulk Modulus (GPa) = 43.01032 53.75326 48.38179
# Shear Modulus (GPa) = 23.33356 26.24330 24.78843
#
# Velocity S-wave (km/s) = 3.45965 3.66902 3.56587
# Velocity P-wave (km/s) = 6.16615 6.74701 6.46311
#
# Compressibility (1/GPa) = 0.02325023
#
# Stress axis : x y z
#
# Youngs Moduli (GPa) = 82.51321 40.27784 73.12984
#
# Poissons Ratio (x) = 0.09926 0.30053
# Poissons Ratio (y) = 0.20333 0.52007
# Poissons Ratio (z) = 0.33909 0.28644
#
# Static dielectric constant tensor:
#      x y z
#    x 3.786260 -0.077100 0.249940 
#    y -0.077100 2.653580 0.259860 
#    z 0.249940 0.259860 3.620250 
# 
# 
# High freq. dielectric constant tensor:
#      x y z
#    x 1.767520 0.008100 0.000070 
#    y 0.008100 1.760360 0.001780 
#    z 0.000070 0.001780 1.743680 
# 
# From -- ./inp_files/180598.got.cif
#   From: 2010.06.25/outbox.cif.g09.slc.cpg/sg2_91_cif.got.tgz:180598.got - 2010.06.27 13:26:56.
