data_PCOD8002949
_publ_section_title
;
Structure prediction by ZEFSAII (Michael W. Deem and Ramdas Pophale) SiO2 
 PCOD8002949
Probable space group: P -1
;
_chemical_formula_sum "Si O2"
_cell_formula_units_Z 14
_cell_length_a 14.880365
_cell_length_b 7.080282
_cell_length_c 15.221321
_cell_angle_alpha 80.374511
_cell_angle_beta 29.304470
_cell_angle_gamma 62.641130
_cell_volume 587.968572
_symmetry_space_group_name_H-M "P -1"
_symmetry_group_IT_number 2
_symmetry_cell_setting 'triclinic'
loop_
_space_group_symop_operation_xyz
x,y,z
-x,-y,-z
loop_
_atom_site_type_symbol
_atom_site_label
_atom_site_fract_x
_atom_site_fract_y
_atom_site_fract_z
Si Si1 0.181264 0.853105 0.937569
Si Si2 0.313649 0.947207 0.083568
Si Si3 0.976434 0.188015 0.751710
Si Si4 0.498994 0.169122 0.615218
Si Si5 0.837263 0.749816 0.970581
Si Si6 0.160905 0.386907 0.286246
Si Si7 0.384025 0.327360 0.514185
O O1 0.455722 0.631880 0.684041
O O2 0.124516 0.724960 0.068098
O O3 0.137447 0.073133 0.012062
O O4 0.000000 0.000000 0.000000
O O5 0.160203 0.869601 0.189552
O O6 0.342337 0.084931 0.970240
O O7 0.181334 0.149670 0.259873
O O8 0.577501 0.700157 0.907896
O O9 0.958305 0.408816 0.706260
O O10 0.254335 0.931259 0.541258
O O11 0.435284 0.341027 0.571791
O O12 0.514212 0.943884 0.583357
O O13 0.278908 0.333999 0.860544
O O14 0.098875 0.520932 0.725350
O O15 0.000000 0.500000 0.500000
#
# Coordination Sequence:
#
# PCOD8002949 Si02
#       7
#     2   2   2   2   2   2   2
#     4  10  21  40  59  91 137 173 219 268 311 390
#     4  10  24  44  65 101 131 162 227 277 322 413
#     4  11  22  42  71  98 135 177 219 273 338 386
#     4  10  20  36  60  92 131 173 221 266 314 385
#     4  10  21  38  61  91 133 172 217 268 320 384
#     4  11  24  46  73  93 131 172 215 280 349 392
#     4  10  20  37  60  87 132 182 220 261 318 374
#
# _framework density 23.810797000000001
#
# number of rings (size 3 to 8) (size 9 to 14) (size 15 to 20)
#    0.000    1.714    1.429    2.571    0.000    3.429 
#    2.571    8.571    0.000    0.000    0.000    0.000 
#    0.000    0.000    0.000    0.000    0.000    0.000 
#
# Total GULP energy -173552.250451 kJ/mol
# GULP energy per Si atom -12396.589318 kJ/mol
# Density = 2.375660 g / cm^3
# Si number density = 23.810797 Si / 1000 Ang^3
#
#
#
# Elastic Constant Matrix: (Units=GPa)
#
#
# Indices 1 2 3 4 5 6 
#
# 1 104.4850 13.3464 36.7324 9.5565 0.3834 -16.7617
# 2 13.3464 51.1660 36.9750 -7.7806 13.2309 -28.0261
# 3 36.7324 36.9750 179.1705 -6.8010 19.5526 -10.9858
# 4 9.5565 -7.7806 -6.8010 33.5760 -7.5767 8.0792
# 5 0.3834 13.2309 19.5526 -7.5767 44.1652 -1.1918
# 6 -16.7617 -28.0261 -10.9858 8.0792 -1.1918 30.6506
#
#
#
# Elastic Compliance Matrix: (Units=1/GPa)
#
#
# Indices 1 2 3 4 5 6 
#
# 1 0.012384 0.004302 -0.002874 -0.006003 -0.000851 0.011226
# 2 0.004302 0.053333 -0.007739 -0.005005 -0.012120 0.049193
# 3 -0.002874 -0.007739 0.007534 0.001923 -0.000837 -0.006487
# 4 -0.006003 -0.005005 0.001923 0.036135 0.006456 -0.016444
# 5 -0.000851 -0.012120 -0.000837 0.006456 0.027422 -0.012483
# 6 0.011226 0.049193 -0.006487 -0.016444 -0.012483 0.085270
#
#
# Mechanical properties :
#
#
# Convention : Reuss Voigt Hill
#
# Bulk Modulus (GPa) = 16.49329 56.54767 36.52048
# Shear Modulus (GPa) = 19.61472 38.19620 28.90546
#
# Velocity S-wave (km/s) = 2.87326 4.00954 3.48798
# Velocity P-wave (km/s) = 4.23667 6.72573 5.62071
#
# Compressibility (1/GPa) = 0.06063072
#
# Stress axis : x y z
#
# Youngs Moduli (GPa) = 80.74610 18.74997 132.72913
#
# Poissons Ratio (x) = -0.08067 0.38140
# Poissons Ratio (y) = -0.34739 1.02725
# Poissons Ratio (z) = 0.23203 0.14511
#
# Static dielectric constant tensor:
#      x y z
#    x 5.273390 -0.689330 1.031550 
#    y -0.689330 4.497310 -0.670470 
#    z 1.031550 -0.670470 5.353700 
# 
# 
# High freq. dielectric constant tensor:
#      x y z
#    x 1.960690 -0.000210 0.006020 
#    y -0.000210 1.929450 0.001580 
#    z 0.006020 0.001580 1.945080 
# 
# From -- ./inp_files/322922.got.cif
#   From: 2010.06.25/outbox.cif.g09.slc.cpg/sg2_162_cif.got.tgz:322922.got - 2010.06.27 13:26:56.
