data_PCOD8002394
_publ_section_title
;
Structure prediction by ZEFSAII (Michael W. Deem and Ramdas Pophale) SiO2 
 PCOD8002394
Probable space group: P -1
;
_chemical_formula_sum "Si O2"
_cell_formula_units_Z 16
_cell_length_a 11.799115
_cell_length_b 8.983811
_cell_length_c 19.848385
_cell_angle_alpha 57.420883
_cell_angle_beta 150.039125
_cell_angle_gamma 132.961307
_cell_volume 761.125534
_symmetry_space_group_name_H-M "P -1"
_symmetry_group_IT_number 2
_symmetry_cell_setting 'triclinic'
loop_
_space_group_symop_operation_xyz
x,y,z
-x,-y,-z
loop_
_atom_site_type_symbol
_atom_site_label
_atom_site_fract_x
_atom_site_fract_y
_atom_site_fract_z
Si Si1 0.294868 0.227976 0.642622
Si Si2 0.343147 0.531849 0.351534
Si Si3 0.040724 0.750629 0.883487
Si Si4 0.205448 0.817863 0.660850
Si Si5 0.329795 0.210635 0.953373
Si Si6 0.300334 0.493463 0.110563
Si Si7 0.885105 0.510073 0.198191
Si Si8 0.301346 0.167483 0.104031
O O1 0.452980 0.298108 0.636235
O O2 0.439761 0.367749 0.746604
O O3 0.019216 0.221637 0.498988
O O4 0.253397 0.004028 0.689448
O O5 0.500000 0.500000 0.500000
O O6 0.167464 0.324871 0.267040
O O7 0.149597 0.603176 0.266503
O O8 0.908662 0.690301 0.904270
O O9 0.216557 0.997660 0.906139
O O10 0.206034 0.636055 0.992604
O O11 0.093212 0.616449 0.698169
O O12 0.470963 0.874219 0.740374
O O13 0.136714 0.303023 0.825307
O O14 0.634721 0.375803 0.051312
O O15 0.360663 0.171762 0.055787
O O16 0.366182 0.388365 0.109501
O O17 0.000000 0.000000 0.000000
#
# Coordination Sequence:
#
# PCOD8002394 Si02
#       8
#     2   2   2   2   2   2   2   2
#     4  10  22  40  65  86 121 158 206 246 299 353
#     4  11  22  39  63  88 120 163 199 241 299 368
#     4  10  21  36  61  91 122 153 202 250 294 353
#     4  10  22  40  61  88 118 164 197 253 295 355
#     4  10  21  38  59  88 121 159 195 253 302 349
#     4  10  20  35  60  94 120 153 198 256 295 349
#     4  10  21  38  61  85 125 157 198 245 304 352
#     4  11  21  34  60  91 122 154 201 239 303 359
#
# _framework density 21.0215
#
# number of rings (size 3 to 8) (size 9 to 14) (size 15 to 20)
#    0.000    1.750    2.500    2.250    5.250    1.000 
#    0.000    4.375    2.750    0.000    0.000    0.000 
#    0.000    0.000    0.000    0.000    0.000    0.000 
#
# Total GULP energy -198287.970581 kJ/mol
# GULP energy per Si atom -12392.998161 kJ/mol
# Density = 2.097365 g / cm^3
# Si number density = 21.021500 Si / 1000 Ang^3
#
#
#
# Elastic Constant Matrix: (Units=GPa)
#
#
# Indices 1 2 3 4 5 6 
#
# 1 62.9466 12.4476 51.8952 3.4084 14.2665 -5.5751
# 2 12.4476 110.0332 62.1925 -1.3669 0.9317 -22.2550
# 3 51.8952 62.1925 135.9181 1.3550 24.8470 -15.8295
# 4 3.4084 -1.3669 1.3550 29.5201 -3.1983 0.5452
# 5 14.2665 0.9317 24.8470 -3.1983 42.5749 2.4209
# 6 -5.5751 -22.2550 -15.8295 0.5452 2.4209 28.7670
#
#
#
# Elastic Compliance Matrix: (Units=1/GPa)
#
#
# Indices 1 2 3 4 5 6 
#
# 1 0.024510 0.003367 -0.010147 -0.002535 -0.002672 0.002044
# 2 0.003367 0.014447 -0.007503 0.000765 0.002567 0.007470
# 3 -0.010147 -0.007503 0.015913 -0.000568 -0.005850 0.001488
# 4 -0.002535 0.000765 -0.000568 0.034667 0.003836 -0.001192
# 5 -0.002672 0.002567 -0.005850 0.003836 0.028268 -0.004202
# 6 0.002044 0.007470 0.001488 -0.001192 -0.004202 0.042132
#
#
# Mechanical properties :
#
#
# Convention : Reuss Voigt Hill
#
# Bulk Modulus (GPa) = 38.01688 62.44097 50.22892
# Shear Modulus (GPa) = 25.34570 32.32991 28.83780
#
# Velocity S-wave (km/s) = 3.47609 3.92592 3.70783
# Velocity P-wave (km/s) = 5.85107 7.09354 6.50205
#
# Compressibility (1/GPa) = 0.02630411
#
# Stress axis : x y z
#
# Youngs Moduli (GPa) = 40.79925 69.22026 62.84023
#
# Poissons Ratio (x) = -0.23309 0.63766
# Poissons Ratio (y) = -0.13738 0.47149
# Poissons Ratio (z) = 0.41401 0.51936
#
# Static dielectric constant tensor:
#      x y z
#    x 5.008180 0.575610 1.251760 
#    y 0.575610 4.014220 0.449480 
#    z 1.251760 0.449480 4.773520 
# 
# 
# High freq. dielectric constant tensor:
#      x y z
#    x 1.813240 0.000440 0.014170 
#    y 0.000440 1.820390 -0.001800 
#    z 0.014170 -0.001800 1.828170 
# 
# From -- ./inp_files/345515.got.cif
#   From: 2010.06.25/outbox.cif.g09.slc.cpg/sg2_173_cif.got.tgz:345515.got - 2010.06.27 13:26:56.
