data_PCOD8002502
_publ_section_title
;
Structure prediction by ZEFSAII (Michael W. Deem and Ramdas Pophale) SiO2 
 PCOD8002502
Probable space group: P -1
;
_chemical_formula_sum "Si O2"
_cell_formula_units_Z 16
_cell_length_a 14.384167
_cell_length_b 9.187640
_cell_length_c 12.040265
_cell_angle_alpha 112.280147
_cell_angle_beta 105.738001
_cell_angle_gamma 29.357306
_cell_volume 715.677601
_symmetry_space_group_name_H-M "P -1"
_symmetry_group_IT_number 2
_symmetry_cell_setting 'triclinic'
loop_
_space_group_symop_operation_xyz
x,y,z
-x,-y,-z
loop_
_atom_site_type_symbol
_atom_site_label
_atom_site_fract_x
_atom_site_fract_y
_atom_site_fract_z
Si Si1 0.761513 0.752242 0.698875
Si Si2 0.080454 0.160769 0.509877
Si Si3 0.760143 0.505727 0.365637
Si Si4 0.666800 0.200368 0.717052
Si Si5 0.032108 0.476585 0.876256
Si Si6 0.003709 0.856004 0.869968
Si Si7 0.339710 0.839666 0.685639
Si Si8 0.506564 0.144393 0.432762
O O1 0.851939 0.633063 0.815459
O O2 0.641656 0.763273 0.649570
O O3 0.945831 0.496734 0.600817
O O4 0.629353 0.092118 0.740300
O O5 0.944218 0.224818 0.424912
O O6 0.243047 0.983452 0.424227
O O7 0.187782 0.947311 0.595854
O O8 0.580938 0.676085 0.422836
O O9 0.819341 0.357332 0.220430
O O10 0.703202 0.771881 0.411118
O O11 0.465385 0.566717 0.734858
O O12 0.807918 0.116078 0.809606
O O13 0.037389 0.649045 0.888114
O O14 0.234333 0.118360 0.804677
O O15 0.000000 0.500000 0.000000
O O16 0.000000 0.000000 0.000000
O O17 0.471306 0.738944 0.606390
#
# Coordination Sequence:
#
# PCOD8002502 Si02
#       8
#     2   2   2   2   2   2   2   2
#     4   9  20  38  62  84 120 163 198 238 304 363
#     4   9  19  35  61  83 121 163 190 231 304 367
#     4   9  19  37  61  89 121 158 198 243 296 364
#     4  10  21  37  60  91 121 155 202 249 294 355
#     4  10  22  44  62  83 117 166 205 242 302 366
#     4  10  21  43  64  86 118 167 207 241 295 360
#     4  11  22  38  61  94 122 151 199 257 302 349
#     4  10  20  35  63  96 118 149 204 248 302 353
#
# _framework density 22.356434
#
# number of rings (size 3 to 8) (size 9 to 14) (size 15 to 20)
#    0.000    2.250    1.250    0.750    7.000    1.000 
#    4.500    9.375    0.000    0.000    0.000    0.000 
#    0.000    0.000    0.000    0.000    0.000    0.000 
#
# Total GULP energy -198210.239521 kJ/mol
# GULP energy per Si atom -12388.139970 kJ/mol
# Density = 2.230555 g / cm^3
# Si number density = 22.356434 Si / 1000 Ang^3
#
#
#
# Elastic Constant Matrix: (Units=GPa)
#
#
# Indices 1 2 3 4 5 6 
#
# 1 57.4534 29.0105 40.8093 -1.2949 -5.0357 -2.1809
# 2 29.0105 152.9734 59.4070 -8.7786 4.3636 1.0517
# 3 40.8093 59.4070 172.1436 -9.2476 -2.0480 -4.5168
# 4 -1.2949 -8.7786 -9.2476 29.8000 -2.5780 0.4503
# 5 -5.0357 4.3636 -2.0480 -2.5780 31.9622 -0.2483
# 6 -2.1809 1.0517 -4.5168 0.4503 -0.2483 23.3456
#
#
#
# Elastic Compliance Matrix: (Units=1/GPa)
#
#
# Indices 1 2 3 4 5 6 
#
# 1 0.022157 -0.002697 -0.004290 -0.000879 0.003524 0.001416
# 2 -0.002697 0.007995 -0.002087 0.001473 -0.001539 -0.001061
# 3 -0.004290 -0.002087 0.007664 0.001580 0.000236 0.001148
# 4 -0.000879 0.001473 0.001580 0.034672 0.002554 -0.000484
# 5 0.003524 -0.001539 0.000236 0.002554 0.032279 0.000738
# 6 0.001416 -0.001061 0.001148 -0.000484 0.000738 0.043254
#
#
# Mechanical properties :
#
#
# Convention : Reuss Voigt Hill
#
# Bulk Modulus (GPa) = 50.84185 71.22490 61.03338
# Shear Modulus (GPa) = 28.94791 33.91113 31.42952
#
# Velocity S-wave (km/s) = 3.60229 3.89889 3.75352
# Velocity P-wave (km/s) = 6.33189 7.22471 6.79298
#
# Compressibility (1/GPa) = 0.01966883
#
# Stress axis : x y z
#
# Youngs Moduli (GPa) = 45.13203 125.08476 130.47799
#
# Poissons Ratio (x) = 0.33730 0.55979
# Poissons Ratio (y) = 0.12170 0.27227
# Poissons Ratio (z) = 0.19363 0.26101
#
# Static dielectric constant tensor:
#      x y z
#    x 3.715200 -0.314890 0.026180 
#    y -0.314890 4.323180 -0.110010 
#    z 0.026180 -0.110010 4.050850 
# 
# 
# High freq. dielectric constant tensor:
#      x y z
#    x 1.856960 -0.018530 0.004510 
#    y -0.018530 1.894230 -0.010500 
#    z 0.004510 -0.010500 1.869550 
# 
# From -- ./inp_files/274438.got.cif
#   From: 2010.06.25/outbox.cif.g09.slc.cpg/sg2_138_cif.got.tgz:274438.got - 2010.06.27 13:26:56.
