data_PCOD8002152
_publ_section_title
;
Structure prediction by ZEFSAII (Michael W. Deem and Ramdas Pophale) SiO2 
 PCOD8002152
Probable space group: P -1
;
_chemical_formula_sum "Si O2"
_cell_formula_units_Z 16
_cell_length_a 15.297433
_cell_length_b 13.361521
_cell_length_c 8.919488
_cell_angle_alpha 62.884364
_cell_angle_beta 31.802193
_cell_angle_gamma 62.414417
_cell_volume 843.949076
_symmetry_space_group_name_H-M "P -1"
_symmetry_group_IT_number 2
_symmetry_cell_setting 'triclinic'
loop_
_space_group_symop_operation_xyz
x,y,z
-x,-y,-z
loop_
_atom_site_type_symbol
_atom_site_label
_atom_site_fract_x
_atom_site_fract_y
_atom_site_fract_z
Si Si1 0.405657 0.425899 0.579719
Si Si2 0.725451 0.821481 0.276232
Si Si3 0.516831 0.167498 0.625973
Si Si4 0.266353 0.201389 0.225629
Si Si5 0.704311 0.439944 0.643618
Si Si6 0.608890 0.656658 0.799293
Si Si7 0.815433 0.976147 0.293858
Si Si8 0.916207 0.674224 0.851448
O O1 0.500000 0.500000 0.500000
O O2 0.517747 0.300437 0.497943
O O3 0.392339 0.484514 0.398876
O O4 0.215522 0.414643 0.915221
O O5 0.587421 0.883132 0.318920
O O6 0.645201 0.735780 0.556410
O O7 0.784725 0.920437 0.217908
O O8 0.876864 0.748950 0.009019
O O9 0.702465 0.098181 0.401815
O O10 0.428882 0.150785 0.924656
O O11 0.318526 0.302845 0.179717
O O12 0.211055 0.104350 0.474579
O O13 0.108794 0.247702 0.314995
O O14 0.700038 0.525884 0.731825
O O15 0.894950 0.388629 0.363854
O O16 0.593981 0.339743 0.901727
O O17 0.000000 0.000000 0.000000
#
# Coordination Sequence:
#
# PCOD8002152 Si02
#       8
#     2   2   2   2   2   2   2   2
#     4  10  20  36  58  87 118 151 197 228 281 349
#     4   9  20  40  59  82 114 153 191 235 292 344
#     4  10  20  40  60  80 110 160 192 225 288 353
#     4   9  21  41  56  81 116 154 191 233 294 344
#     4  11  20  34  58  88 120 154 197 230 284 340
#     4  10  20  35  56  83 121 153 191 235 282 348
#     4  11  23  38  60  88 113 140 194 253 291 329
#     4  10  21  38  60  86 117 155 193 235 285 346
#
# _framework density 18.958490000000001
#
# number of rings (size 3 to 8) (size 9 to 14) (size 15 to 20)
#    0.000    2.250    2.500    2.625    0.000    3.500 
#    2.250    2.500    0.000    0.000    0.000    0.000 
#    0.000    0.000    0.000    0.000    0.000    0.000 
#
# Total GULP energy -198326.228082 kJ/mol
# GULP energy per Si atom -12395.389255 kJ/mol
# Density = 1.891534 g / cm^3
# Si number density = 18.958490 Si / 1000 Ang^3
#
#
#
# Elastic Constant Matrix: (Units=GPa)
#
#
# Indices 1 2 3 4 5 6 
#
# 1 115.7729 65.0012 61.3735 -1.0591 14.1249 12.2147
# 2 65.0012 106.2472 73.4393 3.5238 -10.1677 4.2081
# 3 61.3735 73.4393 116.1157 17.5045 -4.6782 -0.4796
# 4 -1.0591 3.5238 17.5045 17.0933 1.0573 -2.8913
# 5 14.1249 -10.1677 -4.6782 1.0573 26.6992 0.1339
# 6 12.2147 4.2081 -0.4796 -2.8913 0.1339 24.0020
#
#
#
# Elastic Compliance Matrix: (Units=1/GPa)
#
#
# Indices 1 2 3 4 5 6 
#
# 1 0.020391 -0.008964 -0.007334 0.010313 -0.015856 -0.007621
# 2 -0.008964 0.022482 -0.009637 0.004116 0.011448 0.000859
# 3 -0.007334 -0.009637 0.021903 -0.020631 0.004848 0.003347
# 4 0.010313 0.004116 -0.020631 0.080657 -0.010715 0.003393
# 5 -0.015856 0.011448 0.004848 -0.010715 0.051453 0.004581
# 6 -0.007621 0.000859 0.003347 0.003393 0.004581 0.045841
#
#
# Mechanical properties :
#
#
# Convention : Reuss Voigt Hill
#
# Bulk Modulus (GPa) = 77.47631 81.97376 79.72503
# Shear Modulus (GPa) = 16.72810 22.78036 19.75423
#
# Velocity S-wave (km/s) = 2.97367 3.47016 3.23146
# Velocity P-wave (km/s) = 7.26259 7.70639 7.48778
#
# Compressibility (1/GPa) = 0.01290717
#
# Stress axis : x y z
#
# Youngs Moduli (GPa) = 49.04160 44.47971 45.65625
#
# Poissons Ratio (x) = 0.39869 0.33482
# Poissons Ratio (y) = 0.43958 0.44000
# Poissons Ratio (z) = 0.35965 0.42866
#
# Static dielectric constant tensor:
#      x y z
#    x 3.809130 0.211790 0.227520 
#    y 0.211790 3.442600 -0.024350 
#    z 0.227520 -0.024350 3.450490 
# 
# 
# High freq. dielectric constant tensor:
#      x y z
#    x 1.746490 0.006470 0.014480 
#    y 0.006470 1.727860 -0.004490 
#    z 0.014480 -0.004490 1.734970 
# 
# From -- ./inp_files/217656.got.cif
#   From: 2010.06.25/outbox.cif.g09.slc.cpg/sg2_109_cif.got.tgz:217656.got - 2010.06.27 13:26:56.
