data_PCOD8002855
_publ_section_title
;
Structure prediction by ZEFSAII (Michael W. Deem and Ramdas Pophale) SiO2 
 PCOD8002855
Probable space group: P -1
;
_chemical_formula_sum "Si O2"
_cell_formula_units_Z 14
_cell_length_a 11.125138
_cell_length_b 11.771885
_cell_length_c 8.828567
_cell_angle_alpha 39.952630
_cell_angle_beta 68.163501
_cell_angle_gamma 74.149047
_cell_volume 689.060532
_symmetry_space_group_name_H-M "P -1"
_symmetry_group_IT_number 2
_symmetry_cell_setting 'triclinic'
loop_
_space_group_symop_operation_xyz
x,y,z
-x,-y,-z
loop_
_atom_site_type_symbol
_atom_site_label
_atom_site_fract_x
_atom_site_fract_y
_atom_site_fract_z
Si Si1 0.619426 0.387718 0.111506
Si Si2 0.049295 0.651006 0.530330
Si Si3 0.029895 0.036263 0.121535
Si Si4 0.317877 0.151639 0.944226
Si Si5 0.284402 0.522947 0.718080
Si Si6 0.439829 0.849875 0.361190
Si Si7 0.859102 0.347011 0.850333
O O1 0.704465 0.499001 0.082112
O O2 0.566170 0.205211 0.402089
O O3 0.500000 0.500000 0.000000
O O4 0.708697 0.342517 0.972408
O O5 0.135205 0.557378 0.712348
O O6 0.133469 0.671906 0.315034
O O7 0.920700 0.535600 0.678021
O O8 0.011296 0.847038 0.408679
O O9 0.173510 0.114051 0.994962
O O10 0.930986 0.186865 0.068066
O O11 0.000000 0.000000 0.000000
O O12 0.357172 0.025404 0.193980
O O13 0.334973 0.351896 0.785072
O O14 0.412104 0.118703 0.791314
O O15 0.374246 0.691301 0.452841
#
# Coordination Sequence:
#
# PCOD8002855 Si02
#       7
#     2   2   2   2   2   2   2
#     4  10  24  43  59  90 129 158 200 255 313 363
#     4  10  20  38  66  91 115 160 211 247 296 364
#     4  10  20  36  59  92 119 153 203 252 295 352
#     4  11  19  40  65  90 120 160 210 253 290 364
#     4  10  21  39  63  90 119 161 207 246 305 355
#     4   9  23  38  61  89 122 157 209 247 303 356
#     4  10  22  39  62  87 125 161 198 255 308 353
#
# _framework density 20.317519000000001
#
# number of rings (size 3 to 8) (size 9 to 14) (size 15 to 20)
#    0.857    1.143    2.857    0.429    2.000    0.571 
#    5.143    2.143    0.000    0.000    0.000    0.000 
#    0.000    0.000    0.000    0.000    0.000    0.000 
#
# Total GULP energy -173524.970914 kJ/mol
# GULP energy per Si atom -12394.640780 kJ/mol
# Density = 2.027127 g / cm^3
# Si number density = 20.317519 Si / 1000 Ang^3
#
#
#
# Elastic Constant Matrix: (Units=GPa)
#
#
# Indices 1 2 3 4 5 6 
#
# 1 97.0928 29.3622 30.4756 -2.9399 17.6774 -23.9388
# 2 29.3622 64.6692 31.8060 -17.7209 -1.0482 -21.2399
# 3 30.4756 31.8060 96.0265 -8.7654 9.3600 -20.5839
# 4 -2.9399 -17.7209 -8.7654 40.8773 -0.1896 0.1447
# 5 17.6774 -1.0482 9.3600 -0.1896 29.5940 -1.4292
# 6 -23.9388 -21.2399 -20.5839 0.1447 -1.4292 35.9259
#
#
#
# Elastic Compliance Matrix: (Units=1/GPa)
#
#
# Indices 1 2 3 4 5 6 
#
# 1 0.015174 -0.004725 -0.001181 -0.001272 -0.008561 0.006305
# 2 -0.004725 0.025872 -0.004656 0.009870 0.005742 0.009668
# 3 -0.001181 -0.004656 0.013635 0.000789 -0.003568 0.004128
# 4 -0.001272 0.009870 0.000789 0.028807 0.001304 0.005376
# 5 -0.008561 0.005742 -0.003568 0.001304 0.040111 -0.002764
# 6 0.006305 0.009668 0.004128 0.005376 -0.002764 0.039986
#
#
# Mechanical properties :
#
#
# Convention : Reuss Voigt Hill
#
# Bulk Modulus (GPa) = 29.79983 49.00847 39.40415
# Shear Modulus (GPa) = 25.52390 32.35572 28.93981
#
# Velocity S-wave (km/s) = 3.54821 3.99495 3.77819
# Velocity P-wave (km/s) = 5.61117 6.74189 6.20235
#
# Compressibility (1/GPa) = 0.03355724
#
# Stress axis : x y z
#
# Youngs Moduli (GPa) = 65.90287 38.65217 73.33906
#
# Poissons Ratio (x) = 0.18265 0.08658
# Poissons Ratio (y) = 0.31141 0.34146
# Poissons Ratio (z) = 0.07780 0.17996
#
# Static dielectric constant tensor:
#      x y z
#    x 3.066730 -1.024220 0.547080 
#    y -1.024220 2.148740 0.146720 
#    z 0.547080 0.146720 3.525030 
# 
# 
# High freq. dielectric constant tensor:
#      x y z
#    x 1.797310 -0.008830 0.007830 
#    y -0.008830 1.773160 -0.026740 
#    z 0.007830 -0.026740 1.785640 
# 
# From -- ./inp_files/255704.got.cif
#   From: 2010.06.25/outbox.cif.g09.slc.cpg/sg2_128_cif.got.tgz:255704.got - 2010.06.27 13:26:56.
