data_PCOD8002242
_publ_section_title
;
Structure prediction by ZEFSAII (Michael W. Deem and Ramdas Pophale) SiO2 
 PCOD8002242
Probable space group: P -1
;
_chemical_formula_sum "Si O2"
_cell_formula_units_Z 16
_cell_length_a 15.990234
_cell_length_b 11.659600
_cell_length_c 10.307271
_cell_angle_alpha 50.571321
_cell_angle_beta 100.951806
_cell_angle_gamma 60.466128
_cell_volume 856.362800
_symmetry_space_group_name_H-M "P -1"
_symmetry_group_IT_number 2
_symmetry_cell_setting 'triclinic'
loop_
_space_group_symop_operation_xyz
x,y,z
-x,-y,-z
loop_
_atom_site_type_symbol
_atom_site_label
_atom_site_fract_x
_atom_site_fract_y
_atom_site_fract_z
Si Si1 0.066757 0.989053 0.149051
Si Si2 0.911470 0.094149 0.276452
Si Si3 0.870804 0.783459 0.100766
Si Si4 0.437460 0.777277 0.397180
Si Si5 0.421225 0.430685 0.151008
Si Si6 0.425275 0.778390 0.909199
Si Si7 0.881180 0.804261 0.388826
Si Si8 0.393793 0.488828 0.606529
O O1 0.974885 0.098471 0.173271
O O2 0.224833 0.695188 0.427963
O O3 0.071847 0.157191 0.004824
O O4 0.000000 0.000000 0.000000
O O5 0.923332 0.904283 0.384197
O O6 0.746281 0.380386 0.042497
O O7 0.000000 0.000000 0.500000
O O8 0.843087 0.872721 0.176482
O O9 0.985726 0.490909 0.333775
O O10 0.721342 0.932279 0.888710
O O11 0.501743 0.749267 0.570802
O O12 0.423737 0.620441 0.512342
O O13 0.549709 0.666857 0.397144
O O14 0.509257 0.245558 0.185905
O O15 0.432004 0.591894 0.043883
O O16 0.259033 0.063760 0.673167
O O17 0.521712 0.703231 0.110127
#
# Coordination Sequence:
#
# PCOD8002242 Si02
#       8
#     2   2   2   2   2   2   2   2
#     4  11  20  33  55  83 111 144 182 222 270 325
#     4  11  22  37  56  83 115 148 177 221 277 329
#     4  10  20  35  58  85 110 141 181 231 274 321
#     4   9  16  29  50  78 103 133 180 230 264 299
#     4   9  18  30  51  77 107 136 181 226 265 309
#     4   9  16  31  51  77 102 138 179 226 264 312
#     4  10  20  36  58  82 112 143 180 228 277 321
#     4   9  16  26  49  74 102 136 177 225 261 303
#
# _framework density 18.683671
#
# number of rings (size 3 to 8) (size 9 to 14) (size 15 to 20)
#    0.000    2.250    2.500    1.500    3.500    3.000 
#    0.000    2.500    0.000    9.000    0.000    0.000 
#    0.000    0.000    0.000    0.000    0.000    0.000 
#
# Total GULP energy -198396.985588 kJ/mol
# GULP energy per Si atom -12399.811599 kJ/mol
# Density = 1.864115 g / cm^3
# Si number density = 18.683671 Si / 1000 Ang^3
#
#
#
# Elastic Constant Matrix: (Units=GPa)
#
#
# Indices 1 2 3 4 5 6 
#
# 1 65.4652 46.9271 41.8779 0.3511 15.1382 -23.8934
# 2 46.9271 134.6243 74.2429 15.8702 11.2098 -37.1907
# 3 41.8779 74.2429 143.1645 14.5570 26.5630 -13.6156
# 4 0.3511 15.8702 14.5570 36.8533 0.1606 -0.2227
# 5 15.1382 11.2098 26.5630 0.1606 26.6492 -2.5996
# 6 -23.8934 -37.1907 -13.6156 -0.2227 -2.5996 35.6430
#
#
#
# Elastic Compliance Matrix: (Units=1/GPa)
#
#
# Indices 1 2 3 4 5 6 
#
# 1 0.026478 -0.003651 -0.003306 0.002738 -0.009052 0.012034
# 2 -0.003651 0.015418 -0.005883 -0.004223 0.002605 0.011557
# 3 -0.003306 -0.005883 0.012393 -0.002320 -0.008401 -0.004247
# 4 0.002738 -0.004223 -0.002320 0.029816 0.002049 -0.003121
# 5 -0.009052 0.002605 -0.008401 0.002049 0.049647 -0.002926
# 6 0.012034 0.011557 -0.004247 -0.003121 -0.002926 0.046327
#
#
# Mechanical properties :
#
#
# Convention : Reuss Voigt Hill
#
# Bulk Modulus (GPa) = 34.95217 74.37220 54.66218
# Shear Modulus (GPa) = 23.22385 31.84283 27.53334
#
# Velocity S-wave (km/s) = 3.52945 4.13281 3.84299
# Velocity P-wave (km/s) = 5.94620 7.91618 7.00083
#
# Compressibility (1/GPa) = 0.02861053
#
# Stress axis : x y z
#
# Youngs Moduli (GPa) = 37.76693 64.85735 80.68803
#
# Poissons Ratio (x) = 0.23678 0.26678
# Poissons Ratio (y) = 0.13788 0.47466
# Poissons Ratio (z) = 0.12487 0.38153
#
# Static dielectric constant tensor:
#      x y z
#    x 3.133510 -0.301780 0.259130 
#    y -0.301780 3.501970 0.162480 
#    z 0.259130 0.162480 3.576810 
# 
# 
# High freq. dielectric constant tensor:
#      x y z
#    x 1.692360 -0.029300 0.025010 
#    y -0.029300 1.724380 0.011300 
#    z 0.025010 0.011300 1.732450 
# 
# From -- ./inp_files/270366.got.cif
#   From: 2010.06.25/outbox.cif.g09.slc.cpg/sg2_136_cif.got.tgz:270366.got - 2010.06.27 13:26:56.
