data_PCOD8002369
_publ_section_title
;
Structure prediction by ZEFSAII (Michael W. Deem and Ramdas Pophale) SiO2 
 PCOD8002369
Probable space group: P -1
;
_chemical_formula_sum "Si O2"
_cell_formula_units_Z 14
_cell_length_a 10.065188
_cell_length_b 18.368474
_cell_length_c 12.369315
_cell_angle_alpha 35.921357
_cell_angle_beta 33.545253
_cell_angle_gamma 34.532646
_cell_volume 658.613830
_symmetry_space_group_name_H-M "P -1"
_symmetry_group_IT_number 2
_symmetry_cell_setting 'triclinic'
loop_
_space_group_symop_operation_xyz
x,y,z
-x,-y,-z
loop_
_atom_site_type_symbol
_atom_site_label
_atom_site_fract_x
_atom_site_fract_y
_atom_site_fract_z
Si Si1 0.132653 0.357374 0.925600
Si Si2 0.850119 0.196555 0.785096
Si Si3 0.682068 0.332534 0.509796
Si Si4 0.686489 0.952842 0.195699
Si Si5 0.063456 0.049178 0.508632
Si Si6 0.203491 0.109709 0.032929
Si Si7 0.669806 0.579699 0.083761
O O1 0.370155 0.362001 0.687930
O O2 0.214328 0.330399 0.031494
O O3 0.080642 0.237014 0.049242
O O4 0.846186 0.502482 0.950866
O O5 0.835980 0.277251 0.586491
O O6 0.633722 0.312515 0.875621
O O7 0.148451 0.137058 0.704737
O O8 0.764769 0.075393 0.969026
O O9 0.673037 0.475509 0.303388
O O10 0.856934 0.213216 0.449926
O O11 0.370306 0.018139 0.356224
O O12 0.770454 0.850182 0.157151
O O13 0.000000 0.000000 0.500000
O O14 0.990668 0.964937 0.750575
O O15 0.500000 0.000000 0.000000
#
# Coordination Sequence:
#
# PCOD8002369 Si02
#       7
#     2   2   2   2   2   2   2
#     4  10  20  35  60  89 119 152 200 248 298 345
#     4  10  22  44  59  85 131 158 198 254 295 363
#     4  11  21  37  61  92 118 155 204 249 296 349
#     4  11  24  41  60  90 124 161 199 249 308 352
#     4  12  23  34  64  95 119 156 201 254 301 356
#     4  12  20  39  59  89 123 153 201 251 299 352
#     4  10  22  37  62  91 116 159 205 245 297 351
#
# _framework density 21.256768000000001
#
# number of rings (size 3 to 8) (size 9 to 14) (size 15 to 20)
#    0.000    1.143    4.286    3.429    6.000    0.571 
#    0.000    0.714    0.000   10.286    0.000    0.000 
#    0.000    0.000    0.000    0.000    0.000    0.000 
#
# Total GULP energy -173433.078384 kJ/mol
# GULP energy per Si atom -12388.077027 kJ/mol
# Density = 2.120839 g / cm^3
# Si number density = 21.256768 Si / 1000 Ang^3
#
#
#
# Elastic Constant Matrix: (Units=GPa)
#
#
# Indices 1 2 3 4 5 6 
#
# 1 82.6293 52.2279 33.2341 2.9970 -6.0362 -4.2742
# 2 52.2279 155.3076 21.3587 17.4430 -2.8800 9.5156
# 3 33.2341 21.3587 64.1587 10.3621 -4.9786 -7.6413
# 4 2.9970 17.4430 10.3621 32.4851 -3.1114 -4.8197
# 5 -6.0362 -2.8800 -4.9786 -3.1114 26.7208 2.7809
# 6 -4.2742 9.5156 -7.6413 -4.8197 2.7809 33.7178
#
#
#
# Elastic Compliance Matrix: (Units=1/GPa)
#
#
# Indices 1 2 3 4 5 6 
#
# 1 0.019404 -0.006042 -0.008286 0.004742 0.002453 0.002763
# 2 -0.006042 0.009233 0.000377 -0.005158 -0.000486 -0.003984
# 3 -0.008286 0.000377 0.021079 -0.005648 0.001156 0.002717
# 4 0.004742 -0.005158 -0.005648 0.036053 0.003070 0.005677
# 5 0.002453 -0.000486 0.001156 0.003070 0.038711 -0.002044
# 6 0.002763 -0.003984 0.002717 0.005677 -0.002044 0.032728
#
#
# Mechanical properties :
#
#
# Convention : Reuss Voigt Hill
#
# Bulk Modulus (GPa) = 45.84419 57.30412 51.57415
# Shear Modulus (GPa) = 25.98969 31.60305 28.79637
#
# Velocity S-wave (km/s) = 3.50044 3.86000 3.68461
# Velocity P-wave (km/s) = 6.16045 6.84709 6.51283
#
# Compressibility (1/GPa) = 0.02181302
#
# Stress axis : x y z
#
# Youngs Moduli (GPa) = 51.53474 108.30353 47.44124
#
# Poissons Ratio (x) = 0.65440 0.39312
# Poissons Ratio (y) = 0.31139 -0.01789
# Poissons Ratio (z) = 0.42704 -0.04084
#
# Static dielectric constant tensor:
#      x y z
#    x 3.618980 0.262600 -0.084390 
#    y 0.262600 4.601530 0.460610 
#    z -0.084390 0.460610 4.785810 
# 
# 
# High freq. dielectric constant tensor:
#      x y z
#    x 1.792380 0.022800 -0.013100 
#    y 0.022800 1.853870 0.020860 
#    z -0.013100 0.020860 1.831960 
# 
# From -- ./inp_files/332580.got.cif
#   From: 2010.06.25/outbox.cif.g09.slc.cpg/sg2_167_cif.got.tgz:332580.got - 2010.06.27 13:26:56.
