data_PCOD8002624
_publ_section_title
;
Structure prediction by ZEFSAII (Michael W. Deem and Ramdas Pophale) SiO2 
 PCOD8002624
Probable space group: P -1
;
_chemical_formula_sum "Si O2"
_cell_formula_units_Z 16
_cell_length_a 12.864575
_cell_length_b 9.338792
_cell_length_c 15.351128
_cell_angle_alpha 50.389709
_cell_angle_beta 116.413690
_cell_angle_gamma 144.206333
_cell_volume 820.231382
_symmetry_space_group_name_H-M "P -1"
_symmetry_group_IT_number 2
_symmetry_cell_setting 'triclinic'
loop_
_space_group_symop_operation_xyz
x,y,z
-x,-y,-z
loop_
_atom_site_type_symbol
_atom_site_label
_atom_site_fract_x
_atom_site_fract_y
_atom_site_fract_z
Si Si1 0.400176 0.716853 0.404866
Si Si2 0.402813 0.644168 0.237908
Si Si3 0.855317 0.254059 0.729962
Si Si4 0.781206 0.263064 0.411267
Si Si5 0.155134 0.687650 0.103215
Si Si6 0.796867 0.062540 0.153354
Si Si7 0.695545 0.860607 0.673962
Si Si8 0.701069 0.546449 0.352986
O O1 0.397610 0.609525 0.353378
O O2 0.268867 0.729577 0.352291
O O3 0.333235 0.491212 0.541096
O O4 0.598366 0.032051 0.378471
O O5 0.306439 0.713990 0.144975
O O6 0.294093 0.340050 0.273696
O O7 0.608475 0.903242 0.183172
O O8 0.833835 0.187437 0.850270
O O9 0.060180 0.559581 0.667925
O O10 0.793257 0.997869 0.750919
O O11 0.799263 0.479332 0.386046
O O12 0.798104 0.117004 0.543478
O O13 0.956806 0.358662 0.149199
O O14 0.194472 0.883420 0.966795
O O15 0.821991 0.872087 0.247787
O O16 0.490220 0.674694 0.680947
#
# Coordination Sequence:
#
# PCOD8002624 Si02
#       8
#     2   2   2   2   2   2   2   2
#     4  10  20  37  56  88 117 141 188 227 273 341
#     4  10  22  37  63  85 111 147 183 235 283 326
#     4  11  21  35  59  83 113 150 187 224 278 333
#     4  11  20  34  58  82 122 153 173 225 288 328
#     4  10  23  41  60  81 110 147 192 241 268 324
#     4  10  22  41  60  80 112 148 193 227 283 326
#     4  10  20  36  56  88 117 146 182 225 283 341
#     4  10  20  36  59  83 116 153 179 231 277 331
#
# _framework density 19.506691
#
# number of rings (size 3 to 8) (size 9 to 14) (size 15 to 20)
#    0.000    1.750    2.500    2.250    1.750    5.500 
#    0.000    5.625    2.750    0.000    0.000    0.000 
#    0.000    0.000    0.000    0.000    0.000    0.000 
#
# Total GULP energy -198446.830138 kJ/mol
# GULP energy per Si atom -12402.926884 kJ/mol
# Density = 1.946229 g / cm^3
# Si number density = 19.506691 Si / 1000 Ang^3
#
#
#
# Elastic Constant Matrix: (Units=GPa)
#
#
# Indices 1 2 3 4 5 6 
#
# 1 74.7753 53.8929 30.8298 -2.5711 -17.6919 -7.3821
# 2 53.8929 99.5695 66.0891 7.0397 -7.7790 -12.3508
# 3 30.8298 66.0891 102.3692 -1.5347 -6.1127 -10.2920
# 4 -2.5711 7.0397 -1.5347 26.9946 -1.5831 -1.3198
# 5 -17.6919 -7.7790 -6.1127 -1.5831 18.3571 -1.6636
# 6 -7.3821 -12.3508 -10.2920 -1.3198 -1.6636 34.0964
#
#
#
# Elastic Compliance Matrix: (Units=1/GPa)
#
#
# Indices 1 2 3 4 5 6 
#
# 1 0.031095 -0.017930 0.004145 0.009480 0.024845 0.003068
# 2 -0.017930 0.029246 -0.014105 -0.010669 -0.010365 0.001535
# 3 0.004145 -0.014105 0.018161 0.005464 0.004691 0.001710
# 4 0.009480 -0.010669 0.005464 0.041735 0.010211 0.001951
# 5 0.024845 -0.010365 0.004691 0.010211 0.077123 0.007199
# 6 0.003068 0.001535 0.001710 0.001951 0.007199 0.031492
#
#
# Mechanical properties :
#
#
# Convention : Reuss Voigt Hill
#
# Bulk Modulus (GPa) = 44.01440 64.25975 54.13708
# Shear Modulus (GPa) = 17.11135 24.28309 20.69722
#
# Velocity S-wave (km/s) = 2.96498 3.53208 3.26088
# Velocity P-wave (km/s) = 5.85954 7.04614 6.48006
#
# Compressibility (1/GPa) = 0.02271984
#
# Stress axis : x y z
#
# Youngs Moduli (GPa) = 32.16002 34.19322 55.06446
#
# Poissons Ratio (x) = 0.61309 -0.22826
# Poissons Ratio (y) = 0.57664 0.77671
# Poissons Ratio (z) = -0.13331 0.48231
#
# Static dielectric constant tensor:
#      x y z
#    x 3.571580 -0.013010 -0.088400 
#    y -0.013010 3.655320 0.079780 
#    z -0.088400 0.079780 3.478440 
# 
# 
# High freq. dielectric constant tensor:
#      x y z
#    x 1.763470 0.006390 -0.008090 
#    y 0.006390 1.767840 0.004760 
#    z -0.008090 0.004760 1.745380 
# 
# From -- ./inp_files/170483.got.cif
#   From: 2010.06.25/outbox.cif.g09.slc.cpg/sg2_86_cif.got.tgz:170483.got - 2010.06.27 13:26:56.
