data_PCOD8002529
_publ_section_title
;
Structure prediction by ZEFSAII (Michael W. Deem and Ramdas Pophale) SiO2 
 PCOD8002529
Probable space group: P -1
;
_chemical_formula_sum "Si O2"
_cell_formula_units_Z 14
_cell_length_a 13.969512
_cell_length_b 8.193736
_cell_length_c 10.545637
_cell_angle_alpha 135.696333
_cell_angle_beta 125.641988
_cell_angle_gamma 55.374938
_cell_volume 660.414662
_symmetry_space_group_name_H-M "P -1"
_symmetry_group_IT_number 2
_symmetry_cell_setting 'triclinic'
loop_
_space_group_symop_operation_xyz
x,y,z
-x,-y,-z
loop_
_atom_site_type_symbol
_atom_site_label
_atom_site_fract_x
_atom_site_fract_y
_atom_site_fract_z
Si Si1 0.582240 0.276985 0.211464
Si Si2 0.376227 0.186906 0.161386
Si Si3 0.119345 0.264869 0.318226
Si Si4 0.392603 0.212102 0.482062
Si Si5 0.113075 0.438328 0.145986
Si Si6 0.832331 0.091854 0.422737
Si Si7 0.997904 0.190314 0.414541
O O1 0.453111 0.322303 0.208047
O O2 0.599804 0.529049 0.312579
O O3 0.688529 0.142712 0.317904
O O4 0.586299 0.100863 0.996999
O O5 0.405626 0.230691 0.352455
O O6 0.233268 0.301436 0.083796
O O7 0.264769 0.160846 0.392917
O O8 0.087843 0.264862 0.144365
O O9 0.048164 0.111211 0.266035
O O10 0.079073 0.533296 0.493447
O O11 0.500000 0.000000 0.500000
O O12 0.137015 0.674987 0.360602
O O13 0.000000 0.500000 0.000000
O O14 0.905934 0.039110 0.314397
O O15 0.883692 0.862633 0.428197
#
# Coordination Sequence:
#
# PCOD8002529 Si02
#       7
#     2   2   2   2   2   2   2
#     4  11  22  42  63  92 122 165 216 254 311 364
#     4  10  24  40  64  91 126 159 213 267 291 379
#     4   9  19  37  54  91 122 156 202 250 313 367
#     4  11  23  40  65  87 127 169 199 262 313 373
#     4  10  21  37  59  90 124 160 201 256 311 368
#     4  10  20  35  65  89 115 169 203 258 314 365
#     4   9  18  33  58  90 114 151 212 244 306 375
#
# _framework density 21.198803000000002
#
# number of rings (size 3 to 8) (size 9 to 14) (size 15 to 20)
#    0.000    2.000    4.286    0.429    8.000    0.571 
#    0.000    0.714    3.143    0.000    0.000    0.000 
#    0.000    0.000    0.000    0.000    0.000    0.000 
#
# Total GULP energy -173512.878479 kJ/mol
# GULP energy per Si atom -12393.777034 kJ/mol
# Density = 2.115055 g / cm^3
# Si number density = 21.198803 Si / 1000 Ang^3
#
#
#
# Elastic Constant Matrix: (Units=GPa)
#
#
# Indices 1 2 3 4 5 6 
#
# 1 157.8871 45.8401 26.8848 -19.6415 -13.7546 -11.6036
# 2 45.8401 114.2771 5.8290 -19.5167 3.5329 -20.4414
# 3 26.8848 5.8290 47.5036 -0.7007 8.4146 -0.2327
# 4 -19.6415 -19.5167 -0.7007 29.1998 -4.3786 0.5674
# 5 -13.7546 3.5329 8.4146 -4.3786 17.1108 -2.1259
# 6 -11.6036 -20.4414 -0.2327 0.5674 -2.1259 30.0517
#
#
#
# Elastic Compliance Matrix: (Units=1/GPa)
#
#
# Indices 1 2 3 4 5 6 
#
# 1 0.011285 -0.002573 -0.008850 0.008058 0.016458 0.003551
# 2 -0.002573 0.012071 0.000532 0.005846 -0.002464 0.006937
# 3 -0.008850 0.000532 0.030244 -0.008508 -0.024823 -0.004417
# 4 0.008058 0.005846 -0.008508 0.046569 0.022331 0.007722
# 5 0.016458 -0.002464 -0.024823 0.022331 0.091412 0.010531
# 6 0.003551 0.006937 -0.004417 0.007722 0.010531 0.039931
#
#
# Mechanical properties :
#
#
# Convention : Reuss Voigt Hill
#
# Bulk Modulus (GPa) = 31.42893 52.97507 42.20200
# Shear Modulus (GPa) = 18.94665 31.34669 25.14667
#
# Velocity S-wave (km/s) = 2.99283 3.84956 3.44791
# Velocity P-wave (km/s) = 5.17694 6.69348 5.98345
#
# Compressibility (1/GPa) = 0.03181782
#
# Stress axis : x y z
#
# Youngs Moduli (GPa) = 88.61606 82.84350 33.06394
#
# Poissons Ratio (x) = 0.21313 0.29261
# Poissons Ratio (y) = 0.22798 -0.01757
# Poissons Ratio (z) = 0.78424 -0.04403
#
# Static dielectric constant tensor:
#      x y z
#    x 4.342620 -0.049580 -0.199900 
#    y -0.049580 4.187830 -0.034310 
#    z -0.199900 -0.034310 3.637010 
# 
# 
# High freq. dielectric constant tensor:
#      x y z
#    x 1.841860 -0.019500 -0.010510 
#    y -0.019500 1.826870 0.000330 
#    z -0.010510 0.000330 1.804450 
# 
# From -- ./inp_files/352859.got.cif
#   From: 2010.06.25/outbox.cif.g09.slc.cpg/sg2_177_cif.got.tgz:352859.got - 2010.06.27 13:26:56.
