data_PCOD8002136
_publ_section_title
;
Structure prediction by ZEFSAII (Michael W. Deem and Ramdas Pophale) SiO2 
 PCOD8002136
Probable space group: P -1
;
_chemical_formula_sum "Si O2"
_cell_formula_units_Z 16
_cell_length_a 11.287829
_cell_length_b 16.066909
_cell_length_c 9.980090
_cell_angle_alpha 29.733459
_cell_angle_beta 79.979954
_cell_angle_gamma 70.935869
_cell_volume 824.930034
_symmetry_space_group_name_H-M "P -1"
_symmetry_group_IT_number 2
_symmetry_cell_setting 'triclinic'
loop_
_space_group_symop_operation_xyz
x,y,z
-x,-y,-z
loop_
_atom_site_type_symbol
_atom_site_label
_atom_site_fract_x
_atom_site_fract_y
_atom_site_fract_z
Si Si1 0.620602 0.472771 0.107348
Si Si2 0.875202 0.785819 0.615645
Si Si3 0.620602 0.826509 0.753610
Si Si4 0.124798 0.562484 0.036052
Si Si5 0.626645 0.656197 0.262128
Si Si6 0.118389 0.910577 0.005041
Si Si7 0.881611 0.444585 0.639796
Si Si8 0.373354 0.701167 0.380509
O O1 0.630415 0.320696 0.428202
O O2 0.500000 0.500000 0.000000
O O3 0.599711 0.659609 0.921462
O O4 0.750616 0.404783 0.090687
O O5 0.750616 0.849132 0.646340
O O6 0.870344 0.637916 0.715908
O O7 0.000001 0.708456 0.791543
O O8 0.881240 0.957866 0.298562
O O9 0.500000 0.000000 0.500000
O O10 0.630415 0.799992 0.948908
O O11 0.118758 0.595533 0.148040
O O12 0.751328 0.609168 0.397643
O O13 0.500000 0.743418 0.256583
O O14 0.624688 0.478103 0.441003
O O15 0.107351 0.731567 0.197947
O O16 0.248672 0.867306 0.125884
O O17 0.000000 0.000000 0.000000
O O18 0.000000 0.500000 0.500000
#
# Coordination Sequence:
#
# PCOD8002136 Si02
#       8
#     2   2   2   2   2   2   2   2
#     4  10  20  35  56  81 110 144 182 227 278 329
#     4  10  21  38  58  80 111 150 189 229 275 327
#     4  10  20  35  56  81 110 144 182 227 278 329
#     4  10  21  38  58  80 111 150 189 229 275 327
#     4   9  18  34  56  80 107 143 184 223 269 327
#     4  11  22  37  59  84 111 144 184 230 279 332
#     4  11  22  37  59  84 111 144 184 230 279 332
#     4   9  18  34  56  80 107 143 184 223 269 327
#
# _framework density 19.395583999999999
#
# number of rings (size 3 to 8) (size 9 to 14) (size 15 to 20)
#    0.000    2.000    0.000    3.750    0.000    7.500 
#    0.000    5.000    0.000    6.750    0.000    0.000 
#    0.000    0.000    0.000    0.000    0.000    0.000 
#
# Total GULP energy -198459.450455 kJ/mol
# GULP energy per Si atom -12403.715653 kJ/mol
# Density = 1.935144 g / cm^3
# Si number density = 19.395584 Si / 1000 Ang^3
#
#
#
# Elastic Constant Matrix: (Units=GPa)
#
#
# Indices 1 2 3 4 5 6 
#
# 1 178.3149 65.3421 72.7442 18.3596 17.1034 -29.9234
# 2 65.3421 98.0406 49.6643 27.3081 6.0406 -21.6292
# 3 72.7442 49.6643 133.2221 22.8936 10.1273 -19.7194
# 4 18.3596 27.3081 22.8936 33.8811 -4.3680 0.9615
# 5 17.1034 6.0406 10.1273 -4.3680 37.6714 3.3634
# 6 -29.9234 -21.6292 -19.7194 0.9615 3.3634 38.0748
#
#
#
# Elastic Compliance Matrix: (Units=1/GPa)
#
#
# Indices 1 2 3 4 5 6 
#
# 1 0.009010 -0.003244 -0.002662 -0.001019 -0.003346 0.004181
# 2 -0.003244 0.018686 -0.001562 -0.012897 -0.003302 0.007874
# 3 -0.002662 -0.001562 0.011072 -0.005177 -0.002394 0.003097
# 4 -0.001019 -0.012897 -0.005177 0.045662 0.010366 -0.012877
# 5 -0.003346 -0.003302 -0.002394 0.010366 0.031222 -0.008765
# 6 0.004181 0.007874 0.003097 -0.012877 -0.008765 0.036726
#
#
# Mechanical properties :
#
#
# Convention : Reuss Voigt Hill
#
# Bulk Modulus (GPa) = 41.96065 87.23097 64.59581
# Shear Modulus (GPa) = 28.52912 36.71392 32.62152
#
# Velocity S-wave (km/s) = 3.83940 4.35547 4.10555
# Velocity P-wave (km/s) = 6.42929 8.38843 7.47334
#
# Compressibility (1/GPa) = 0.02383185
#
# Stress axis : x y z
#
# Youngs Moduli (GPa) = 110.98170 53.51609 90.31632
#
# Poissons Ratio (x) = 0.17362 0.24044
# Poissons Ratio (y) = 0.36006 0.14106
# Poissons Ratio (z) = 0.29546 0.08358
#
# Static dielectric constant tensor:
#      x y z
#    x 3.683350 -0.085420 0.198710 
#    y -0.085420 3.237000 -0.076530 
#    z 0.198710 -0.076530 3.280960 
# 
# 
# High freq. dielectric constant tensor:
#      x y z
#    x 1.770020 -0.016510 0.009520 
#    y -0.016510 1.746190 0.019640 
#    z 0.009520 0.019640 1.760350 
# 
# From -- ./inp_files/271350.got.cif
#   From: 2010.06.25/outbox.cif.g09.slc.cpg/sg2_136_cif.got.tgz:271350.got - 2010.06.27 13:26:56.
