data_PCOD8002761
_publ_section_title
;
Structure prediction by ZEFSAII (Michael W. Deem and Ramdas Pophale) SiO2 
 PCOD8002761
Probable space group: P -1
;
_chemical_formula_sum "Si O2"
_cell_formula_units_Z 16
_cell_length_a 9.183843
_cell_length_b 17.849822
_cell_length_c 9.560415
_cell_angle_alpha 114.270532
_cell_angle_beta 46.618055
_cell_angle_gamma 131.995008
_cell_volume 843.128741
_symmetry_space_group_name_H-M "P -1"
_symmetry_group_IT_number 2
_symmetry_cell_setting 'triclinic'
loop_
_space_group_symop_operation_xyz
x,y,z
-x,-y,-z
loop_
_atom_site_type_symbol
_atom_site_label
_atom_site_fract_x
_atom_site_fract_y
_atom_site_fract_z
Si Si1 0.813949 0.743561 0.076587
Si Si2 0.285157 0.724565 0.999488
Si Si3 0.658887 0.100245 0.063144
Si Si4 0.560124 0.627537 0.679577
Si Si5 0.293098 0.402061 0.735692
Si Si6 0.986024 0.234463 0.321521
Si Si7 0.477082 0.808563 0.242951
Si Si8 0.323796 0.972836 0.720266
O O1 0.658933 0.644888 0.199921
O O2 0.624806 0.767658 0.173346
O O3 0.041300 0.839859 0.088034
O O4 0.912397 0.711042 0.855185
O O5 0.382850 0.662337 0.831266
O O6 0.394124 0.820898 0.898214
O O7 0.355094 0.756289 0.137399
O O8 0.993392 0.648573 0.129771
O O9 0.574755 0.060937 0.246674
O O10 0.500000 0.000000 0.000000
O O11 0.437493 0.521384 0.758398
O O12 0.599598 0.617997 0.484769
O O13 0.819470 0.710874 0.642366
O O14 0.733919 0.218341 0.524660
O O15 0.941342 0.125747 0.232424
O O16 0.670898 0.929015 0.175139
O O17 0.500000 0.000000 0.500000
#
# Coordination Sequence:
#
# PCOD8002761 Si02
#       8
#     2   2   2   2   2   2   2   2
#     4  10  23  38  60  89 117 156 194 247 293 347
#     4  11  21  38  65  86 119 160 196 239 298 356
#     4  10  20  36  58  90 120 155 194 241 287 345
#     4  11  22  40  65  86 113 160 202 240 305 352
#     4  10  24  42  60  87 122 147 199 261 293 344
#     4  10  21  38  59  88 118 154 200 238 289 352
#     4  11  20  38  62  86 122 158 193 237 295 352
#     4   9  20  34  57  85 121 153 190 234 290 342
#
# _framework density 18.976934
#
# number of rings (size 3 to 8) (size 9 to 14) (size 15 to 20)
#    0.000    1.750    3.750    0.375    0.000    7.500 
#    0.000    0.625    0.000   10.500    0.000    0.000 
#    0.000    0.000    0.000    0.000    0.000    0.000 
#
# Total GULP energy -198255.515128 kJ/mol
# GULP energy per Si atom -12390.969695 kJ/mol
# Density = 1.893374 g / cm^3
# Si number density = 18.976934 Si / 1000 Ang^3
#
#
#
# Elastic Constant Matrix: (Units=GPa)
#
#
# Indices 1 2 3 4 5 6 
#
# 1 119.4360 59.3944 50.3379 0.8823 6.8166 -17.4008
# 2 59.3944 91.8017 64.1221 9.2598 3.5925 -16.3732
# 3 50.3379 64.1221 103.4723 -3.4373 7.5148 -22.4073
# 4 0.8823 9.2598 -3.4373 26.5730 -4.6393 8.1331
# 5 6.8166 3.5925 7.5148 -4.6393 27.4298 -7.4326
# 6 -17.4008 -16.3732 -22.4073 8.1331 -7.4326 29.4192
#
#
#
# Elastic Compliance Matrix: (Units=1/GPa)
#
#
# Indices 1 2 3 4 5 6 
#
# 1 0.012787 -0.007078 -0.001266 0.001038 -0.001165 0.002079
# 2 -0.007078 0.025785 -0.012029 -0.011495 0.000929 0.004415
# 3 -0.001266 -0.012029 0.019175 0.004830 -0.001039 0.005564
# 4 0.001038 -0.011495 0.004830 0.047270 0.004088 -0.014140
# 5 -0.001165 0.000929 -0.001039 0.004088 0.039755 0.007951
# 6 0.002079 0.004415 0.005564 -0.014140 0.007951 0.047834
#
#
# Mechanical properties :
#
#
# Convention : Reuss Voigt Hill
#
# Bulk Modulus (GPa) = 58.81264 73.60210 66.20737
# Shear Modulus (GPa) = 20.91889 26.07477 23.49683
#
# Velocity S-wave (km/s) = 3.32374 3.71080 3.52259
# Velocity P-wave (km/s) = 6.76673 7.56501 7.17697
#
# Compressibility (1/GPa) = 0.01700315
#
# Stress axis : x y z
#
# Youngs Moduli (GPa) = 78.20162 38.78240 52.15034
#
# Poissons Ratio (x) = 0.27449 0.06600
# Poissons Ratio (y) = 0.55349 0.62732
# Poissons Ratio (z) = 0.09897 0.46652
#
# Static dielectric constant tensor:
#      x y z
#    x 3.491220 -0.222460 0.378360 
#    y -0.222460 4.079160 -0.077960 
#    z 0.378360 -0.077960 3.489470 
# 
# 
# High freq. dielectric constant tensor:
#      x y z
#    x 1.733140 0.006420 0.015130 
#    y 0.006420 1.748250 -0.007130 
#    z 0.015130 -0.007130 1.739620 
# 
# From -- ./inp_files/202722.got.cif
#   From: 2010.06.25/outbox.cif.g09.slc.cpg/sg2_102_cif.got.tgz:202722.got - 2010.06.27 13:26:56.
