data_PCOD8002364
_publ_section_title
;
Structure prediction by ZEFSAII (Michael W. Deem and Ramdas Pophale) SiO2 
 PCOD8002364
Probable space group: P -1
;
_chemical_formula_sum "Si O2"
_cell_formula_units_Z 12
_cell_length_a 13.032758
_cell_length_b 11.404637
_cell_length_c 13.385720
_cell_angle_alpha 31.500108
_cell_angle_beta 35.513514
_cell_angle_gamma 29.373222
_cell_volume 489.966346
_symmetry_space_group_name_H-M "P -1"
_symmetry_group_IT_number 2
_symmetry_cell_setting 'triclinic'
loop_
_space_group_symop_operation_xyz
x,y,z
-x,-y,-z
loop_
_atom_site_type_symbol
_atom_site_label
_atom_site_fract_x
_atom_site_fract_y
_atom_site_fract_z
Si Si1 0.931228 0.852117 0.233903
Si Si2 0.437867 0.298291 0.665287
Si Si3 0.653361 0.238445 0.350985
Si Si4 0.179087 0.541838 0.442396
Si Si5 0.020136 0.213141 0.389407
Si Si6 0.229663 0.356890 0.975691
O O1 0.839918 0.713585 0.341398
O O2 0.145100 0.621199 0.294722
O O3 0.749366 0.047779 0.316930
O O4 0.000000 0.000000 0.000000
O O5 0.500000 0.500000 0.500000
O O6 0.628174 0.101810 0.573828
O O7 0.197889 0.472999 0.678662
O O8 0.418720 0.166022 0.879962
O O9 0.405137 0.478251 0.343284
O O10 0.765283 0.392209 0.172121
O O11 0.983616 0.811589 0.467485
O O12 0.000000 0.000000 0.500000
O O13 0.230957 0.186519 0.194164
O O14 0.000000 0.500000 0.000000
#
# Coordination Sequence:
#
# PCOD8002364 Si02
#       6
#     2   2   2   2   2   2
#     4  11  24  43  72  89 124 176 213 268 333 369
#     4   8  17  33  55  85 117 157 202 243 301 380
#     4  10  20  40  66  90 131 166 208 272 319 366
#     4  10  24  43  62 100 127 161 226 264 307 399
#     4  10  20  35  60  88 129 160 196 264 317 365
#     4   9  18  34  62  90 125 168 210 244 313 393
#
# _framework density 24.491477
#
# number of rings (size 3 to 8) (size 9 to 14) (size 15 to 20)
#    0.000    2.333    0.000    1.500    7.000    0.667 
#    0.000    9.167    7.333    0.000    0.000    0.000 
#    0.000    0.000    0.000    0.000    0.000    0.000 
#
# Total GULP energy -148677.684450 kJ/mol
# GULP energy per Si atom -12389.807038 kJ/mol
# Density = 2.443573 g / cm^3
# Si number density = 24.491477 Si / 1000 Ang^3
#
#
#
# Elastic Constant Matrix: (Units=GPa)
#
#
# Indices 1 2 3 4 5 6 
#
# 1 103.4764 22.6693 60.4424 6.6895 -6.9347 25.6339
# 2 22.6693 110.5412 47.4496 33.0568 -3.8328 39.9152
# 3 60.4424 47.4496 183.2394 17.2817 13.5965 16.8542
# 4 6.6895 33.0568 17.2817 36.7363 7.3407 1.4658
# 5 -6.9347 -3.8328 13.5965 7.3407 51.8395 4.7285
# 6 25.6339 39.9152 16.8542 1.4658 4.7285 40.2605
#
#
#
# Elastic Compliance Matrix: (Units=1/GPa)
#
#
# Indices 1 2 3 4 5 6 
#
# 1 0.016082 0.007109 -0.005509 -0.007432 0.006587 -0.015484
# 2 0.007109 0.029961 -0.005457 -0.026660 0.011319 -0.032304
# 3 -0.005509 -0.005457 0.008208 0.002658 -0.004206 0.005879
# 4 -0.007432 -0.026660 0.002658 0.052897 -0.013867 0.029753
# 5 0.006587 0.011319 -0.004206 -0.013867 0.025548 -0.016151
# 6 -0.015484 -0.032304 0.005879 0.029753 -0.016151 0.065077
#
#
# Mechanical properties :
#
#
# Convention : Reuss Voigt Hill
#
# Bulk Modulus (GPa) = 21.48878 73.15328 47.32103
# Shear Modulus (GPa) = 22.62424 43.54699 33.08562
#
# Velocity S-wave (km/s) = 3.04264 4.22126 3.67945
# Velocity P-wave (km/s) = 4.59745 7.32751 6.11674
#
# Compressibility (1/GPa) = 0.04653592
#
# Stress axis : x y z
#
# Youngs Moduli (GPa) = 62.17958 33.37679 121.82658
#
# Poissons Ratio (x) = -0.23727 0.67118
# Poissons Ratio (y) = -0.44202 0.66486
# Poissons Ratio (z) = 0.34256 0.18215
#
# Static dielectric constant tensor:
#      x y z
#    x 5.020150 0.012420 0.852620 
#    y 0.012420 4.770820 0.658600 
#    z 0.852620 0.658600 6.616230 
# 
# 
# High freq. dielectric constant tensor:
#      x y z
#    x 1.996860 -0.011480 0.017960 
#    y -0.011480 1.991220 0.030580 
#    z 0.017960 0.030580 1.972950 
# 
# From -- ./inp_files/314994.got.cif
#   From: 2010.06.25/outbox.cif.g09.slc.cpg/sg2_158_cif.got.tgz:314994.got - 2010.06.27 13:26:56.
