data_PCOD8002155
_publ_section_title
;
Structure prediction by ZEFSAII (Michael W. Deem and Ramdas Pophale) SiO2 
 PCOD8002155
Probable space group: P -1
;
_chemical_formula_sum "Si O2"
_cell_formula_units_Z 16
_cell_length_a 8.748752
_cell_length_b 23.103828
_cell_length_c 22.496135
_cell_angle_alpha 17.289070
_cell_angle_beta 142.184009
_cell_angle_gamma 139.870050
_cell_volume 827.242505
_symmetry_space_group_name_H-M "P -1"
_symmetry_group_IT_number 2
_symmetry_cell_setting 'triclinic'
loop_
_space_group_symop_operation_xyz
x,y,z
-x,-y,-z
loop_
_atom_site_type_symbol
_atom_site_label
_atom_site_fract_x
_atom_site_fract_y
_atom_site_fract_z
Si Si1 0.149953 0.847301 0.819208
Si Si2 0.726173 0.459243 0.231604
Si Si3 0.592408 0.885903 0.583921
Si Si4 0.411543 0.107414 0.925138
Si Si5 0.755847 0.420854 0.782851
Si Si6 0.698123 0.853410 0.334487
Si Si7 0.044401 0.858841 0.320453
Si Si8 0.492881 0.150110 0.184555
O O1 0.306049 0.856006 0.799005
O O2 0.862177 0.804391 0.757008
O O3 0.179337 0.053998 0.659434
O O4 0.248900 0.678298 0.057086
O O5 0.590842 0.303370 0.298425
O O6 0.812699 0.341514 0.432151
O O7 0.961502 0.562968 0.168922
O O8 0.542506 0.624377 0.031880
O O9 0.500000 0.000000 0.500000
O O10 0.601496 0.036927 0.384366
O O11 0.585239 0.301857 0.799271
O O12 0.127555 0.161170 0.771998
O O13 0.500000 0.000000 0.000000
O O14 0.442514 0.958958 0.135785
O O15 0.634715 0.627854 0.548665
O O16 0.892364 0.890324 0.303790
O O17 0.232268 0.046027 0.184912
#
# Coordination Sequence:
#
# PCOD8002155 Si02
#       8
#     2   2   2   2   2   2   2   2
#     4  11  23  38  56  80 114 148 180 224 274 328
#     4  10  21  36  57  83 110 143 184 227 273 326
#     4  11  23  40  61  84 107 140 185 228 274 324
#     4   9  17  31  56  87 112 139 183 234 277 318
#     4  10  20  35  56  84 111 144 187 227 275 324
#     4   9  19  36  58  82 110 146 186 231 273 319
#     4   9  19  36  58  83 111 145 186 230 274 319
#     4  11  23  38  56  81 114 147 180 223 274 328
#
# _framework density 19.341367000000002
#
# number of rings (size 3 to 8) (size 9 to 14) (size 15 to 20)
#    0.000    2.000    0.000    5.625    0.000   11.000 
#    0.000    2.500    0.000    4.500    0.000    0.000 
#    0.000    0.000    0.000    0.000    0.000    0.000 
#
# Total GULP energy -198382.844377 kJ/mol
# GULP energy per Si atom -12398.927774 kJ/mol
# Density = 1.929735 g / cm^3
# Si number density = 19.341367 Si / 1000 Ang^3
#
#
#
# Elastic Constant Matrix: (Units=GPa)
#
#
# Indices 1 2 3 4 5 6 
#
# 1 89.2983 41.4862 28.6916 -4.2632 -7.0696 -1.6210
# 2 41.4862 144.7590 62.2656 1.6031 -1.1322 8.2186
# 3 28.6916 62.2656 118.6702 -14.9439 -1.2605 -1.5793
# 4 -4.2632 1.6031 -14.9439 34.1679 -2.2472 0.0893
# 5 -7.0696 -1.1322 -1.2605 -2.2472 17.4434 -2.7658
# 6 -1.6210 8.2186 -1.5793 0.0893 -2.7658 13.9978
#
#
#
# Elastic Compliance Matrix: (Units=1/GPa)
#
#
# Indices 1 2 3 4 5 6 
#
# 1 0.013988 -0.003836 -0.000996 0.001897 0.006387 0.005009
# 2 -0.003836 0.010744 -0.005283 -0.003466 -0.002939 -0.007907
# 3 -0.000996 -0.005283 0.012218 0.005560 0.001589 0.004643
# 4 0.001897 -0.003466 0.005560 0.032465 0.005732 0.003807
# 5 0.006387 -0.002939 0.001589 0.005732 0.062965 0.015049
# 6 0.005009 -0.007907 0.004643 0.003807 0.015049 0.080136
#
#
# Mechanical properties :
#
#
# Convention : Reuss Voigt Hill
#
# Bulk Modulus (GPa) = 59.80602 68.62380 64.21491
# Shear Modulus (GPa) = 20.98036 27.80742 24.39389
#
# Velocity S-wave (km/s) = 3.29711 3.79584 3.55523
# Velocity P-wave (km/s) = 6.74411 7.40058 7.07996
#
# Compressibility (1/GPa) = 0.01672072
#
# Stress axis : x y z
#
# Youngs Moduli (GPa) = 71.49237 93.07592 81.84542
#
# Poissons Ratio (x) = 0.35701 0.08151
# Poissons Ratio (y) = 0.27423 0.43237
# Poissons Ratio (z) = 0.07120 0.49170
#
# Static dielectric constant tensor:
#      x y z
#    x 3.176570 0.078720 0.072910 
#    y 0.078720 4.021610 0.361990 
#    z 0.072910 0.361990 4.008270 
# 
# 
# High freq. dielectric constant tensor:
#      x y z
#    x 1.717170 0.001300 0.000580 
#    y 0.001300 1.765090 0.004420 
#    z 0.000580 0.004420 1.769540 
# 
# From -- ./inp_files/505718.got.cif
#   From: 2010.06.25/outbox.cif.g09.slc.cpg/sg2_253_cif.got.tgz:505718.got - 2010.06.27 13:26:56.
