data_PCOD8002163
_publ_section_title
;
Structure prediction by ZEFSAII (Michael W. Deem and Ramdas Pophale) SiO2 
 PCOD8002163
Probable space group: P -1
;
_chemical_formula_sum "Si O2"
_cell_formula_units_Z 14
_cell_length_a 8.005273
_cell_length_b 13.023287
_cell_length_c 7.792587
_cell_angle_alpha 115.554742
_cell_angle_beta 56.673095
_cell_angle_gamma 112.956093
_cell_volume 599.656803
_symmetry_space_group_name_H-M "P -1"
_symmetry_group_IT_number 2
_symmetry_cell_setting 'triclinic'
loop_
_space_group_symop_operation_xyz
x,y,z
-x,-y,-z
loop_
_atom_site_type_symbol
_atom_site_label
_atom_site_fract_x
_atom_site_fract_y
_atom_site_fract_z
Si Si1 0.289323 0.724029 0.424105
Si Si2 0.650244 0.131941 0.848404
Si Si3 0.910875 0.582014 0.374578
Si Si4 0.904699 0.787324 0.283835
Si Si5 0.440951 0.500938 0.264272
Si Si6 0.178119 0.404723 0.036800
Si Si7 0.496259 0.132229 0.301923
O O1 0.361051 0.782991 0.242807
O O2 0.428980 0.634013 0.326995
O O3 0.325116 0.818086 0.626232
O O4 0.053054 0.654259 0.498442
O O5 0.884808 0.119494 0.745404
O O6 0.522213 0.005820 0.781370
O O7 0.556879 0.178748 0.108008
O O8 0.935581 0.665834 0.260748
O O9 0.670408 0.547750 0.532217
O O10 0.980540 0.460277 0.215466
O O11 0.719258 0.836775 0.501448
O O12 0.872550 0.735435 0.071613
O O13 0.325324 0.414946 0.123986
O O14 0.686146 0.512153 0.129887
#
# Coordination Sequence:
#
# PCOD8002163 Si02
#       7
#     2   2   2   2   2   2   2
#     4  10  20  42  64  90 122 163 199 251 307 358
#     4  10  25  42  66  90 122 155 209 264 302 362
#     4  10  23  37  59  91 126 160 199 245 295 369
#     4  11  23  39  61  92 123 160 203 254 303 361
#     4  10  21  37  58  90 124 158 205 242 290 374
#     4  10  20  35  56  86 123 160 197 242 296 354
#     4  11  23  44  65  91 118 163 207 254 315 355
#
# _framework density 23.346688
#
# number of rings (size 3 to 8) (size 9 to 14) (size 15 to 20)
#    0.000    1.714    1.429    3.000    4.000    5.143 
#    0.000    0.000    0.000    6.857    0.000    0.000 
#    0.000    0.000    0.000    0.000    0.000    0.000 
#
# Total GULP energy -173473.304816 kJ/mol
# GULP energy per Si atom -12390.950344 kJ/mol
# Density = 2.329355 g / cm^3
# Si number density = 23.346688 Si / 1000 Ang^3
#
#
#
# Elastic Constant Matrix: (Units=GPa)
#
#
# Indices 1 2 3 4 5 6 
#
# 1 41.4624 10.8217 12.8577 8.6989 2.5488 20.0299
# 2 10.8217 78.3073 32.1614 -4.4192 15.6883 8.9627
# 3 12.8577 32.1614 105.1907 3.4061 10.1352 22.5930
# 4 8.6989 -4.4192 3.4061 33.2861 8.1484 -0.6131
# 5 2.5488 15.6883 10.1352 8.1484 35.5909 -2.0438
# 6 20.0299 8.9627 22.5930 -0.6131 -2.0438 31.5856
#
#
#
# Elastic Compliance Matrix: (Units=1/GPa)
#
#
# Indices 1 2 3 4 5 6 
#
# 1 0.039271 -0.003973 0.002367 -0.011356 -0.000613 -0.025730
# 2 -0.003973 0.016732 -0.004214 0.005440 -0.007112 0.000431
# 3 0.002367 -0.004214 0.012848 -0.002174 -0.002028 -0.009669
# 4 -0.011356 0.005440 -0.002174 0.036255 -0.008844 0.007345
# 5 -0.000613 -0.007112 -0.002028 -0.008844 0.034217 0.005900
# 6 -0.025730 0.000431 -0.009669 0.007345 0.005900 0.055295
#
#
# Mechanical properties :
#
#
# Convention : Reuss Voigt Hill
#
# Bulk Modulus (GPa) = 17.47830 37.40468 27.44149
# Shear Modulus (GPa) = 22.18993 31.36717 26.77855
#
# Velocity S-wave (km/s) = 3.08629 3.66941 3.39041
# Velocity P-wave (km/s) = 4.49476 5.83172 5.20633
#
# Compressibility (1/GPa) = 0.05721379
#
# Stress axis : x y z
#
# Youngs Moduli (GPa) = 25.46411 59.76490 77.83278
#
# Poissons Ratio (x) = 0.23742 -0.18427
# Poissons Ratio (y) = 0.10116 0.32796
# Poissons Ratio (z) = -0.06029 0.25183
#
# Static dielectric constant tensor:
#      x y z
#    x 4.337090 0.504070 0.240540 
#    y 0.504070 4.149090 -0.115930 
#    z 0.240540 -0.115930 4.364220 
# 
# 
# High freq. dielectric constant tensor:
#      x y z
#    x 1.919660 0.033020 0.016360 
#    y 0.033020 1.911190 -0.005750 
#    z 0.016360 -0.005750 1.930020 
# 
# From -- ./inp_files/178338.got.cif
#   From: 2010.06.25/outbox.cif.g09.slc.cpg/sg2_90_cif.got.tgz:178338.got - 2010.06.27 13:26:56.
