data_PCOD8002078
_publ_section_title
;
Structure prediction by ZEFSAII (Michael W. Deem and Ramdas Pophale) SiO2 
 PCOD8002078
Probable space group: P -1
;
_chemical_formula_sum "Si O2"
_cell_formula_units_Z 16
_cell_length_a 22.590814
_cell_length_b 20.289960
_cell_length_c 9.390919
_cell_angle_alpha 139.173057
_cell_angle_beta 28.319344
_cell_angle_gamma 156.963504
_cell_volume 765.251689
_symmetry_space_group_name_H-M "P -1"
_symmetry_group_IT_number 2
_symmetry_cell_setting 'triclinic'
loop_
_space_group_symop_operation_xyz
x,y,z
-x,-y,-z
loop_
_atom_site_type_symbol
_atom_site_label
_atom_site_fract_x
_atom_site_fract_y
_atom_site_fract_z
Si Si1 0.768641 0.261335 0.746412
Si Si2 0.596179 0.463260 0.173080
Si Si3 0.906099 0.571107 0.905031
Si Si4 0.260751 0.911538 0.226667
Si Si5 0.140415 0.123649 0.121278
Si Si6 0.078466 0.833277 0.195277
Si Si7 0.910330 0.810757 0.934766
Si Si8 0.752794 0.879361 0.837394
O O1 0.882458 0.445405 0.818723
O O2 0.801011 0.224740 0.767208
O O3 0.884330 0.280964 0.401052
O O4 0.514559 0.103150 0.996248
O O5 0.500000 0.500000 0.500000
O O6 0.414509 0.286481 0.180800
O O7 0.687789 0.451851 0.083754
O O8 0.793190 0.629513 0.926994
O O9 0.929597 0.663261 0.136645
O O10 0.189378 0.842129 0.101081
O O11 0.141923 0.932899 0.574232
O O12 0.314232 0.183408 0.956532
O O13 0.061687 0.171208 0.445529
O O14 0.232724 0.221609 0.933174
O O15 0.950291 0.913732 0.150386
O O16 0.252864 0.005990 0.005126
O O17 0.000000 0.000000 0.500000
#
# Coordination Sequence:
#
# PCOD8002078 Si02
#       8
#     2   2   2   2   2   2   2   2
#     4  10  23  42  67  90 124 172 218 259 307 373
#     4  12  22  36  63  89 125 164 208 255 319 378
#     4  11  23  41  66  96 125 167 215 260 311 370
#     4  10  21  42  66  91 125 168 211 264 314 363
#     4   9  19  36  58  89 129 162 200 250 315 383
#     4  10  20  37  64  91 128 159 206 260 314 370
#     4  10  20  37  62  90 125 170 206 254 315 383
#     4  10  20  35  54  87 123 160 198 247 304 377
#
# _framework density 20.908154
#
# number of rings (size 3 to 8) (size 9 to 14) (size 15 to 20)
#    0.000    1.750    1.250    4.500    0.000    3.500 
#    0.000    2.500    0.000    0.000    0.000    0.000 
#    0.000    0.000    0.000    0.000    0.000    0.000 
#
# Total GULP energy -198246.803143 kJ/mol
# GULP energy per Si atom -12390.425196 kJ/mol
# Density = 2.086057 g / cm^3
# Si number density = 20.908154 Si / 1000 Ang^3
#
#
#
# Elastic Constant Matrix: (Units=GPa)
#
#
# Indices 1 2 3 4 5 6 
#
# 1 185.4033 68.4783 30.6795 7.2614 19.9621 5.5954
# 2 68.4783 126.2254 30.0398 14.5984 10.4406 14.9604
# 3 30.6795 30.0398 70.5337 1.0630 -0.0694 11.8797
# 4 7.2614 14.5984 1.0630 29.6198 4.8013 5.9881
# 5 19.9621 10.4406 -0.0694 4.8013 19.4972 3.3053
# 6 5.5954 14.9604 11.8797 5.9881 3.3053 41.6827
#
#
#
# Elastic Compliance Matrix: (Units=1/GPa)
#
#
# Indices 1 2 3 4 5 6 
#
# 1 0.007586 -0.003301 -0.002109 0.000636 -0.006364 0.001181
# 2 -0.003301 0.011227 -0.002938 -0.003988 -0.001310 -0.002073
# 3 -0.002109 -0.002938 0.017010 0.001508 0.004108 -0.004053
# 4 0.000636 -0.003988 0.001508 0.037452 -0.007071 -0.003904
# 5 -0.006364 -0.001310 0.004108 -0.007071 0.060883 -0.003658
# 6 0.001181 -0.002073 -0.004053 -0.003904 -0.003658 0.026582
#
#
# Mechanical properties :
#
#
# Convention : Reuss Voigt Hill
#
# Bulk Modulus (GPa) = 52.27762 71.17306 61.72534
# Shear Modulus (GPa) = 27.20170 35.02425 31.11298
#
# Velocity S-wave (km/s) = 3.61086 4.09730 3.86175
# Velocity P-wave (km/s) = 6.51477 7.51655 7.03352
#
# Compressibility (1/GPa) = 0.01912864
#
# Stress axis : x y z
#
# Youngs Moduli (GPa) = 131.81425 89.06716 58.78894
#
# Poissons Ratio (x) = 0.29400 0.12397
# Poissons Ratio (y) = 0.43511 0.17272
# Poissons Ratio (z) = 0.27795 0.26168
#
# Static dielectric constant tensor:
#      x y z
#    x 4.878010 -0.759540 0.332580 
#    y -0.759540 2.444020 -0.373500 
#    z 0.332580 -0.373500 3.695550 
# 
# 
# High freq. dielectric constant tensor:
#      x y z
#    x 1.847290 -0.013930 0.012770 
#    y -0.013930 1.810660 0.006800 
#    z 0.012770 0.006800 1.787650 
# 
# From -- ./inp_files/355290.got.cif
#   From: 2010.06.25/outbox.cif.g09.slc.cpg/sg2_178_cif.got.tgz:355290.got - 2010.06.27 13:26:56.
