data_PCOD8002874
_publ_section_title
;
Structure prediction by ZEFSAII (Michael W. Deem and Ramdas Pophale) SiO2 
 PCOD8002874
Probable space group: P -1
;
_chemical_formula_sum "Si O2"
_cell_formula_units_Z 10
_cell_length_a 11.574091
_cell_length_b 6.015616
_cell_length_c 11.448561
_cell_angle_alpha 63.671113
_cell_angle_beta 140.655915
_cell_angle_gamma 94.104126
_cell_volume 397.906307
_symmetry_space_group_name_H-M "P -1"
_symmetry_group_IT_number 2
_symmetry_cell_setting 'triclinic'
loop_
_space_group_symop_operation_xyz
x,y,z
-x,-y,-z
loop_
_atom_site_type_symbol
_atom_site_label
_atom_site_fract_x
_atom_site_fract_y
_atom_site_fract_z
Si Si1 0.057599 0.735346 0.817548
Si Si2 0.718856 0.165072 0.599390
Si Si3 0.370234 0.111764 0.205926
Si Si4 0.819386 0.603095 0.483678
Si Si5 0.746151 0.904293 0.133731
O O1 0.885217 0.793909 0.569778
O O2 0.951296 0.920095 0.807036
O O3 0.231125 0.816777 0.887181
O O4 0.168827 0.405420 0.011688
O O5 0.573245 0.116522 0.406577
O O6 0.694663 0.478008 0.491378
O O7 0.662969 0.129180 0.697175
O O8 0.398403 0.050233 0.103213
O O9 0.670458 0.801966 0.214608
O O10 0.020439 0.340050 0.649881
#
# Coordination Sequence:
#
# PCOD8002874 Si02
#       5
#     2   2   2   2   2
#     4  10  20  36  60  82 108 146 182 224 276 322
#     4  10  22  38  56  82 113 144 183 227 270 323
#     4  10  22  38  56  82 113 144 183 227 270 323
#     4   9  19  36  58  83 111 144 183 226 272 325
#     4   9  19  36  58  83 111 144 183 226 272 325
#
# _framework density 25.131543000000001
#
# number of rings (size 3 to 8) (size 9 to 14) (size 15 to 20)
#    0.000    2.400    0.000    1.200    0.000   12.800 
#    0.000    6.000    0.000    0.000    0.000    0.000 
#    0.000    0.000    0.000    0.000    0.000    0.000 
#
# Total GULP energy -124001.546634 kJ/mol
# GULP energy per Si atom -12400.154663 kJ/mol
# Density = 2.507434 g / cm^3
# Si number density = 25.131543 Si / 1000 Ang^3
#
#
#
# Elastic Constant Matrix: (Units=GPa)
#
#
# Indices 1 2 3 4 5 6 
#
# 1 113.8319 41.9250 31.3284 -0.3708 -40.0837 20.4631
# 2 41.9250 102.7690 16.4802 12.8528 -26.4538 29.6821
# 3 31.3284 16.4802 86.1358 4.1206 -38.8580 10.0602
# 4 -0.3708 12.8528 4.1206 21.8149 -0.6296 3.9402
# 5 -40.0837 -26.4538 -38.8580 -0.6296 30.5159 -10.1754
# 6 20.4631 29.6821 10.0602 3.9402 -10.1754 41.2849
#
#
#
# Elastic Compliance Matrix: (Units=1/GPa)
#
#
# Indices 1 2 3 4 5 6 
#
# 1 0.020276 0.001821 0.011549 -0.001019 0.041624 -0.003817
# 2 0.001821 0.018325 0.009824 -0.010257 0.027685 -0.008669
# 3 0.011549 0.009824 0.038742 -0.010192 0.071606 -0.003607
# 4 -0.001019 -0.010257 -0.010192 0.053183 -0.022169 -0.000177
# 5 0.041624 0.027685 0.071606 -0.022169 0.199974 -0.006582
# 6 -0.003817 -0.008669 -0.003607 -0.000177 -0.006582 0.031620
#
#
# Mechanical properties :
#
#
# Convention : Reuss Voigt Hill
#
# Bulk Modulus (GPa) = 8.08203 53.57823 30.83013
# Shear Modulus (GPa) = 14.00659 32.92335 23.46497
#
# Velocity S-wave (km/s) = 2.36335 3.62338 3.05894
# Velocity P-wave (km/s) = 3.26651 6.23462 4.97698
#
# Compressibility (1/GPa) = 0.12373125
#
# Stress axis : x y z
#
# Youngs Moduli (GPa) = 49.32026 54.56878 25.81208
#
# Poissons Ratio (x) = -0.09935 -0.29811
# Poissons Ratio (y) = -0.08979 -0.25359
# Poissons Ratio (z) = -0.56962 -0.53610
#
# Static dielectric constant tensor:
#      x y z
#    x 4.433550 0.260050 -0.218080 
#    y 0.260050 4.401980 -0.113060 
#    z -0.218080 -0.113060 4.569840 
# 
# 
# High freq. dielectric constant tensor:
#      x y z
#    x 1.998020 0.008160 0.001490 
#    y 0.008160 1.994890 -0.005000 
#    z 0.001490 -0.005000 2.008900 
# 
# From -- ./inp_files/15233.got.cif
#   From: 2010.06.25/outbox.cif.g09.slc.cpg/sg2_8_cif.got.tgz:15233.got - 2010.06.27 13:26:56.
