data_PCOD8002953
_publ_section_title
;
Structure prediction by ZEFSAII (Michael W. Deem and Ramdas Pophale) SiO2 
 PCOD8002953
Probable space group: P -1
;
_chemical_formula_sum "Si O2"
_cell_formula_units_Z 16
_cell_length_a 12.374181
_cell_length_b 16.298735
_cell_length_c 7.552146
_cell_angle_alpha 60.388333
_cell_angle_beta 87.866078
_cell_angle_gamma 135.652701
_cell_volume 709.128827
_symmetry_space_group_name_H-M "P -1"
_symmetry_group_IT_number 2
_symmetry_cell_setting 'triclinic'
loop_
_space_group_symop_operation_xyz
x,y,z
-x,-y,-z
loop_
_atom_site_type_symbol
_atom_site_label
_atom_site_fract_x
_atom_site_fract_y
_atom_site_fract_z
Si Si1 0.778782 0.525828 0.000578
Si Si2 0.647919 0.595306 0.728007
Si Si3 0.381761 0.503308 0.597561
Si Si4 0.053139 0.842710 0.063502
Si Si5 0.440141 0.807054 0.777960
Si Si6 0.800831 0.187821 0.184121
Si Si7 0.654720 0.849601 0.012354
Si Si8 0.983055 0.990725 0.223582
O O1 0.709777 0.530883 0.172841
O O2 0.658212 0.339292 0.195082
O O3 0.743731 0.562151 0.784377
O O4 0.016672 0.678474 0.829646
O O5 0.521246 0.512028 0.635265
O O6 0.807814 0.797500 0.518575
O O7 0.500000 0.500000 0.000000
O O8 0.517887 0.688802 0.324391
O O9 0.183534 0.335530 0.666085
O O10 0.123567 0.795894 0.026819
O O11 0.195201 0.969898 0.084259
O O12 0.060345 0.930918 0.815687
O O13 0.274277 0.761364 0.895616
O O14 0.623845 0.991065 0.472449
O O15 0.510882 0.806500 0.949519
O O16 0.799665 0.886449 0.847319
O O17 0.000000 0.000000 0.000000
#
# Coordination Sequence:
#
# PCOD8002953 Si02
#       8
#     2   2   2   2   2   2   2   2
#     4  10  22  41  62  90 125 160 210 257 308 368
#     4  10  20  36  60  94 125 165 209 241 310 385
#     4  10  21  39  61  93 126 170 198 249 315 383
#     4  10  22  40  65  84 131 167 199 258 307 370
#     4  11  24  39  67  89 118 166 205 269 304 369
#     4  10  23  45  62  88 119 162 220 251 316 357
#     4  11  23  40  60  96 129 157 213 246 324 369
#     4  10  20  37  59  89 131 163 197 256 308 367
#
# _framework density 22.562894
#
# number of rings (size 3 to 8) (size 9 to 14) (size 15 to 20)
#    0.000    1.750    2.500    1.875    3.500    4.000 
#    0.000    5.000    0.000    0.000    0.000    0.000 
#    0.000    0.000    0.000    0.000    0.000    0.000 
#
# Total GULP energy -198383.171464 kJ/mol
# GULP energy per Si atom -12398.948217 kJ/mol
# Density = 2.251154 g / cm^3
# Si number density = 22.562894 Si / 1000 Ang^3
#
#
#
# Elastic Constant Matrix: (Units=GPa)
#
#
# Indices 1 2 3 4 5 6 
#
# 1 119.3424 30.1143 7.0868 -13.9097 -0.8711 22.3646
# 2 30.1143 92.4392 11.0446 -28.1009 0.8419 11.9402
# 3 7.0868 11.0446 86.3946 -32.0464 -2.8596 3.4133
# 4 -13.9097 -28.1009 -32.0464 37.6043 2.5209 2.4916
# 5 -0.8711 0.8419 -2.8596 2.5209 31.7881 -5.2360
# 6 22.3646 11.9402 3.4133 2.4916 -5.2360 29.1275
#
#
#
# Elastic Compliance Matrix: (Units=1/GPa)
#
#
# Indices 1 2 3 4 5 6 
#
# 1 0.010767 -0.000968 0.001459 0.005175 -0.001397 -0.008735
# 2 -0.000968 0.016823 0.004368 0.016694 -0.002820 -0.008600
# 3 0.001459 0.004368 0.018642 0.020234 -0.001162 -0.007035
# 4 0.005175 0.016694 0.020234 0.059948 -0.006442 -0.019475
# 5 -0.001397 -0.002820 -0.001162 -0.006442 0.033369 0.008914
# 6 -0.008735 -0.008600 -0.007035 -0.019475 0.008914 0.048657
#
#
# Mechanical properties :
#
#
# Convention : Reuss Voigt Hill
#
# Bulk Modulus (GPa) = 17.87318 43.85198 30.86258
# Shear Modulus (GPa) = 25.36305 36.36601 30.86453
#
# Velocity S-wave (km/s) = 3.35640 4.01903 3.70257
# Velocity P-wave (km/s) = 4.79158 6.40425 5.65569
#
# Compressibility (1/GPa) = 0.05594976
#
# Stress axis : x y z
#
# Youngs Moduli (GPa) = 92.87882 59.44310 53.64325
#
# Poissons Ratio (x) = 0.05751 -0.07827
# Poissons Ratio (y) = 0.08986 -0.23430
# Poissons Ratio (z) = -0.13552 -0.25963
#
# Static dielectric constant tensor:
#      x y z
#    x 4.658860 0.297290 0.019370 
#    y 0.297290 4.290650 -0.144800 
#    z 0.019370 -0.144800 4.181600 
# 
# 
# High freq. dielectric constant tensor:
#      x y z
#    x 1.891440 0.005830 -0.007900 
#    y 0.005830 1.891760 -0.018850 
#    z -0.007900 -0.018850 1.899880 
# 
# From -- ./inp_files/279061.got.cif
#   From: 2010.06.25/outbox.cif.g09.slc.cpg/sg2_140_cif.got.tgz:279061.got - 2010.06.27 13:26:56.
