data_PCOD8002170
_publ_section_title
;
Structure prediction by ZEFSAII (Michael W. Deem and Ramdas Pophale) SiO2 
 PCOD8002170
Probable space group: P -1
;
_chemical_formula_sum "Si O2"
_cell_formula_units_Z 16
_cell_length_a 15.088733
_cell_length_b 15.838293
_cell_length_c 5.275123
_cell_angle_alpha 103.240582
_cell_angle_beta 68.444983
_cell_angle_gamma 146.301985
_cell_volume 643.301286
_symmetry_space_group_name_H-M "P -1"
_symmetry_group_IT_number 2
_symmetry_cell_setting 'triclinic'
loop_
_space_group_symop_operation_xyz
x,y,z
-x,-y,-z
loop_
_atom_site_type_symbol
_atom_site_label
_atom_site_fract_x
_atom_site_fract_y
_atom_site_fract_z
Si Si1 0.751627 0.183261 0.703525
Si Si2 0.963144 0.686734 0.231551
Si Si3 0.666151 0.537032 0.712246
Si Si4 0.218715 0.189829 0.164572
Si Si5 0.170222 0.057922 0.613951
Si Si6 0.621471 0.410786 0.182955
Si Si7 0.503122 0.140084 0.995750
Si Si8 0.226854 0.938538 0.768162
O O1 0.683232 0.229810 0.801485
O O2 0.792127 0.176982 0.375134
O O3 0.919625 0.303401 0.781979
O O4 0.606416 0.007885 0.826921
O O5 0.823990 0.546117 0.083550
O O6 0.081473 0.846649 0.070475
O O7 0.864847 0.660493 0.549254
O O8 0.658179 0.634353 0.833399
O O9 0.581750 0.425694 0.964814
O O10 0.564701 0.430562 0.491315
O O11 0.270204 0.164782 0.328857
O O12 0.246450 0.164032 0.851059
O O13 0.025495 0.071773 0.313647
O O14 0.199026 0.977473 0.575668
O O15 0.532764 0.251006 0.194253
O O16 0.411664 0.094093 0.796126
#
# Coordination Sequence:
#
# PCOD8002170 Si02
#       8
#     2   2   2   2   2   2   2   2
#     4  10  21  41  63  89 124 160 206 264 308 356
#     4   9  21  35  62  92 121 165 199 255 307 362
#     4  10  21  39  63  87 131 158 204 244 320 354
#     4  10  20  35  56  94 121 158 197 258 300 363
#     4  10  22  31  59  91 125 155 202 250 308 358
#     4  10  22  39  64  92 119 173 201 253 300 374
#     4  10  24  40  62  90 120 167 212 250 306 373
#     4  11  22  38  61  90 128 162 202 256 315 363
#
# _framework density 24.871708999999999
#
# number of rings (size 3 to 8) (size 9 to 14) (size 15 to 20)
#    0.750    1.250    0.000    3.375   10.500    0.500 
#    0.000    1.250    0.000    4.500    0.000    0.000 
#    0.000    0.000    0.000    0.000    0.000    0.000 
#
# Total GULP energy -198362.305064 kJ/mol
# GULP energy per Si atom -12397.644066 kJ/mol
# Density = 2.481510 g / cm^3
# Si number density = 24.871709 Si / 1000 Ang^3
#
#
#
# Elastic Constant Matrix: (Units=GPa)
#
#
# Indices 1 2 3 4 5 6 
#
# 1 56.2317 5.1539 -0.2016 3.1674 19.0429 -2.9789
# 2 5.1539 63.3404 24.4198 5.8650 12.9372 -20.6050
# 3 -0.2016 24.4198 97.5682 8.5442 24.7719 -8.8503
# 4 3.1674 5.8650 8.5442 49.5803 -1.0337 -6.0207
# 5 19.0429 12.9372 24.7719 -1.0337 38.7767 6.2216
# 6 -2.9789 -20.6050 -8.8503 -6.0207 6.2216 21.2024
#
#
#
# Elastic Compliance Matrix: (Units=1/GPa)
#
#
# Indices 1 2 3 4 5 6 
#
# 1 0.025250 0.005691 0.005541 -0.001609 -0.020606 0.016980
# 2 0.005691 0.031119 0.000513 -0.000052 -0.019434 0.036944
# 3 0.005541 0.000513 0.014938 -0.001932 -0.014276 0.011153
# 4 -0.001609 -0.000052 -0.001932 0.021182 0.001905 0.004373
# 5 -0.020606 -0.019434 -0.014276 0.001905 0.058689 -0.044421
# 6 0.016980 0.036944 0.011153 0.004373 -0.044421 0.104385
#
#
# Mechanical properties :
#
#
# Convention : Reuss Voigt Hill
#
# Bulk Modulus (GPa) = 10.54903 30.65383 20.60143
# Shear Modulus (GPa) = 18.96291 34.42975 26.69633
#
# Velocity S-wave (km/s) = 2.76421 3.72465 3.27977
# Velocity P-wave (km/s) = 3.79979 5.55417 4.75853
#
# Compressibility (1/GPa) = 0.09479547
#
# Stress axis : x y z
#
# Youngs Moduli (GPa) = 39.60382 32.13469 66.94485
#
# Poissons Ratio (x) = -0.18287 -0.37092
# Poissons Ratio (y) = -0.22538 -0.03433
# Poissons Ratio (z) = -0.21943 -0.01648
#
# Static dielectric constant tensor:
#      x y z
#    x 4.515690 0.215010 -0.064490 
#    y 0.215010 4.155780 0.013930 
#    z -0.064490 0.013930 4.467410 
# 
# 
# High freq. dielectric constant tensor:
#      x y z
#    x 1.991260 0.024810 -0.001520 
#    y 0.024810 1.977340 0.000880 
#    z -0.001520 0.000880 1.995800 
# 
# From -- ./inp_files/97162.got.cif
#   From: 2010.06.25/outbox.cif.g09.slc.cpg/sg2_49_cif.got.tgz:97162.got - 2010.06.27 13:26:56.
