data_PCOD8002245
_publ_section_title
;
Structure prediction by ZEFSAII (Michael W. Deem and Ramdas Pophale) SiO2 
 PCOD8002245
Probable space group: P -1
;
_chemical_formula_sum "Si O2"
_cell_formula_units_Z 14
_cell_length_a 13.014388
_cell_length_b 9.285277
_cell_length_c 11.858422
_cell_angle_alpha 37.226923
_cell_angle_beta 73.470944
_cell_angle_gamma 93.883678
_cell_volume 716.179886
_symmetry_space_group_name_H-M "P -1"
_symmetry_group_IT_number 2
_symmetry_cell_setting 'triclinic'
loop_
_space_group_symop_operation_xyz
x,y,z
-x,-y,-z
loop_
_atom_site_type_symbol
_atom_site_label
_atom_site_fract_x
_atom_site_fract_y
_atom_site_fract_z
Si Si1 0.271598 0.755877 0.504135
Si Si2 0.854939 0.471414 0.963980
Si Si3 0.856209 0.297658 0.648004
Si Si4 0.522007 0.682412 0.988962
Si Si5 0.746747 0.464974 0.776506
Si Si6 0.872759 0.098960 0.366411
Si Si7 0.268832 0.334036 0.936216
O O1 0.174408 0.629851 0.510494
O O2 0.225303 0.901238 0.516137
O O3 0.285051 0.512884 0.708287
O O4 0.405016 0.994780 0.268888
O O5 0.775701 0.344902 0.954358
O O6 0.989846 0.730188 0.730280
O O7 0.869448 0.230734 0.165973
O O8 0.783588 0.572790 0.002965
O O9 0.769374 0.331231 0.744072
O O10 0.000000 0.500000 0.500000
O O11 0.828285 0.985505 0.859283
O O12 0.500000 0.500000 0.000000
O O13 0.395136 0.611539 0.133129
O O14 0.598254 0.619772 0.097341
O O15 0.839830 0.791887 0.542856
#
# Coordination Sequence:
#
# PCOD8002245 Si02
#       7
#     2   2   2   2   2   2   2
#     4  10  22  40  60  84 119 156 191 239 289 339
#     4  10  20  35  58  86 112 146 195 244 289 336
#     4  11  24  40  60  87 119 155 191 233 292 352
#     4  11  21  39  60  88 116 150 198 240 285 339
#     4  12  22  36  60  85 115 152 192 238 286 338
#     4  10  20  35  58  86 112 146 195 244 289 336
#     4  10  22  40  60  84 119 156 191 239 289 339
#
# _framework density 19.548162000000001
#
# number of rings (size 3 to 8) (size 9 to 14) (size 15 to 20)
#    0.000    1.429    2.857    3.000    0.000    5.714 
#    0.000    1.429    0.000    0.000    0.000    0.000 
#    0.000    0.000    0.000    0.000    0.000    0.000 
#
# Total GULP energy -173668.843963 kJ/mol
# GULP energy per Si atom -12404.917426 kJ/mol
# Density = 1.950367 g / cm^3
# Si number density = 19.548162 Si / 1000 Ang^3
#
#
#
# Elastic Constant Matrix: (Units=GPa)
#
#
# Indices 1 2 3 4 5 6 
#
# 1 104.1782 7.9452 47.4592 0.8513 5.7545 17.6907
# 2 7.9452 49.1208 22.3582 4.7987 13.3133 15.3994
# 3 47.4592 22.3582 93.9898 3.3375 15.6622 14.5270
# 4 0.8513 4.7987 3.3375 20.4175 0.1775 -9.0871
# 5 5.7545 13.3133 15.6622 0.1775 41.5418 7.2913
# 6 17.6907 15.3994 14.5270 -9.0871 7.2913 30.1387
#
#
#
# Elastic Compliance Matrix: (Units=1/GPa)
#
#
# Indices 1 2 3 4 5 6 
#
# 1 0.013623 0.003380 -0.006457 -0.003871 0.000884 -0.007992
# 2 0.003380 0.030632 -0.004738 -0.014779 -0.005179 -0.018555
# 3 -0.006457 -0.004738 0.015815 -0.001664 -0.003349 -0.001103
# 4 -0.003871 -0.014779 -0.001664 0.066511 0.000241 0.030621
# 5 0.000884 -0.005179 -0.003349 0.000241 0.027364 -0.002805
# 6 -0.007992 -0.018555 -0.001103 0.030621 -0.002805 0.057795
#
#
# Mechanical properties :
#
#
# Convention : Reuss Voigt Hill
#
# Bulk Modulus (GPa) = 22.50258 44.75712 33.62985
# Shear Modulus (GPa) = 20.64564 29.72134 25.18349
#
# Velocity S-wave (km/s) = 3.25336 3.90348 3.59315
# Velocity P-wave (km/s) = 5.06447 6.57737 5.86986
#
# Compressibility (1/GPa) = 0.04443936
#
# Stress axis : x y z
#
# Youngs Moduli (GPa) = 73.40668 32.64534 63.23251
#
# Poissons Ratio (x) = -0.11034 0.40831
# Poissons Ratio (y) = -0.24810 0.29958
# Poissons Ratio (z) = 0.47400 0.15466
#
# Static dielectric constant tensor:
#      x y z
#    x 3.751740 0.038790 0.068990 
#    y 0.038790 3.480230 0.042780 
#    z 0.068990 0.042780 3.669480 
# 
# 
# High freq. dielectric constant tensor:
#      x y z
#    x 1.773420 0.004020 0.000600 
#    y 0.004020 1.751890 0.003110 
#    z 0.000600 0.003110 1.767680 
# 
# From -- ./inp_files/255951.got.cif
#   From: 2010.06.25/outbox.cif.g09.slc.cpg/sg2_128_cif.got.tgz:255951.got - 2010.06.27 13:26:56.
