data_PCOD8002742
_publ_section_title
;
Structure prediction by ZEFSAII (Michael W. Deem and Ramdas Pophale) SiO2 
 PCOD8002742
Probable space group: P -1
;
_chemical_formula_sum "Si O2"
_cell_formula_units_Z 12
_cell_length_a 12.917223
_cell_length_b 9.715600
_cell_length_c 9.325749
_cell_angle_alpha 42.713934
_cell_angle_beta 53.331799
_cell_angle_gamma 50.539837
_cell_volume 593.699706
_symmetry_space_group_name_H-M "P -1"
_symmetry_group_IT_number 2
_symmetry_cell_setting 'triclinic'
loop_
_space_group_symop_operation_xyz
x,y,z
-x,-y,-z
loop_
_atom_site_type_symbol
_atom_site_label
_atom_site_fract_x
_atom_site_fract_y
_atom_site_fract_z
Si Si1 0.520502 0.348587 0.462587
Si Si2 0.618137 0.932536 0.333827
Si Si3 0.788132 0.095720 0.571704
Si Si4 0.988720 0.338024 0.251043
Si Si5 0.135181 0.466465 0.504636
Si Si6 0.668123 0.286120 0.830573
O O1 0.500000 0.500000 0.500000
O O2 0.420976 0.207450 0.651628
O O3 0.677868 0.179131 0.468513
O O4 0.475443 0.508493 0.239029
O O5 0.762559 0.784267 0.400693
O O6 0.500000 0.000000 0.500000
O O7 0.635034 0.142507 0.089318
O O8 0.720679 0.153784 0.740852
O O9 0.900473 0.203382 0.363724
O O10 0.859661 0.834313 0.699473
O O11 0.910940 0.488211 0.329237
O O12 0.000000 0.500000 0.000000
O O13 0.214675 0.628197 0.269461
O O14 0.000000 0.500000 0.500000
#
# Coordination Sequence:
#
# PCOD8002742 Si02
#       6
#     2   2   2   2   2   2
#     4   9  20  37  59  88 115 152 202 250 296 356
#     4  11  24  40  62  88 123 165 203 245 308 366
#     4   9  19  35  59  88 116 151 201 242 302 360
#     4  10  20  36  58  87 121 155 196 253 298 355
#     4  10  23  41  60  89 124 160 205 247 305 368
#     4   9  20  41  62  84 127 156 195 258 302 353
#
# _framework density 20.212237999999999
#
# number of rings (size 3 to 8) (size 9 to 14) (size 15 to 20)
#    0.000    2.333    0.000    2.000    2.333    7.333 
#    3.000    0.000    0.000    0.000    0.000    0.000 
#    0.000    0.000    0.000    0.000    0.000    0.000 
#
# Total GULP energy -148735.042530 kJ/mol
# GULP energy per Si atom -12394.586878 kJ/mol
# Density = 2.016623 g / cm^3
# Si number density = 20.212238 Si / 1000 Ang^3
#
#
#
# Elastic Constant Matrix: (Units=GPa)
#
#
# Indices 1 2 3 4 5 6 
#
# 1 156.2603 43.8874 65.7280 -18.3975 6.0660 -28.1196
# 2 43.8874 92.3706 58.8904 -12.7301 7.0315 -29.5145
# 3 65.7280 58.8904 190.8228 -13.3114 0.8451 -16.4587
# 4 -18.3975 -12.7301 -13.3114 26.6765 -7.0088 5.5621
# 5 6.0660 7.0315 0.8451 -7.0088 15.1897 -11.6866
# 6 -28.1196 -29.5145 -16.4587 5.5621 -11.6866 42.9300
#
#
#
# Elastic Compliance Matrix: (Units=1/GPa)
#
#
# Indices 1 2 3 4 5 6 
#
# 1 0.008733 -0.001088 -0.002017 0.004227 0.002388 0.004301
# 2 -0.001088 0.017322 -0.003855 0.004090 0.002007 0.009735
# 3 -0.002017 -0.003855 0.007117 0.001027 0.002035 -0.000822
# 4 0.004227 0.004090 0.001027 0.047647 0.023014 0.006066
# 5 0.002388 0.002007 0.002035 0.023014 0.094906 0.026579
# 6 0.004301 0.009735 -0.000822 0.006066 0.026579 0.038938
#
#
# Mechanical properties :
#
#
# Convention : Reuss Voigt Hill
#
# Bulk Modulus (GPa) = 51.94456 86.27390 69.10923
# Shear Modulus (GPa) = 21.27671 35.02244 28.14958
#
# Velocity S-wave (km/s) = 3.24800 4.16713 3.73594
# Velocity P-wave (km/s) = 6.31042 8.11973 7.27156
#
# Compressibility (1/GPa) = 0.01925129
#
# Stress axis : x y z
#
# Youngs Moduli (GPa) = 114.51467 57.73013 140.51780
#
# Poissons Ratio (x) = 0.06282 0.28339
# Poissons Ratio (y) = 0.12461 0.54169
# Poissons Ratio (z) = 0.23095 0.22255
#
# Static dielectric constant tensor:
#      x y z
#    x 4.183800 -0.331260 -0.094200 
#    y -0.331260 3.468240 -0.276390 
#    z -0.094200 -0.276390 3.502410 
# 
# 
# High freq. dielectric constant tensor:
#      x y z
#    x 1.792720 -0.016120 0.000080 
#    y -0.016120 1.794340 -0.020220 
#    z 0.000080 -0.020220 1.774780 
# 
# From -- ./inp_files/34049.got.cif
#   From: 2010.06.25/outbox.cif.g09.slc.cpg/sg2_18_cif.got.tgz:34049.got - 2010.06.27 13:26:56.
