data_PCOD8002773
_publ_section_title
;
Structure prediction by ZEFSAII (Michael W. Deem and Ramdas Pophale) SiO2 
 PCOD8002773
Probable space group: P -1
;
_chemical_formula_sum "Si O2"
_cell_formula_units_Z 14
_cell_length_a 21.252321
_cell_length_b 8.269979
_cell_length_c 9.807082
_cell_angle_alpha 149.588151
_cell_angle_beta 136.385837
_cell_angle_gamma 55.696034
_cell_volume 592.679138
_symmetry_space_group_name_H-M "P -1"
_symmetry_group_IT_number 2
_symmetry_cell_setting 'triclinic'
loop_
_space_group_symop_operation_xyz
x,y,z
-x,-y,-z
loop_
_atom_site_type_symbol
_atom_site_label
_atom_site_fract_x
_atom_site_fract_y
_atom_site_fract_z
Si Si1 0.401382 0.430407 0.992891
Si Si2 0.690851 0.277139 0.175057
Si Si3 0.425334 0.748613 0.781138
Si Si4 0.124268 0.467281 0.921437
Si Si5 0.678744 0.306873 0.684606
Si Si6 0.991570 0.182533 0.848832
Si Si7 0.187090 0.195035 0.089609
O O1 0.373527 0.685170 0.027730
O O2 0.363013 0.064603 0.617850
O O3 0.514060 0.497828 0.232382
O O4 0.358157 0.464213 0.097697
O O5 0.627414 0.093998 0.065036
O O6 0.734375 0.629827 0.558396
O O7 0.775380 0.103712 0.138454
O O8 0.350874 0.581388 0.431506
O O9 0.500000 0.000000 0.000000
O O10 0.079364 0.115785 0.541331
O O11 0.209694 0.630966 0.080466
O O12 0.049172 0.712307 0.993801
O O13 0.164609 0.437363 0.114072
O O14 0.000000 0.500000 0.000000
O O15 0.092333 0.074847 0.940125
#
# Coordination Sequence:
#
# PCOD8002773 Si02
#       7
#     2   2   2   2   2   2   2
#     4  11  25  43  63  92 133 173 215 259 321 383
#     4  12  24  41  65  94 132 172 208 261 321 389
#     4  10  24  43  68  95 127 165 221 271 315 372
#     4  11  20  36  66  94 132 161 214 266 319 367
#     4  11  23  42  67  95 127 171 218 267 313 373
#     4  10  20  36  59 100 132 161 203 273 320 370
#     4  11  22  37  64  94 131 162 213 257 327 377
#
# _framework density 23.621551
#
# number of rings (size 3 to 8) (size 9 to 14) (size 15 to 20)
#    0.000    1.143    1.429    6.857    4.000    2.286 
#    0.000    5.000    0.000   17.143    0.000    0.000 
#    0.000    0.000    0.000    0.000    0.000    0.000 
#
# Total GULP energy -173543.364827 kJ/mol
# GULP energy per Si atom -12395.954630 kJ/mol
# Density = 2.356779 g / cm^3
# Si number density = 23.621551 Si / 1000 Ang^3
#
#
#
# Elastic Constant Matrix: (Units=GPa)
#
#
# Indices 1 2 3 4 5 6 
#
# 1 151.4017 34.6962 50.3678 4.5904 0.9315 -40.0116
# 2 34.6962 70.5692 16.2002 -12.4529 -6.0397 -11.2217
# 3 50.3678 16.2002 99.9311 9.4532 -3.9638 -7.1424
# 4 4.5904 -12.4529 9.4532 18.7965 -3.2268 -7.4484
# 5 0.9315 -6.0397 -3.9638 -3.2268 38.3398 3.0547
# 6 -40.0116 -11.2217 -7.1424 -7.4484 3.0547 32.1838
#
#
#
# Elastic Compliance Matrix: (Units=1/GPa)
#
#
# Indices 1 2 3 4 5 6 
#
# 1 0.012775 -0.002156 -0.005458 0.003779 -0.002091 0.014992
# 2 -0.002156 0.021322 -0.003546 0.020432 0.004102 0.008306
# 3 -0.005458 -0.003546 0.013848 -0.010844 0.000693 -0.007525
# 4 0.003779 0.020432 -0.010844 0.083576 0.006800 0.028112
# 5 -0.002091 0.004102 0.000693 0.006800 0.027588 -0.002060
# 6 0.014992 0.008306 -0.007525 0.028112 -0.002060 0.057638
#
#
# Mechanical properties :
#
#
# Convention : Reuss Voigt Hill
#
# Bulk Modulus (GPa) = 39.02555 58.27003 48.64779
# Shear Modulus (GPa) = 20.19299 32.57321 26.38310
#
# Velocity S-wave (km/s) = 2.92696 3.71747 3.34564
# Velocity P-wave (km/s) = 5.28960 6.56870 5.96354
#
# Compressibility (1/GPa) = 0.02562424
#
# Stress axis : x y z
#
# Youngs Moduli (GPa) = 78.27578 46.89959 72.21034
#
# Poissons Ratio (x) = 0.10112 0.39415
# Poissons Ratio (y) = 0.16878 0.25608
# Poissons Ratio (z) = 0.42726 0.16632
#
# Static dielectric constant tensor:
#      x y z
#    x 4.931170 -0.703770 0.070450 
#    y -0.703770 4.277430 -0.304860 
#    z 0.070450 -0.304860 4.099160 
# 
# 
# High freq. dielectric constant tensor:
#      x y z
#    x 1.956770 -0.031450 -0.001810 
#    y -0.031450 1.902370 -0.003090 
#    z -0.001810 -0.003090 1.933460 
# 
# From -- ./inp_files/344015.got.cif
#   From: 2010.06.25/outbox.cif.g09.slc.cpg/sg2_173_cif.got.tgz:344015.got - 2010.06.27 13:26:56.
