data_PCOD8002677
_publ_section_title
;
Structure prediction by ZEFSAII (Michael W. Deem and Ramdas Pophale) SiO2 
 PCOD8002677
Probable space group: P -1
;
_chemical_formula_sum "Si O2"
_cell_formula_units_Z 16
_cell_length_a 11.656689
_cell_length_b 18.597459
_cell_length_c 13.559051
_cell_angle_alpha 33.610230
_cell_angle_beta 32.203079
_cell_angle_gamma 35.256249
_cell_volume 802.328605
_symmetry_space_group_name_H-M "P -1"
_symmetry_group_IT_number 2
_symmetry_cell_setting 'triclinic'
loop_
_space_group_symop_operation_xyz
x,y,z
-x,-y,-z
loop_
_atom_site_type_symbol
_atom_site_label
_atom_site_fract_x
_atom_site_fract_y
_atom_site_fract_z
Si Si1 0.749309 0.671218 0.749108
Si Si2 0.603546 0.422950 0.371466
Si Si3 0.628700 0.629690 0.587261
Si Si4 0.332928 0.796640 0.774023
Si Si5 0.102746 0.584950 0.205083
Si Si6 0.954603 0.882066 0.403696
Si Si7 0.131956 0.285818 0.181443
Si Si8 0.466578 0.713596 0.232943
O O1 0.482904 0.743533 0.824915
O O2 0.885169 0.523421 0.766740
O O3 0.877980 0.778908 0.507098
O O4 0.762304 0.644353 0.888676
O O5 0.546914 0.394632 0.334171
O O6 0.459266 0.582459 0.325417
O O7 0.526639 0.323124 0.614167
O O8 0.877659 0.394460 0.211438
O O9 0.498594 0.767535 0.590766
O O10 0.720411 0.493439 0.746576
O O11 0.839692 0.654677 0.353322
O O12 0.181200 0.959334 0.710169
O O13 0.167839 0.711075 0.973895
O O14 0.894718 0.853674 0.593567
O O15 0.229162 0.845780 0.231783
O O16 0.311339 0.248132 0.002184
#
# Coordination Sequence:
#
# PCOD8002677 Si02
#       8
#     2   2   2   2   2   2   2   2
#     4   9  19  39  60  88 120 148 195 247 282 344
#     4  10  21  36  59  93 113 150 198 253 290 334
#     4  10  22  37  60  84 122 154 193 241 294 350
#     4  11  22  39  59  88 123 159 189 232 299 353
#     4  10  22  38  59  91 118 154 195 239 292 349
#     4   9  21  38  59  87 122 152 196 238 285 353
#     4   9  21  36  60  90 115 150 193 246 297 334
#     4  10  20  36  57  87 119 149 195 248 287 338
#
# _framework density 19.941953000000002
#
# number of rings (size 3 to 8) (size 9 to 14) (size 15 to 20)
#    0.750    1.500    0.000    3.000    5.250    2.000 
#    0.000    3.125    0.000    4.500    0.000    0.000 
#    0.000    0.000    0.000    0.000    0.000    0.000 
#
# Total GULP energy -198347.556505 kJ/mol
# GULP energy per Si atom -12396.722282 kJ/mol
# Density = 1.989656 g / cm^3
# Si number density = 19.941953 Si / 1000 Ang^3
#
#
#
# Elastic Constant Matrix: (Units=GPa)
#
#
# Indices 1 2 3 4 5 6 
#
# 1 89.3565 21.7562 11.0007 3.7756 -6.2919 -8.7589
# 2 21.7562 90.9950 47.9731 10.2505 -10.8726 -8.8043
# 3 11.0007 47.9731 95.4656 16.6325 -4.0704 3.6019
# 4 3.7756 10.2505 16.6325 32.7899 6.6178 -5.2141
# 5 -6.2919 -10.8726 -4.0704 6.6178 17.0099 -1.2873
# 6 -8.7589 -8.8043 3.6019 -5.2141 -1.2873 18.0955
#
#
#
# Elastic Compliance Matrix: (Units=1/GPa)
#
#
# Indices 1 2 3 4 5 6 
#
# 1 0.012505 -0.001599 -0.000563 -0.000612 0.004123 0.005504
# 2 -0.001599 0.018384 -0.008704 -0.001646 0.010487 0.010174
# 3 -0.000563 -0.008704 0.016557 -0.007234 0.000258 -0.009869
# 4 -0.000612 -0.001646 -0.007234 0.040028 -0.017780 0.010612
# 5 0.004123 0.010487 0.000258 -0.017780 0.074544 0.007227
# 6 0.005504 0.010174 -0.009869 0.010612 0.007227 0.068413
#
#
# Mechanical properties :
#
#
# Convention : Reuss Voigt Hill
#
# Bulk Modulus (GPa) = 38.88738 48.58634 43.73686
# Shear Modulus (GPa) = 19.17662 26.58486 22.88074
#
# Velocity S-wave (km/s) = 3.10437 3.65514 3.39096
# Velocity P-wave (km/s) = 5.69140 6.49848 6.10828
#
# Compressibility (1/GPa) = 0.02571529
#
# Stress axis : x y z
#
# Youngs Moduli (GPa) = 79.96500 54.39660 60.39615
#
# Poissons Ratio (x) = 0.08699 0.03399
# Poissons Ratio (y) = 0.12787 0.52567
# Poissons Ratio (z) = 0.04500 0.47345
#
# Static dielectric constant tensor:
#      x y z
#    x 3.491190 -0.101980 0.085930 
#    y -0.101980 3.398020 0.210790 
#    z 0.085930 0.210790 3.513080 
# 
# 
# High freq. dielectric constant tensor:
#      x y z
#    x 1.767910 -0.014370 0.003060 
#    y -0.014370 1.761920 0.018150 
#    z 0.003060 0.018150 1.772330 
# 
# From -- ./inp_files/524037.got.cif
#   From: 2010.06.25/outbox.cif.g09.slc.cpg/sg2_263_cif.got.tgz:524037.got - 2010.06.27 13:26:56.
