data_PCOD8002068
_publ_section_title
;
Structure prediction by ZEFSAII (Michael W. Deem and Ramdas Pophale) SiO2 
 PCOD8002068
Probable space group: P -1
;
_chemical_formula_sum "Si O2"
_cell_formula_units_Z 16
_cell_length_a 12.292545
_cell_length_b 12.723779
_cell_length_c 12.094271
_cell_angle_alpha 112.448656
_cell_angle_beta 53.346909
_cell_angle_gamma 147.374336
_cell_volume 785.585380
_symmetry_space_group_name_H-M "P -1"
_symmetry_group_IT_number 2
_symmetry_cell_setting 'triclinic'
loop_
_space_group_symop_operation_xyz
x,y,z
-x,-y,-z
loop_
_atom_site_type_symbol
_atom_site_label
_atom_site_fract_x
_atom_site_fract_y
_atom_site_fract_z
Si Si1 0.922825 0.545907 0.981072
Si Si2 0.141703 0.242540 0.906132
Si Si3 0.039764 0.128567 0.170746
Si Si4 0.682509 0.647732 0.687641
Si Si5 0.624754 0.978128 0.465230
Si Si6 0.536013 0.779437 0.766661
Si Si7 0.903646 0.198539 0.606640
Si Si8 0.795499 0.410303 0.309915
O O1 0.079091 0.624827 0.808924
O O2 0.973188 0.715338 0.046120
O O3 0.628560 0.325029 0.063002
O O4 0.000000 0.500000 0.000000
O O5 0.408012 0.413093 0.761185
O O6 0.988402 0.028376 0.869986
O O7 0.153767 0.247668 0.033987
O O8 0.785893 0.018478 0.297651
O O9 0.220383 0.291324 0.222373
O O10 0.706586 0.789829 0.679543
O O11 0.843581 0.689921 0.520624
O O12 0.776816 0.128765 0.538095
O O13 0.500000 0.000000 0.500000
O O14 0.409334 0.744325 0.535899
O O15 0.334549 0.620638 0.728568
O O16 0.712525 0.006601 0.727906
O O17 0.975088 0.362496 0.691072
#
# Coordination Sequence:
#
# PCOD8002068 Si02
#       8
#     2   2   2   2   2   2   2   2
#     4   9  19  36  56  79 110 144 182 227 272 319
#     4  10  20  37  57  80 109 145 184 227 274 322
#     4  10  21  36  58  82 109 146 183 224 276 325
#     4  10  20  35  54  81 111 140 181 224 269 327
#     4  10  21  38  56  80 112 142 181 229 272 325
#     4   9  20  35  53  78 109 143 179 225 272 320
#     4  10  21  35  55  80 108 142 181 222 272 328
#     4  10  20  36  54  78 109 142 181 223 272 323
#
# _framework density 20.366976999999999
#
# number of rings (size 3 to 8) (size 9 to 14) (size 15 to 20)
#    0.000    2.250    0.000    2.250    0.000    4.500 
#    0.000   12.500    0.000    0.000    0.000    0.000 
#    0.000    0.000    0.000    0.000    0.000    0.000 
#
# Total GULP energy -198226.059160 kJ/mol
# GULP energy per Si atom -12389.128697 kJ/mol
# Density = 2.032062 g / cm^3
# Si number density = 20.366977 Si / 1000 Ang^3
#
#
#
# Elastic Constant Matrix: (Units=GPa)
#
#
# Indices 1 2 3 4 5 6 
#
# 1 87.5445 15.9105 13.1779 -4.1508 -18.2288 -23.0613
# 2 15.9105 77.5679 8.7117 -5.3832 -4.2095 -4.3728
# 3 13.1779 8.7117 74.3513 -14.2423 -20.2334 -1.4587
# 4 -4.1508 -5.3832 -14.2423 28.0058 -1.5604 -4.7840
# 5 -18.2288 -4.2095 -20.2334 -1.5604 29.7569 3.6340
# 6 -23.0613 -4.3728 -1.4587 -4.7840 3.6340 20.6088
#
#
#
# Elastic Compliance Matrix: (Units=1/GPa)
#
#
# Indices 1 2 3 4 5 6 
#
# 1 0.019884 -0.001904 0.001499 0.007670 0.010664 0.021852
# 2 -0.001904 0.013594 -0.000763 0.002153 0.000209 0.001163
# 3 0.001499 -0.000763 0.019339 0.011211 0.014183 0.002986
# 4 0.007670 0.002153 0.011211 0.046824 0.012829 0.018440
# 5 0.010664 0.000209 0.014183 0.012829 0.049604 0.007213
# 6 0.021852 0.001163 0.002986 0.018440 0.007213 0.076443
#
#
# Mechanical properties :
#
#
# Convention : Reuss Voigt Hill
#
# Bulk Modulus (GPa) = 19.80953 35.00708 27.40831
# Shear Modulus (GPa) = 20.42058 29.11855 24.76956
#
# Velocity S-wave (km/s) = 3.16987 3.78523 3.49114
# Velocity P-wave (km/s) = 4.81091 6.02739 5.45318
#
# Compressibility (1/GPa) = 0.05048074
#
# Stress axis : x y z
#
# Youngs Moduli (GPa) = 50.29236 73.55920 51.70841
#
# Poissons Ratio (x) = 0.14005 -0.07751
# Poissons Ratio (y) = 0.09575 0.03948
# Poissons Ratio (z) = -0.07539 0.05616
#
# Static dielectric constant tensor:
#      x y z
#    x 3.562960 0.262810 -0.793460 
#    y 0.262810 2.676360 1.226330 
#    z -0.793460 1.226330 1.386230 
# 
# 
# High freq. dielectric constant tensor:
#      x y z
#    x 1.791410 -0.009720 -0.013010 
#    y -0.009720 1.779620 -0.022360 
#    z -0.013010 -0.022360 1.810440 
# 
# From -- ./inp_files/69875.got.cif
#   From: 2010.06.25/outbox.cif.g09.slc.cpg/sg2_35_cif.got.tgz:69875.got - 2010.06.27 13:26:56.
