data_PCOD8002827
_publ_section_title
;
Structure prediction by ZEFSAII (Michael W. Deem and Ramdas Pophale) SiO2 
 PCOD8002827
Probable space group: P -1
;
_chemical_formula_sum "Si O2"
_cell_formula_units_Z 16
_cell_length_a 10.824335
_cell_length_b 11.938207
_cell_length_c 9.272564
_cell_angle_alpha 46.555257
_cell_angle_beta 103.654365
_cell_angle_gamma 120.027455
_cell_volume 741.988834
_symmetry_space_group_name_H-M "P -1"
_symmetry_group_IT_number 2
_symmetry_cell_setting 'triclinic'
loop_
_space_group_symop_operation_xyz
x,y,z
-x,-y,-z
loop_
_atom_site_type_symbol
_atom_site_label
_atom_site_fract_x
_atom_site_fract_y
_atom_site_fract_z
Si Si1 0.830080 0.478273 0.294936
Si Si2 0.764856 0.300904 0.141175
Si Si3 0.309264 0.475207 0.283055
Si Si4 0.577895 0.917949 0.404069
Si Si5 0.678520 0.260317 0.713504
Si Si6 0.890315 0.206959 0.996663
Si Si7 0.126636 0.080794 0.581241
Si Si8 0.458462 0.557853 0.792833
O O1 0.835238 0.366561 0.258276
O O2 0.795673 0.358652 0.532763
O O3 0.713512 0.550530 0.183388
O O4 0.985125 0.650111 0.195722
O O5 0.616683 0.114237 0.287721
O O6 0.722260 0.442354 0.940401
O O7 0.881179 0.285352 0.081727
O O8 0.335682 0.594000 0.324382
O O9 0.171174 0.283429 0.446153
O O10 0.454917 0.461405 0.302695
O O11 0.480495 0.872722 0.272100
O O12 0.731287 0.924045 0.427547
O O13 0.489949 0.761924 0.633157
O O14 0.737754 0.151839 0.921941
O O15 0.920103 0.041487 0.178516
O O16 0.000000 0.000000 0.500000
O O17 0.500000 0.500000 0.000000
#
# Coordination Sequence:
#
# PCOD8002827 Si02
#       8
#     2   2   2   2   2   2   2   2
#     4  11  21  37  63  90 124 155 206 246 304 349
#     4  10  20  38  65  90 116 159 206 255 290 352
#     4  10  21  40  64  87 121 161 204 238 312 354
#     4   9  22  38  60  90 122 154 207 243 303 349
#     4  10  23  41  62  87 124 164 196 248 297 368
#     4  10  22  39  63  89 122 159 200 247 303 358
#     4  10  21  37  62  91 120 155 200 255 294 356
#     4  10  20  36  59  87 121 154 192 252 293 353
#
# _framework density 21.563666999999999
#
# number of rings (size 3 to 8) (size 9 to 14) (size 15 to 20)
#    0.000    2.000    1.250    1.500    1.750   14.000 
#    0.000    0.625    0.000    0.000    0.000    0.000 
#    0.000    0.000    0.000    0.000    0.000    0.000 
#
# Total GULP energy -198269.072590 kJ/mol
# GULP energy per Si atom -12391.817037 kJ/mol
# Density = 2.151459 g / cm^3
# Si number density = 21.563667 Si / 1000 Ang^3
#
#
#
# Elastic Constant Matrix: (Units=GPa)
#
#
# Indices 1 2 3 4 5 6 
#
# 1 71.6123 28.0055 27.0163 -0.9363 0.2168 18.2290
# 2 28.0055 97.6831 46.2727 -7.1722 11.1928 14.7528
# 3 27.0163 46.2727 119.6280 -3.6910 18.4765 1.1948
# 4 -0.9363 -7.1722 -3.6910 38.4637 -2.6838 1.1510
# 5 0.2168 11.1928 18.4765 -2.6838 32.0643 8.3650
# 6 18.2290 14.7528 1.1948 1.1510 8.3650 34.2552
#
#
#
# Elastic Compliance Matrix: (Units=1/GPa)
#
#
# Indices 1 2 3 4 5 6 
#
# 1 0.019170 -0.002637 -0.004106 0.000302 0.005888 -0.010370
# 2 -0.002637 0.014099 -0.004603 0.002188 -0.000932 -0.004354
# 3 -0.004106 -0.004603 0.012042 -0.000436 -0.006753 0.005411
# 4 0.000302 0.002188 -0.000436 0.026615 0.002382 -0.002564
# 5 0.005888 -0.000932 -0.006753 0.002382 0.038701 -0.012027
# 6 -0.010370 -0.004354 0.005411 -0.002564 -0.012027 0.039421
#
#
# Mechanical properties :
#
#
# Convention : Reuss Voigt Hill
#
# Bulk Modulus (GPa) = 44.20948 54.61247 49.41098
# Shear Modulus (GPa) = 27.73471 33.46524 30.59997
#
# Velocity S-wave (km/s) = 3.59022 3.94372 3.77112
# Velocity P-wave (km/s) = 6.14269 6.79105 6.47499
#
# Compressibility (1/GPa) = 0.02261958
#
# Stress axis : x y z
#
# Youngs Moduli (GPa) = 52.16405 70.92822 83.04063
#
# Poissons Ratio (x) = 0.18707 0.34093
# Poissons Ratio (y) = 0.13758 0.38222
# Poissons Ratio (z) = 0.21416 0.32647
#
# Static dielectric constant tensor:
#      x y z
#    x 3.870710 0.116530 0.002740 
#    y 0.116530 3.897290 -0.434820 
#    z 0.002740 -0.434820 4.478660 
# 
# 
# High freq. dielectric constant tensor:
#      x y z
#    x 1.840580 0.017360 0.002610 
#    y 0.017360 1.824570 -0.008020 
#    z 0.002610 -0.008020 1.863620 
# 
# From -- ./inp_files/261686.got.cif
#   From: 2010.06.25/outbox.cif.g09.slc.cpg/sg2_131_cif.got.tgz:261686.got - 2010.06.27 13:26:56.
