data_PCOD8002351
_publ_section_title
;
Structure prediction by ZEFSAII (Michael W. Deem and Ramdas Pophale) SiO2 
 PCOD8002351
Probable space group: P -1
;
_chemical_formula_sum "Si O2"
_cell_formula_units_Z 16
_cell_length_a 8.408443
_cell_length_b 14.745500
_cell_length_c 10.879171
_cell_angle_alpha 90.376647
_cell_angle_beta 56.744423
_cell_angle_gamma 128.074935
_cell_volume 767.056377
_symmetry_space_group_name_H-M "P -1"
_symmetry_group_IT_number 2
_symmetry_cell_setting 'triclinic'
loop_
_space_group_symop_operation_xyz
x,y,z
-x,-y,-z
loop_
_atom_site_type_symbol
_atom_site_label
_atom_site_fract_x
_atom_site_fract_y
_atom_site_fract_z
Si Si1 0.584391 0.405920 0.404653
Si Si2 0.336770 0.729388 0.795957
Si Si3 0.879248 0.661982 0.142664
Si Si4 0.201302 0.713697 0.415284
Si Si5 0.565099 0.917772 0.478966
Si Si6 0.938812 0.180601 0.707234
Si Si7 0.130000 0.045015 0.312140
Si Si8 0.348750 0.572167 0.338155
O O1 0.729228 0.384833 0.251312
O O2 0.691307 0.541842 0.320523
O O3 0.673952 0.419451 0.505501
O O4 0.254287 0.280100 0.526301
O O5 0.451553 0.847050 0.658325
O O6 0.571591 0.797802 0.804988
O O7 0.044552 0.658218 0.977691
O O8 0.652801 0.644068 0.165233
O O9 0.082585 0.794576 0.141453
O O10 0.408930 0.807515 0.439055
O O11 0.217872 0.802836 0.314181
O O12 0.297033 0.654308 0.303965
O O13 0.888308 0.584484 0.599931
O O14 0.500000 0.000000 0.500000
O O15 0.899586 0.014531 0.323006
O O16 0.800204 0.033106 0.761013
O O17 0.000000 0.000000 0.500000
#
# Coordination Sequence:
#
# PCOD8002351 Si02
#       8
#     2   2   2   2   2   2   2   2
#     4  11  18  39  59  89 114 159 199 237 276 358
#     4  11  23  39  60  86 123 152 196 245 296 338
#     4  11  22  37  58  92 121 154 190 246 296 341
#     4  11  19  34  61  88 110 154 198 237 285 337
#     4  11  22  37  61  87 113 153 202 238 286 350
#     4  11  19  36  66  84 114 152 208 239 276 346
#     4  10  20  39  60  84 109 154 202 245 273 339
#     4  10  20  35  60  85 122 151 199 234 284 354
#
# _framework density 20.858962999999999
#
# number of rings (size 3 to 8) (size 9 to 14) (size 15 to 20)
#    0.000    1.250    6.250    3.375    0.000    0.500 
#    0.000    1.875    0.000    3.000    0.000    0.000 
#    0.000    0.000    0.000    0.000    0.000    0.000 
#
# Total GULP energy -198358.496841 kJ/mol
# GULP energy per Si atom -12397.406053 kJ/mol
# Density = 2.081149 g / cm^3
# Si number density = 20.858963 Si / 1000 Ang^3
#
#
#
# Elastic Constant Matrix: (Units=GPa)
#
#
# Indices 1 2 3 4 5 6 
#
# 1 108.0517 21.5546 10.9394 -2.0320 -24.8648 3.0067
# 2 21.5546 87.1085 -6.5564 8.8745 -11.2869 7.0440
# 3 10.9394 -6.5564 56.5437 11.2790 -23.4297 10.8196
# 4 -2.0320 8.8745 11.2790 26.2766 -3.7936 -4.8812
# 5 -24.8648 -11.2869 -23.4297 -3.7936 25.9192 -4.9496
# 6 3.0067 7.0440 10.8196 -4.8812 -4.9496 43.3873
#
#
#
# Elastic Compliance Matrix: (Units=1/GPa)
#
#
# Indices 1 2 3 4 5 6 
#
# 1 0.012608 -0.001305 0.002864 0.002393 0.014572 0.000556
# 2 -0.001305 0.015259 0.009448 -0.008400 0.011876 -0.004333
# 3 0.002864 0.009448 0.038781 -0.015786 0.037917 -0.008854
# 4 0.002393 -0.008400 -0.015786 0.048732 -0.006616 0.009862
# 5 0.014572 0.011876 0.037917 -0.006616 0.090502 -0.002813
# 6 0.000556 -0.004333 -0.008854 0.009862 -0.002813 0.026710
#
#
# Mechanical properties :
#
#
# Convention : Reuss Voigt Hill
#
# Bulk Modulus (GPa) = 11.27881 33.73098 22.50490
# Shear Modulus (GPa) = 20.82183 34.16769 27.49476
#
# Velocity S-wave (km/s) = 3.16289 4.05165 3.63454
# Velocity P-wave (km/s) = 4.33098 6.17203 5.33157
#
# Compressibility (1/GPa) = 0.08866183
#
# Stress axis : x y z
#
# Youngs Moduli (GPa) = 79.31416 65.53543 25.78556
#
# Poissons Ratio (x) = 0.08551 -0.07385
# Poissons Ratio (y) = 0.10349 -0.24361
# Poissons Ratio (z) = -0.22715 -0.61915
#
# Static dielectric constant tensor:
#      x y z
#    x 4.127440 0.113670 -0.373980 
#    y 0.113670 4.251120 0.014010 
#    z -0.373980 0.014010 3.320460 
# 
# 
# High freq. dielectric constant tensor:
#      x y z
#    x 1.821820 0.002780 -0.029070 
#    y 0.002780 1.833910 0.009150 
#    z -0.029070 0.009150 1.767930 
# 
# From -- ./inp_files/217301.got.cif
#   From: 2010.06.25/outbox.cif.g09.slc.cpg/sg2_109_cif.got.tgz:217301.got - 2010.06.27 13:26:56.
