data_PCOD8002823
_publ_section_title
;
Structure prediction by ZEFSAII (Michael W. Deem and Ramdas Pophale) SiO2 
 PCOD8002823
Probable space group: P -1
;
_chemical_formula_sum "Si O2"
_cell_formula_units_Z 14
_cell_length_a 9.267113
_cell_length_b 14.779325
_cell_length_c 9.267298
_cell_angle_alpha 141.080770
_cell_angle_beta 117.183991
_cell_angle_gamma 82.209919
_cell_volume 652.084200
_symmetry_space_group_name_H-M "P -1"
_symmetry_group_IT_number 2
_symmetry_cell_setting 'triclinic'
loop_
_space_group_symop_operation_xyz
x,y,z
-x,-y,-z
loop_
_atom_site_type_symbol
_atom_site_label
_atom_site_fract_x
_atom_site_fract_y
_atom_site_fract_z
Si Si1 0.234044 0.303032 0.158358
Si Si2 0.282089 0.000000 0.717893
Si Si3 0.144668 0.696997 0.462940
Si Si4 0.497330 0.472852 0.247234
Si Si5 0.774375 0.472856 0.970217
Si Si6 0.647094 0.220944 0.057819
Si Si7 0.163140 0.779033 0.131912
O O1 0.340960 0.420161 0.227634
O O2 0.345724 0.363307 0.431673
O O3 0.207296 0.126427 0.891388
O O4 0.045156 0.313082 0.102266
O O5 0.492444 0.076015 0.883291
O O6 0.234982 0.873612 0.666312
O O7 0.192719 0.923946 0.431488
O O8 0.192531 0.579896 0.238891
O O9 0.210851 0.686939 0.641766
O O10 0.931626 0.636704 0.290996
O O11 0.408329 0.499990 0.091661
O O12 0.571899 0.338732 0.095245
O O13 0.756494 0.338772 0.910737
O O14 0.739922 0.158147 0.898080
#
# Coordination Sequence:
#
# PCOD8002823 Si02
#       7
#     2   2   2   2   2   2   2
#     4  10  20  37  61  86 114 153 198 237 280 342
#     4  10  21  38  61  86 114 154 198 236 277 342
#     4  10  20  37  61  86 114 153 198 237 280 342
#     4  10  20  36  59  87 116 151 196 238 281 341
#     4  10  20  36  59  87 116 151 196 238 281 341
#     4  11  23  38  59  88 121 152 187 239 295 341
#     4  11  23  38  59  88 121 152 187 239 295 341
#
# _framework density 21.469619999999999
#
# number of rings (size 3 to 8) (size 9 to 14) (size 15 to 20)
#    0.000    1.714    0.000    7.286    0.000    5.143 
#    0.000    0.714    0.000    0.000    0.000    0.000 
#    0.000    0.000    0.000    0.000    0.000    0.000 
#
# Total GULP energy -173601.961199 kJ/mol
# GULP energy per Si atom -12400.140086 kJ/mol
# Density = 2.142075 g / cm^3
# Si number density = 21.469620 Si / 1000 Ang^3
#
#
#
# Elastic Constant Matrix: (Units=GPa)
#
#
# Indices 1 2 3 4 5 6 
#
# 1 56.5167 34.5508 38.2074 -16.3876 3.1826 -3.5517
# 2 34.5508 85.8328 50.2123 -2.6071 13.1354 -23.3734
# 3 38.2074 50.2123 114.4412 3.0979 30.6344 -12.8384
# 4 -16.3876 -2.6071 3.0979 33.3946 -8.9275 6.5769
# 5 3.1826 13.1354 30.6344 -8.9275 21.4393 -10.7532
# 6 -3.5517 -23.3734 -12.8384 6.5769 -10.7532 24.6136
#
#
#
# Elastic Compliance Matrix: (Units=1/GPa)
#
#
# Indices 1 2 3 4 5 6 
#
# 1 0.058746 -0.015455 -0.031763 0.048889 0.062136 -0.008685
# 2 -0.015455 0.025463 -0.002383 -0.010593 -0.003210 0.022135
# 3 -0.031763 -0.002383 0.038668 -0.036092 -0.067343 -0.006454
# 4 0.048889 -0.010593 -0.036092 0.079392 0.079749 -0.008203
# 5 0.062136 -0.003210 -0.067343 0.079749 0.183745 0.029757
# 6 -0.008685 0.022135 -0.006454 -0.008203 0.029757 0.072220
#
#
# Mechanical properties :
#
#
# Convention : Reuss Voigt Hill
#
# Bulk Modulus (GPa) = 42.23802 55.85909 49.04855
# Shear Modulus (GPa) = 8.84443 24.81084 16.82763
#
# Velocity S-wave (km/s) = 2.03186 3.40314 2.80266
# Velocity P-wave (km/s) = 5.02202 6.44329 5.77653
#
# Compressibility (1/GPa) = 0.02367535
#
# Stress axis : x y z
#
# Youngs Moduli (GPa) = 17.02237 39.27251 25.86138
#
# Poissons Ratio (x) = 0.60697 0.82142
# Poissons Ratio (y) = 0.26308 0.06163
# Poissons Ratio (z) = 0.54067 0.09359
#
# Static dielectric constant tensor:
#      x y z
#    x 3.700550 -0.075360 0.210170 
#    y -0.075360 3.656040 -0.125490 
#    z 0.210170 -0.125490 4.009390 
# 
# 
# High freq. dielectric constant tensor:
#      x y z
#    x 1.825260 -0.008960 0.015440 
#    y -0.008960 1.831560 -0.005040 
#    z 0.015440 -0.005040 1.851520 
# 
# From -- ./inp_files/157951.got.cif
#   From: 2010.06.25/outbox.cif.g09.slc.cpg/sg2_79_cif.got.tgz:157951.got - 2010.06.27 13:26:56.
