data_PCOD8002101
_publ_section_title
;
Structure prediction by ZEFSAII (Michael W. Deem and Ramdas Pophale) SiO2 
 PCOD8002101
Probable space group: P -1
;
_chemical_formula_sum "Si O2"
_cell_formula_units_Z 16
_cell_length_a 20.576024
_cell_length_b 5.066412
_cell_length_c 12.260868
_cell_angle_alpha 70.610905
_cell_angle_beta 38.920355
_cell_angle_gamma 81.794654
_cell_volume 742.903517
_symmetry_space_group_name_H-M "P -1"
_symmetry_group_IT_number 2
_symmetry_cell_setting 'triclinic'
loop_
_space_group_symop_operation_xyz
x,y,z
-x,-y,-z
loop_
_atom_site_type_symbol
_atom_site_label
_atom_site_fract_x
_atom_site_fract_y
_atom_site_fract_z
Si Si1 0.708765 0.913230 0.653003
Si Si2 0.449776 0.843029 0.482768
Si Si3 0.640068 0.791341 0.987483
Si Si4 0.033493 0.502867 0.080097
Si Si5 0.832361 0.900408 0.108530
Si Si6 0.336385 0.322370 0.797855
Si Si7 0.502105 0.777257 0.823396
Si Si8 0.810321 0.548304 0.407233
O O1 0.723730 0.865936 0.769146
O O2 0.586168 0.770180 0.810435
O O3 0.786011 0.753853 0.506579
O O4 0.728639 0.248787 0.552659
O O5 0.341487 0.627393 0.688469
O O6 0.541448 0.691098 0.336980
O O7 0.500000 0.000000 0.500000
O O8 0.425644 0.058249 0.392076
O O9 0.706941 0.708770 0.016606
O O10 0.545005 0.536079 0.114768
O O11 0.592763 0.073445 0.035079
O O12 0.926534 0.483869 0.291543
O O13 0.090607 0.233357 0.056091
O O14 0.000000 0.500000 0.000000
O O15 0.115783 0.785762 0.965449
O O16 0.728699 0.911184 0.168359
O O17 0.804089 0.702508 0.278539
#
# Coordination Sequence:
#
# PCOD8002101 Si02
#       8
#     2   2   2   2   2   2   2   2
#     4  12  23  36  61  82 114 156 199 234 275 341
#     4  10  20  35  55  81 124 150 186 242 284 321
#     4  11  23  40  54  81 120 159 193 235 273 330
#     4  10  21  40  60  89 119 144 177 243 306 346
#     4  11  22  37  65  88 117 146 189 231 296 364
#     4  10  23  36  56  87 116 157 191 230 287 344
#     4  11  22  37  57  81 117 154 200 234 281 329
#     4  11  22  38  59  88 113 141 188 244 295 337
#
# _framework density 21.537118
#
# number of rings (size 3 to 8) (size 9 to 14) (size 15 to 20)
#    0.000    1.250    1.250    6.750    3.500    0.000 
#    0.000    0.000    0.000    4.500    0.000    0.000 
#    0.000    0.000    0.000    0.000    0.000    0.000 
#
# Total GULP energy -198323.920572 kJ/mol
# GULP energy per Si atom -12395.245036 kJ/mol
# Density = 2.148810 g / cm^3
# Si number density = 21.537118 Si / 1000 Ang^3
#
#
#
# Elastic Constant Matrix: (Units=GPa)
#
#
# Indices 1 2 3 4 5 6 
#
# 1 81.2681 12.7849 35.0062 0.4872 5.3230 25.0632
# 2 12.7849 84.5422 9.3872 4.5809 -0.1372 21.7610
# 3 35.0062 9.3872 67.2072 13.8320 12.1438 11.0817
# 4 0.4872 4.5809 13.8320 34.8006 11.7785 -10.6432
# 5 5.3230 -0.1372 12.1438 11.7785 33.8432 0.7591
# 6 25.0632 21.7610 11.0817 -10.6432 0.7591 34.0445
#
#
#
# Elastic Compliance Matrix: (Units=1/GPa)
#
#
# Indices 1 2 3 4 5 6 
#
# 1 0.019572 0.001408 -0.008018 -0.001519 0.000629 -0.013188
# 2 0.001408 0.015370 0.000300 -0.007044 0.002481 -0.013216
# 3 -0.008018 0.000300 0.022154 -0.008818 -0.003525 -0.004179
# 4 -0.001519 -0.007044 -0.008818 0.044370 -0.012575 0.022642
# 5 0.000629 0.002481 -0.003525 -0.012575 0.035227 -0.005618
# 6 -0.013188 -0.013216 -0.004179 0.022642 -0.005618 0.056094
#
#
# Mechanical properties :
#
#
# Convention : Reuss Voigt Hill
#
# Bulk Modulus (GPa) = 22.48306 38.59712 30.54009
# Shear Modulus (GPa) = 22.70350 32.26026 27.48188
#
# Velocity S-wave (km/s) = 3.25030 3.87446 3.57602
# Velocity P-wave (km/s) = 4.95457 6.16241 5.59121
#
# Compressibility (1/GPa) = 0.04447793
#
# Stress axis : x y z
#
# Youngs Moduli (GPa) = 51.09300 65.06353 45.13785
#
# Poissons Ratio (x) = -0.09163 0.36190
# Poissons Ratio (y) = -0.07196 -0.01355
# Poissons Ratio (z) = 0.40965 -0.01954
#
# Static dielectric constant tensor:
#      x y z
#    x 3.952730 -0.059210 -0.022300 
#    y -0.059210 4.011210 0.171880 
#    z -0.022300 0.171880 4.325120 
# 
# 
# High freq. dielectric constant tensor:
#      x y z
#    x 1.824560 0.014330 0.008370 
#    y 0.014330 1.861240 0.001330 
#    z 0.008370 0.001330 1.829430 
# 
# From -- ./inp_files/367625.got.cif
#   From: 2010.06.25/outbox.cif.g09.slc.cpg/sg2_184_cif.got.tgz:367625.got - 2010.06.27 13:26:56.
