data_PCOD8002783
_publ_section_title
;
Structure prediction by ZEFSAII (Michael W. Deem and Ramdas Pophale) SiO2 
 PCOD8002783
Probable space group: P -1
;
_chemical_formula_sum "Si O2"
_cell_formula_units_Z 16
_cell_length_a 22.066357
_cell_length_b 14.326069
_cell_length_c 14.272990
_cell_angle_alpha 29.293652
_cell_angle_beta 23.109978
_cell_angle_gamma 31.560834
_cell_volume 836.687773
_symmetry_space_group_name_H-M "P -1"
_symmetry_group_IT_number 2
_symmetry_cell_setting 'triclinic'
loop_
_space_group_symop_operation_xyz
x,y,z
-x,-y,-z
loop_
_atom_site_type_symbol
_atom_site_label
_atom_site_fract_x
_atom_site_fract_y
_atom_site_fract_z
Si Si1 0.260375 0.169227 0.163904
Si Si2 0.725551 0.100526 0.335923
Si Si3 0.492081 0.103721 0.066269
Si Si4 0.528773 0.678616 0.741471
Si Si5 0.327502 0.531037 0.669753
Si Si6 0.746349 0.947318 0.238779
Si Si7 0.088615 0.927396 0.721962
Si Si8 0.514749 0.521870 0.699193
O O1 0.332166 0.019468 0.108135
O O2 0.101413 0.121694 0.474823
O O3 0.386972 0.156019 0.077707
O O4 0.223727 0.390980 0.982166
O O5 0.872055 0.052023 0.242462
O O6 0.658137 0.336243 0.209516
O O7 0.787829 0.987456 0.251040
O O8 0.575031 0.028452 0.650376
O O9 0.495430 0.304512 0.938544
O O10 0.676048 0.756114 0.503306
O O11 0.574057 0.607323 0.633700
O O12 0.370970 0.860687 0.809399
O O13 0.500000 0.500000 0.000000
O O14 0.500000 0.500000 0.500000
O O15 0.225965 0.752796 0.635071
O O16 0.353291 0.489842 0.558793
O O17 0.911876 0.899522 0.987021
#
# Coordination Sequence:
#
# PCOD8002783 Si02
#       8
#     2   2   2   2   2   2   2   2
#     4  10  18  28  48  81 121 153 171 215 281 342
#     4  10  19  33  57  86 118 150 185 233 283 347
#     4  10  16  28  50  82 114 146 187 219 268 335
#     4  10  23  44  64  78 104 153 208 250 273 324
#     4  12  18  33  55  89 126 152 182 224 285 352
#     4  10  23  41  59  84 110 152 199 238 290 332
#     4  11  21  34  56  88 128 149 175 233 294 356
#     4  11  19  32  59  87 110 149 196 231 278 335
#
# _framework density 19.123023
#
# number of rings (size 3 to 8) (size 9 to 14) (size 15 to 20)
#    0.000    1.500    5.000    1.875    0.000    1.000 
#    0.000    0.625    0.000    9.750    0.000    0.000 
#    0.000    0.000    0.000    0.000    0.000    0.000 
#
# Total GULP energy -198386.739331 kJ/mol
# GULP energy per Si atom -12399.171208 kJ/mol
# Density = 1.907950 g / cm^3
# Si number density = 19.123023 Si / 1000 Ang^3
#
#
#
# Elastic Constant Matrix: (Units=GPa)
#
#
# Indices 1 2 3 4 5 6 
#
# 1 52.1128 28.5715 40.4207 2.2248 6.2718 6.4418
# 2 28.5715 69.6322 38.2769 -12.5687 -6.8888 13.8544
# 3 40.4207 38.2769 119.5998 -7.1894 -6.3653 -4.1227
# 4 2.2248 -12.5687 -7.1894 37.3736 -0.6591 4.4037
# 5 6.2718 -6.8888 -6.3653 -0.6591 25.3981 -3.5993
# 6 6.4418 13.8544 -4.1227 4.4037 -3.5993 21.3473
#
#
#
# Elastic Compliance Matrix: (Units=1/GPa)
#
#
# Indices 1 2 3 4 5 6 
#
# 1 0.035992 -0.010479 -0.010310 -0.007074 -0.015519 -0.007209
# 2 -0.010479 0.027166 -0.004708 0.010916 0.006722 -0.016497
# 3 -0.010310 -0.004708 0.014061 0.000692 0.006198 0.009784
# 4 -0.007074 0.010916 0.000692 0.032326 0.004193 -0.010778
# 5 -0.015519 0.006722 0.006198 0.004193 0.047928 0.008734
# 6 -0.007209 -0.016497 0.009784 -0.010778 0.008734 0.065311
#
#
# Mechanical properties :
#
#
# Convention : Reuss Voigt Hill
#
# Bulk Modulus (GPa) = 38.12944 50.65366 44.39155
# Shear Modulus (GPa) = 17.69789 25.76220 21.73004
#
# Velocity S-wave (km/s) = 3.04546 3.67438 3.37460
# Velocity P-wave (km/s) = 5.68760 6.67437 6.20065
#
# Compressibility (1/GPa) = 0.02622646
#
# Stress axis : x y z
#
# Youngs Moduli (GPa) = 27.78407 36.81045 71.11858
#
# Poissons Ratio (x) = 0.38572 0.73324
# Poissons Ratio (y) = 0.29114 0.33480
# Poissons Ratio (z) = 0.28646 0.17329
#
# Static dielectric constant tensor:
#      x y z
#    x 3.373740 0.170290 0.261420 
#    y 0.170290 3.504840 -0.257830 
#    z 0.261420 -0.257830 3.536760 
# 
# 
# High freq. dielectric constant tensor:
#      x y z
#    x 1.719740 0.019340 0.024850 
#    y 0.019340 1.742260 -0.019100 
#    z 0.024850 -0.019100 1.740310 
# 
# From -- ./inp_files/314744.got.cif
#   From: 2010.06.25/outbox.cif.g09.slc.cpg/sg2_158_cif.got.tgz:314744.got - 2010.06.27 13:26:56.
