data_PCOD8002256
_publ_section_title
;
Structure prediction by ZEFSAII (Michael W. Deem and Ramdas Pophale) SiO2 
 PCOD8002256
Probable space group: P -1
;
_chemical_formula_sum "Si O2"
_cell_formula_units_Z 14
_cell_length_a 12.523839
_cell_length_b 7.952864
_cell_length_c 12.003587
_cell_angle_alpha 90.836772
_cell_angle_beta 143.939490
_cell_angle_gamma 108.530734
_cell_volume 582.980376
_symmetry_space_group_name_H-M "P -1"
_symmetry_group_IT_number 2
_symmetry_cell_setting 'triclinic'
loop_
_space_group_symop_operation_xyz
x,y,z
-x,-y,-z
loop_
_atom_site_type_symbol
_atom_site_label
_atom_site_fract_x
_atom_site_fract_y
_atom_site_fract_z
Si Si1 0.102973 0.716543 0.149019
Si Si2 0.471434 0.095401 0.794900
Si Si3 0.996168 0.757900 0.306439
Si Si4 0.238482 0.239128 0.206995
Si Si5 0.370172 0.599936 0.879618
Si Si6 0.540752 0.292249 0.632959
Si Si7 0.358079 0.167492 0.077208
O O1 0.047415 0.690081 0.232874
O O2 0.359140 0.825332 0.341152
O O3 0.000000 0.500000 0.000000
O O4 0.024549 0.860734 0.031301
O O5 0.529869 0.270148 0.756034
O O6 0.218253 0.916912 0.559696
O O7 0.650122 0.039111 0.933045
O O8 0.503621 0.188820 0.944335
O O9 0.875237 0.560519 0.284413
O O10 0.845675 0.846262 0.157906
O O11 0.296295 0.178831 0.372066
O O12 0.319913 0.474313 0.280508
O O13 0.367499 0.224241 0.213743
O O14 0.404548 0.667804 0.779351
O O15 0.500000 0.500000 0.000000
#
# Coordination Sequence:
#
# PCOD8002256 Si02
#       7
#     2   2   2   2   2   2   2
#     4   9  17  34  58  85 119 157 198 242 291 355
#     4  12  24  40  64  94 123 158 206 254 304 363
#     4  10  23  41  63  91 123 164 205 247 307 362
#     4   9  19  37  59  86 120 161 200 242 302 362
#     4  10  22  44  66  87 123 163 202 255 306 360
#     4  10  20  35  58  87 122 159 199 246 298 360
#     4  10  22  40  61  90 124 156 204 256 300 359
#
# _framework density 24.014531000000002
#
# number of rings (size 3 to 8) (size 9 to 14) (size 15 to 20)
#    0.000    2.000    0.000    4.714    0.000    6.286 
#    0.000    8.571    0.000    0.000    0.000    0.000 
#    0.000    0.000    0.000    0.000    0.000    0.000 
#
# Total GULP energy -173440.239021 kJ/mol
# GULP energy per Si atom -12388.588502 kJ/mol
# Density = 2.395987 g / cm^3
# Si number density = 24.014531 Si / 1000 Ang^3
#
#
#
# Elastic Constant Matrix: (Units=GPa)
#
#
# Indices 1 2 3 4 5 6 
#
# 1 117.8841 23.8723 13.7572 0.7152 0.9272 -13.3643
# 2 23.8723 51.5421 16.2362 -18.1643 0.3274 -13.5508
# 3 13.7572 16.2362 50.7978 14.1145 9.0219 -21.8249
# 4 0.7152 -18.1643 14.1145 28.4655 -0.2927 2.1778
# 5 0.9272 0.3274 9.0219 -0.2927 24.0272 -2.4107
# 6 -13.3643 -13.5508 -21.8249 2.1778 -2.4107 45.2664
#
#
#
# Elastic Compliance Matrix: (Units=1/GPa)
#
#
# Indices 1 2 3 4 5 6 
#
# 1 0.009882 -0.006746 0.002215 -0.005829 -0.000972 0.002195
# 2 -0.006746 0.046050 -0.028517 0.044072 0.010525 -0.003515
# 3 0.002215 -0.028517 0.051968 -0.045614 -0.017919 0.018414
# 4 -0.005829 0.044072 -0.045614 0.087245 0.016426 -0.013843
# 5 -0.000972 0.010525 -0.017919 0.016426 0.048040 -0.004008
# 6 0.002195 -0.003515 0.018414 -0.013843 -0.004008 0.031018
#
#
# Mechanical properties :
#
#
# Convention : Reuss Voigt Hill
#
# Bulk Modulus (GPa) = 23.92034 36.43948 30.17991
# Shear Modulus (GPa) = 14.11500 30.64237 22.37868
#
# Velocity S-wave (km/s) = 2.42702 3.57598 3.05598
# Velocity P-wave (km/s) = 4.22331 5.67953 5.00467
#
# Compressibility (1/GPa) = 0.04180543
#
# Stress axis : x y z
#
# Youngs Moduli (GPa) = 101.19049 21.71570 19.24244
#
# Poissons Ratio (x) = 0.14650 -0.04263
# Poissons Ratio (y) = 0.68264 0.54873
# Poissons Ratio (z) = -0.22416 0.61926
#
# Static dielectric constant tensor:
#      x y z
#    x 5.250210 0.177020 1.523000 
#    y 0.177020 5.013850 -0.184820 
#    z 1.523000 -0.184820 6.431900 
# 
# 
# High freq. dielectric constant tensor:
#      x y z
#    x 1.961160 -0.008780 0.010300 
#    y -0.008780 1.970780 -0.008270 
#    z 0.010300 -0.008270 1.943040 
# 
# From -- ./inp_files/417472.got.cif
#   From: 2010.06.25/outbox.cif.g09.slc.cpg/sg2_209_cif.got.tgz:417472.got - 2010.06.27 13:26:56.
