data_PCOD8002244
_publ_section_title
;
Structure prediction by ZEFSAII (Michael W. Deem and Ramdas Pophale) SiO2 
 PCOD8002244
Probable space group: P -1
;
_chemical_formula_sum "Si O2"
_cell_formula_units_Z 16
_cell_length_a 10.845025
_cell_length_b 12.685225
_cell_length_c 12.141990
_cell_angle_alpha 132.369707
_cell_angle_beta 121.019601
_cell_angle_gamma 32.893241
_cell_volume 664.873907
_symmetry_space_group_name_H-M "P -1"
_symmetry_group_IT_number 2
_symmetry_cell_setting 'triclinic'
loop_
_space_group_symop_operation_xyz
x,y,z
-x,-y,-z
loop_
_atom_site_type_symbol
_atom_site_label
_atom_site_fract_x
_atom_site_fract_y
_atom_site_fract_z
Si Si1 0.235362 0.321332 0.615621
Si Si2 0.449030 0.492331 0.305228
Si Si3 0.702420 0.990386 0.694010
Si Si4 0.309587 0.680459 0.128796
Si Si5 0.224419 0.204185 0.192435
Si Si6 0.958426 0.866228 0.371639
Si Si7 0.178691 0.037158 0.870303
Si Si8 0.521305 0.756016 0.534702
O O1 0.442081 0.133377 0.662694
O O2 0.325572 0.354474 0.581867
O O3 0.037993 0.544380 0.752438
O O4 0.140546 0.248261 0.464746
O O5 0.400247 0.555793 0.198863
O O6 0.513222 0.597309 0.462823
O O7 0.212359 0.604660 0.326475
O O8 0.657762 0.225578 0.229986
O O9 0.738831 0.114208 0.744053
O O10 0.752882 0.944038 0.814411
O O11 0.066100 0.801098 0.069238
O O12 0.500000 0.500000 0.000000
O O13 0.384522 0.215331 0.303859
O O14 0.286772 0.090503 0.021466
O O15 0.865694 0.894661 0.228559
O O16 0.743469 0.988766 0.436867
O O17 0.000000 0.000000 0.500000
#
# Coordination Sequence:
#
# PCOD8002244 Si02
#       8
#     2   2   2   2   2   2   2   2
#     4  10  21  38  59  93 129 159 206 254 302 374
#     4  10  22  41  63  92 120 159 218 256 298 368
#     4  10  20  35  58  85 124 170 204 238 303 371
#     4  11  22  36  60  89 129 169 203 252 313 366
#     4  11  24  39  58  97 134 157 200 256 314 379
#     4   9  22  45  66  88 120 162 215 266 300 362
#     4  11  25  39  63  94 128 162 205 258 317 366
#     4  10  20  40  67  85 122 168 206 258 305 359
#
# _framework density 24.064713999999999
#
# number of rings (size 3 to 8) (size 9 to 14) (size 15 to 20)
#    0.000    1.750    1.250    3.000    3.500    4.500 
#    0.000    5.625    0.000    0.000    0.000    0.000 
#    0.000    0.000    0.000    0.000    0.000    0.000 
#
# Total GULP energy -198275.148386 kJ/mol
# GULP energy per Si atom -12392.196774 kJ/mol
# Density = 2.400994 g / cm^3
# Si number density = 24.064714 Si / 1000 Ang^3
#
#
#
# Elastic Constant Matrix: (Units=GPa)
#
#
# Indices 1 2 3 4 5 6 
#
# 1 37.3777 8.8157 13.0989 15.5785 8.1604 -22.4841
# 2 8.8157 94.2333 25.4005 9.8852 -0.1559 -15.2633
# 3 13.0989 25.4005 123.0494 -8.8357 6.0289 -8.4879
# 4 15.5785 9.8852 -8.8357 39.8080 0.2392 -8.3131
# 5 8.1604 -0.1559 6.0289 0.2392 23.2648 3.1051
# 6 -22.4841 -15.2633 -8.4879 -8.3131 3.1051 33.8614
#
#
#
# Elastic Compliance Matrix: (Units=1/GPa)
#
#
# Indices 1 2 3 4 5 6 
#
# 1 0.068026 0.004058 -0.005101 -0.019506 -0.028118 0.043510
# 2 0.004058 0.012479 -0.002741 -0.003862 -0.001500 0.006822
# 3 -0.005101 -0.002741 0.009520 0.004573 -0.000602 -0.001058
# 4 -0.019506 -0.003862 0.004573 0.033462 0.006073 -0.005888
# 5 -0.028118 -0.001500 -0.000602 0.006073 0.056019 -0.023144
# 6 0.043510 0.006822 -0.001058 -0.005888 -0.023144 0.061909
#
#
# Mechanical properties :
#
#
# Convention : Reuss Voigt Hill
#
# Bulk Modulus (GPa) = 12.12750 38.81006 25.46878
# Shear Modulus (GPa) = 18.08525 33.20985 25.64755
#
# Velocity S-wave (km/s) = 2.74437 3.71890 3.26816
# Velocity P-wave (km/s) = 3.88492 5.88240 4.98474
#
# Compressibility (1/GPa) = 0.08245723
#
# Stress axis : x y z
#
# Youngs Moduli (GPa) = 14.70030 80.13612 105.03655
#
# Poissons Ratio (x) = -0.32520 0.53578
# Poissons Ratio (y) = -0.05966 0.28792
# Poissons Ratio (z) = 0.07498 0.21966
#
# Static dielectric constant tensor:
#      x y z
#    x 4.226990 -0.461770 -0.018790 
#    y -0.461770 4.701290 0.032660 
#    z -0.018790 0.032660 4.501070 
# 
# 
# High freq. dielectric constant tensor:
#      x y z
#    x 1.933730 -0.018580 -0.002760 
#    y -0.018580 1.964420 -0.005060 
#    z -0.002760 -0.005060 1.956560 
# 
# From -- ./inp_files/522527.got.cif
#   From: 2010.06.25/outbox.cif.g09.slc.cpg/sg2_262_cif.got.tgz:522527.got - 2010.06.27 13:26:56.
