data_PCOD8002678
_publ_section_title
;
Structure prediction by ZEFSAII (Michael W. Deem and Ramdas Pophale) SiO2 
 PCOD8002678
Probable space group: P -1
;
_chemical_formula_sum "Si O2"
_cell_formula_units_Z 16
_cell_length_a 21.621273
_cell_length_b 5.384716
_cell_length_c 14.896748
_cell_angle_alpha 86.759792
_cell_angle_beta 152.265474
_cell_angle_gamma 88.709132
_cell_volume 795.945400
_symmetry_space_group_name_H-M "P -1"
_symmetry_group_IT_number 2
_symmetry_cell_setting 'triclinic'
loop_
_space_group_symop_operation_xyz
x,y,z
-x,-y,-z
loop_
_atom_site_type_symbol
_atom_site_label
_atom_site_fract_x
_atom_site_fract_y
_atom_site_fract_z
Si Si1 0.284717 0.505171 0.379041
Si Si2 0.073602 0.120701 0.324467
Si Si3 0.233962 0.402826 0.934405
Si Si4 0.031948 0.801452 0.122066
Si Si5 0.348878 0.200718 0.625216
Si Si6 0.071740 0.955928 0.687140
Si Si7 0.822892 0.527059 0.940444
Si Si8 0.465937 0.667407 0.744068
O O1 0.128498 0.566604 0.208374
O O2 0.330511 0.233367 0.491484
O O3 0.379151 0.694647 0.538773
O O4 0.289879 0.522768 0.276867
O O5 0.206749 0.253693 0.495619
O O6 0.939659 0.293442 0.112542
O O7 0.111286 0.893950 0.307046
O O8 0.044281 0.018704 0.386870
O O9 0.161282 0.173955 0.813151
O O10 0.252184 0.384471 0.065830
O O11 0.155625 0.675791 0.801226
O O12 0.377264 0.369299 0.073155
O O13 0.889988 0.748436 0.978170
O O14 0.000000 0.000000 0.000000
O O15 0.432497 0.421081 0.761063
O O16 0.427901 0.920275 0.749765
O O17 0.000000 0.000000 0.500000
#
# Coordination Sequence:
#
# PCOD8002678 Si02
#       8
#     2   2   2   2   2   2   2   2
#     4  10  21  31  53  88 122 172 203 241 282 347
#     4  11  20  36  60  89 123 155 205 259 311 351
#     4  11  24  44  64  89 123 162 198 252 304 370
#     4  12  19  31  55  88 130 160 200 259 300 346
#     4  10  20  36  57  87 119 167 202 246 285 349
#     4  11  25  45  71  94 116 149 199 262 324 367
#     4  11  21  33  52  89 124 163 210 248 298 350
#     4  10  22  38  58  84 124 173 204 232 292 356
#
# _framework density 20.101882
#
# number of rings (size 3 to 8) (size 9 to 14) (size 15 to 20)
#    0.750    0.500    5.000    2.250    0.000    0.500 
#    0.000    0.625    0.000    4.500    0.000    0.000 
#    0.000    0.000    0.000    0.000    0.000    0.000 
#
# Total GULP energy -198248.334369 kJ/mol
# GULP energy per Si atom -12390.520898 kJ/mol
# Density = 2.005613 g / cm^3
# Si number density = 20.101882 Si / 1000 Ang^3
#
#
#
# Elastic Constant Matrix: (Units=GPa)
#
#
# Indices 1 2 3 4 5 6 
#
# 1 77.6272 32.6876 40.0491 5.8828 -5.7672 13.1467
# 2 32.6876 135.0234 29.7122 0.1332 7.0084 9.7944
# 3 40.0491 29.7122 52.7851 1.6968 3.9476 10.5293
# 4 5.8828 0.1332 1.6968 26.1144 3.5173 5.8036
# 5 -5.7672 7.0084 3.9476 3.5173 31.2216 0.6832
# 6 13.1467 9.7944 10.5293 5.8036 0.6832 24.5190
#
#
#
# Elastic Compliance Matrix: (Units=1/GPa)
#
#
# Indices 1 2 3 4 5 6 
#
# 1 0.023932 -0.002260 -0.016514 -0.004442 0.007604 -0.003998
# 2 -0.002260 0.008785 -0.002849 0.001227 -0.002139 -0.001305
# 3 -0.016514 -0.002849 0.034593 0.003670 -0.007077 -0.005534
# 4 -0.004442 0.001227 0.003670 0.041968 -0.006081 -0.009449
# 5 0.007604 -0.002139 -0.007077 -0.006081 0.035488 0.000267
# 6 -0.003998 -0.001305 -0.005534 -0.009449 0.000267 0.048055
#
#
# Mechanical properties :
#
#
# Convention : Reuss Voigt Hill
#
# Bulk Modulus (GPa) = 41.55681 52.25925 46.90803
# Shear Modulus (GPa) = 20.48427 27.23681 23.86054
#
# Velocity S-wave (km/s) = 3.19568 3.68494 3.44900
# Velocity P-wave (km/s) = 5.85956 6.64520 6.26471
#
# Compressibility (1/GPa) = 0.02406345
#
# Stress axis : x y z
#
# Youngs Moduli (GPa) = 41.78446 113.83427 28.90721
#
# Poissons Ratio (x) = 0.25727 0.47738
# Poissons Ratio (y) = 0.09444 0.08237
# Poissons Ratio (z) = 0.69004 0.32435
#
# Static dielectric constant tensor:
#      x y z
#    x 3.503490 -0.015290 -0.216500 
#    y -0.015290 3.852140 -0.057880 
#    z -0.216500 -0.057880 2.794590 
# 
# 
# High freq. dielectric constant tensor:
#      x y z
#    x 1.766970 0.006270 0.009500 
#    y 0.006270 1.794690 -0.000220 
#    z 0.009500 -0.000220 1.757580 
# 
# From -- ./inp_files/370853.got.cif
#   From: 2010.06.25/outbox.cif.g09.slc.cpg/sg2_186_cif.got.tgz:370853.got - 2010.06.27 13:26:56.
