data_PCOD8002807
_publ_section_title
;
Structure prediction by ZEFSAII (Michael W. Deem and Ramdas Pophale) SiO2 
 PCOD8002807
Probable space group: P -1
;
_chemical_formula_sum "Si O2"
_cell_formula_units_Z 16
_cell_length_a 12.086860
_cell_length_b 8.971687
_cell_length_c 24.518086
_cell_angle_alpha 137.837823
_cell_angle_beta 38.457230
_cell_angle_gamma 107.280204
_cell_volume 814.948119
_symmetry_space_group_name_H-M "P -1"
_symmetry_group_IT_number 2
_symmetry_cell_setting 'triclinic'
loop_
_space_group_symop_operation_xyz
x,y,z
-x,-y,-z
loop_
_atom_site_type_symbol
_atom_site_label
_atom_site_fract_x
_atom_site_fract_y
_atom_site_fract_z
Si Si1 0.315245 0.486386 0.251479
Si Si2 0.932635 0.756932 0.719013
Si Si3 0.198426 0.233592 0.004305
Si Si4 0.225015 0.719086 0.148451
Si Si5 0.384017 0.148860 0.334564
Si Si6 0.906613 0.046861 0.622933
Si Si7 0.128735 0.025805 0.083777
Si Si8 0.882182 0.786640 0.086802
O O1 0.257739 0.277874 0.229723
O O2 0.214700 0.629911 0.268709
O O3 0.599723 0.285029 0.092477
O O4 0.178424 0.770149 0.422293
O O5 0.181392 0.505287 0.521630
O O6 0.819740 0.085369 0.832862
O O7 0.973003 0.737813 0.763349
O O8 0.152885 0.532648 0.110323
O O9 0.036673 0.300520 0.032141
O O10 0.483318 0.936916 0.799383
O O11 0.114475 0.176665 0.074630
O O12 0.065322 0.944536 0.321290
O O13 0.500000 0.500000 0.000000
O O14 0.265202 0.008491 0.344494
O O15 0.590956 0.997449 0.260072
O O16 0.953864 0.964587 0.130065
O O17 0.000000 0.500000 0.000000
#
# Coordination Sequence:
#
# PCOD8002807 Si02
#       8
#     2   2   2   2   2   2   2   2
#     4  10  22  36  56  90 121 154 193 238 305 341
#     4  11  24  37  61  90 121 153 196 247 288 348
#     4  10  23  39  59  87 117 152 196 240 290 352
#     4  12  20  35  61  87 119 155 200 234 292 345
#     4   9  22  40  61  87 118 153 202 235 297 342
#     4  10  20  36  59  85 123 155 190 246 288 355
#     4  12  22  38  62  85 119 156 196 241 294 347
#     4  10  21  40  66  86 113 155 201 240 291 349
#
# _framework density 19.633150000000001
#
# number of rings (size 3 to 8) (size 9 to 14) (size 15 to 20)
#    0.750    0.750    1.250    4.500    1.750    1.500 
#    0.000    0.000    0.000    2.250    0.000    0.000 
#    0.000    0.000    0.000    0.000    0.000    0.000 
#
# Total GULP energy -198350.957184 kJ/mol
# GULP energy per Si atom -12396.934824 kJ/mol
# Density = 1.958846 g / cm^3
# Si number density = 19.633150 Si / 1000 Ang^3
#
#
#
# Elastic Constant Matrix: (Units=GPa)
#
#
# Indices 1 2 3 4 5 6 
#
# 1 81.1077 16.6126 34.8042 2.9793 11.0924 0.4495
# 2 16.6126 91.8768 30.7722 10.3526 6.8528 -11.4104
# 3 34.8042 30.7722 85.3977 -0.3453 10.2088 1.6469
# 4 2.9793 10.3526 -0.3453 28.3225 -4.4488 4.0317
# 5 11.0924 6.8528 10.2088 -4.4488 28.1457 -6.9663
# 6 0.4495 -11.4104 1.6469 4.0317 -6.9663 38.6161
#
#
#
# Elastic Compliance Matrix: (Units=1/GPa)
#
#
# Indices 1 2 3 4 5 6 
#
# 1 0.015530 -0.000423 -0.005638 -0.002158 -0.004474 -0.000647
# 2 -0.000423 0.013925 -0.004811 -0.005973 -0.001254 0.004722
# 3 -0.005638 -0.004811 0.016135 0.002514 -0.002755 -0.002804
# 4 -0.002158 -0.005973 0.002514 0.039444 0.006439 -0.004804
# 5 -0.004474 -0.001254 -0.002755 0.006439 0.041240 0.006566
# 6 -0.000647 0.004722 -0.002804 -0.004804 0.006566 0.029104
#
#
# Mechanical properties :
#
#
# Convention : Reuss Voigt Hill
#
# Bulk Modulus (GPa) = 41.93588 46.97338 44.45463
# Shear Modulus (GPa) = 27.01665 30.76307 28.88986
#
# Velocity S-wave (km/s) = 3.71357 3.96270 3.84015
# Velocity P-wave (km/s) = 6.30821 6.70185 6.50801
#
# Compressibility (1/GPa) = 0.02384593
#
# Stress axis : x y z
#
# Youngs Moduli (GPa) = 64.39097 71.81394 61.97740
#
# Poissons Ratio (x) = 0.03038 0.34945
# Poissons Ratio (y) = 0.02724 0.29815
# Poissons Ratio (z) = 0.36306 0.34546
#
# Static dielectric constant tensor:
#      x y z
#    x 3.688560 -0.043220 0.257020 
#    y -0.043220 3.591510 -0.095660 
#    z 0.257020 -0.095660 3.686080 
# 
# 
# High freq. dielectric constant tensor:
#      x y z
#    x 1.756210 -0.003440 0.015420 
#    y -0.003440 1.769460 0.000610 
#    z 0.015420 0.000610 1.759810 
# 
# From -- ./inp_files/207831.got.cif
#   From: 2010.06.25/outbox.cif.g09.slc.cpg/sg2_104_cif.got.tgz:207831.got - 2010.06.27 13:26:56.
