data_PCOD8002448
_publ_section_title
;
Structure prediction by ZEFSAII (Michael W. Deem and Ramdas Pophale) SiO2 
 PCOD8002448
Probable space group: P -1
;
_chemical_formula_sum "Si O2"
_cell_formula_units_Z 14
_cell_length_a 15.043639
_cell_length_b 12.378421
_cell_length_c 8.466732
_cell_angle_alpha 129.490863
_cell_angle_beta 88.465274
_cell_angle_gamma 130.235558
_cell_volume 704.426981
_symmetry_space_group_name_H-M "P -1"
_symmetry_group_IT_number 2
_symmetry_cell_setting 'triclinic'
loop_
_space_group_symop_operation_xyz
x,y,z
-x,-y,-z
loop_
_atom_site_type_symbol
_atom_site_label
_atom_site_fract_x
_atom_site_fract_y
_atom_site_fract_z
Si Si1 0.182430 0.596822 0.496390
Si Si2 0.878914 0.763409 0.681990
Si Si3 0.646806 0.953713 0.230381
Si Si4 0.111622 0.666968 0.876945
Si Si5 0.419457 0.468994 0.621982
Si Si6 0.297968 0.087843 0.488302
Si Si7 0.938600 0.187157 0.513007
O O1 0.205578 0.465667 0.424062
O O2 0.180310 0.690922 0.737764
O O3 0.025161 0.401362 0.222392
O O4 0.324453 0.843256 0.616096
O O5 0.752005 0.709057 0.580976
O O6 0.968064 0.818543 0.575915
O O7 0.000000 0.000000 0.000000
O O8 0.611098 0.883265 0.353363
O O9 0.806292 0.074859 0.293293
O O10 0.511210 0.722836 0.912151
O O11 0.050575 0.461958 0.799949
O O12 0.247752 0.921020 0.195410
O O13 0.500000 0.500000 0.500000
O O14 0.411813 0.350334 0.657470
O O15 0.145424 0.964582 0.460349
#
# Coordination Sequence:
#
# PCOD8002448 Si02
#       7
#     2   2   2   2   2   2   2
#     4   9  18  33  59  84 118 145 192 234 277 340
#     4  11  22  38  58  88 116 148 193 238 282 336
#     4   9  20  37  57  86 112 149 189 229 288 338
#     4   9  15  32  59  91 110 147 184 235 286 335
#     4  12  24  38  59  80 115 161 193 230 285 343
#     4  10  20  35  62  84 118 148 191 236 283 341
#     4   8  19  34  60  85 114 141 188 237 282 333
#
# _framework density 19.874310000000001
#
# number of rings (size 3 to 8) (size 9 to 14) (size 15 to 20)
#    0.857    1.429    0.000    4.286    0.000    1.143 
#    0.000    0.000    0.000    4.286    0.000    0.000 
#    0.000    0.000    0.000    0.000    0.000    0.000 
#
# Total GULP energy -173504.979926 kJ/mol
# GULP energy per Si atom -12393.212852 kJ/mol
# Density = 1.982907 g / cm^3
# Si number density = 19.874310 Si / 1000 Ang^3
#
#
#
# Elastic Constant Matrix: (Units=GPa)
#
#
# Indices 1 2 3 4 5 6 
#
# 1 47.2275 16.5660 10.8384 -4.2928 -2.9399 6.0717
# 2 16.5660 128.1557 13.9252 8.6282 -9.4848 -15.9194
# 3 10.8384 13.9252 112.9700 0.7900 -2.5893 -8.6206
# 4 -4.2928 8.6282 0.7900 29.6262 -2.0398 -3.9640
# 5 -2.9399 -9.4848 -2.5893 -2.0398 22.1685 2.7095
# 6 6.0717 -15.9194 -8.6206 -3.9640 2.7095 20.4550
#
#
#
# Elastic Compliance Matrix: (Units=1/GPa)
#
#
# Indices 1 2 3 4 5 6 
#
# 1 0.025425 -0.004495 -0.002750 0.003678 0.002918 -0.011878
# 2 -0.004495 0.009727 -0.000078 -0.002232 0.002358 0.008126
# 3 -0.002750 -0.000078 0.009490 0.000014 0.000132 0.004741
# 4 0.003678 -0.002232 0.000014 0.035602 0.002350 0.003765
# 5 0.002918 0.002358 0.000132 0.002350 0.047322 -0.004788
# 6 -0.011878 0.008126 0.004741 0.003765 -0.004788 0.062100
#
#
# Mechanical properties :
#
#
# Convention : Reuss Voigt Hill
#
# Bulk Modulus (GPa) = 33.33866 41.22361 37.28113
# Shear Modulus (GPa) = 23.33063 30.91816 27.12439
#
# Velocity S-wave (km/s) = 3.42995 3.94850 3.69832
# Velocity P-wave (km/s) = 5.70064 6.44784 6.08572
#
# Compressibility (1/GPa) = 0.02999520
#
# Stress axis : x y z
#
# Youngs Moduli (GPa) = 39.33144 102.80909 105.37319
#
# Poissons Ratio (x) = 0.46211 0.28983
# Poissons Ratio (y) = 0.17679 0.00821
# Poissons Ratio (z) = 0.10818 0.00801
#
# Static dielectric constant tensor:
#      x y z
#    x 3.197650 -0.107310 -0.054380 
#    y -0.107310 3.830490 0.092450 
#    z -0.054380 0.092450 3.421820 
# 
# 
# High freq. dielectric constant tensor:
#      x y z
#    x 1.725900 -0.010360 -0.007470 
#    y -0.010360 1.785120 0.007230 
#    z -0.007470 0.007230 1.775360 
# 
# From -- ./inp_files/305918.got.cif
#   From: 2010.06.25/outbox.cif.g09.slc.cpg/sg2_153_cif.got.tgz:305918.got - 2010.06.27 13:26:56.
