data_PCOD8002614
_publ_section_title
;
Structure prediction by ZEFSAII (Michael W. Deem and Ramdas Pophale) SiO2 
 PCOD8002614
Probable space group: P -1
;
_chemical_formula_sum "Si O2"
_cell_formula_units_Z 14
_cell_length_a 11.058721
_cell_length_b 14.181711
_cell_length_c 10.910732
_cell_angle_alpha 119.233329
_cell_angle_beta 153.628116
_cell_angle_gamma 59.462019
_cell_volume 652.194547
_symmetry_space_group_name_H-M "P -1"
_symmetry_group_IT_number 2
_symmetry_cell_setting 'triclinic'
loop_
_space_group_symop_operation_xyz
x,y,z
-x,-y,-z
loop_
_atom_site_type_symbol
_atom_site_label
_atom_site_fract_x
_atom_site_fract_y
_atom_site_fract_z
Si Si1 0.672786 0.531561 0.564352
Si Si2 0.714872 0.590059 0.987193
Si Si3 0.477087 0.798264 0.293067
Si Si4 0.973822 0.927315 0.812460
Si Si5 0.281503 0.423162 0.744891
Si Si6 0.183146 0.859200 0.319656
Si Si7 0.671538 0.746297 0.824870
O O1 0.500000 0.500000 0.500000
O O2 0.670648 0.661525 0.655663
O O3 0.988229 0.473045 0.826570
O O4 0.514515 0.491658 0.277250
O O5 0.740207 0.630957 0.174975
O O6 0.625532 0.693462 0.881495
O O7 0.700690 0.876377 0.544408
O O8 0.632146 0.673389 0.336175
O O9 0.313589 0.809752 0.279014
O O10 0.252332 0.833942 0.001380
O O11 0.943478 0.010471 0.721970
O O12 0.000000 0.000000 0.000000
O O13 0.000000 0.500000 0.500000
O O14 0.500000 0.500000 0.000000
O O15 0.416017 0.844964 0.628184
O O16 0.954047 0.791184 0.110871
#
# Coordination Sequence:
#
# PCOD8002614 Si02
#       7
#     2   2   2   2   2   2   2
#     4  10  20  36  56  84 117 164 199 241 306 357
#     4  11  23  41  57  82 127 164 206 245 299 366
#     4  11  23  41  62  86 127 162 199 252 312 355
#     4  10  20  40  62  90 122 155 198 256 322 360
#     4  12  28  44  62  89 122 174 216 244 282 371
#     4  11  21  34  64  96 118 148 203 260 311 371
#     4  11  21  34  59  91 122 154 194 258 319 345
#
# _framework density 21.465987999999999
#
# number of rings (size 3 to 8) (size 9 to 14) (size 15 to 20)
#    0.000    1.143    0.000   10.286    6.000    0.000 
#    0.000    0.000    0.000    5.143    0.000    0.000 
#    0.000    0.000    0.000    0.000    0.000    0.000 
#
# Total GULP energy -173562.652019 kJ/mol
# GULP energy per Si atom -12397.332287 kJ/mol
# Density = 2.141713 g / cm^3
# Si number density = 21.465988 Si / 1000 Ang^3
#
#
#
# Elastic Constant Matrix: (Units=GPa)
#
#
# Indices 1 2 3 4 5 6 
#
# 1 62.8772 26.2665 30.3701 -3.0352 -7.0039 13.2856
# 2 26.2665 92.4365 34.2119 -19.8710 4.7014 13.3181
# 3 30.3701 34.2119 136.4413 -20.1786 10.0285 14.0063
# 4 -3.0352 -19.8710 -20.1786 51.1873 7.8869 0.9919
# 5 -7.0039 4.7014 10.0285 7.8869 32.4126 -2.7257
# 6 13.2856 13.3181 14.0063 0.9919 -2.7257 26.9815
#
#
#
# Elastic Compliance Matrix: (Units=1/GPa)
#
#
# Indices 1 2 3 4 5 6 
#
# 1 0.021655 -0.004939 -0.004019 -0.003189 0.006968 -0.005317
# 2 -0.004939 0.014805 -0.000847 0.005965 -0.004837 -0.005144
# 3 -0.004019 -0.000847 0.009759 0.004122 -0.005048 -0.003330
# 4 -0.003189 0.005965 0.004122 0.024828 -0.009323 -0.005369
# 5 0.006968 -0.004837 -0.005048 -0.009323 0.037369 0.005695
# 6 -0.005317 -0.005144 -0.003330 -0.005369 0.005695 0.044721
#
#
# Mechanical properties :
#
#
# Convention : Reuss Voigt Hill
#
# Bulk Modulus (GPa) = 37.58502 52.60578 45.09540
# Shear Modulus (GPa) = 27.53056 35.51005 31.52031
#
# Velocity S-wave (km/s) = 3.58511 4.07166 3.83611
# Velocity P-wave (km/s) = 5.88936 6.83113 6.37765
#
# Compressibility (1/GPa) = 0.02660635
#
# Stress axis : x y z
#
# Youngs Moduli (GPa) = 46.17976 67.54573 102.47212
#
# Poissons Ratio (x) = 0.33364 0.41188
# Poissons Ratio (y) = 0.22810 0.08679
# Poissons Ratio (z) = 0.18562 0.05721
#
# Static dielectric constant tensor:
#      x y z
#    x 3.652640 0.563100 -0.076120 
#    y 0.563100 3.849160 -0.598760 
#    z -0.076120 -0.598760 4.512220 
# 
# 
# High freq. dielectric constant tensor:
#      x y z
#    x 1.812070 0.029290 0.009010 
#    y 0.029290 1.836640 -0.013290 
#    z 0.009010 -0.013290 1.870950 
# 
# From -- ./inp_files/362204.got.cif
#   From: 2010.06.25/outbox.cif.g09.slc.cpg/sg2_182_cif.got.tgz:362204.got - 2010.06.27 13:26:56.
