data_PCOD8002655
_publ_section_title
;
Structure prediction by ZEFSAII (Michael W. Deem and Ramdas Pophale) SiO2 
 PCOD8002655
Probable space group: P -1
;
_chemical_formula_sum "Si O2"
_cell_formula_units_Z 16
_cell_length_a 12.390894
_cell_length_b 14.780539
_cell_length_c 9.112335
_cell_angle_alpha 55.903223
_cell_angle_beta 35.353773
_cell_angle_gamma 66.961027
_cell_volume 792.055125
_symmetry_space_group_name_H-M "P -1"
_symmetry_group_IT_number 2
_symmetry_cell_setting 'triclinic'
loop_
_space_group_symop_operation_xyz
x,y,z
-x,-y,-z
loop_
_atom_site_type_symbol
_atom_site_label
_atom_site_fract_x
_atom_site_fract_y
_atom_site_fract_z
Si Si1 0.499706 0.379662 0.451561
Si Si2 0.477008 0.231018 0.348076
Si Si3 0.149747 0.089897 0.674224
Si Si4 0.586499 0.833604 0.075573
Si Si5 0.937598 0.774462 0.620796
Si Si6 0.184013 0.461833 0.906917
Si Si7 0.541566 0.038902 0.648576
Si Si8 0.652582 0.178404 0.928043
O O1 0.465698 0.342371 0.352478
O O2 0.504310 0.274478 0.642530
O O3 0.327404 0.444272 0.631132
O O4 0.705346 0.450052 0.183151
O O5 0.273317 0.166829 0.586555
O O6 0.573929 0.147487 0.417289
O O7 0.612839 0.261798 0.027744
O O8 0.062008 0.178023 0.588826
O O9 0.268076 0.016216 0.508487
O O10 0.000000 0.000000 0.000000
O O11 0.522069 0.937168 0.136716
O O12 0.519140 0.823458 0.992691
O O13 0.815246 0.840027 0.807917
O O14 0.157786 0.790466 0.402634
O O15 0.866470 0.644873 0.836402
O O16 0.000000 0.500000 0.000000
O O17 0.373113 0.945708 0.859440
#
# Coordination Sequence:
#
# PCOD8002655 Si02
#       8
#     2   2   2   2   2   2   2   2
#     4   9  21  41  66  85 117 153 199 257 309 358
#     4  10  20  39  59  87 122 163 200 243 304 358
#     4  11  21  38  59  89 130 166 199 243 294 361
#     4  10  20  38  57  89 118 154 204 247 295 357
#     4  11  22  36  61  89 115 161 203 246 296 363
#     4  10  21  43  66  88 116 152 204 259 313 352
#     4  10  20  36  57  84 124 162 199 242 294 355
#     4  11  20  35  57  82 127 157 191 243 296 350
#
# _framework density 20.200614000000002
#
# number of rings (size 3 to 8) (size 9 to 14) (size 15 to 20)
#    0.000    1.750    2.500    4.125    0.000    0.500 
#   13.500    1.250    0.000    0.000    0.000    0.000 
#    0.000    0.000    0.000    0.000    0.000    0.000 
#
# Total GULP energy -198222.225298 kJ/mol
# GULP energy per Si atom -12388.889081 kJ/mol
# Density = 2.015464 g / cm^3
# Si number density = 20.200614 Si / 1000 Ang^3
#
#
#
# Elastic Constant Matrix: (Units=GPa)
#
#
# Indices 1 2 3 4 5 6 
#
# 1 76.3204 46.3365 32.7136 9.9203 -1.1606 5.8465
# 2 46.3365 113.2823 48.9345 18.2752 -6.7542 23.6632
# 3 32.7136 48.9345 137.4985 13.0817 -14.3817 3.9294
# 4 9.9203 18.2752 13.0817 26.7808 -1.4993 6.5714
# 5 -1.1606 -6.7542 -14.3817 -1.4993 35.2336 0.9641
# 6 5.8465 23.6632 3.9294 6.5714 0.9641 31.8275
#
#
#
# Elastic Compliance Matrix: (Units=1/GPa)
#
#
# Indices 1 2 3 4 5 6 
#
# 1 0.018145 -0.006917 -0.001932 -0.001754 -0.001659 0.002461
# 2 -0.006917 0.015704 -0.003107 -0.004295 0.001583 -0.009183
# 3 -0.001932 -0.003107 0.009288 -0.001984 0.002997 0.001837
# 4 -0.001754 -0.004295 -0.001984 0.043173 0.000287 -0.005162
# 5 -0.001659 0.001583 0.002997 0.000287 0.029927 -0.002208
# 6 0.002461 -0.009183 0.001837 -0.005162 -0.002208 0.038701
#
#
# Mechanical properties :
#
#
# Convention : Reuss Voigt Hill
#
# Bulk Modulus (GPa) = 52.01589 64.78559 58.40074
# Shear Modulus (GPa) = 26.98945 32.04281 29.51613
#
# Velocity S-wave (km/s) = 3.65920 3.98707 3.82665
# Velocity P-wave (km/s) = 6.60746 7.30317 6.96401
#
# Compressibility (1/GPa) = 0.01922489
#
# Stress axis : x y z
#
# Youngs Moduli (GPa) = 55.11235 63.67673 107.66668
#
# Poissons Ratio (x) = 0.44046 0.20803
# Poissons Ratio (y) = 0.38122 0.33448
# Poissons Ratio (z) = 0.10649 0.19782
#
# Static dielectric constant tensor:
#      x y z
#    x 3.546350 0.058940 0.087040 
#    y 0.058940 3.879620 0.113820 
#    z 0.087040 0.113820 3.872820 
# 
# 
# High freq. dielectric constant tensor:
#      x y z
#    x 1.776510 -0.006200 0.007330 
#    y -0.006200 1.779290 0.005760 
#    z 0.007330 0.005760 1.796940 
# 
# From -- ./inp_files/269683.got.cif
#   From: 2010.06.25/outbox.cif.g09.slc.cpg/sg2_135_cif.got.tgz:269683.got - 2010.06.27 13:26:56.
