data_PCOD8002334
_publ_section_title
;
Structure prediction by ZEFSAII (Michael W. Deem and Ramdas Pophale) SiO2 
 PCOD8002334
Probable space group: P -1
;
_chemical_formula_sum "Si O2"
_cell_formula_units_Z 16
_cell_length_a 11.541402
_cell_length_b 14.517573
_cell_length_c 11.981293
_cell_angle_alpha 114.240273
_cell_angle_beta 95.942908
_cell_angle_gamma 142.590853
_cell_volume 701.896602
_symmetry_space_group_name_H-M "P -1"
_symmetry_group_IT_number 2
_symmetry_cell_setting 'triclinic'
loop_
_space_group_symop_operation_xyz
x,y,z
-x,-y,-z
loop_
_atom_site_type_symbol
_atom_site_label
_atom_site_fract_x
_atom_site_fract_y
_atom_site_fract_z
Si Si1 0.909402 0.166811 0.410985
Si Si2 0.077942 0.997070 0.831852
Si Si3 0.266703 0.697101 0.042338
Si Si4 0.799541 0.697586 0.068917
Si Si5 0.937346 0.733936 0.869001
Si Si6 0.883397 0.514525 0.592991
Si Si7 0.784316 0.548065 0.187928
Si Si8 0.517978 0.103497 0.194678
O O1 0.035447 0.360910 0.449968
O O2 0.035454 0.267602 0.597047
O O3 0.001932 0.135405 0.348007
O O4 0.547757 0.882896 0.235869
O O5 0.909564 0.814076 0.831729
O O6 0.972333 0.026758 0.803257
O O7 0.432345 0.290959 0.039302
O O8 0.329784 0.850755 0.061551
O O9 0.172988 0.537730 0.863240
O O10 0.000000 0.500000 0.000000
O O11 0.749574 0.597839 0.897002
O O12 0.500000 0.500000 0.000000
O O13 0.934390 0.725464 0.184092
O O14 0.800123 0.525906 0.688754
O O15 0.299042 0.005172 0.057459
O O16 0.600216 0.217403 0.381617
O O17 0.173920 0.676548 0.733256
#
# Coordination Sequence:
#
# PCOD8002334 Si02
#       8
#     2   2   2   2   2   2   2   2
#     4   9  19  36  59  84 115 154 196 244 295 351
#     4   9  20  38  61  86 111 148 198 252 302 346
#     4  10  21  36  53  83 123 160 196 233 287 358
#     4  10  22  40  60  84 117 159 202 248 301 349
#     4  11  20  37  63  88 119 154 197 247 295 354
#     4   9  20  36  58  91 122 150 192 243 298 353
#     4  10  20  38  59  81 117 158 197 243 294 354
#     4  10  20  35  59  91 121 153 192 241 298 355
#
# _framework density 22.795380999999999
#
# number of rings (size 3 to 8) (size 9 to 14) (size 15 to 20)
#    0.000    2.250    0.000    3.000    0.000    4.000 
#    0.000   11.250    0.000    9.000    0.000    0.000 
#    0.000    0.000    0.000    0.000    0.000    0.000 
#
# Total GULP energy -198305.525605 kJ/mol
# GULP energy per Si atom -12394.095350 kJ/mol
# Density = 2.274350 g / cm^3
# Si number density = 22.795381 Si / 1000 Ang^3
#
#
#
# Elastic Constant Matrix: (Units=GPa)
#
#
# Indices 1 2 3 4 5 6 
#
# 1 80.8200 40.7199 34.9384 -9.8576 -30.1788 -12.0278
# 2 40.7199 88.2536 48.8781 -32.0756 -12.9268 -5.1646
# 3 34.9384 48.8781 119.4488 -30.1331 -24.3608 -8.4594
# 4 -9.8576 -32.0756 -30.1331 31.5986 6.5133 -7.7650
# 5 -30.1788 -12.9268 -24.3608 6.5133 26.0580 -1.6816
# 6 -12.0278 -5.1646 -8.4594 -7.7650 -1.6816 33.7550
#
#
#
# Elastic Compliance Matrix: (Units=1/GPa)
#
#
# Indices 1 2 3 4 5 6 
#
# 1 0.030899 -0.011462 0.002245 -0.004264 0.033944 0.010529
# 2 -0.011462 0.025090 -0.002969 0.021756 -0.008811 0.003576
# 3 0.002245 -0.002969 0.014787 0.010943 0.012680 0.007200
# 4 -0.004264 0.021756 0.010943 0.067692 0.000465 0.020147
# 5 0.033944 -0.008811 0.012680 0.000465 0.086237 0.018328
# 6 0.010529 0.003576 0.007200 0.020147 0.018328 0.041276
#
#
# Mechanical properties :
#
#
# Convention : Reuss Voigt Hill
#
# Bulk Modulus (GPa) = 21.55031 59.73280 40.64156
# Shear Modulus (GPa) = 16.34938 29.21471 22.78204
#
# Velocity S-wave (km/s) = 2.68101 3.58384 3.16478
# Velocity P-wave (km/s) = 4.36555 6.58680 5.58767
#
# Compressibility (1/GPa) = 0.04640304
#
# Stress axis : x y z
#
# Youngs Moduli (GPa) = 32.36305 39.85647 67.62866
#
# Poissons Ratio (x) = 0.45683 -0.15181
# Poissons Ratio (y) = 0.37094 0.20082
# Poissons Ratio (z) = -0.07265 0.11835
#
# Static dielectric constant tensor:
#      x y z
#    x 4.370870 -0.554450 -0.052680 
#    y -0.554450 5.356580 -1.148360 
#    z -0.052680 -1.148360 4.860820 
# 
# 
# High freq. dielectric constant tensor:
#      x y z
#    x 1.905090 -0.015400 -0.025900 
#    y -0.015400 1.880640 -0.009950 
#    z -0.025900 -0.009950 1.889740 
# 
# From -- ./inp_files/434226.got.cif
#   From: 2010.06.25/outbox.cif.g09.slc.cpg/sg2_218_cif.got.tgz:434226.got - 2010.06.27 13:26:56.
