data_PCOD8002836
_publ_section_title
;
Structure prediction by ZEFSAII (Michael W. Deem and Ramdas Pophale) SiO2 
 PCOD8002836
Probable space group: P -1
;
_chemical_formula_sum "Si O2"
_cell_formula_units_Z 16
_cell_length_a 30.388557
_cell_length_b 18.521693
_cell_length_c 11.318354
_cell_angle_alpha 32.512494
_cell_angle_beta 22.084731
_cell_angle_gamma 20.195880
_cell_volume 809.622921
_symmetry_space_group_name_H-M "P -1"
_symmetry_group_IT_number 2
_symmetry_cell_setting 'triclinic'
loop_
_space_group_symop_operation_xyz
x,y,z
-x,-y,-z
loop_
_atom_site_type_symbol
_atom_site_label
_atom_site_fract_x
_atom_site_fract_y
_atom_site_fract_z
Si Si1 0.952497 0.886424 0.767119
Si Si2 0.013673 0.266545 0.851379
Si Si3 0.083057 0.909377 0.790119
Si Si4 0.594040 0.053582 0.801532
Si Si5 0.206513 0.694165 0.206047
Si Si6 0.461490 0.655418 0.290662
Si Si7 0.421452 0.688395 0.853742
Si Si8 0.353764 0.285651 0.859401
O O1 0.097876 0.697940 0.567556
O O2 0.983313 0.780623 0.955993
O O3 0.000000 0.000000 0.500000
O O4 0.732519 0.083318 0.008329
O O5 0.219505 0.117928 0.503750
O O6 0.920961 0.240485 0.031849
O O7 0.871314 0.518747 0.849456
O O8 0.297759 0.764553 0.455930
O O9 0.958957 0.104201 0.740848
O O10 0.000000 0.000000 0.000000
O O11 0.602305 0.153745 0.746788
O O12 0.424688 0.242089 0.876999
O O13 0.569573 0.924728 0.092604
O O14 0.352372 0.478645 0.062757
O O15 0.320584 0.716541 0.949464
O O16 0.500000 0.500000 0.500000
O O17 0.585038 0.642717 0.472236
O O18 0.500000 0.500000 0.000000
#
# Coordination Sequence:
#
# PCOD8002836 Si02
#       8
#     2   2   2   2   2   2   2   2
#     4  10  20  36  59  88 127 150 203 267 295 361
#     4  12  20  40  60  90 126 159 208 254 314 363
#     4  12  21  34  59  88 130 161 195 259 311 366
#     4  11  24  41  57  93 128 161 208 254 309 383
#     4  11  23  37  56  97 124 157 203 252 318 363
#     4  12  23  37  58  87 126 166 204 251 312 374
#     4  11  21  39  66  95 122 162 210 263 312 358
#     4  11  23  38  64  88 123 168 203 257 318 361
#
# _framework density 19.762287000000001
#
# number of rings (size 3 to 8) (size 9 to 14) (size 15 to 20)
#    0.000    0.750    6.250    4.125    1.750    0.000 
#    0.000    0.000    0.000    3.750    0.000    0.000 
#    0.000    0.000    0.000    0.000    0.000    0.000 
#
# Total GULP energy -198324.247075 kJ/mol
# GULP energy per Si atom -12395.265442 kJ/mol
# Density = 1.971731 g / cm^3
# Si number density = 19.762287 Si / 1000 Ang^3
#
#
#
# Elastic Constant Matrix: (Units=GPa)
#
#
# Indices 1 2 3 4 5 6 
#
# 1 83.9743 40.5800 34.7664 2.6091 8.8114 -10.7628
# 2 40.5800 108.8796 42.7112 15.2550 7.6540 -17.1477
# 3 34.7664 42.7112 72.6811 10.1529 14.8462 -5.3602
# 4 2.6091 15.2550 10.1529 42.5098 5.0169 -1.3897
# 5 8.8114 7.6540 14.8462 5.0169 35.7898 10.1746
# 6 -10.7628 -17.1477 -5.3602 -1.3897 10.1746 34.0454
#
#
#
# Elastic Compliance Matrix: (Units=1/GPa)
#
#
# Indices 1 2 3 4 5 6 
#
# 1 0.016466 -0.003654 -0.005290 0.001942 -0.002287 0.003295
# 2 -0.003654 0.014025 -0.005491 -0.003230 -0.000837 0.005162
# 3 -0.005290 -0.005491 0.021106 -0.001995 -0.006184 0.000652
# 4 0.001942 -0.003230 -0.001995 0.025371 -0.002660 0.000504
# 5 -0.002287 -0.000837 -0.006184 -0.002660 0.035249 -0.012761
# 6 0.003295 0.005162 0.000652 0.000504 -0.012761 0.036951
#
#
# Mechanical properties :
#
#
# Convention : Reuss Voigt Hill
#
# Bulk Modulus (GPa) = 44.00198 55.73891 49.87045
# Shear Modulus (GPa) = 26.93767 32.30083 29.61925
#
# Velocity S-wave (km/s) = 3.69600 4.04724 3.87560
# Velocity P-wave (km/s) = 6.36615 7.07857 6.73179
#
# Compressibility (1/GPa) = 0.02272625
#
# Stress axis : x y z
#
# Youngs Moduli (GPa) = 60.72945 71.30256 47.38011
#
# Poissons Ratio (x) = 0.26056 0.25066
# Poissons Ratio (y) = 0.22192 0.26016
# Poissons Ratio (z) = 0.32128 0.39151
#
# Static dielectric constant tensor:
#      x y z
#    x 3.907610 -0.012680 0.150680 
#    y -0.012680 3.851640 0.579860 
#    z 0.150680 0.579860 4.017360 
# 
# 
# High freq. dielectric constant tensor:
#      x y z
#    x 1.754540 -0.016200 0.008850 
#    y -0.016200 1.776970 0.033030 
#    z 0.008850 0.033030 1.763810 
# 
# From -- ./inp_files/427910.got.cif
#   From: 2010.06.25/outbox.cif.g09.slc.cpg/sg2_214_cif.got.tgz:427910.got - 2010.06.27 13:26:56.
