data_PCOD8002506
_publ_section_title
;
Structure prediction by ZEFSAII (Michael W. Deem and Ramdas Pophale) SiO2 
 PCOD8002506
Probable space group: P -1
;
_chemical_formula_sum "Si O2"
_cell_formula_units_Z 14
_cell_length_a 16.018236
_cell_length_b 9.081755
_cell_length_c 15.616116
_cell_angle_alpha 99.180513
_cell_angle_beta 40.924388
_cell_angle_gamma 132.350303
_cell_volume 761.115457
_symmetry_space_group_name_H-M "P -1"
_symmetry_group_IT_number 2
_symmetry_cell_setting 'triclinic'
loop_
_space_group_symop_operation_xyz
x,y,z
-x,-y,-z
loop_
_atom_site_type_symbol
_atom_site_label
_atom_site_fract_x
_atom_site_fract_y
_atom_site_fract_z
Si Si1 0.407569 0.614543 0.554763
Si Si2 0.267127 0.082712 0.183595
Si Si3 0.109481 0.836292 0.688526
Si Si4 0.803374 0.650381 0.761690
Si Si5 0.151148 0.119457 0.808618
Si Si6 0.908925 0.515936 0.334252
Si Si7 0.937864 0.586269 0.505921
O O1 0.183447 0.303300 0.745673
O O2 0.569904 0.665507 0.372286
O O3 0.298402 0.637782 0.584856
O O4 0.591540 0.867028 0.507824
O O5 0.150865 0.130872 0.272332
O O6 0.559381 0.380693 0.981485
O O7 0.148555 0.864414 0.177991
O O8 0.190158 0.929152 0.319134
O O9 0.008344 0.569178 0.761191
O O10 0.033286 0.813990 0.651028
O O11 0.001470 0.845920 0.843255
O O12 0.770341 0.526912 0.687589
O O13 0.000000 0.000000 0.000000
O O14 0.799924 0.409724 0.506684
O O15 0.000000 0.500000 0.500000
#
# Coordination Sequence:
#
# PCOD8002506 Si02
#       7
#     2   2   2   2   2   2   2
#     4   9  20  39  60  84 117 149 185 244 286 336
#     4   9  23  35  59  83 117 153 195 244 278 341
#     4  10  20  35  64  79 120 150 185 243 288 342
#     4  11  19  42  56  89 113 157 197 236 294 331
#     4   9  20  40  59  87 109 152 194 230 287 348
#     4  10  20  39  57  86 118 154 189 238 292 339
#     4  10  21  37  58  83 117 154 195 231 287 349
#
# _framework density 18.394055000000002
#
# number of rings (size 3 to 8) (size 9 to 14) (size 15 to 20)
#    1.714    0.571    1.429    1.714    0.000    2.286 
#   10.286    2.143    0.000    0.000    0.000    0.000 
#    0.000    0.000    0.000    0.000    0.000    0.000 
#
# Total GULP energy -173433.062755 kJ/mol
# GULP energy per Si atom -12388.075911 kJ/mol
# Density = 1.835219 g / cm^3
# Si number density = 18.394055 Si / 1000 Ang^3
#
#
#
# Elastic Constant Matrix: (Units=GPa)
#
#
# Indices 1 2 3 4 5 6 
#
# 1 135.7093 47.8371 39.3930 -10.7405 7.3469 -10.1068
# 2 47.8371 117.6861 27.7481 -0.6010 3.3591 -19.0253
# 3 39.3930 27.7481 75.0878 4.9147 17.8692 -9.2395
# 4 -10.7405 -0.6010 4.9147 22.7884 3.6177 6.1976
# 5 7.3469 3.3591 17.8692 3.6177 20.3203 -7.2695
# 6 -10.1068 -19.0253 -9.2395 6.1976 -7.2695 35.4425
#
#
#
# Elastic Compliance Matrix: (Units=1/GPa)
#
#
# Indices 1 2 3 4 5 6 
#
# 1 0.010280 -0.003245 -0.004586 0.006193 -0.000690 -0.001230
# 2 -0.003245 0.011214 -0.002520 -0.002922 0.004129 0.005795
# 3 -0.004586 -0.002520 0.020584 -0.004368 -0.015117 0.000369
# 4 0.006193 -0.002922 -0.004368 0.052988 -0.011871 -0.012641
# 5 -0.000690 0.004129 -0.015117 -0.011871 0.069328 0.014374
# 6 -0.001230 0.005795 0.000369 -0.012641 0.014374 0.036230
#
#
# Mechanical properties :
#
#
# Convention : Reuss Voigt Hill
#
# Bulk Modulus (GPa) = 46.78321 62.04884 54.41603
# Shear Modulus (GPa) = 21.88652 29.94391 25.91522
#
# Velocity S-wave (km/s) = 3.45319 4.03912 3.75759
# Velocity P-wave (km/s) = 6.43339 7.45379 6.96231
#
# Compressibility (1/GPa) = 0.02137519
#
# Stress axis : x y z
#
# Youngs Moduli (GPa) = 97.28043 89.17120 48.58154
#
# Poissons Ratio (x) = 0.28933 0.22282
# Poissons Ratio (y) = 0.31564 0.12244
# Poissons Ratio (z) = 0.44618 0.22473
#
# Static dielectric constant tensor:
#      x y z
#    x 3.224900 -0.121060 0.082400 
#    y -0.121060 3.485010 -0.038850 
#    z 0.082400 -0.038850 2.966840 
# 
# 
# High freq. dielectric constant tensor:
#      x y z
#    x 1.711500 -0.015930 0.006330 
#    y -0.015930 1.721890 -0.006190 
#    z 0.006330 -0.006190 1.672870 
# 
# From -- ./inp_files/527543.got.cif
#   From: 2010.06.25/outbox.cif.g09.slc.cpg/sg2_264_cif.got.tgz:527543.got - 2010.06.27 13:26:56.
