data_PCOD8002603
_publ_section_title
;
Structure prediction by ZEFSAII (Michael W. Deem and Ramdas Pophale) SiO2 
 PCOD8002603
Probable space group: P -1
;
_chemical_formula_sum "Si O2"
_cell_formula_units_Z 14
_cell_length_a 7.251370
_cell_length_b 18.419355
_cell_length_c 18.927885
_cell_angle_alpha 20.223435
_cell_angle_beta 56.015838
_cell_angle_gamma 47.261925
_cell_volume 610.948828
_symmetry_space_group_name_H-M "P -1"
_symmetry_group_IT_number 2
_symmetry_cell_setting 'triclinic'
loop_
_space_group_symop_operation_xyz
x,y,z
-x,-y,-z
loop_
_atom_site_type_symbol
_atom_site_label
_atom_site_fract_x
_atom_site_fract_y
_atom_site_fract_z
Si Si1 0.264530 0.884793 0.895389
Si Si2 0.162180 0.990858 0.544704
Si Si3 0.362741 0.228668 0.656099
Si Si4 0.289195 0.382917 0.169777
Si Si5 0.971138 0.918317 0.795789
Si Si6 0.764806 0.472525 0.098005
Si Si7 0.044875 0.751009 0.185088
O O1 0.127105 0.984672 0.757700
O O2 0.254336 0.111804 0.730008
O O3 0.572777 0.664102 0.022989
O O4 0.115823 0.765574 0.075200
O O5 0.474315 0.823162 0.646204
O O6 0.984685 0.012965 0.628821
O O7 0.143125 0.819417 0.640570
O O8 0.111897 0.265803 0.288843
O O9 0.287452 0.500116 0.397785
O O10 0.219722 0.252880 0.740296
O O11 0.671437 0.056522 0.758993
O O12 0.090678 0.623221 0.039425
O O13 0.392731 0.458118 0.008745
O O14 0.000000 0.500000 0.000000
O O15 0.000000 0.000000 0.000000
#
# Coordination Sequence:
#
# PCOD8002603 Si02
#       7
#     2   2   2   2   2   2   2
#     4  11  21  38  63  90 119 155 202 249 294 356
#     4  10  20  36  56  81 121 165 193 236 293 338
#     4  10  23  42  63  88 116 155 194 250 313 357
#     4  10  20  37  55  80 124 162 194 237 288 344
#     4  11  21  38  63  91 122 156 205 247 292 356
#     4  11  21  35  55  85 123 158 202 247 284 350
#     4   9  22  45  64  83 121 152 190 254 310 362
#
# _framework density 22.915178000000001
#
# number of rings (size 3 to 8) (size 9 to 14) (size 15 to 20)
#    0.000    1.714    2.857    2.571    0.000    6.857 
#    0.000    6.429    0.000    0.000    0.000    0.000 
#    0.000    0.000    0.000    0.000    0.000    0.000 
#
# Total GULP energy -173560.286324 kJ/mol
# GULP energy per Si atom -12397.163309 kJ/mol
# Density = 2.286302 g / cm^3
# Si number density = 22.915178 Si / 1000 Ang^3
#
#
#
# Elastic Constant Matrix: (Units=GPa)
#
#
# Indices 1 2 3 4 5 6 
#
# 1 83.4346 22.0787 27.5611 -13.4991 -10.4650 -6.1798
# 2 22.0787 134.7110 38.4415 -8.7787 4.7227 -21.3614
# 3 27.5611 38.4415 142.5958 -16.1397 -13.7433 -6.6992
# 4 -13.4991 -8.7787 -16.1397 37.3816 -1.1827 5.5378
# 5 -10.4650 4.7227 -13.7433 -1.1827 27.9664 -5.4798
# 6 -6.1798 -21.3614 -6.6992 5.5378 -5.4798 34.9779
#
#
#
# Elastic Compliance Matrix: (Units=1/GPa)
#
#
# Indices 1 2 3 4 5 6 
#
# 1 0.014316 -0.001680 -0.001241 0.004197 0.005495 0.001462
# 2 -0.001680 0.009102 -0.002160 -0.000143 -0.002351 0.004503
# 3 -0.001241 -0.002160 0.008587 0.002839 0.004305 0.000331
# 4 0.004197 -0.000143 0.002839 0.030016 0.003676 -0.002979
# 5 0.005495 -0.002351 0.004305 0.003676 0.041719 0.006313
# 6 0.001462 0.004503 0.000331 -0.002979 0.006313 0.033122
#
#
# Mechanical properties :
#
#
# Convention : Reuss Voigt Hill
#
# Bulk Modulus (GPa) = 45.78003 59.65598 52.71801
# Shear Modulus (GPa) = 32.40326 38.24250 35.32288
#
# Velocity S-wave (km/s) = 3.76447 4.08961 3.93041
# Velocity P-wave (km/s) = 6.23830 6.95628 6.60705
#
# Compressibility (1/GPa) = 0.02184358
#
# Stress axis : x y z
#
# Youngs Moduli (GPa) = 69.85007 109.86401 116.45595
#
# Poissons Ratio (x) = 0.18452 0.14452
# Poissons Ratio (y) = 0.11732 0.25160
# Poissons Ratio (z) = 0.08668 0.23735
#
# Static dielectric constant tensor:
#      x y z
#    x 8.785560 1.910820 2.472640 
#    y 1.910820 5.143670 1.179700 
#    z 2.472640 1.179700 6.054690 
# 
# 
# High freq. dielectric constant tensor:
#      x y z
#    x 1.920020 -0.008090 0.000510 
#    y -0.008090 1.898330 -0.007000 
#    z 0.000510 -0.007000 1.933880 
# 
# From -- ./inp_files/591441.got.cif
#   From: 2010.06.25/outbox.cif.g09.slc.cpg/sg2_296_cif.got.tgz:591441.got - 2010.06.27 13:26:56.
