data_PCOD8002858
_publ_section_title
;
Structure prediction by ZEFSAII (Michael W. Deem and Ramdas Pophale) SiO2 
 PCOD8002858
Probable space group: P -1
;
_chemical_formula_sum "Si O2"
_cell_formula_units_Z 16
_cell_length_a 11.731364
_cell_length_b 21.650121
_cell_length_c 6.661191
_cell_angle_alpha 136.960555
_cell_angle_beta 126.115515
_cell_angle_gamma 39.571138
_cell_volume 734.258297
_symmetry_space_group_name_H-M "P -1"
_symmetry_group_IT_number 2
_symmetry_cell_setting 'triclinic'
loop_
_space_group_symop_operation_xyz
x,y,z
-x,-y,-z
loop_
_atom_site_type_symbol
_atom_site_label
_atom_site_fract_x
_atom_site_fract_y
_atom_site_fract_z
Si Si1 0.792608 0.305826 0.770000
Si Si2 0.610892 0.977029 0.755864
Si Si3 0.436428 0.169756 0.352413
Si Si4 0.680348 0.234797 0.835056
Si Si5 0.883091 0.570041 0.357895
Si Si6 0.006185 0.825811 0.715322
Si Si7 0.122816 0.616879 0.571129
Si Si8 0.637331 0.510460 0.817537
O O1 0.714688 0.249281 0.672619
O O2 0.942934 0.203034 0.535545
O O3 0.643996 0.419953 0.756872
O O4 0.872712 0.344052 0.107197
O O5 0.626691 0.879509 0.670510
O O6 0.804052 0.941568 0.807782
O O7 0.500000 0.000000 0.500000
O O8 0.507555 0.095567 0.049255
O O9 0.594864 0.169558 0.608350
O O10 0.270639 0.298234 0.425470
O O11 0.856900 0.165122 0.993204
O O12 0.551291 0.365269 0.089852
O O13 0.000000 0.500000 0.500000
O O14 0.022368 0.560586 0.325462
O O15 0.799523 0.512184 0.048410
O O16 0.004108 0.726512 0.566224
O O17 0.321895 0.532681 0.475666
#
# Coordination Sequence:
#
# PCOD8002858 Si02
#       8
#     2   2   2   2   2   2   2   2
#     4  10  21  36  61  89 130 174 216 248 316 384
#     4  11  25  45  73  95 124 167 221 278 325 378
#     4  10  25  46  67  99 132 164 218 273 324 378
#     4  10  23  42  61  93 132 171 209 268 318 384
#     4  11  20  38  64  97 135 172 206 263 328 385
#     4  10  23  41  65  91 126 170 217 266 317 378
#     4  10  20  36  59  92 130 169 210 262 314 378
#     4  10  21  35  57  92 130 176 214 254 313 381
#
# _framework density 21.790696000000001
#
# number of rings (size 3 to 8) (size 9 to 14) (size 15 to 20)
#    0.000    1.750    2.500    0.750    1.750    8.000 
#    4.500    1.250    0.000    0.000    0.000    0.000 
#    0.000    0.000    0.000    0.000    0.000    0.000 
#
# Total GULP energy -198319.018063 kJ/mol
# GULP energy per Si atom -12394.938629 kJ/mol
# Density = 2.174110 g / cm^3
# Si number density = 21.790696 Si / 1000 Ang^3
#
#
#
# Elastic Constant Matrix: (Units=GPa)
#
#
# Indices 1 2 3 4 5 6 
#
# 1 89.7301 21.4406 47.6645 -5.8886 -17.6043 -9.1958
# 2 21.4406 80.1470 42.1436 -7.9083 -12.3194 -19.4947
# 3 47.6645 42.1436 119.0535 -10.8131 -17.0490 -5.5020
# 4 -5.8886 -7.9083 -10.8131 28.4847 -3.6332 6.1997
# 5 -17.6043 -12.3194 -17.0490 -3.6332 40.9236 5.4801
# 6 -9.1958 -19.4947 -5.5020 6.1997 5.4801 26.0204
#
#
#
# Elastic Compliance Matrix: (Units=1/GPa)
#
#
# Indices 1 2 3 4 5 6 
#
# 1 0.015099 0.000290 -0.005334 0.000956 0.003996 0.003356
# 2 0.000290 0.018872 -0.005924 0.000549 0.001713 0.012497
# 3 -0.005334 -0.005924 0.013065 0.003579 0.002340 -0.004906
# 4 0.000956 0.000549 0.003579 0.039737 0.006855 -0.009405
# 5 0.003996 0.001713 0.002340 0.006855 0.028859 -0.004521
# 6 0.003356 0.012497 -0.004906 -0.009405 -0.004521 0.051136
#
#
# Mechanical properties :
#
#
# Convention : Reuss Voigt Hill
#
# Bulk Modulus (GPa) = 39.83771 56.82533 48.33152
# Shear Modulus (GPa) = 25.37174 30.93122 28.15148
#
# Velocity S-wave (km/s) = 3.41594 3.77167 3.59821
# Velocity P-wave (km/s) = 5.82064 6.71578 6.28417
#
# Compressibility (1/GPa) = 0.02510185
#
# Stress axis : x y z
#
# Youngs Moduli (GPa) = 66.22908 52.98973 76.53829
#
# Poissons Ratio (x) = -0.01538 0.40823
# Poissons Ratio (y) = -0.01923 0.45340
# Poissons Ratio (z) = 0.35324 0.31390
#
# Static dielectric constant tensor:
#      x y z
#    x 4.518350 0.051870 0.169490 
#    y 0.051870 3.708020 0.157190 
#    z 0.169490 0.157190 4.238920 
# 
# 
# High freq. dielectric constant tensor:
#      x y z
#    x 1.872930 -0.006350 -0.000760 
#    y -0.006350 1.839980 -0.003100 
#    z -0.000760 -0.003100 1.860720 
# 
# From -- ./inp_files/83538.got.cif
#   From: 2010.06.25/outbox.cif.g09.slc.cpg/sg2_42_cif.got.tgz:83538.got - 2010.06.27 13:26:56.
