data_PCOD8002704
_publ_section_title
;
Structure prediction by ZEFSAII (Michael W. Deem and Ramdas Pophale) SiO2 
 PCOD8002704
Probable space group: P -1
;
_chemical_formula_sum "Si O2"
_cell_formula_units_Z 14
_cell_length_a 13.344764
_cell_length_b 8.208681
_cell_length_c 12.782644
_cell_angle_alpha 90.428584
_cell_angle_beta 48.017224
_cell_angle_gamma 53.981425
_cell_volume 627.496697
_symmetry_space_group_name_H-M "P -1"
_symmetry_group_IT_number 2
_symmetry_cell_setting 'triclinic'
loop_
_space_group_symop_operation_xyz
x,y,z
-x,-y,-z
loop_
_atom_site_type_symbol
_atom_site_label
_atom_site_fract_x
_atom_site_fract_y
_atom_site_fract_z
Si Si1 0.781146 0.013485 0.145501
Si Si2 0.559423 0.955494 0.209147
Si Si3 0.003569 0.974663 0.169815
Si Si4 0.314429 0.615373 0.418994
Si Si5 0.639325 0.013099 0.944278
Si Si6 0.546247 0.628402 0.110437
Si Si7 0.094689 0.506721 0.532300
O O1 0.732935 0.862696 0.172382
O O2 0.894686 0.934966 0.177715
O O3 0.546343 0.335117 0.307334
O O4 0.948703 0.915147 0.936933
O O5 0.302939 0.200046 0.431177
O O6 0.624805 0.718802 0.115161
O O7 0.574725 0.089330 0.111371
O O8 0.841366 0.179150 0.376546
O O9 0.235828 0.691939 0.057936
O O10 0.357150 0.725183 0.312720
O O11 0.189240 0.595254 0.439717
O O12 0.901548 0.716370 0.753420
O O13 0.567213 0.235470 0.923675
O O14 0.500000 0.000000 0.000000
O O15 0.000000 0.500000 0.500000
#
# Coordination Sequence:
#
# PCOD8002704 Si02
#       7
#     2   2   2   2   2   2   2
#     4   9  20  39  63  84 110 154 200 237 277 352
#     4  10  21  39  60  85 116 152 200 235 282 341
#     4  10  20  39  61  85 117 151 190 240 297 333
#     4  10  22  37  57  86 118 150 193 239 288 341
#     4  10  20  36  58  82 114 155 188 230 284 343
#     4  10  22  36  55  90 121 149 189 242 283 346
#     4  11  20  37  59  79 110 158 194 229 281 343
#
# _framework density 22.310873999999998
#
# number of rings (size 3 to 8) (size 9 to 14) (size 15 to 20)
#    0.000    2.000    2.857    1.286    0.000    4.571 
#    0.000   10.714    0.000    0.000    0.000    0.000 
#    0.000    0.000    0.000    0.000    0.000    0.000 
#
# Total GULP energy -173475.755408 kJ/mol
# GULP energy per Si atom -12391.125386 kJ/mol
# Density = 2.226009 g / cm^3
# Si number density = 22.310874 Si / 1000 Ang^3
#
#
#
# Elastic Constant Matrix: (Units=GPa)
#
#
# Indices 1 2 3 4 5 6 
#
# 1 95.2898 5.5884 20.8185 -18.6364 -20.7044 9.5493
# 2 5.5884 44.9443 23.4052 -9.4076 7.0035 0.8260
# 3 20.8185 23.4052 140.5965 1.1499 1.6118 -6.9253
# 4 -18.6364 -9.4076 1.1499 22.8630 3.1039 -9.6565
# 5 -20.7044 7.0035 1.6118 3.1039 32.4904 -4.0633
# 6 9.5493 0.8260 -6.9253 -9.6565 -4.0633 25.4096
#
#
#
# Elastic Compliance Matrix: (Units=1/GPa)
#
#
# Indices 1 2 3 4 5 6 
#
# 1 0.015135 0.000473 -0.002548 0.011170 0.008503 -0.000793
# 2 0.000473 0.028659 -0.004787 0.014127 -0.006754 0.001875
# 3 -0.002548 -0.004787 0.008418 -0.003576 -0.000420 0.001981
# 4 0.011170 0.014127 -0.003576 0.067227 0.000325 0.019969
# 5 0.008503 -0.006754 -0.000420 0.000325 0.038032 0.003115
# 6 -0.000793 0.001875 0.001981 0.019969 0.003115 0.048219
#
#
# Mechanical properties :
#
#
# Convention : Reuss Voigt Hill
#
# Bulk Modulus (GPa) = 25.98186 42.27276 34.12731
# Shear Modulus (GPa) = 21.52928 31.55383 26.54155
#
# Velocity S-wave (km/s) = 3.10976 3.76477 3.45283
# Velocity P-wave (km/s) = 4.95629 6.15518 5.58798
#
# Compressibility (1/GPa) = 0.03848839
#
# Stress axis : x y z
#
# Youngs Moduli (GPa) = 66.07330 34.89346 118.78950
#
# Poissons Ratio (x) = -0.01649 0.30263
# Poissons Ratio (y) = -0.03122 0.56859
# Poissons Ratio (z) = 0.16833 0.16702
#
# Static dielectric constant tensor:
#      x y z
#    x 4.699430 -0.177580 -0.087360 
#    y -0.177580 3.983190 -0.096160 
#    z -0.087360 -0.096160 4.325840 
# 
# 
# High freq. dielectric constant tensor:
#      x y z
#    x 1.892320 0.021410 -0.015700 
#    y 0.021410 1.839790 0.008900 
#    z -0.015700 0.008900 1.893380 
# 
# From -- ./inp_files/253891.got.cif
#   From: 2010.06.25/outbox.cif.g09.slc.cpg/sg2_127_cif.got.tgz:253891.got - 2010.06.27 13:26:56.
