data_PCOD8002689
_publ_section_title
;
Structure prediction by ZEFSAII (Michael W. Deem and Ramdas Pophale) SiO2 
 PCOD8002689
Probable space group: P -1
;
_chemical_formula_sum "Si O2"
_cell_formula_units_Z 14
_cell_length_a 12.474083
_cell_length_b 5.357490
_cell_length_c 12.041874
_cell_angle_alpha 85.894160
_cell_angle_beta 127.798640
_cell_angle_gamma 105.903771
_cell_volume 606.618556
_symmetry_space_group_name_H-M "P -1"
_symmetry_group_IT_number 2
_symmetry_cell_setting 'triclinic'
loop_
_space_group_symop_operation_xyz
x,y,z
-x,-y,-z
loop_
_atom_site_type_symbol
_atom_site_label
_atom_site_fract_x
_atom_site_fract_y
_atom_site_fract_z
Si Si1 0.618175 0.376101 0.539186
Si Si2 0.133198 0.247135 0.081614
Si Si3 0.082361 0.324091 0.280851
Si Si4 0.084253 0.289396 0.806368
Si Si5 0.387651 0.013111 0.268988
Si Si6 0.637662 0.566529 0.163661
Si Si7 0.540138 0.005342 0.154906
O O1 0.500000 0.500000 0.500000
O O2 0.756831 0.592006 0.571038
O O3 0.546742 0.168164 0.405379
O O4 0.669856 0.240424 0.682412
O O5 0.098457 0.411316 0.157593
O O6 0.278885 0.182414 0.204280
O O7 0.146629 0.381124 0.965782
O O8 0.000000 0.000000 0.000000
O O9 0.997940 0.499356 0.285467
O O10 0.013765 0.011002 0.258999
O O11 0.216837 0.317583 0.811555
O O12 0.403092 0.934340 0.152182
O O13 0.637725 0.300121 0.235638
O O14 0.624737 0.790884 0.235107
O O15 0.500000 0.500000 0.000000
O O16 0.500000 0.000000 0.000000
#
# Coordination Sequence:
#
# PCOD8002689 Si02
#       7
#     2   2   2   2   2   2   2
#     4  11  24  42  67  93 132 176 230 263 317 393
#     4  10  20  36  57  94 132 165 204 259 337 403
#     4  11  23  40  61  92 130 175 218 264 328 390
#     4  11  23  39  64  93 136 171 207 273 336 391
#     4  11  24  41  65  98 133 173 218 276 322 386
#     4  10  21  38  61  92 126 166 211 256 321 392
#     4  10  22  39  63  96 130 163 216 269 326 378
#
# _framework density 23.078754
#
# number of rings (size 3 to 8) (size 9 to 14) (size 15 to 20)
#    0.000    1.429    1.429    4.714    4.000    6.857 
#    0.000    0.000    0.000    5.143    0.000    0.000 
#    0.000    0.000    0.000    0.000    0.000    0.000 
#
# Total GULP energy -173467.582132 kJ/mol
# GULP energy per Si atom -12390.541581 kJ/mol
# Density = 2.302623 g / cm^3
# Si number density = 23.078754 Si / 1000 Ang^3
#
#
#
# Elastic Constant Matrix: (Units=GPa)
#
#
# Indices 1 2 3 4 5 6 
#
# 1 132.6458 42.7187 21.0972 7.7962 20.0371 -9.2543
# 2 42.7187 155.0941 14.6193 13.1245 16.4631 -16.9217
# 3 21.0972 14.6193 50.0109 5.6484 15.6634 11.5940
# 4 7.7962 13.1245 5.6484 24.3572 4.6795 9.7190
# 5 20.0371 16.4631 15.6634 4.6795 37.9284 1.3901
# 6 -9.2543 -16.9217 11.5940 9.7190 1.3901 38.3110
#
#
#
# Elastic Compliance Matrix: (Units=1/GPa)
#
#
# Indices 1 2 3 4 5 6 
#
# 1 0.009275 -0.001421 -0.003101 -0.002221 -0.002846 0.003218
# 2 -0.001421 0.008213 -0.001938 -0.005330 -0.001550 0.005279
# 3 -0.003101 -0.001938 0.026564 0.001334 -0.008301 -0.009681
# 4 -0.002221 -0.005330 0.001334 0.051339 -0.002804 -0.016217
# 5 -0.002846 -0.001550 -0.008301 -0.002804 0.032291 0.000679
# 6 0.003218 0.005279 -0.009681 -0.016217 0.000679 0.036230
#
#
# Mechanical properties :
#
#
# Convention : Reuss Voigt Hill
#
# Bulk Modulus (GPa) = 32.12135 54.95791 43.53963
# Shear Modulus (GPa) = 26.70818 37.40704 32.05761
#
# Velocity S-wave (km/s) = 3.40555 4.03034 3.73104
# Velocity P-wave (km/s) = 5.42329 6.74708 6.12107
#
# Compressibility (1/GPa) = 0.03113194
#
# Stress axis : x y z
#
# Youngs Moduli (GPa) = 107.82013 121.75222 37.64545
#
# Poissons Ratio (x) = 0.17303 0.11673
# Poissons Ratio (y) = 0.15323 0.07295
# Poissons Ratio (z) = 0.33433 0.23595
#
# Static dielectric constant tensor:
#      x y z
#    x 4.120080 -0.232300 -0.059430 
#    y -0.232300 5.133190 0.215610 
#    z -0.059430 0.215610 4.349090 
# 
# 
# High freq. dielectric constant tensor:
#      x y z
#    x 1.917050 -0.007820 0.010890 
#    y -0.007820 1.924890 0.014790 
#    z 0.010890 0.014790 1.876520 
# 
# From -- ./inp_files/111075.got.cif
#   From: 2010.06.25/outbox.cif.g09.slc.cpg/sg2_56_cif.got.tgz:111075.got - 2010.06.27 13:26:56.
