data_PCOD8002557
_publ_section_title
;
Structure prediction by ZEFSAII (Michael W. Deem and Ramdas Pophale) SiO2 
 PCOD8002557
Probable space group: P -1
;
_chemical_formula_sum "Si O2"
_cell_formula_units_Z 14
_cell_length_a 11.839609
_cell_length_b 10.879602
_cell_length_c 8.657264
_cell_angle_alpha 39.866679
_cell_angle_beta 88.297769
_cell_angle_gamma 69.964517
_cell_volume 619.130351
_symmetry_space_group_name_H-M "P -1"
_symmetry_group_IT_number 2
_symmetry_cell_setting 'triclinic'
loop_
_space_group_symop_operation_xyz
x,y,z
-x,-y,-z
loop_
_atom_site_type_symbol
_atom_site_label
_atom_site_fract_x
_atom_site_fract_y
_atom_site_fract_z
Si Si1 0.069895 0.787103 0.395498
Si Si2 0.431765 0.771987 0.652793
Si Si3 0.415530 0.196466 0.121280
Si Si4 0.188337 0.986934 0.979173
Si Si5 0.783494 0.353823 0.182773
Si Si6 0.718587 0.673406 0.298389
Si Si7 0.683125 0.439620 0.796183
O O1 0.086494 0.773791 0.594777
O O2 0.151793 0.545544 0.549477
O O3 0.118594 0.946933 0.167033
O O4 0.918688 0.879181 0.277752
O O5 0.457635 0.820521 0.782369
O O6 0.303874 0.754391 0.660887
O O7 0.552957 0.538503 0.811750
O O8 0.415534 0.967753 0.354731
O O9 0.286806 0.385405 0.029050
O O10 0.402517 0.262613 0.876493
O O11 0.255865 0.123044 0.898203
O O12 0.301765 0.753471 0.131947
O O13 0.806131 0.335310 0.013681
O O14 0.678683 0.637828 0.505028
#
# Coordination Sequence:
#
# PCOD8002557 Si02
#       7
#     2   2   2   2   2   2   2
#     4   9  20  38  60  80 102 143 191 216 263 329
#     4  10  20  37  57  79 109 145 181 222 265 318
#     4   9  19  34  55  77 103 144 183 212 262 323
#     4  10  20  37  58  81 110 141 175 229 273 312
#     4  10  20  38  57  78 109 145 182 224 263 316
#     4  10  20  36  54  81 113 141 176 224 270 319
#     4  10  22  34  53  85 113 138 180 221 270 327
#
# _framework density 22.612365
#
# number of rings (size 3 to 8) (size 9 to 14) (size 15 to 20)
#    0.000    2.286    0.000    3.000    0.000    5.714 
#    0.000   15.714    0.000    0.000    0.000    0.000 
#    0.000    0.000    0.000    0.000    0.000    0.000 
#
# Total GULP energy -173548.202801 kJ/mol
# GULP energy per Si atom -12396.300200 kJ/mol
# Density = 2.256090 g / cm^3
# Si number density = 22.612365 Si / 1000 Ang^3
#
#
#
# Elastic Constant Matrix: (Units=GPa)
#
#
# Indices 1 2 3 4 5 6 
#
# 1 49.9799 24.3133 15.8809 -1.0312 4.8803 13.3763
# 2 24.3133 64.3095 29.4096 10.8386 -8.1820 13.9677
# 3 15.8809 29.4096 112.0396 16.8022 8.4409 19.3240
# 4 -1.0312 10.8386 16.8022 48.1662 11.7076 -4.3892
# 5 4.8803 -8.1820 8.4409 11.7076 31.6147 -0.8395
# 6 13.3763 13.9677 19.3240 -4.3892 -0.8395 18.8765
#
#
#
# Elastic Compliance Matrix: (Units=1/GPa)
#
#
# Indices 1 2 3 4 5 6 
#
# 1 0.029385 -0.010374 0.001111 0.003548 -0.009200 -0.013867
# 2 -0.010374 0.026255 -0.003233 -0.008929 0.012292 -0.010297
# 3 0.001111 -0.003233 0.012586 -0.003981 -0.003222 -0.012349
# 4 0.003548 -0.008929 -0.003981 0.028438 -0.011948 0.014249
# 5 -0.009200 0.012292 -0.003222 -0.011948 0.041512 -0.000210
# 6 -0.013867 -0.010297 -0.012349 0.014249 -0.000210 0.086367
#
#
# Mechanical properties :
#
#
# Convention : Reuss Voigt Hill
#
# Bulk Modulus (GPa) = 23.12961 40.61518 31.87239
# Shear Modulus (GPa) = 18.94328 30.17984 24.56156
#
# Velocity S-wave (km/s) = 2.89751 3.65726 3.29933
# Velocity P-wave (km/s) = 4.63088 5.98620 5.35162
#
# Compressibility (1/GPa) = 0.04323462
#
# Stress axis : x y z
#
# Youngs Moduli (GPa) = 34.03154 38.08757 79.45234
#
# Poissons Ratio (x) = 0.39511 -0.08825
# Poissons Ratio (y) = 0.35304 0.25683
# Poissons Ratio (z) = -0.03780 0.12312
#
# Static dielectric constant tensor:
#      x y z
#    x 3.550210 0.289160 0.128550 
#    y 0.289160 4.059080 0.120700 
#    z 0.128550 0.120700 4.449830 
# 
# 
# High freq. dielectric constant tensor:
#      x y z
#    x 1.846450 0.027820 0.003910 
#    y 0.027820 1.885270 0.001250 
#    z 0.003910 0.001250 1.920420 
# 
# From -- ./inp_files/251468.got.cif
#   From: 2010.06.25/outbox.cif.g09.slc.cpg/sg2_126_cif.got.tgz:251468.got - 2010.06.27 13:26:56.
