data_PCOD8002634
_publ_section_title
;
Structure prediction by ZEFSAII (Michael W. Deem and Ramdas Pophale) SiO2 
 PCOD8002634
Probable space group: P -1
;
_chemical_formula_sum "Si O2"
_cell_formula_units_Z 14
_cell_length_a 10.884989
_cell_length_b 13.083271
_cell_length_c 11.801732
_cell_angle_alpha 155.728609
_cell_angle_beta 57.374906
_cell_angle_gamma 120.542936
_cell_volume 581.182206
_symmetry_space_group_name_H-M "P -1"
_symmetry_group_IT_number 2
_symmetry_cell_setting 'triclinic'
loop_
_space_group_symop_operation_xyz
x,y,z
-x,-y,-z
loop_
_atom_site_type_symbol
_atom_site_label
_atom_site_fract_x
_atom_site_fract_y
_atom_site_fract_z
Si Si1 0.082767 0.601448 0.343659
Si Si2 0.095787 0.906486 0.077747
Si Si3 0.387827 0.982654 0.141619
Si Si4 0.762326 0.296394 0.409715
Si Si5 0.484567 0.197923 0.572442
Si Si6 0.374949 0.697279 0.161877
Si Si7 0.505606 0.499306 0.631811
O O1 0.125912 0.568602 0.421157
O O2 0.219482 0.606039 0.196462
O O3 0.983582 0.357094 0.113810
O O4 0.006080 0.861453 0.630210
O O5 0.157222 0.886426 0.899448
O O6 0.222769 0.961650 0.160966
O O7 0.422286 0.237450 0.453979
O O8 0.423682 0.743818 0.959849
O O9 0.500000 0.000000 0.000000
O O10 0.642432 0.133955 0.377978
O O11 0.676367 0.502252 0.587700
O O12 0.500363 0.246332 0.747983
O O13 0.367787 0.965138 0.371876
O O14 0.432501 0.469740 0.825546
O O15 0.500000 0.500000 0.500000
#
# Coordination Sequence:
#
# PCOD8002634 Si02
#       7
#     2   2   2   2   2   2   2
#     4  11  25  37  57  88 124 168 174 235 286 377
#     4  12  23  38  57  87 128 156 187 223 305 364
#     4  10  20  37  57  76 111 155 199 234 266 336
#     4  11  23  37  59  92 127 144 197 233 307 341
#     4   9  19  33  59  80 107 155 185 258 263 328
#     4   9  18  38  53  78 114 148 209 214 287 333
#     4  10  20  36  57  78 115 150 189 246 270 338
#
# _framework density 24.088830000000002
#
# number of rings (size 3 to 8) (size 9 to 14) (size 15 to 20)
#    0.000    1.714    2.857    2.571    2.000    6.857 
#    0.000    0.000    0.000    0.000    0.000   20.000 
#    0.000    0.000    0.000    0.000    0.000    0.000 
#
# Total GULP energy -173563.706805 kJ/mol
# GULP energy per Si atom -12397.407629 kJ/mol
# Density = 2.403400 g / cm^3
# Si number density = 24.088830 Si / 1000 Ang^3
#
#
#
# Elastic Constant Matrix: (Units=GPa)
#
#
# Indices 1 2 3 4 5 6 
#
# 1 112.5333 -6.8501 56.6951 14.2774 -4.3510 11.1535
# 2 -6.8501 84.2065 69.9305 19.0903 2.7738 18.5969
# 3 56.6951 69.9305 217.1511 23.5226 0.9653 13.6405
# 4 14.2774 19.0903 23.5226 47.9397 -2.8189 -7.1973
# 5 -4.3510 2.7738 0.9653 -2.8189 41.6260 5.3489
# 6 11.1535 18.5969 13.6405 -7.1973 5.3489 37.1841
#
#
#
# Elastic Compliance Matrix: (Units=1/GPa)
#
#
# Indices 1 2 3 4 5 6 
#
# 1 0.013540 0.008333 -0.005099 -0.005917 0.001571 -0.007730
# 2 0.008333 0.024744 -0.008141 -0.010409 0.000502 -0.013975
# 3 -0.005099 -0.008141 0.008261 0.001107 -0.000474 0.002853
# 4 -0.005917 -0.010409 0.001107 0.028041 0.000414 0.011942
# 5 0.001571 0.000502 -0.000474 0.000414 0.024710 -0.004023
# 6 -0.007730 -0.013975 0.002853 0.011942 -0.004023 0.038045
#
#
# Mechanical properties :
#
#
# Convention : Reuss Voigt Hill
#
# Bulk Modulus (GPa) = 27.22530 72.60464 49.91497
# Shear Modulus (GPa) = 31.36804 44.95766 38.16285
#
# Velocity S-wave (km/s) = 3.61249 4.32479 3.98459
# Velocity P-wave (km/s) = 5.35973 7.42591 6.47576
#
# Compressibility (1/GPa) = 0.03673053
#
# Stress axis : x y z
#
# Youngs Moduli (GPa) = 73.85556 40.41419 121.05179
#
# Poissons Ratio (x) = -0.33676 0.61725
# Poissons Ratio (y) = -0.61542 0.98545
# Poissons Ratio (z) = 0.37659 0.32900
#
# Static dielectric constant tensor:
#      x y z
#    x 4.493970 -0.303840 -0.051280 
#    y -0.303840 4.631640 0.830370 
#    z -0.051280 0.830370 6.285940 
# 
# 
# High freq. dielectric constant tensor:
#      x y z
#    x 1.954650 -0.029270 0.013500 
#    y -0.029270 1.965410 0.001450 
#    z 0.013500 0.001450 1.985600 
# 
# From -- ./inp_files/482725.got.cif
#   From: 2010.06.25/outbox.cif.g09.slc.cpg/sg2_242_cif.got.tgz:482725.got - 2010.06.27 13:26:56.
