data_PCOD8002682
_publ_section_title
;
Structure prediction by ZEFSAII (Michael W. Deem and Ramdas Pophale) SiO2 
 PCOD8002682
Probable space group: P -1
;
_chemical_formula_sum "Si O2"
_cell_formula_units_Z 16
_cell_length_a 14.470004
_cell_length_b 11.767632
_cell_length_c 13.960841
_cell_angle_alpha 70.043034
_cell_angle_beta 149.617398
_cell_angle_gamma 129.192200
_cell_volume 795.960951
_symmetry_space_group_name_H-M "P -1"
_symmetry_group_IT_number 2
_symmetry_cell_setting 'triclinic'
loop_
_space_group_symop_operation_xyz
x,y,z
-x,-y,-z
loop_
_atom_site_type_symbol
_atom_site_label
_atom_site_fract_x
_atom_site_fract_y
_atom_site_fract_z
Si Si1 0.421776 0.865607 0.390623
Si Si2 0.706357 0.667131 0.573439
Si Si3 0.961209 0.144347 0.009764
Si Si4 0.158958 0.156389 0.668644
Si Si5 0.577942 0.170871 0.992902
Si Si6 0.411588 0.231043 0.283070
Si Si7 0.157399 0.396734 0.479161
Si Si8 0.338352 0.093230 0.596596
O O1 0.448953 0.748666 0.499597
O O2 0.596384 0.954838 0.425122
O O3 0.500000 0.000000 0.500000
O O4 0.129274 0.762278 0.126742
O O5 0.500000 0.500000 0.500000
O O6 0.798362 0.627933 0.580967
O O7 0.586565 0.732901 0.405683
O O8 0.954176 0.818099 0.815635
O O9 0.188336 0.219348 0.117371
O O10 0.717933 0.937915 0.844181
O O11 0.427714 0.207792 0.906841
O O12 0.195452 0.308297 0.616306
O O13 0.000000 0.000000 0.500000
O O14 0.972274 0.074907 0.618116
O O15 0.518345 0.146611 0.833174
O O16 0.875947 0.327245 0.246391
O O17 0.500000 0.000000 0.000000
O O18 0.625714 0.399716 0.361378
#
# Coordination Sequence:
#
# PCOD8002682 Si02
#       8
#     2   2   2   2   2   2   2   2
#     4  10  21  38  61  89 116 164 211 246 297 381
#     4  12  21  35  60  94 125 159 199 253 308 370
#     4  10  21  39  60  83 122 170 200 237 319 365
#     4  10  20  36  57  89 123 159 203 249 312 358
#     4  11  20  36  60  90 122 165 202 251 320 356
#     4  10  22  39  59  88 123 163 204 252 306 367
#     4  12  21  37  60  93 126 153 206 264 298 366
#     4  11  20  38  58  91 129 156 204 258 306 371
#
# _framework density 20.101489999999998
#
# number of rings (size 3 to 8) (size 9 to 14) (size 15 to 20)
#    0.000    1.250    7.500    0.750    0.000    2.000 
#    0.000    2.500    0.000    3.750    0.000    0.000 
#    0.000    0.000    0.000    0.000    0.000    0.000 
#
# Total GULP energy -198277.347372 kJ/mol
# GULP energy per Si atom -12392.334211 kJ/mol
# Density = 2.005574 g / cm^3
# Si number density = 20.101490 Si / 1000 Ang^3
#
#
#
# Elastic Constant Matrix: (Units=GPa)
#
#
# Indices 1 2 3 4 5 6 
#
# 1 80.1974 36.4884 28.5692 -8.2966 19.5528 1.1615
# 2 36.4884 134.3829 73.5552 -6.2028 13.3982 25.1944
# 3 28.5692 73.5552 116.0628 -11.0611 23.5776 -2.5334
# 4 -8.2966 -6.2028 -11.0611 41.6057 -2.3447 1.3665
# 5 19.5528 13.3982 23.5776 -2.3447 38.4257 -1.6563
# 6 1.1615 25.1944 -2.5334 1.3665 -1.6563 23.7942
#
#
#
# Elastic Compliance Matrix: (Units=1/GPa)
#
#
# Indices 1 2 3 4 5 6 
#
# 1 0.016165 -0.004612 0.000591 0.002199 -0.006692 0.003566
# 2 -0.004612 0.018706 -0.011626 -0.000428 0.002042 -0.020653
# 3 0.000591 -0.011626 0.017641 0.002271 -0.006347 0.013587
# 4 0.002199 -0.000428 0.002271 0.024994 -0.000877 -0.000908
# 5 -0.006692 0.002042 -0.006347 -0.000877 0.032550 -0.000195
# 6 0.003566 -0.020653 0.013587 -0.000908 -0.000195 0.065206
#
#
# Mechanical properties :
#
#
# Convention : Reuss Voigt Hill
#
# Bulk Modulus (GPa) = 47.13307 67.54098 57.33702
# Shear Modulus (GPa) = 23.40504 33.56714 28.48609
#
# Velocity S-wave (km/s) = 3.41595 4.09085 3.76854
# Velocity P-wave (km/s) = 6.24954 7.48240 6.89359
#
# Compressibility (1/GPa) = 0.02121653
#
# Stress axis : x y z
#
# Youngs Moduli (GPa) = 61.86360 53.45847 56.68609
#
# Poissons Ratio (x) = 0.24657 -0.03349
# Poissons Ratio (y) = 0.28534 0.65904
# Poissons Ratio (z) = -0.03655 0.62152
#
# Static dielectric constant tensor:
#      x y z
#    x 4.098540 -0.130840 0.725890 
#    y -0.130840 3.998010 -0.762570 
#    z 0.725890 -0.762570 4.926990 
# 
# 
# High freq. dielectric constant tensor:
#      x y z
#    x 1.771880 0.002340 0.016970 
#    y 0.002340 1.782940 -0.022650 
#    z 0.016970 -0.022650 1.783930 
# 
# From -- ./inp_files/531822.got.cif
#   From: 2010.06.25/outbox.cif.g09.slc.cpg/sg2_266_cif.got.tgz:531822.got - 2010.06.27 13:26:56.
