data_PCOD8002780
_publ_section_title
;
Structure prediction by ZEFSAII (Michael W. Deem and Ramdas Pophale) SiO2 
 PCOD8002780
Probable space group: P -1
;
_chemical_formula_sum "Si O2"
_cell_formula_units_Z 14
_cell_length_a 16.017242
_cell_length_b 6.639120
_cell_length_c 16.573290
_cell_angle_alpha 76.966962
_cell_angle_beta 156.681516
_cell_angle_gamma 107.781062
_cell_volume 657.219576
_symmetry_space_group_name_H-M "P -1"
_symmetry_group_IT_number 2
_symmetry_cell_setting 'triclinic'
loop_
_space_group_symop_operation_xyz
x,y,z
-x,-y,-z
loop_
_atom_site_type_symbol
_atom_site_label
_atom_site_fract_x
_atom_site_fract_y
_atom_site_fract_z
Si Si1 0.963462 0.978070 0.282748
Si Si2 0.103488 0.221853 0.929521
Si Si3 0.900545 0.582932 0.717500
Si Si4 0.773315 0.008735 0.336180
Si Si5 0.509495 0.199968 0.378808
Si Si6 0.273117 0.138842 0.338093
Si Si7 0.534735 0.745534 0.019457
O O1 0.986608 0.225672 0.259255
O O2 0.181259 0.977423 0.528748
O O3 0.967189 0.833996 0.220801
O O4 0.736754 0.887352 0.135454
O O5 0.086465 0.460336 0.916871
O O6 0.346149 0.196407 0.160020
O O7 0.939645 0.050204 0.856670
O O8 0.713434 0.400406 0.524924
O O9 0.798528 0.672433 0.695996
O O10 0.585036 0.805120 0.153704
O O11 0.000000 0.000000 0.500000
O O12 0.692931 0.213135 0.216398
O O13 0.395233 0.241299 0.357069
O O14 0.573353 0.973106 0.460521
O O15 0.500000 0.500000 0.000000
#
# Coordination Sequence:
#
# PCOD8002780 Si02
#       7
#     2   2   2   2   2   2   2
#     4  10  23  38  55  84 122 148 182 236 284 337
#     4  10  22  36  56  85 114 151 193 235 285 337
#     4  10  22  37  55  83 115 151 192 234 288 338
#     4   9  21  41  62  87 116 145 183 231 280 338
#     4  10  20  36  59  82 112 153 196 238 286 339
#     4   9  20  38  56  82 115 149 194 245 286 332
#     4  10  22  39  64  89 110 148 191 228 280 339
#
# _framework density 21.301860000000001
#
# number of rings (size 3 to 8) (size 9 to 14) (size 15 to 20)
#    0.000    2.286    0.000    0.857    0.000   15.429 
#    0.000    0.000    0.000    0.000    0.000    0.000 
#    0.000    0.000    0.000    0.000    0.000    0.000 
#
# Total GULP energy -173493.046583 kJ/mol
# GULP energy per Si atom -12392.360470 kJ/mol
# Density = 2.125338 g / cm^3
# Si number density = 21.301860 Si / 1000 Ang^3
#
#
#
# Elastic Constant Matrix: (Units=GPa)
#
#
# Indices 1 2 3 4 5 6 
#
# 1 68.8549 33.4315 25.9699 0.4236 -6.5390 -2.9094
# 2 33.4315 141.5099 45.8241 -11.6440 -2.8390 -12.2656
# 3 25.9699 45.8241 117.6455 -16.3785 -7.4749 -4.3507
# 4 0.4236 -11.6440 -16.3785 25.0430 -1.0364 13.8515
# 5 -6.5390 -2.8390 -7.4749 -1.0364 32.9548 5.3554
# 6 -2.9094 -12.2656 -4.3507 13.8515 5.3554 33.0747
#
#
#
# Elastic Compliance Matrix: (Units=1/GPa)
#
#
# Indices 1 2 3 4 5 6 
#
# 1 0.017596 -0.003388 -0.003010 -0.004560 0.002136 0.001459
# 2 -0.003388 0.008976 -0.002538 0.001267 -0.000808 0.002297
# 3 -0.003010 -0.002538 0.011359 0.008438 0.002622 -0.003670
# 4 -0.004560 0.001267 0.008438 0.060384 0.007123 -0.025264
# 5 0.002136 -0.000808 0.002622 0.007123 0.032828 -0.008065
# 6 0.001459 0.002297 -0.003670 -0.025264 -0.008065 0.042618
#
#
# Mechanical properties :
#
#
# Convention : Reuss Voigt Hill
#
# Bulk Modulus (GPa) = 49.85434 59.82905 54.84170
# Shear Modulus (GPa) = 25.21158 33.06681 29.13919
#
# Velocity S-wave (km/s) = 3.44399 3.94419 3.70255
# Velocity P-wave (km/s) = 6.26652 6.99210 6.63923
#
# Compressibility (1/GPa) = 0.02005843
#
# Stress axis : x y z
#
# Youngs Moduli (GPa) = 56.83041 111.40490 88.03681
#
# Poissons Ratio (x) = 0.37748 0.26496
# Poissons Ratio (y) = 0.19256 0.22348
# Poissons Ratio (z) = 0.17104 0.28279
#
# Static dielectric constant tensor:
#      x y z
#    x 4.026140 -0.238660 -0.458060 
#    y -0.238660 4.038110 0.540510 
#    z -0.458060 0.540510 5.519130 
# 
# 
# High freq. dielectric constant tensor:
#      x y z
#    x 1.823940 -0.009130 0.009660 
#    y -0.009130 1.831820 -0.005480 
#    z 0.009660 -0.005480 1.842230 
# 
# From -- ./inp_files/10386.got.cif
#   From: 2010.06.25/outbox.cif.g09.slc.cpg/sg2_6_cif.got.tgz:10386.got - 2010.06.27 13:26:56.
