data_PCOD8002942
_publ_section_title
;
Structure prediction by ZEFSAII (Michael W. Deem and Ramdas Pophale) SiO2 
 PCOD8002942
Probable space group: P -1
;
_chemical_formula_sum "Si O2"
_cell_formula_units_Z 14
_cell_length_a 9.904562
_cell_length_b 8.734518
_cell_length_c 9.167491
_cell_angle_alpha 96.150769
_cell_angle_beta 66.458218
_cell_angle_gamma 106.962124
_cell_volume 695.414573
_symmetry_space_group_name_H-M "P -1"
_symmetry_group_IT_number 2
_symmetry_cell_setting 'triclinic'
loop_
_space_group_symop_operation_xyz
x,y,z
-x,-y,-z
loop_
_atom_site_type_symbol
_atom_site_label
_atom_site_fract_x
_atom_site_fract_y
_atom_site_fract_z
Si Si1 0.461671 0.559499 0.867408
Si Si2 0.354904 0.851263 0.050965
Si Si3 0.797350 0.673790 0.228783
Si Si4 0.277689 0.001677 0.675498
Si Si5 0.613852 0.160859 0.635103
Si Si6 0.920535 0.139289 0.013884
Si Si7 0.356546 0.496914 0.463346
O O1 0.339761 0.412843 0.827476
O O2 0.618344 0.597533 0.705479
O O3 0.500000 0.500000 0.000000
O O4 0.391732 0.709810 0.924877
O O5 0.321609 0.796618 0.226820
O O6 0.208171 0.902728 0.061404
O O7 0.500000 0.000000 0.000000
O O8 0.796401 0.852647 0.286821
O O9 0.791893 0.586719 0.380697
O O10 0.956446 0.695114 0.072043
O O11 0.436750 0.060913 0.701318
O O12 0.294553 0.947568 0.498093
O O13 0.170565 0.849579 0.795550
O O14 0.645561 0.324232 0.549248
O O15 0.000000 0.000000 0.000000
O O16 0.500000 0.500000 0.500000
#
# Coordination Sequence:
#
# PCOD8002942 Si02
#       7
#     2   2   2   2   2   2   2
#     4  11  22  39  64  96 129 161 213 267 311 365
#     4  12  25  40  67  97 125 166 217 266 309 377
#     4  10  22  41  62  89 126 172 210 247 321 382
#     4  10  20  38  65  91 125 167 207 263 305 377
#     4  11  21  37  62  98 125 156 220 261 308 365
#     4  10  24  44  64  91 130 171 209 261 323 378
#     4  10  20  36  60  91 128 162 205 257 310 375
#
# _framework density 20.131874
#
# number of rings (size 3 to 8) (size 9 to 14) (size 15 to 20)
#    0.000    1.429    5.714    0.000    8.000    0.571 
#    0.000    5.000    0.000    0.000    0.000    0.000 
#    0.000    0.000    0.000    0.000    0.000    0.000 
#
# Total GULP energy -173462.750109 kJ/mol
# GULP energy per Si atom -12390.196436 kJ/mol
# Density = 2.008605 g / cm^3
# Si number density = 20.131874 Si / 1000 Ang^3
#
#
#
# Elastic Constant Matrix: (Units=GPa)
#
#
# Indices 1 2 3 4 5 6 
#
# 1 75.9540 31.7181 25.7517 -11.7193 4.0149 -6.1025
# 2 31.7181 95.7407 59.3989 -12.0878 -8.2537 -4.6836
# 3 25.7517 59.3989 140.4708 -23.3645 -3.1920 8.3435
# 4 -11.7193 -12.0878 -23.3645 46.8841 5.3323 -8.4079
# 5 4.0149 -8.2537 -3.1920 5.3323 30.6443 -8.4436
# 6 -6.1025 -4.6836 8.3435 -8.4079 -8.4436 25.9500
#
#
#
# Elastic Compliance Matrix: (Units=1/GPa)
#
#
# Indices 1 2 3 4 5 6 
#
# 1 0.016314 -0.004621 -0.000728 0.003480 -0.003143 0.003341
# 2 -0.004621 0.016843 -0.006436 0.000386 0.006094 0.006130
# 3 -0.000728 -0.006436 0.010679 0.002923 -0.002292 -0.004565
# 4 0.003480 0.000386 0.002923 0.025354 -0.002428 0.007373
# 5 -0.003143 0.006094 -0.002292 -0.002428 0.038397 0.012805
# 6 0.003341 0.006130 -0.004565 0.007373 0.012805 0.048451
#
#
# Mechanical properties :
#
#
# Convention : Reuss Voigt Hill
#
# Bulk Modulus (GPa) = 49.34468 60.65587 55.00028
# Shear Modulus (GPa) = 26.82916 33.71547 30.27232
#
# Velocity S-wave (km/s) = 3.65454 4.09679 3.88196
# Velocity P-wave (km/s) = 6.50934 7.25072 6.89001
#
# Compressibility (1/GPa) = 0.02026561
#
# Stress axis : x y z
#
# Youngs Moduli (GPa) = 61.29700 59.37138 93.64033
#
# Poissons Ratio (x) = 0.27438 0.06813
# Poissons Ratio (y) = 0.28328 0.60271
# Poissons Ratio (z) = 0.04460 0.38214
#
# Static dielectric constant tensor:
#      x y z
#    x 3.517080 0.019940 -0.261800 
#    y 0.019940 3.698500 -0.300880 
#    z -0.261800 -0.300880 4.852840 
# 
# 
# High freq. dielectric constant tensor:
#      x y z
#    x 1.755000 -0.016480 -0.004660 
#    y -0.016480 1.776160 -0.016910 
#    z -0.004660 -0.016910 1.812010 
# 
# From -- ./inp_files/159137.got.cif
#   From: 2010.06.25/outbox.cif.g09.slc.cpg/sg2_80_cif.got.tgz:159137.got - 2010.06.27 13:26:56.
