data_PCOD8002165
_publ_section_title
;
Structure prediction by ZEFSAII (Michael W. Deem and Ramdas Pophale) SiO2 
 PCOD8002165
Probable space group: P -1
;
_chemical_formula_sum "Si O2"
_cell_formula_units_Z 16
_cell_length_a 9.151413
_cell_length_b 14.680549
_cell_length_c 14.373137
_cell_angle_alpha 38.132925
_cell_angle_beta 49.080723
_cell_angle_gamma 76.105175
_cell_volume 727.781886
_symmetry_space_group_name_H-M "P -1"
_symmetry_group_IT_number 2
_symmetry_cell_setting 'triclinic'
loop_
_space_group_symop_operation_xyz
x,y,z
-x,-y,-z
loop_
_atom_site_type_symbol
_atom_site_label
_atom_site_fract_x
_atom_site_fract_y
_atom_site_fract_z
Si Si1 0.520099 0.195585 0.451399
Si Si2 0.290630 0.500320 0.175828
Si Si3 0.758541 0.547477 0.968426
Si Si4 0.379126 0.784446 0.036383
Si Si5 0.093957 0.096283 0.581590
Si Si6 0.211988 0.949121 0.485466
Si Si7 0.410948 0.126732 0.939245
Si Si8 0.731652 0.933571 0.150760
O O1 0.305761 0.113342 0.534558
O O2 0.610756 0.067854 0.509794
O O3 0.431486 0.191828 0.595532
O O4 0.730362 0.409248 0.170272
O O5 0.296256 0.561822 0.018466
O O6 0.209184 0.597251 0.198833
O O7 0.115634 0.282500 0.424917
O O8 0.555101 0.580071 0.038511
O O9 0.013245 0.740769 0.705406
O O10 0.414200 0.727473 0.170905
O O11 0.642345 0.926457 0.764752
O O12 0.243805 0.879031 0.020596
O O13 0.100595 0.036461 0.520288
O O14 0.851376 0.955663 0.847515
O O15 0.403963 0.190286 0.786494
O O16 0.500000 0.000000 0.000000
O O17 0.000000 0.000000 0.000000
#
# Coordination Sequence:
#
# PCOD8002165 Si02
#       8
#     2   2   2   2   2   2   2   2
#     4  10  21  36  59  88 121 160 196 245 298 364
#     4  10  21  36  56  89 123 156 191 244 305 356
#     4  10  20  35  56  87 131 153 190 242 299 366
#     4  10  21  37  62  93 120 151 203 246 295 364
#     4  11  21  36  63  87 124 159 198 246 300 358
#     4  11  21  35  60  95 123 156 194 241 310 362
#     4  10  21  38  62  89 113 157 209 247 288 347
#     4  10  20  40  63  84 115 160 205 247 291 347
#
# _framework density 21.984608999999999
#
# number of rings (size 3 to 8) (size 9 to 14) (size 15 to 20)
#    0.000    1.750    1.250    4.500    0.000    2.500 
#    0.000    2.500    2.750    8.250    0.000    0.000 
#    0.000    0.000    0.000    0.000    0.000    0.000 
#
# Total GULP energy -198260.402859 kJ/mol
# GULP energy per Si atom -12391.275179 kJ/mol
# Density = 2.193457 g / cm^3
# Si number density = 21.984609 Si / 1000 Ang^3
#
#
#
# Elastic Constant Matrix: (Units=GPa)
#
#
# Indices 1 2 3 4 5 6 
#
# 1 69.3513 31.3360 7.6416 -2.2362 15.5267 13.0061
# 2 31.3360 121.3693 24.2361 -4.6106 9.6994 12.5865
# 3 7.6416 24.2361 34.9792 -4.6932 8.9398 -1.2171
# 4 -2.2362 -4.6106 -4.6932 29.1942 -0.8274 -0.6254
# 5 15.5267 9.6994 8.9398 -0.8274 26.9983 13.5994
# 6 13.0061 12.5865 -1.2171 -0.6254 13.5994 33.3376
#
#
#
# Elastic Compliance Matrix: (Units=1/GPa)
#
#
# Indices 1 2 3 4 5 6 
#
# 1 0.018437 -0.004016 0.000884 0.000637 -0.008302 -0.002246
# 2 -0.004016 0.010987 -0.007596 0.000203 0.002922 -0.004047
# 3 0.000884 -0.007596 0.038684 0.004866 -0.015692 0.010428
# 4 0.000637 0.000203 0.004866 0.035097 -0.001551 0.001144
# 5 -0.008302 0.002922 -0.015692 -0.001551 0.056814 -0.021642
# 6 -0.002246 -0.004047 0.010428 0.001144 -0.021642 0.041631
#
#
# Mechanical properties :
#
#
# Convention : Reuss Voigt Hill
#
# Bulk Modulus (GPa) = 21.43496 39.12523 30.28010
# Shear Modulus (GPa) = 20.95062 28.73842 24.84452
#
# Velocity S-wave (km/s) = 3.09037 3.61945 3.36532
# Velocity P-wave (km/s) = 4.74394 5.94159 5.37622
#
# Compressibility (1/GPa) = 0.04665275
#
# Stress axis : x y z
#
# Youngs Moduli (GPa) = 54.23859 91.01829 25.85035
#
# Poissons Ratio (x) = 0.36555 -0.02285
# Poissons Ratio (y) = 0.21783 0.19635
# Poissons Ratio (z) = -0.04795 0.69133
#
# Static dielectric constant tensor:
#      x y z
#    x 4.353950 0.199010 0.076290 
#    y 0.199010 4.128600 0.217440 
#    z 0.076290 0.217440 3.672120 
# 
# 
# High freq. dielectric constant tensor:
#      x y z
#    x 1.882530 0.010200 -0.003980 
#    y 0.010200 1.863300 0.014900 
#    z -0.003980 0.014900 1.833360 
# 
# From -- ./inp_files/505246.got.cif
#   From: 2010.06.25/outbox.cif.g09.slc.cpg/sg2_253_cif.got.tgz:505246.got - 2010.06.27 13:26:56.
