data_PCOD8002476
_publ_section_title
;
Structure prediction by ZEFSAII (Michael W. Deem and Ramdas Pophale) SiO2 
 PCOD8002476
Probable space group: P -1
;
_chemical_formula_sum "Si O2"
_cell_formula_units_Z 16
_cell_length_a 7.735778
_cell_length_b 9.740600
_cell_length_c 12.436133
_cell_angle_alpha 103.224506
_cell_angle_beta 119.308915
_cell_angle_gamma 79.703081
_cell_volume 792.991000
_symmetry_space_group_name_H-M "P -1"
_symmetry_group_IT_number 2
_symmetry_cell_setting 'triclinic'
loop_
_space_group_symop_operation_xyz
x,y,z
-x,-y,-z
loop_
_atom_site_type_symbol
_atom_site_label
_atom_site_fract_x
_atom_site_fract_y
_atom_site_fract_z
Si Si1 0.704618 0.352865 0.427655
Si Si2 0.227241 0.051718 0.708522
Si Si3 0.492061 0.802866 0.832809
Si Si4 0.919990 0.847230 0.536637
Si Si5 0.590840 0.716289 0.073308
Si Si6 0.691762 0.647447 0.571257
Si Si7 0.739148 0.431194 0.954990
Si Si8 0.847147 0.620289 0.841660
O O1 0.633419 0.320246 0.278988
O O2 0.916285 0.263007 0.492339
O O3 0.718353 0.520568 0.470227
O O4 0.537633 0.310940 0.456443
O O5 0.239339 0.193959 0.807075
O O6 0.227569 0.085484 0.587729
O O7 0.422385 0.952385 0.784480
O O8 0.029893 0.969052 0.655672
O O9 0.721145 0.764345 0.864845
O O10 0.470910 0.802110 0.955657
O O11 0.782305 0.781279 0.570419
O O12 0.699406 0.573427 0.036915
O O13 0.434935 0.675250 0.110153
O O14 0.825492 0.594572 0.704053
O O15 0.931892 0.350231 0.052117
O O16 0.775038 0.478612 0.851994
#
# Coordination Sequence:
#
# PCOD8002476 Si02
#       8
#     2   2   2   2   2   2   2   2
#     4   9  20  36  58  92 114 142 193 242 284 341
#     4  10  22  38  56  82 116 151 197 230 269 345
#     4   9  19  38  56  78 120 149 181 241 275 331
#     4  10  22  39  58  82 119 155 190 239 278 336
#     4  10  20  35  63  83 108 153 187 230 294 337
#     4  10  20  35  63  87 113 155 184 237 297 341
#     4   9  20  35  57  89 113 140 182 249 286 333
#     4   9  19  36  56  82 123 137 184 238 292 337
#
# _framework density 20.176772
#
# number of rings (size 3 to 8) (size 9 to 14) (size 15 to 20)
#    0.000    2.500    0.000    0.750    5.250    5.000 
#    0.000   10.625   22.000    0.000    0.000    0.000 
#    0.000    0.000    0.000    0.000    0.000    0.000 
#
# Total GULP energy -198311.139731 kJ/mol
# GULP energy per Si atom -12394.446233 kJ/mol
# Density = 2.013085 g / cm^3
# Si number density = 20.176772 Si / 1000 Ang^3
#
#
#
# Elastic Constant Matrix: (Units=GPa)
#
#
# Indices 1 2 3 4 5 6 
#
# 1 80.4309 39.7452 27.3288 -10.5903 4.0846 21.2785
# 2 39.7452 82.3317 48.4026 -1.0280 9.3432 18.7073
# 3 27.3288 48.4026 96.3453 -1.9032 1.2700 19.1492
# 4 -10.5903 -1.0280 -1.9032 41.6063 -2.4528 8.6173
# 5 4.0846 9.3432 1.2700 -2.4528 21.1465 -7.5507
# 6 21.2785 18.7073 19.1492 8.6173 -7.5507 35.6305
#
#
#
# Elastic Compliance Matrix: (Units=1/GPa)
#
#
# Indices 1 2 3 4 5 6 
#
# 1 0.019586 -0.006483 0.000037 0.006831 -0.003989 -0.010810
# 2 -0.006483 0.022538 -0.008283 -0.000947 -0.010267 -0.005457
# 3 0.000037 -0.008283 0.015319 0.001408 0.001492 -0.003931
# 4 0.006831 -0.000947 0.001408 0.028092 -0.001842 -0.011523
# 5 -0.003989 -0.010267 0.001492 -0.001842 0.059438 0.020012
# 6 -0.010810 -0.005457 -0.003931 -0.011523 0.020012 0.046527
#
#
# Mechanical properties :
#
#
# Convention : Reuss Voigt Hill
#
# Bulk Modulus (GPa) = 35.73081 54.45125 45.09103
# Shear Modulus (GPa) = 21.71211 29.25207 25.48209
#
# Velocity S-wave (km/s) = 3.28395 3.81174 3.55764
# Velocity P-wave (km/s) = 5.66802 6.81309 6.26676
#
# Compressibility (1/GPa) = 0.02798705
#
# Stress axis : x y z
#
# Youngs Moduli (GPa) = 51.05785 44.36941 65.27688
#
# Poissons Ratio (x) = 0.28763 -0.00244
# Poissons Ratio (y) = 0.33098 0.54067
# Poissons Ratio (z) = -0.00190 0.36750
#
# Static dielectric constant tensor:
#      x y z
#    x 3.609490 -0.019280 0.103320 
#    y -0.019280 3.640730 -0.131750 
#    z 0.103320 -0.131750 3.728230 
# 
# 
# High freq. dielectric constant tensor:
#      x y z
#    x 1.770830 -0.000210 0.009650 
#    y -0.000210 1.776380 -0.010730 
#    z 0.009650 -0.010730 1.789380 
# 
# From -- ./inp_files/378874.got.cif
#   From: 2010.06.25/outbox.cif.g09.slc.cpg/sg2_190_cif.got.tgz:378874.got - 2010.06.27 13:26:56.
