data_PCOD8002513
_publ_section_title
;
Structure prediction by ZEFSAII (Michael W. Deem and Ramdas Pophale) SiO2 
 PCOD8002513
Probable space group: P -1
;
_chemical_formula_sum "Si O2"
_cell_formula_units_Z 14
_cell_length_a 9.939227
_cell_length_b 9.086976
_cell_length_c 8.846881
_cell_angle_alpha 111.171546
_cell_angle_beta 82.066468
_cell_angle_gamma 72.759772
_cell_volume 684.148829
_symmetry_space_group_name_H-M "P -1"
_symmetry_group_IT_number 2
_symmetry_cell_setting 'triclinic'
loop_
_space_group_symop_operation_xyz
x,y,z
-x,-y,-z
loop_
_atom_site_type_symbol
_atom_site_label
_atom_site_fract_x
_atom_site_fract_y
_atom_site_fract_z
Si Si1 0.659901 0.930676 0.878314
Si Si2 0.556146 0.699922 0.631135
Si Si3 0.425265 0.477144 0.739690
Si Si4 0.354198 0.993446 0.596326
Si Si5 0.840607 0.745164 0.054543
Si Si6 0.686167 0.188438 0.734663
Si Si7 0.836458 0.382746 0.949957
O O1 0.671903 0.777531 0.704201
O O2 0.682755 0.084385 0.846290
O O3 0.783909 0.862034 0.960337
O O4 0.500000 0.000000 0.000000
O O5 0.522935 0.586467 0.722991
O O6 0.624639 0.590950 0.430258
O O7 0.402702 0.851999 0.668361
O O8 0.522476 0.324272 0.777095
O O9 0.281067 0.594898 0.891792
O O10 0.261111 0.938226 0.464316
O O11 0.500000 0.000000 0.500000
O O12 0.255743 0.173569 0.751189
O O13 0.832490 0.562694 0.957074
O O14 0.005396 0.730517 0.051303
O O15 0.798669 0.283240 0.779262
#
# Coordination Sequence:
#
# PCOD8002513 Si02
#       7
#     2   2   2   2   2   2   2
#     4  12  20  36  63  94 115 155 206 260 293 363
#     4  10  20  35  64  93 121 152 211 251 305 346
#     4  10  21  38  62  94 121 160 201 257 297 369
#     4  11  20  40  65  95 117 159 202 260 295 363
#     4  11  25  41  64  85 127 163 209 242 317 358
#     4  11  23  37  67  90 122 158 208 251 307 346
#     4  11  24  42  59  88 127 169 196 255 302 373
#
# _framework density 20.463384000000001
#
# number of rings (size 3 to 8) (size 9 to 14) (size 15 to 20)
#    0.000    1.143    2.857    4.714    0.000    1.143 
#    0.000    0.714    3.143    0.000    0.000    0.000 
#    0.000    0.000    0.000    0.000    0.000    0.000 
#
# Total GULP energy -173642.280733 kJ/mol
# GULP energy per Si atom -12403.020052 kJ/mol
# Density = 2.041681 g / cm^3
# Si number density = 20.463384 Si / 1000 Ang^3
#
#
#
# Elastic Constant Matrix: (Units=GPa)
#
#
# Indices 1 2 3 4 5 6 
#
# 1 106.4580 43.9720 60.6830 2.2427 21.5256 -6.9075
# 2 43.9720 114.1398 48.9552 -11.6317 2.9299 -6.5585
# 3 60.6830 48.9552 97.9578 2.5406 27.5415 -1.8274
# 4 2.2427 -11.6317 2.5406 33.6884 7.9137 8.3726
# 5 21.5256 2.9299 27.5415 7.9137 30.7477 5.2332
# 6 -6.9075 -6.5585 -1.8274 8.3726 5.2332 31.9161
#
#
#
# Elastic Compliance Matrix: (Units=1/GPa)
#
#
# Indices 1 2 3 4 5 6 
#
# 1 0.015736 -0.002950 -0.006788 -0.001280 -0.004931 0.003555
# 2 -0.002950 0.012799 -0.006209 0.003870 0.005458 -0.000274
# 3 -0.006788 -0.006209 0.021464 -0.000238 -0.013963 0.000836
# 4 -0.001280 0.003870 -0.000238 0.034592 -0.006897 -0.007439
# 5 -0.004931 0.005458 -0.013963 -0.006897 0.050978 -0.007295
# 6 0.003555 -0.000274 0.000836 -0.007439 -0.007295 0.035241
#
#
# Mechanical properties :
#
#
# Convention : Reuss Voigt Hill
#
# Bulk Modulus (GPa) = 55.23308 69.53066 62.38187
# Shear Modulus (GPa) = 23.95334 30.26679 27.11007
#
# Velocity S-wave (km/s) = 3.42504 3.85004 3.64374
# Velocity P-wave (km/s) = 6.53383 7.33591 6.94646
#
# Compressibility (1/GPa) = 0.01810509
#
# Stress axis : x y z
#
# Youngs Moduli (GPa) = 63.54955 78.12883 46.58999
#
# Poissons Ratio (x) = 0.23052 0.31624
# Poissons Ratio (y) = 0.18750 0.28927
# Poissons Ratio (z) = 0.43135 0.48509
#
# Static dielectric constant tensor:
#      x y z
#    x 3.507230 0.086820 0.334720 
#    y 0.086820 3.903020 0.138890 
#    z 0.334720 0.138890 3.989800 
# 
# 
# High freq. dielectric constant tensor:
#      x y z
#    x 1.767140 0.013500 0.026890 
#    y 0.013500 1.812200 0.003920 
#    z 0.026890 0.003920 1.809070 
# 
# From -- ./inp_files/159520.got.cif
#   From: 2010.06.25/outbox.cif.g09.slc.cpg/sg2_80_cif.got.tgz:159520.got - 2010.06.27 13:26:56.
