data_PCOD8002460
_publ_section_title
;
Structure prediction by ZEFSAII (Michael W. Deem and Ramdas Pophale) SiO2 
 PCOD8002460
Probable space group: P -1
;
_chemical_formula_sum "Si O2"
_cell_formula_units_Z 16
_cell_length_a 21.888479
_cell_length_b 12.026523
_cell_length_c 9.199505
_cell_angle_alpha 53.919989
_cell_angle_beta 152.514584
_cell_angle_gamma 132.724469
_cell_volume 820.465893
_symmetry_space_group_name_H-M "P -1"
_symmetry_group_IT_number 2
_symmetry_cell_setting 'triclinic'
loop_
_space_group_symop_operation_xyz
x,y,z
-x,-y,-z
loop_
_atom_site_type_symbol
_atom_site_label
_atom_site_fract_x
_atom_site_fract_y
_atom_site_fract_z
Si Si1 0.344227 0.760906 0.776929
Si Si2 0.231658 0.132038 0.129086
Si Si3 0.064694 0.398009 0.797136
Si Si4 0.663126 0.532423 0.858519
Si Si5 0.100916 0.914361 0.798471
Si Si6 0.952196 0.354212 0.913298
Si Si7 0.924902 0.093992 0.569222
Si Si8 0.339999 0.038503 0.707768
O O1 0.221120 0.721209 0.425233
O O2 0.322652 0.866665 0.776354
O O3 0.330277 0.600361 0.929330
O O4 0.503977 0.857162 0.971285
O O5 0.270417 0.307306 0.037258
O O6 0.334629 0.119387 0.482429
O O7 0.060392 0.047188 0.880109
O O8 0.246460 0.037422 0.092696
O O9 0.000000 0.500000 0.500000
O O10 0.046392 0.399574 0.930225
O O11 0.969203 0.232198 0.665596
O O12 0.236283 0.449872 0.085028
O O13 0.500000 0.500000 0.500000
O O14 0.128592 0.868704 0.729226
O O15 0.016758 0.767102 0.832676
O O16 0.000000 0.000000 0.500000
O O17 0.000000 0.500000 0.000000
O O18 0.784905 0.959583 0.449843
#
# Coordination Sequence:
#
# PCOD8002460 Si02
#       8
#     2   2   2   2   2   2   2   2
#     4  11  23  38  61  87 126 159 204 252 316 363
#     4  10  20  36  63  87 122 157 202 255 311 359
#     4  11  20  38  65  93 120 161 214 260 301 372
#     4  11  22  38  61  94 126 161 202 258 316 369
#     4  10  22  38  56  90 124 157 198 258 313 354
#     4  12  24  40  64  93 127 161 210 259 314 367
#     4  10  20  35  62  91 117 154 211 251 302 360
#     4  11  20  39  63  88 118 161 207 256 297 375
#
# _framework density 19.501114000000001
#
# number of rings (size 3 to 8) (size 9 to 14) (size 15 to 20)
#    0.000    1.250    5.000    1.125    3.500    3.000 
#    0.000    1.875    0.000    1.500    0.000    0.000 
#    0.000    0.000    0.000    0.000    0.000    0.000 
#
# Total GULP energy -198284.220619 kJ/mol
# GULP energy per Si atom -12392.763789 kJ/mol
# Density = 1.945673 g / cm^3
# Si number density = 19.501114 Si / 1000 Ang^3
#
#
#
# Elastic Constant Matrix: (Units=GPa)
#
#
# Indices 1 2 3 4 5 6 
#
# 1 101.0251 39.1171 45.3163 14.7915 -10.2270 0.7660
# 2 39.1171 120.6764 30.7448 -4.8001 -7.3042 -0.6344
# 3 45.3163 30.7448 101.6662 11.6803 11.2811 10.6924
# 4 14.7915 -4.8001 11.6803 41.9227 7.7391 -4.9386
# 5 -10.2270 -7.3042 11.2811 7.7391 36.5938 3.6057
# 6 0.7660 -0.6344 10.6924 -4.9386 3.6057 26.0190
#
#
#
# Elastic Compliance Matrix: (Units=1/GPa)
#
#
# Indices 1 2 3 4 5 6 
#
# 1 0.015265 -0.003249 -0.005939 -0.005318 0.006574 -0.000008
# 2 -0.003249 0.010094 -0.002230 0.002934 0.001009 0.001675
# 3 -0.005939 -0.002230 0.014566 -0.001808 -0.005679 -0.005422
# 4 -0.005318 0.002934 -0.001808 0.028765 -0.007158 0.007423
# 5 0.006574 0.001009 -0.005679 -0.007158 0.033001 -0.003767
# 6 -0.000008 0.001675 -0.005422 0.007423 -0.003767 0.042634
#
#
# Mechanical properties :
#
#
# Convention : Reuss Voigt Hill
#
# Bulk Modulus (GPa) = 58.51563 61.52491 60.02027
# Shear Modulus (GPa) = 28.92568 34.78640 31.85604
#
# Velocity S-wave (km/s) = 3.85552 4.22811 4.04610
# Velocity P-wave (km/s) = 7.06339 7.44673 7.25759
#
# Compressibility (1/GPa) = 0.01708945
#
# Stress axis : x y z
#
# Youngs Moduli (GPa) = 65.51092 99.06559 68.65355
#
# Poissons Ratio (x) = 0.32182 0.40775
# Poissons Ratio (y) = 0.21281 0.15309
# Poissons Ratio (z) = 0.38909 0.22091
#
# Static dielectric constant tensor:
#      x y z
#    x 2.242640 0.773590 0.077750 
#    y 0.773590 3.372570 -0.042890 
#    z 0.077750 -0.042890 3.818900 
# 
# 
# High freq. dielectric constant tensor:
#      x y z
#    x 1.734000 -0.002770 0.000060 
#    y -0.002770 1.776000 -0.002550 
#    z 0.000060 -0.002550 1.758740 
# 
# From -- ./inp_files/266674.got.cif
#   From: 2010.06.25/outbox.cif.g09.slc.cpg/sg2_134_cif.got.tgz:266674.got - 2010.06.27 13:26:56.
