data_PCOD8002273
_publ_section_title
;
Structure prediction by ZEFSAII (Michael W. Deem and Ramdas Pophale) SiO2 
 PCOD8002273
Probable space group: P -1
;
_chemical_formula_sum "Si O2"
_cell_formula_units_Z 16
_cell_length_a 14.209565
_cell_length_b 9.790884
_cell_length_c 8.586422
_cell_angle_alpha 88.432826
_cell_angle_beta 43.067183
_cell_angle_gamma 73.896223
_cell_volume 755.224405
_symmetry_space_group_name_H-M "P -1"
_symmetry_group_IT_number 2
_symmetry_cell_setting 'triclinic'
loop_
_space_group_symop_operation_xyz
x,y,z
-x,-y,-z
loop_
_atom_site_type_symbol
_atom_site_label
_atom_site_fract_x
_atom_site_fract_y
_atom_site_fract_z
Si Si1 0.122428 0.314622 0.025945
Si Si2 0.154740 0.020188 0.817535
Si Si3 0.312624 0.468814 0.652562
Si Si4 0.208664 0.578918 0.457702
Si Si5 0.160466 0.371578 0.311241
Si Si6 0.801403 0.172944 0.769779
Si Si7 0.877658 0.898455 0.491699
Si Si8 0.357643 0.726406 0.742385
O O1 0.214320 0.307159 0.075910
O O2 0.949848 0.396556 0.272521
O O3 0.150026 0.153630 0.930877
O O4 0.178964 0.409247 0.834267
O O5 0.189052 0.049225 0.598920
O O6 0.284227 0.873685 0.725913
O O7 0.000000 0.000000 0.000000
O O8 0.323322 0.527841 0.463349
O O9 0.283588 0.607392 0.797344
O O10 0.468241 0.337494 0.507470
O O11 0.263056 0.448421 0.266111
O O12 0.202060 0.728402 0.379849
O O13 0.160985 0.242315 0.426015
O O14 0.000000 0.500000 0.500000
O O15 0.945303 0.142698 0.706837
O O16 0.797076 0.021822 0.713790
O O17 0.661466 0.243029 0.050351
#
# Coordination Sequence:
#
# PCOD8002273 Si02
#       8
#     2   2   2   2   2   2   2   2
#     4  11  22  39  64  94 124 161 204 263 306 363
#     4  12  23  38  66  93 123 158 209 258 311 363
#     4  11  25  42  61  90 130 168 208 244 311 370
#     4  11  22  38  63  95 121 160 206 259 307 365
#     4  10  20  35  58  91 123 154 194 254 314 355
#     4  11  21  37  62  88 125 155 203 254 307 358
#     4  11  21  35  58  94 119 153 196 258 308 357
#     4  11  25  42  62  90 127 170 204 254 303 373
#
# _framework density 21.185756000000001
#
# number of rings (size 3 to 8) (size 9 to 14) (size 15 to 20)
#    0.000    1.000    3.750    4.875    1.750    1.000 
#    0.000    1.250    0.000    3.000    0.000    0.000 
#    0.000    0.000    0.000    0.000    0.000    0.000 
#
# Total GULP energy -198383.462733 kJ/mol
# GULP energy per Si atom -12398.966421 kJ/mol
# Density = 2.113754 g / cm^3
# Si number density = 21.185756 Si / 1000 Ang^3
#
#
#
# Elastic Constant Matrix: (Units=GPa)
#
#
# Indices 1 2 3 4 5 6 
#
# 1 73.1253 42.0679 26.2773 10.5089 20.9921 -15.1833
# 2 42.0679 142.9252 39.7740 1.8960 9.3679 -5.9420
# 3 26.2773 39.7740 57.6552 0.0807 23.9113 -6.3123
# 4 10.5089 1.8960 0.0807 31.9199 5.6435 13.0526
# 5 20.9921 9.3679 23.9113 5.6435 28.4547 -3.6696
# 6 -15.1833 -5.9420 -6.3123 13.0526 -3.6696 41.0104
#
#
#
# Elastic Compliance Matrix: (Units=1/GPa)
#
#
# Indices 1 2 3 4 5 6 
#
# 1 0.024046 -0.005419 -0.001263 -0.009578 -0.011715 0.009923
# 2 -0.005419 0.010165 -0.007428 0.000542 0.006624 -0.001256
# 3 -0.001263 -0.007428 0.033878 0.005604 -0.026262 -0.000463
# 4 -0.009578 0.000542 0.005604 0.042904 -0.008526 -0.017023
# 5 -0.011715 0.006624 -0.026262 -0.008526 0.065515 0.001156
# 6 0.009923 -0.001256 -0.000463 -0.017023 0.001156 0.033326
#
#
# Mechanical properties :
#
#
# Convention : Reuss Voigt Hill
#
# Bulk Modulus (GPa) = 25.08167 54.43821 39.75994
# Shear Modulus (GPa) = 19.89305 31.31609 25.60457
#
# Velocity S-wave (km/s) = 3.06761 3.84886 3.48023
# Velocity P-wave (km/s) = 4.94081 6.74560 5.91247
#
# Compressibility (1/GPa) = 0.03986976
#
# Stress axis : x y z
#
# Youngs Moduli (GPa) = 41.58635 98.37482 29.51794
#
# Poissons Ratio (x) = 0.53307 0.03727
# Poissons Ratio (y) = 0.22535 0.21927
# Poissons Ratio (z) = 0.05251 0.73075
#
# Static dielectric constant tensor:
#      x y z
#    x 3.966980 0.054450 0.286600 
#    y 0.054450 3.942640 -0.009690 
#    z 0.286600 -0.009690 3.454700 
# 
# 
# High freq. dielectric constant tensor:
#      x y z
#    x 1.827340 0.005060 0.036750 
#    y 0.005060 1.848510 -0.000330 
#    z 0.036750 -0.000330 1.804430 
# 
# From -- ./inp_files/244675.got.cif
#   From: 2010.06.25/outbox.cif.g09.slc.cpg/sg2_123_cif.got.tgz:244675.got - 2010.06.27 13:26:56.
