data_PCOD8002637
_publ_section_title
;
Structure prediction by ZEFSAII (Michael W. Deem and Ramdas Pophale) SiO2 
 PCOD8002637
Probable space group: P -1
;
_chemical_formula_sum "Si O2"
_cell_formula_units_Z 12
_cell_length_a 10.294116
_cell_length_b 17.569782
_cell_length_c 7.332095
_cell_angle_alpha 93.275549
_cell_angle_beta 94.680418
_cell_angle_gamma 153.486481
_cell_volume 564.208474
_symmetry_space_group_name_H-M "P -1"
_symmetry_group_IT_number 2
_symmetry_cell_setting 'triclinic'
loop_
_space_group_symop_operation_xyz
x,y,z
-x,-y,-z
loop_
_atom_site_type_symbol
_atom_site_label
_atom_site_fract_x
_atom_site_fract_y
_atom_site_fract_z
Si Si1 0.512860 0.366177 0.866676
Si Si2 0.062699 0.748664 0.064383
Si Si3 0.623821 0.009424 0.364632
Si Si4 0.752445 0.640390 0.381758
Si Si5 0.790622 0.937984 0.336211
Si Si6 0.196629 0.253937 0.177262
O O1 0.341882 0.324759 0.685752
O O2 0.466976 0.252826 0.805228
O O3 0.382071 0.315618 0.042656
O O4 0.871891 0.577072 0.934080
O O5 0.921676 0.691442 0.237846
O O6 0.419738 0.914377 0.147444
O O7 0.038450 0.808349 0.938220
O O8 0.610479 0.912875 0.410662
O O9 0.990529 0.219209 0.405248
O O10 0.500000 0.000000 0.500000
O O11 0.453741 0.429896 0.367996
O O12 0.005843 0.086206 0.224269
O O13 0.000000 0.000000 0.500000
#
# Coordination Sequence:
#
# PCOD8002637 Si02
#       6
#     2   2   2   2   2   2
#     4   9  17  36  57  84 109 141 181 229 273 318
#     4   8  17  34  60  78 108 147 181 220 274 326
#     4  10  20  36  57  80 114 146 181 223 277 326
#     4   8  15  34  59  82 105 146 183 220 269 327
#     4  12  23  34  56  87 112 144 183 229 277 316
#     4   9  19  35  60  83 108 142 189 225 264 329
#
# _framework density 21.268735
#
# number of rings (size 3 to 8) (size 9 to 14) (size 15 to 20)
#    0.000    2.667    1.667    2.500    0.000    2.000 
#    0.000    0.000    3.667    3.000    0.000    0.000 
#    0.000    0.000    0.000    0.000    0.000    0.000 
#
# Total GULP energy -148708.115119 kJ/mol
# GULP energy per Si atom -12392.342927 kJ/mol
# Density = 2.122033 g / cm^3
# Si number density = 21.268735 Si / 1000 Ang^3
#
#
#
# Elastic Constant Matrix: (Units=GPa)
#
#
# Indices 1 2 3 4 5 6 
#
# 1 136.2774 50.7714 58.1289 23.6041 5.1171 -14.8042
# 2 50.7714 131.9517 62.1517 20.0716 12.7085 -11.5445
# 3 58.1289 62.1517 110.3976 32.0336 25.1066 -4.2100
# 4 23.6041 20.0716 32.0336 43.1084 -0.9243 4.3060
# 5 5.1171 12.7085 25.1066 -0.9243 35.8912 8.7216
# 6 -14.8042 -11.5445 -4.2100 4.3060 8.7216 38.9595
#
#
#
# Elastic Compliance Matrix: (Units=1/GPa)
#
#
# Indices 1 2 3 4 5 6 
#
# 1 0.010316 -0.001574 -0.004060 -0.002174 0.001142 0.002999
# 2 -0.001574 0.010842 -0.004685 -0.000968 -0.000952 0.002429
# 3 -0.004060 -0.004685 0.020163 -0.011195 -0.012979 0.003391
# 4 -0.002174 -0.000968 -0.011195 0.034270 0.011476 -0.008679
# 5 0.001142 -0.000952 -0.012979 0.011476 0.040210 -0.011521
# 6 0.002999 0.002429 0.003391 -0.008679 -0.011521 0.031432
#
#
# Mechanical properties :
#
#
# Convention : Reuss Voigt Hill
#
# Bulk Modulus (GPa) = 48.34947 80.08119 64.21533
# Shear Modulus (GPa) = 28.60954 37.43015 33.01985
#
# Velocity S-wave (km/s) = 3.67160 4.19963 3.94446
# Velocity P-wave (km/s) = 6.38406 7.82622 7.14163
#
# Compressibility (1/GPa) = 0.02068275
#
# Stress axis : x y z
#
# Youngs Moduli (GPa) = 96.94087 92.23069 49.59496
#
# Poissons Ratio (x) = 0.14514 0.20137
# Poissons Ratio (y) = 0.15255 0.23237
# Poissons Ratio (z) = 0.39361 0.43214
#
# Static dielectric constant tensor:
#      x y z
#    x 4.000470 0.131160 0.034530 
#    y 0.131160 4.243230 0.644400 
#    z 0.034530 0.644400 4.414910 
# 
# 
# High freq. dielectric constant tensor:
#      x y z
#    x 1.818010 0.005390 -0.010380 
#    y 0.005390 1.840030 0.014430 
#    z -0.010380 0.014430 1.855110 
# 
# From -- ./inp_files/145940.got.cif
#   From: 2010.06.25/outbox.cif.g09.slc.cpg/sg2_73_cif.got.tgz:145940.got - 2010.06.27 13:26:56.
