data_PCOD8002645
_publ_section_title
;
Structure prediction by ZEFSAII (Michael W. Deem and Ramdas Pophale) SiO2 
 PCOD8002645
Probable space group: P -1
;
_chemical_formula_sum "Si O2"
_cell_formula_units_Z 16
_cell_length_a 24.013168
_cell_length_b 6.262389
_cell_length_c 7.328796
_cell_angle_alpha 45.798388
_cell_angle_beta 54.206432
_cell_angle_gamma 52.240238
_cell_volume 599.886802
_symmetry_space_group_name_H-M "P -1"
_symmetry_group_IT_number 2
_symmetry_cell_setting 'triclinic'
loop_
_space_group_symop_operation_xyz
x,y,z
-x,-y,-z
loop_
_atom_site_type_symbol
_atom_site_label
_atom_site_fract_x
_atom_site_fract_y
_atom_site_fract_z
Si Si1 0.573579 0.524384 0.419996
Si Si2 0.426439 0.781578 0.021089
Si Si3 0.795464 0.734182 0.540130
Si Si4 0.204143 0.612634 0.627590
Si Si5 0.964843 0.130153 0.202624
Si Si6 0.730080 0.323830 0.102154
Si Si7 0.035444 0.522527 0.631587
Si Si8 0.269810 0.004116 0.058361
O O1 0.500000 0.500000 0.500000
O O2 0.643495 0.389834 0.234618
O O3 0.557248 0.899456 0.244632
O O4 0.594445 0.294063 0.691916
O O5 0.356273 0.801883 0.022505
O O6 0.500000 0.500000 0.000000
O O7 0.777194 0.588455 0.475194
O O8 0.880015 0.579011 0.525019
O O9 0.773800 0.116026 0.316753
O O10 0.745618 0.655766 0.843800
O O11 0.119684 0.713653 0.783950
O O12 0.254361 0.383064 0.829263
O O13 0.225485 0.929638 0.361317
O O14 0.982498 0.276878 0.267452
O O15 0.986381 0.749996 0.428107
O O16 0.013971 0.207796 0.900328
O O17 0.762982 0.110497 0.988219
#
# Coordination Sequence:
#
# PCOD8002645 Si02
#       8
#     2   2   2   2   2   2   2   2
#     4  12  26  44  66  92 122 155 196 242 295 354
#     4  12  26  44  66  92 122 155 196 242 295 354
#     4   9  17  29  48  75 110 152 192 234 288 345
#     4   9  17  29  48  75 110 152 192 234 288 345
#     4   9  15  23  38  65 105 148 186 228 283 341
#     4  10  20  36  57  82 115 153 193 237 290 348
#     4   9  15  23  38  65 105 148 186 228 283 341
#     4  10  20  36  57  82 115 153 193 237 290 348
#
# _framework density 26.671700999999999
#
# number of rings (size 3 to 8) (size 9 to 14) (size 15 to 20)
#    0.000    2.000    0.000    4.500    0.000    9.000 
#    0.000    0.000    0.000    0.000    0.000    0.000 
#    0.000   70.000    0.000    0.000    0.000    0.000 
#
# Total GULP energy -198490.598649 kJ/mol
# GULP energy per Si atom -12405.662416 kJ/mol
# Density = 2.661099 g / cm^3
# Si number density = 26.671701 Si / 1000 Ang^3
#
#
#
# Elastic Constant Matrix: (Units=GPa)
#
#
# Indices 1 2 3 4 5 6 
#
# 1 87.8590 30.8397 89.9524 -7.3578 13.3679 -32.2045
# 2 30.8397 88.2936 77.3495 -13.6961 11.1080 -36.7818
# 3 89.9524 77.3495 234.0258 -12.4580 -5.2245 -20.5878
# 4 -7.3578 -13.6961 -12.4580 60.0996 -4.7027 -9.1213
# 5 13.3679 11.1080 -5.2245 -4.7027 47.1848 -2.0575
# 6 -32.2045 -36.7818 -20.5878 -9.1213 -2.0575 61.5952
#
#
#
# Elastic Compliance Matrix: (Units=1/GPa)
#
#
# Indices 1 2 3 4 5 6 
#
# 1 0.030678 0.011617 -0.013953 0.005445 -0.011612 0.018732
# 2 0.011617 0.028372 -0.011903 0.007678 -0.009657 0.019852
# 3 -0.013953 -0.011903 0.012680 -0.002778 0.007432 -0.010328
# 4 0.005445 0.007678 -0.002778 0.019805 -0.001274 0.009393
# 5 -0.011612 -0.009657 0.007432 -0.001274 0.027076 -0.008638
# 6 0.018732 0.019852 -0.010328 0.009393 -0.008638 0.035534
#
#
# Mechanical properties :
#
#
# Convention : Reuss Voigt Hill
#
# Bulk Modulus (GPa) = 23.12057 89.60685 56.36371
# Shear Modulus (GPa) = 25.37560 47.91171 36.64366
#
# Velocity S-wave (km/s) = 3.08783 4.24293 3.71061
# Velocity P-wave (km/s) = 4.62605 7.59424 6.28780
#
# Compressibility (1/GPa) = 0.04325153
#
# Stress axis : x y z
#
# Youngs Moduli (GPa) = 32.59635 35.24630 78.86682
#
# Poissons Ratio (x) = -0.40944 1.10041
# Poissons Ratio (y) = -0.37866 0.93874
# Poissons Ratio (z) = 0.45481 0.41953
#
# Static dielectric constant tensor:
#      x y z
#    x 4.931210 0.393410 0.016480 
#    y 0.393410 4.860130 -0.172640 
#    z 0.016480 -0.172640 5.131460 
# 
# 
# High freq. dielectric constant tensor:
#      x y z
#    x 2.100990 0.036060 0.015740 
#    y 0.036060 2.087930 -0.010200 
#    z 0.015740 -0.010200 2.115200 
# 
# From -- ./inp_files/140497.got.cif
#   From: 2010.06.25/outbox.cif.g09.slc.cpg/sg2_71_cif.got.tgz:140497.got - 2010.06.27 13:26:56.
