data_PCOD8002505
_publ_section_title
;
Structure prediction by ZEFSAII (Michael W. Deem and Ramdas Pophale) SiO2 
 PCOD8002505
Probable space group: P -1
;
_chemical_formula_sum "Si O2"
_cell_formula_units_Z 16
_cell_length_a 18.751784
_cell_length_b 8.683493
_cell_length_c 6.479501
_cell_angle_alpha 117.912886
_cell_angle_beta 61.708271
_cell_angle_gamma 121.972724
_cell_volume 754.058329
_symmetry_space_group_name_H-M "P -1"
_symmetry_group_IT_number 2
_symmetry_cell_setting 'triclinic'
loop_
_space_group_symop_operation_xyz
x,y,z
-x,-y,-z
loop_
_atom_site_type_symbol
_atom_site_label
_atom_site_fract_x
_atom_site_fract_y
_atom_site_fract_z
Si Si1 0.106716 0.715683 0.639232
Si Si2 0.557861 0.367863 0.103185
Si Si3 0.521305 0.251932 0.673964
Si Si4 0.245407 0.959348 0.295462
Si Si5 0.607849 0.716660 0.469893
Si Si6 0.106908 0.966118 0.181984
Si Si7 0.399334 0.894099 0.849087
Si Si8 0.962737 0.718277 0.531369
O O1 0.094650 0.502507 0.587514
O O2 0.019101 0.719625 0.657344
O O3 0.185443 0.782390 0.405746
O O4 0.129786 0.860601 0.891283
O O5 0.628593 0.540117 0.248203
O O6 0.459104 0.348937 0.287563
O O7 0.575219 0.182007 0.021690
O O8 0.567452 0.424530 0.880789
O O9 0.441319 0.234006 0.624587
O O10 0.602547 0.239902 0.427073
O O11 0.478772 0.091752 0.808813
O O12 0.302724 0.117424 0.479882
O O13 0.186217 0.033937 0.281639
O O14 0.305233 0.902104 0.017856
O O15 0.019556 0.813239 0.311284
O O16 0.094758 0.158675 0.254129
#
# Coordination Sequence:
#
# PCOD8002505 Si02
#       8
#     2   2   2   2   2   2   2   2
#     4  10  21  39  67  94 123 163 194 246 301 356
#     4  10  20  39  59  80 107 156 212 253 299 354
#     4  10  20  35  64  79 102 161 214 251 300 353
#     4  11  24  39  53  90 131 154 193 253 311 352
#     4  10  22  37  57  82 116 152 201 260 299 356
#     4  10  21  40  66  93 125 163 193 244 301 357
#     4  10  22  36  57  83 113 152 204 254 298 357
#     4   9  20  42  68  95 119 154 213 234 280 381
#
# _framework density 21.218518
#
# number of rings (size 3 to 8) (size 9 to 14) (size 15 to 20)
#    0.000    2.000    1.250    1.500    5.250    0.000 
#    4.500    0.000    0.000    0.000    0.000    0.000 
#    0.000    0.000    0.000    0.000    0.000    0.000 
#
# Total GULP energy -198221.128928 kJ/mol
# GULP energy per Si atom -12388.820558 kJ/mol
# Density = 2.117022 g / cm^3
# Si number density = 21.218518 Si / 1000 Ang^3
#
#
#
# Elastic Constant Matrix: (Units=GPa)
#
#
# Indices 1 2 3 4 5 6 
#
# 1 95.5152 58.0758 53.1221 6.8949 5.6032 2.1741
# 2 58.0758 105.5859 42.6037 12.5719 -2.6930 -8.6529
# 3 53.1221 42.6037 120.2722 1.6696 8.2684 -1.9407
# 4 6.8949 12.5719 1.6696 23.8346 4.1475 0.3831
# 5 5.6032 -2.6930 8.2684 4.1475 33.6619 0.9802
# 6 2.1741 -8.6529 -1.9407 0.3831 0.9802 29.9773
#
#
#
# Elastic Compliance Matrix: (Units=1/GPa)
#
#
# Indices 1 2 3 4 5 6 
#
# 1 0.018857 -0.008694 -0.005147 -0.000016 -0.002448 -0.004130
# 2 -0.008694 0.016422 -0.002071 -0.006773 0.003953 0.005194
# 3 -0.005147 -0.002071 0.011466 0.002189 -0.002412 0.000569
# 4 -0.000016 -0.006773 0.002189 0.046590 -0.006753 -0.002187
# 5 -0.002448 0.003953 -0.002412 -0.006753 0.031849 0.000207
# 6 -0.004130 0.005194 0.000569 -0.002187 0.000207 0.035215
#
#
# Mechanical properties :
#
#
# Convention : Reuss Voigt Hill
#
# Bulk Modulus (GPa) = 67.02307 69.88630 68.45468
# Shear Modulus (GPa) = 25.35524 28.66622 27.01073
#
# Velocity S-wave (km/s) = 3.46057 3.67958 3.57175
# Velocity P-wave (km/s) = 6.90094 7.14566 7.02436
#
# Compressibility (1/GPa) = 0.01492024
#
# Stress axis : x y z
#
# Youngs Moduli (GPa) = 53.02948 60.89558 87.21362
#
# Poissons Ratio (x) = 0.52944 0.44892
# Poissons Ratio (y) = 0.46105 0.18060
# Poissons Ratio (z) = 0.27296 0.12610
#
# Static dielectric constant tensor:
#      x y z
#    x 3.633770 -0.204120 0.138230 
#    y -0.204120 4.092730 0.112420 
#    z 0.138230 0.112420 4.115010 
# 
# 
# High freq. dielectric constant tensor:
#      x y z
#    x 1.813350 -0.017950 0.019730 
#    y -0.017950 1.828040 0.010260 
#    z 0.019730 0.010260 1.844240 
# 
# From -- ./inp_files/107334.got.cif
#   From: 2010.06.25/outbox.cif.g09.slc.cpg/sg2_54_cif.got.tgz:107334.got - 2010.06.27 13:26:56.
