data_PCOD8002201
_publ_section_title
;
Structure prediction by ZEFSAII (Michael W. Deem and Ramdas Pophale) SiO2 
 PCOD8002201
Probable space group: P -1
;
_chemical_formula_sum "Si O2"
_cell_formula_units_Z 16
_cell_length_a 10.331472
_cell_length_b 11.381067
_cell_length_c 16.153431
_cell_angle_alpha 76.622437
_cell_angle_beta 61.351794
_cell_angle_gamma 128.805318
_cell_volume 816.653798
_symmetry_space_group_name_H-M "P -1"
_symmetry_group_IT_number 2
_symmetry_cell_setting 'triclinic'
loop_
_space_group_symop_operation_xyz
x,y,z
-x,-y,-z
loop_
_atom_site_type_symbol
_atom_site_label
_atom_site_fract_x
_atom_site_fract_y
_atom_site_fract_z
Si Si1 0.551573 0.397451 0.477689
Si Si2 0.437834 0.364713 0.337002
Si Si3 0.862285 0.599594 0.743952
Si Si4 0.098024 0.893007 0.782200
Si Si5 0.026081 0.554417 0.350193
Si Si6 0.396898 0.877064 0.324243
Si Si7 0.123956 0.911012 0.462386
Si Si8 0.765489 0.761020 0.057202
O O1 0.500000 0.500000 0.500000
O O2 0.561212 0.393421 0.376996
O O3 0.871871 0.573179 0.374734
O O4 0.299318 0.135351 0.636596
O O5 0.696184 0.595709 0.161773
O O6 0.204488 0.307203 0.439792
O O7 0.273287 0.146290 0.371265
O O8 0.531523 0.376652 0.848596
O O9 0.909216 0.681605 0.809046
O O10 0.937022 0.508652 0.729959
O O11 0.086887 0.835048 0.579770
O O12 0.278784 0.927010 0.777909
O O13 0.883509 0.810418 0.922849
O O14 0.830742 0.347965 0.509848
O O15 0.340287 0.799663 0.258355
O O16 0.333217 0.974360 0.333767
O O17 0.000000 0.000000 0.000000
#
# Coordination Sequence:
#
# PCOD8002201 Si02
#       8
#     2   2   2   2   2   2   2   2
#     4  11  21  34  59  89 120 145 192 241 290 336
#     4  10  20  35  57  85 115 150 188 233 292 338
#     4  10  20  37  61  86 114 148 200 242 278 337
#     4  11  22  36  61  88 112 152 196 239 284 339
#     4   9  19  33  56  87 117 151 188 239 288 335
#     4   9  18  33  56  85 116 147 192 233 288 339
#     4   9  18  34  58  85 116 147 186 242 287 335
#     4  11  23  40  59  81 118 158 193 231 286 353
#
# _framework density 19.592144000000001
#
# number of rings (size 3 to 8) (size 9 to 14) (size 15 to 20)
#    0.000    2.000    1.250    2.625    1.750    5.500 
#    0.000    0.625    0.000    3.750    0.000    0.000 
#    0.000    0.000    0.000    0.000    0.000    0.000 
#
# Total GULP energy -198286.162540 kJ/mol
# GULP energy per Si atom -12392.885159 kJ/mol
# Density = 1.954755 g / cm^3
# Si number density = 19.592144 Si / 1000 Ang^3
#
#
#
# Elastic Constant Matrix: (Units=GPa)
#
#
# Indices 1 2 3 4 5 6 
#
# 1 110.9742 51.2130 30.5820 -3.0162 -9.5918 -8.0270
# 2 51.2130 134.3639 38.8820 3.7227 -8.0769 3.5406
# 3 30.5820 38.8820 68.3909 2.6754 3.7351 2.0604
# 4 -3.0162 3.7227 2.6754 29.5178 1.8693 -5.9649
# 5 -9.5918 -8.0769 3.7351 1.8693 24.8254 4.8108
# 6 -8.0270 3.5406 2.0604 -5.9649 4.8108 29.2675
#
#
#
# Elastic Compliance Matrix: (Units=1/GPa)
#
#
# Indices 1 2 3 4 5 6 
#
# 1 0.012391 -0.003583 -0.003909 0.002704 0.003206 0.004131
# 2 -0.003583 0.010396 -0.004323 -0.002088 0.003371 -0.002916
# 3 -0.003909 -0.004323 0.019224 -0.001518 -0.005440 -0.001318
# 4 0.002704 -0.002088 -0.001518 0.036670 -0.003955 0.009225
# 5 0.003206 0.003371 -0.005440 -0.003955 0.045162 -0.007375
# 6 0.004131 -0.002916 -0.001318 0.009225 -0.007375 0.038838
#
#
# Mechanical properties :
#
#
# Convention : Reuss Voigt Hill
#
# Bulk Modulus (GPa) = 54.40365 61.67587 58.03976
# Shear Modulus (GPa) = 25.98227 29.59231 27.78729
#
# Velocity S-wave (km/s) = 3.64560 3.89062 3.77010
# Velocity P-wave (km/s) = 6.74899 7.19242 6.97423
#
# Compressibility (1/GPa) = 0.01838112
#
# Stress axis : x y z
#
# Youngs Moduli (GPa) = 80.70229 96.18760 52.01848
#
# Poissons Ratio (x) = 0.34461 0.20336
# Poissons Ratio (y) = 0.28913 0.22488
# Poissons Ratio (z) = 0.31550 0.41583
#
# Static dielectric constant tensor:
#      x y z
#    x 3.836990 0.050930 -0.188910 
#    y 0.050930 3.682880 -0.008450 
#    z -0.188910 -0.008450 3.332650 
# 
# 
# High freq. dielectric constant tensor:
#      x y z
#    x 1.768810 0.001390 -0.013670 
#    y 0.001390 1.770870 0.002740 
#    z -0.013670 0.002740 1.727050 
# 
# From -- ./inp_files/348998.got.cif
#   From: 2010.06.25/outbox.cif.g09.slc.cpg/sg2_175_cif.got.tgz:348998.got - 2010.06.27 13:26:56.
