data_PCOD8002210
_publ_section_title
;
Structure prediction by ZEFSAII (Michael W. Deem and Ramdas Pophale) SiO2 
 PCOD8002210
Probable space group: P -1
;
_chemical_formula_sum "Si O2"
_cell_formula_units_Z 16
_cell_length_a 9.402110
_cell_length_b 15.856335
_cell_length_c 11.505026
_cell_angle_alpha 123.087364
_cell_angle_beta 107.339749
_cell_angle_gamma 36.388966
_cell_volume 817.318888
_symmetry_space_group_name_H-M "P -1"
_symmetry_group_IT_number 2
_symmetry_cell_setting 'triclinic'
loop_
_space_group_symop_operation_xyz
x,y,z
-x,-y,-z
loop_
_atom_site_type_symbol
_atom_site_label
_atom_site_fract_x
_atom_site_fract_y
_atom_site_fract_z
Si Si1 0.641356 0.713695 0.241974
Si Si2 0.703381 0.041403 0.472095
Si Si3 0.435705 0.541482 0.382500
Si Si4 0.135937 0.896753 0.607031
Si Si5 0.244775 0.576868 0.983125
Si Si6 0.994875 0.317173 0.745970
Si Si7 0.124567 0.771616 0.897350
Si Si8 0.185188 0.950389 0.143378
O O1 0.570354 0.797535 0.415272
O O2 0.694635 0.567053 0.156129
O O3 0.422615 0.858588 0.205029
O O4 0.892609 0.632381 0.198717
O O5 0.732743 0.067399 0.366380
O O6 0.868981 0.028833 0.579479
O O7 0.786785 0.880900 0.379354
O O8 0.500000 0.500000 0.500000
O O9 0.322212 0.712629 0.462515
O O10 0.230043 0.570102 0.316591
O O11 0.683418 0.396263 0.258730
O O12 0.072466 0.923647 0.749044
O O13 0.065440 0.733300 0.965603
O O14 0.500000 0.500000 0.000000
O O15 0.104796 0.649498 0.125130
O O16 0.253273 0.806493 0.994392
O O17 0.876047 0.932879 0.883016
#
# Coordination Sequence:
#
# PCOD8002210 Si02
#       8
#     2   2   2   2   2   2   2   2
#     4  11  22  39  60  88 124 156 195 242 304 358
#     4   9  19  32  57  86 117 145 193 241 288 345
#     4  11  20  35  57  87 113 152 195 241 287 350
#     4   9  17  31  56  85 110 146 193 242 282 335
#     4  12  22  38  63  91 116 154 208 249 284 346
#     4  11  23  38  61  89 119 157 194 245 301 352
#     4  11  21  35  58  89 115 149 200 250 287 337
#     4  10  20  35  57  87 118 151 191 246 298 347
#
# _framework density 19.576201000000001
#
# number of rings (size 3 to 8) (size 9 to 14) (size 15 to 20)
#    0.000    1.500    3.750    2.250    3.500    0.000 
#    0.000    0.625    2.750    1.500    0.000    0.000 
#    0.000    0.000    0.000    0.000    0.000    0.000 
#
# Total GULP energy -198356.425849 kJ/mol
# GULP energy per Si atom -12397.276616 kJ/mol
# Density = 1.953164 g / cm^3
# Si number density = 19.576201 Si / 1000 Ang^3
#
#
#
# Elastic Constant Matrix: (Units=GPa)
#
#
# Indices 1 2 3 4 5 6 
#
# 1 98.4712 41.3996 23.5668 -6.0674 -6.6944 15.2591
# 2 41.3996 100.0527 24.4733 -8.8873 -3.0938 18.2726
# 3 23.5668 24.4733 97.8402 2.5239 -11.9121 6.9483
# 4 -6.0674 -8.8873 2.5239 30.7171 9.1906 -0.2061
# 5 -6.6944 -3.0938 -11.9121 9.1906 27.1578 -0.0698
# 6 15.2591 18.2726 6.9483 -0.2061 -0.0698 22.9055
#
#
#
# Elastic Compliance Matrix: (Units=1/GPa)
#
#
# Indices 1 2 3 4 5 6 
#
# 1 0.013192 -0.003981 -0.001638 0.001041 0.001714 -0.005101
# 2 -0.003981 0.013901 -0.002282 0.003891 -0.001735 -0.007716
# 3 -0.001638 -0.002282 0.012053 -0.003741 0.005887 -0.000761
# 4 0.001041 0.003891 -0.003741 0.038344 -0.013923 -0.002360
# 5 0.001714 -0.001735 0.005887 -0.013923 0.044337 -0.001534
# 6 -0.005101 -0.007716 -0.000761 -0.002360 -0.001534 0.053416
#
#
# Mechanical properties :
#
#
# Convention : Reuss Voigt Hill
#
# Bulk Modulus (GPa) = 42.83483 52.80482 47.81982
# Shear Modulus (GPa) = 25.14763 29.95103 27.54933
#
# Velocity S-wave (km/s) = 3.58802 3.91573 3.75545
# Velocity P-wave (km/s) = 6.25250 6.89032 6.57914
#
# Compressibility (1/GPa) = 0.02334549
#
# Stress axis : x y z
#
# Youngs Moduli (GPa) = 75.80331 71.93670 82.96487
#
# Poissons Ratio (x) = 0.28637 0.13587
# Poissons Ratio (y) = 0.30176 0.18932
# Poissons Ratio (z) = 0.12414 0.16416
#
# Static dielectric constant tensor:
#      x y z
#    x 3.443490 0.235700 -0.245410 
#    y 0.235700 3.921140 0.256380 
#    z -0.245410 0.256380 4.209510 
# 
# 
# High freq. dielectric constant tensor:
#      x y z
#    x 1.731310 0.026380 -0.008380 
#    y 0.026380 1.748600 0.009150 
#    z -0.008380 0.009150 1.782310 
# 
# From -- ./inp_files/245148.got.cif
#   From: 2010.06.25/outbox.cif.g09.slc.cpg/sg2_123_cif.got.tgz:245148.got - 2010.06.27 13:26:56.
