data_PCOD8002393
_publ_section_title
;
Structure prediction by ZEFSAII (Michael W. Deem and Ramdas Pophale) SiO2 
 PCOD8002393
Probable space group: P -1
;
_chemical_formula_sum "Si O2"
_cell_formula_units_Z 16
_cell_length_a 16.344233
_cell_length_b 11.364696
_cell_length_c 15.394436
_cell_angle_alpha 133.887056
_cell_angle_beta 26.245455
_cell_angle_gamma 142.023598
_cell_volume 777.103708
_symmetry_space_group_name_H-M "P -1"
_symmetry_group_IT_number 2
_symmetry_cell_setting 'triclinic'
loop_
_space_group_symop_operation_xyz
x,y,z
-x,-y,-z
loop_
_atom_site_type_symbol
_atom_site_label
_atom_site_fract_x
_atom_site_fract_y
_atom_site_fract_z
Si Si1 0.227416 0.519972 0.002738
Si Si2 0.967495 0.514871 0.402863
Si Si3 0.655806 0.790664 0.447842
Si Si4 0.661253 0.807284 0.030376
Si Si5 0.758745 0.192765 0.564217
Si Si6 0.429282 0.434993 0.168719
Si Si7 0.944070 0.890794 0.085326
Si Si8 0.770158 0.474486 0.189080
O O1 0.081702 0.568195 0.227288
O O2 0.451165 0.578713 0.867448
O O3 0.054837 0.299102 0.032461
O O4 0.299235 0.618124 0.889358
O O5 0.888719 0.301052 0.406449
O O6 0.767989 0.545505 0.601810
O O7 0.149833 0.659077 0.368892
O O8 0.699612 0.823825 0.318461
O O9 0.772927 0.673076 0.303044
O O10 0.403880 0.676808 0.654263
O O11 0.772609 0.008803 0.483998
O O12 0.490677 0.872015 0.243891
O O13 0.608222 0.621649 0.041915
O O14 0.664329 0.754072 0.899142
O O15 0.891977 0.985474 0.930232
O O16 0.000000 0.000000 0.000000
O O17 0.000000 0.500000 0.000000
#
# Coordination Sequence:
#
# PCOD8002393 Si02
#       8
#     2   2   2   2   2   2   2   2
#     4  11  22  39  62  88 126 162 211 270 314 373
#     4  10  21  37  61  99 132 166 202 253 319 396
#     4  10  23  41  66  89 123 170 218 261 320 378
#     4  10  20  35  60  93 133 170 199 245 318 393
#     4  10  20  37  64  95 132 166 209 250 320 398
#     4  10  20  37  61  88 131 175 200 245 320 383
#     4  11  21  36  60  97 134 158 203 264 320 389
#     4  10  25  47  65  85 122 173 225 277 319 361
#
# _framework density 20.589272000000001
#
# number of rings (size 3 to 8) (size 9 to 14) (size 15 to 20)
#    0.000    1.750    2.500    1.500    5.250    3.000 
#    0.000    2.500    0.000    2.250    0.000    0.000 
#    0.000    0.000    0.000    0.000    0.000    0.000 
#
# Total GULP energy -198210.269318 kJ/mol
# GULP energy per Si atom -12388.141832 kJ/mol
# Density = 2.054241 g / cm^3
# Si number density = 20.589272 Si / 1000 Ang^3
#
#
#
# Elastic Constant Matrix: (Units=GPa)
#
#
# Indices 1 2 3 4 5 6 
#
# 1 111.6063 30.7794 58.4288 -10.5789 4.5738 12.4451
# 2 30.7794 87.7384 40.3882 1.6856 2.1226 -0.2255
# 3 58.4288 40.3882 149.1092 -13.8390 10.9285 -5.0031
# 4 -10.5789 1.6856 -13.8390 27.7011 -1.6398 2.1669
# 5 4.5738 2.1226 10.9285 -1.6398 36.4139 -4.4125
# 6 12.4451 -0.2255 -5.0031 2.1669 -4.4125 29.6023
#
#
#
# Elastic Compliance Matrix: (Units=1/GPa)
#
#
# Indices 1 2 3 4 5 6 
#
# 1 0.013001 -0.002691 -0.004199 0.003495 -0.000856 -0.006579
# 2 -0.002691 0.013776 -0.002989 -0.003417 0.000404 0.001042
# 3 -0.004199 -0.002989 0.009670 0.003081 -0.001711 0.002896
# 4 0.003495 -0.003417 0.003081 0.039491 0.000148 -0.003843
# 5 -0.000856 0.000404 -0.001711 0.000148 0.028590 0.004324
# 6 -0.006579 0.001042 0.002896 -0.003843 0.004324 0.037970
#
#
# Mechanical properties :
#
#
# Convention : Reuss Voigt Hill
#
# Bulk Modulus (GPa) = 59.92058 67.51630 63.71844
# Shear Modulus (GPa) = 29.79412 33.33397 31.56405
#
# Velocity S-wave (km/s) = 3.80816 4.02804 3.91964
# Velocity P-wave (km/s) = 6.96435 7.38219 7.17631
#
# Compressibility (1/GPa) = 0.01668876
#
# Stress axis : x y z
#
# Youngs Moduli (GPa) = 76.92008 72.59076 103.41307
#
# Poissons Ratio (x) = 0.19535 0.43423
# Poissons Ratio (y) = 0.20700 0.30906
# Poissons Ratio (z) = 0.32299 0.21695
#
# Static dielectric constant tensor:
#      x y z
#    x 3.514890 0.203280 0.060870 
#    y 0.203280 3.733220 0.083100 
#    z 0.060870 0.083100 3.845320 
# 
# 
# High freq. dielectric constant tensor:
#      x y z
#    x 1.777550 0.009490 0.007930 
#    y 0.009490 1.794660 0.003130 
#    z 0.007930 0.003130 1.825230 
# 
# From -- ./inp_files/455872.got.cif
#   From: 2010.06.25/outbox.cif.g09.slc.cpg/sg2_228_cif.got.tgz:455872.got - 2010.06.27 13:26:56.
