data_PCOD8002842
_publ_section_title
;
Structure prediction by ZEFSAII (Michael W. Deem and Ramdas Pophale) SiO2 
 PCOD8002842
Probable space group: P -1
;
_chemical_formula_sum "Si O2"
_cell_formula_units_Z 16
_cell_length_a 8.422288
_cell_length_b 13.874223
_cell_length_c 14.765288
_cell_angle_alpha 149.347951
_cell_angle_beta 120.557645
_cell_angle_gamma 59.962619
_cell_volume 749.577086
_symmetry_space_group_name_H-M "P -1"
_symmetry_group_IT_number 2
_symmetry_cell_setting 'triclinic'
loop_
_space_group_symop_operation_xyz
x,y,z
-x,-y,-z
loop_
_atom_site_type_symbol
_atom_site_label
_atom_site_fract_x
_atom_site_fract_y
_atom_site_fract_z
Si Si1 0.128474 0.538675 0.808558
Si Si2 0.671608 0.751001 0.502379
Si Si3 0.149956 0.888723 0.201139
Si Si4 0.251714 0.162183 0.892129
Si Si5 0.293351 0.413755 0.273751
Si Si6 0.259684 0.845595 0.388786
Si Si7 0.502187 0.239468 0.362023
Si Si8 0.101911 0.258862 0.734874
O O1 0.259048 0.439803 0.687692
O O2 0.145009 0.429602 0.821655
O O3 0.916980 0.567558 0.736077
O O4 0.193612 0.743890 0.012420
O O5 0.458875 0.825075 0.475368
O O6 0.670234 0.712939 0.578816
O O7 0.807208 0.904494 0.646680
O O8 0.278865 0.801626 0.251898
O O9 0.933226 0.910924 0.182957
O O10 0.213081 0.263285 0.865153
O O11 0.409641 0.980692 0.781578
O O12 0.319337 0.317202 0.104290
O O13 0.426778 0.279216 0.271463
O O14 0.345540 0.626077 0.458357
O O15 0.121689 0.714919 0.291018
O O16 0.162918 0.064239 0.541838
#
# Coordination Sequence:
#
# PCOD8002842 Si02
#       8
#     2   2   2   2   2   2   2   2
#     4  11  24  40  59  90 129 161 192 248 293 366
#     4  12  23  38  59  87 127 162 195 242 300 359
#     4  10  23  38  58  89 126 162 199 233 307 362
#     4  10  21  42  65  89 118 157 203 254 293 350
#     4  10  24  43  64  91 115 153 212 249 300 347
#     4  10  20  36  59  89 119 158 203 238 291 357
#     4  11  23  41  67  89 115 158 203 258 295 346
#     4  10  20  38  64  90 119 159 202 240 302 352
#
# _framework density 21.345369999999999
#
# number of rings (size 3 to 8) (size 9 to 14) (size 15 to 20)
#    0.000    1.500    2.500    2.250    1.750    7.500 
#    0.000    2.500    0.000    0.000    0.000    0.000 
#    0.000    0.000    0.000    0.000    0.000    0.000 
#
# Total GULP energy -198444.230021 kJ/mol
# GULP energy per Si atom -12402.764376 kJ/mol
# Density = 2.129679 g / cm^3
# Si number density = 21.345370 Si / 1000 Ang^3
#
#
#
# Elastic Constant Matrix: (Units=GPa)
#
#
# Indices 1 2 3 4 5 6 
#
# 1 51.8937 9.7667 26.7783 -5.3212 -15.4100 -1.7430
# 2 9.7667 59.5387 29.5872 -13.0113 -1.8080 -10.6073
# 3 26.7783 29.5872 106.4006 -14.9478 -21.7422 -6.4775
# 4 -5.3212 -13.0113 -14.9478 25.5138 -6.9818 -5.2296
# 5 -15.4100 -1.8080 -21.7422 -6.9818 23.8650 -2.3062
# 6 -1.7430 -10.6073 -6.4775 -5.2296 -2.3062 20.6117
#
#
#
# Elastic Compliance Matrix: (Units=1/GPa)
#
#
# Indices 1 2 3 4 5 6 
#
# 1 0.027732 0.000903 0.000108 0.014529 0.023206 0.009126
# 2 0.000903 0.024739 -0.002246 0.016934 0.007026 0.017185
# 3 0.000108 -0.002246 0.017759 0.017750 0.022377 0.011442
# 4 0.014529 0.016934 0.017750 0.085514 0.056056 0.043490
# 5 0.023206 0.007026 0.022377 0.056056 0.097857 0.037782
# 6 0.009126 0.017185 0.011442 0.043490 0.037782 0.076989
#
#
# Mechanical properties :
#
#
# Convention : Reuss Voigt Hill
#
# Bulk Modulus (GPa) = 14.75785 38.89969 26.82877
# Shear Modulus (GPa) = 14.05893 24.11149 19.08521
#
# Velocity S-wave (km/s) = 2.56918 3.36458 2.99342
# Velocity P-wave (km/s) = 3.96608 5.77559 4.95415
#
# Compressibility (1/GPa) = 0.06776053
#
# Stress axis : x y z
#
# Youngs Moduli (GPa) = 36.05964 40.42149 56.31088
#
# Poissons Ratio (x) = -0.03649 -0.00610
# Poissons Ratio (y) = -0.03255 0.12645
# Poissons Ratio (z) = -0.00391 0.09077
#
# Static dielectric constant tensor:
#      x y z
#    x 3.794460 0.043630 -0.096640 
#    y 0.043630 3.681470 -0.135830 
#    z -0.096640 -0.135830 4.041270 
# 
# 
# High freq. dielectric constant tensor:
#      x y z
#    x 1.825860 -0.000350 -0.006450 
#    y -0.000350 1.823760 -0.006460 
#    z -0.006450 -0.006460 1.853380 
# 
# From -- ./inp_files/273985.got.cif
#   From: 2010.06.25/outbox.cif.g09.slc.cpg/sg2_137_cif.got.tgz:273985.got - 2010.06.27 13:26:56.
