data_PCOD8002573
_publ_section_title
;
Structure prediction by ZEFSAII (Michael W. Deem and Ramdas Pophale) SiO2 
 PCOD8002573
Probable space group: P -1
;
_chemical_formula_sum "Si O2"
_cell_formula_units_Z 16
_cell_length_a 9.442536
_cell_length_b 15.472070
_cell_length_c 12.507248
_cell_angle_alpha 152.752716
_cell_angle_beta 77.876288
_cell_angle_gamma 94.879855
_cell_volume 796.546207
_symmetry_space_group_name_H-M "P -1"
_symmetry_group_IT_number 2
_symmetry_cell_setting 'triclinic'
loop_
_space_group_symop_operation_xyz
x,y,z
-x,-y,-z
loop_
_atom_site_type_symbol
_atom_site_label
_atom_site_fract_x
_atom_site_fract_y
_atom_site_fract_z
Si Si1 0.148473 0.950191 0.492053
Si Si2 0.691972 0.248339 0.350205
Si Si3 0.822975 0.889280 0.799027
Si Si4 0.770927 0.703845 0.007155
Si Si5 0.122940 0.722328 0.451045
Si Si6 0.545597 0.100999 0.705892
Si Si7 0.457285 0.032571 0.210924
Si Si8 0.292610 0.329283 0.250785
O O1 0.131874 0.791480 0.405760
O O2 0.290968 0.856517 0.291291
O O3 0.176202 0.134837 0.754922
O O4 0.000000 0.000000 0.500000
O O5 0.738646 0.255483 0.474156
O O6 0.531496 0.195978 0.325774
O O7 0.684235 0.452151 0.516145
O O8 0.807937 0.080408 0.084616
O O9 0.706871 0.933757 0.770280
O O10 0.805762 0.703319 0.667573
O O11 0.980166 0.840926 0.664821
O O12 0.873118 0.504000 0.812013
O O13 0.795700 0.724402 0.898496
O O14 0.591715 0.710512 0.051466
O O15 0.500000 0.000000 0.500000
O O16 0.551476 0.957389 0.648117
O O17 0.547532 0.819218 0.925918
#
# Coordination Sequence:
#
# PCOD8002573 Si02
#       8
#     2   2   2   2   2   2   2   2
#     4  11  22  38  60  84 112 144 181 232 286 327
#     4  10  20  36  60  81 108 151 190 221 265 336
#     4  11  22  34  54  84 119 147 176 228 282 326
#     4   9  21  39  58  81 110 144 187 232 267 326
#     4  11  23  38  56  82 112 148 190 226 270 329
#     4   9  18  38  62  78 105 147 185 227 276 323
#     4  10  20  36  55  83 114 140 182 235 279 323
#     4   9  19  36  58  82 111 148 187 222 269 330
#
# _framework density 20.086718999999999
#
# number of rings (size 3 to 8) (size 9 to 14) (size 15 to 20)
#    0.000    2.000    0.000    5.625    0.000    6.000 
#    0.000    7.500    0.000    0.000    0.000    0.000 
#    0.000    0.000    0.000    0.000    0.000    0.000 
#
# Total GULP energy -198319.173574 kJ/mol
# GULP energy per Si atom -12394.948348 kJ/mol
# Density = 2.004100 g / cm^3
# Si number density = 20.086719 Si / 1000 Ang^3
#
#
#
# Elastic Constant Matrix: (Units=GPa)
#
#
# Indices 1 2 3 4 5 6 
#
# 1 77.6846 27.0836 18.3791 5.9730 -8.7382 -3.3169
# 2 27.0836 90.1074 26.0183 18.7605 14.1369 14.1594
# 3 18.3791 26.0183 65.1032 15.1659 9.5449 3.9744
# 4 5.9730 18.7605 15.1659 22.3559 0.8826 -6.6357
# 5 -8.7382 14.1369 9.5449 0.8826 14.6065 -9.6292
# 6 -3.3169 14.1594 3.9744 -6.6357 -9.6292 31.5070
#
#
#
# Elastic Compliance Matrix: (Units=1/GPa)
#
#
# Indices 1 2 3 4 5 6 
#
# 1 -0.029020 0.055302 0.033698 -0.084059 -0.151151 -0.096057
# 2 0.055302 -0.064254 -0.052014 0.103722 0.206125 0.126100
# 3 0.033698 -0.052014 -0.010949 0.060757 0.126582 0.079786
# 4 -0.084059 0.103722 0.060757 -0.101549 -0.300501 -0.176353
# 5 -0.151151 0.206125 0.126582 -0.300501 -0.513230 -0.344656
# 6 -0.096057 0.126100 0.079786 -0.176353 -0.344656 -0.187584
#
#
# Mechanical properties :
#
#
# Convention : Reuss Voigt Hill
#
# Bulk Modulus (GPa) = -33.05600 41.76191 4.35296
# Shear Modulus (GPa) = -5.04723 24.45482 9.70379
#
# Velocity S-wave (km/s) = -1.58688 3.49300 2.20033
# Velocity P-wave (km/s) = 4.45533 6.09131 2.93718
#
# Compressibility (1/GPa) = -0.03025170
#
# Stress axis : x y z
#
# Youngs Moduli (GPa) = -34.45870 -15.56315 -91.33660
#
# Poissons Ratio (x) = 0.86067 3.07783
# Poissons Ratio (y) = 1.90563 -4.75076
# Poissons Ratio (z) = 1.16118 -0.80950
#
# Static dielectric constant tensor:
#      x y z
#    x 3.729840 0.037010 -0.294830 
#    y 0.037010 3.869150 -0.134540 
#    z -0.294830 -0.134540 3.846930 
# 
# 
# High freq. dielectric constant tensor:
#      x y z
#    x 1.777070 -0.009410 -0.007660 
#    y -0.009410 1.796660 -0.007490 
#    z -0.007660 -0.007490 1.772600 
# 
# From -- ./inp_files/307734.got.cif
#   From: 2010.06.25/outbox.cif.g09.slc.cpg/sg2_154_cif.got.tgz:307734.got - 2010.06.27 13:26:56.
