data_PCOD8002251
_publ_section_title
;
Structure prediction by ZEFSAII (Michael W. Deem and Ramdas Pophale) SiO2 
 PCOD8002251
Probable space group: P -1
;
_chemical_formula_sum "Si O2"
_cell_formula_units_Z 12
_cell_length_a 15.501372
_cell_length_b 8.348622
_cell_length_c 10.898534
_cell_angle_alpha 111.721691
_cell_angle_beta 143.743444
_cell_angle_gamma 91.169252
_cell_volume 631.060644
_symmetry_space_group_name_H-M "P -1"
_symmetry_group_IT_number 2
_symmetry_cell_setting 'triclinic'
loop_
_space_group_symop_operation_xyz
x,y,z
-x,-y,-z
loop_
_atom_site_type_symbol
_atom_site_label
_atom_site_fract_x
_atom_site_fract_y
_atom_site_fract_z
Si Si1 0.999444 0.216891 0.365046
Si Si2 0.199929 0.601346 0.859076
Si Si3 0.374752 0.189362 0.186034
Si Si4 0.348821 0.281814 0.696286
Si Si5 0.495675 0.639250 0.360690
Si Si6 0.512504 0.055926 0.888239
O O1 0.083062 0.351593 0.624688
O O2 0.149070 0.210536 0.466263
O O3 0.928647 0.327959 0.230727
O O4 0.830911 0.981527 0.137330
O O5 0.334530 0.654788 0.139239
O O6 0.304332 0.725879 0.887178
O O7 0.419567 0.406422 0.250403
O O8 0.397153 0.194081 0.360095
O O9 0.506824 0.135813 0.263992
O O10 0.373711 0.307861 0.586912
O O11 0.355242 0.086590 0.691600
O O12 0.500000 0.500000 0.000000
O O13 0.500000 0.000000 0.000000
#
# Coordination Sequence:
#
# PCOD8002251 Si02
#       6
#     2   2   2   2   2   2
#     4  10  20  37  56  91 110 146 196 233 280 334
#     4   9  20  37  59  84 115 151 186 234 286 333
#     4  10  23  38  58  88 115 150 193 230 285 338
#     4  11  20  37  60  84 115 152 187 234 286 333
#     4  10  21  41  60  80 119 156 184 233 286 341
#     4  10  20  35  58  87 111 150 190 233 280 341
#
# _framework density 19.015605000000001
#
# number of rings (size 3 to 8) (size 9 to 14) (size 15 to 20)
#    0.000    2.000    3.333    1.000    0.000    7.333 
#    6.000    0.000    0.000    4.000    0.000    0.000 
#    0.000    0.000    0.000    0.000    0.000    0.000 
#
# Total GULP energy -148720.996926 kJ/mol
# GULP energy per Si atom -12393.416411 kJ/mol
# Density = 1.897232 g / cm^3
# Si number density = 19.015605 Si / 1000 Ang^3
#
#
#
# Elastic Constant Matrix: (Units=GPa)
#
#
# Indices 1 2 3 4 5 6 
#
# 1 123.1751 56.5220 43.4794 -19.1720 -4.6088 -17.4714
# 2 56.5220 73.9403 36.9046 -12.5109 4.2068 0.8725
# 3 43.4794 36.9046 70.3430 -2.3696 3.8585 4.1996
# 4 -19.1720 -12.5109 -2.3696 31.2567 -8.4768 2.0775
# 5 -4.6088 4.2068 3.8585 -8.4768 34.1950 -16.5203
# 6 -17.4714 0.8725 4.1996 2.0775 -16.5203 36.2035
#
#
#
# Elastic Compliance Matrix: (Units=1/GPa)
#
#
# Indices 1 2 3 4 5 6 
#
# 1 0.021697 -0.011245 -0.009220 0.011571 0.017449 0.019110
# 2 -0.011245 0.025648 -0.005462 0.001351 -0.008173 -0.009218
# 3 -0.009220 -0.005462 0.023791 -0.008220 -0.010884 -0.011573
# 4 0.011571 0.001351 -0.008220 0.043380 0.019261 0.012805
# 5 0.017449 -0.008173 -0.010884 0.019261 0.054960 0.033854
# 6 0.019110 -0.009218 -0.011573 0.012805 0.033854 0.053122
#
#
# Mechanical properties :
#
#
# Convention : Reuss Voigt Hill
#
# Bulk Modulus (GPa) = 51.85488 60.14115 55.99801
# Shear Modulus (GPa) = 17.80121 29.03453 23.41787
#
# Velocity S-wave (km/s) = 3.06295 3.91177 3.51309
# Velocity P-wave (km/s) = 6.31172 7.21793 6.77998
#
# Compressibility (1/GPa) = 0.01928459
#
# Stress axis : x y z
#
# Youngs Moduli (GPa) = 46.08856 38.98875 42.03182
#
# Poissons Ratio (x) = 0.43841 0.38754
# Poissons Ratio (y) = 0.51825 0.22956
# Poissons Ratio (z) = 0.42494 0.21294
#
# Static dielectric constant tensor:
#      x y z
#    x 3.574400 -0.285600 -0.043530 
#    y -0.285600 3.713160 -0.047580 
#    z -0.043530 -0.047580 3.491030 
# 
# 
# High freq. dielectric constant tensor:
#      x y z
#    x 1.730710 -0.020250 0.001480 
#    y -0.020250 1.753430 -0.001880 
#    z 0.001480 -0.001880 1.723230 
# 
# From -- ./inp_files/158531.got.cif
#   From: 2010.06.25/outbox.cif.g09.slc.cpg/sg2_80_cif.got.tgz:158531.got - 2010.06.27 13:26:56.
