data_PCOD8002665
_publ_section_title
;
Structure prediction by ZEFSAII (Michael W. Deem and Ramdas Pophale) SiO2 
 PCOD8002665
Probable space group: P -1
;
_chemical_formula_sum "Si O2"
_cell_formula_units_Z 14
_cell_length_a 16.859242
_cell_length_b 19.230142
_cell_length_c 8.475878
_cell_angle_alpha 44.124289
_cell_angle_beta 123.645639
_cell_angle_gamma 157.804746
_cell_volume 655.728886
_symmetry_space_group_name_H-M "P -1"
_symmetry_group_IT_number 2
_symmetry_cell_setting 'triclinic'
loop_
_space_group_symop_operation_xyz
x,y,z
-x,-y,-z
loop_
_atom_site_type_symbol
_atom_site_label
_atom_site_fract_x
_atom_site_fract_y
_atom_site_fract_z
Si Si1 0.272377 0.585095 0.684906
Si Si2 0.136356 0.162667 0.041108
Si Si3 0.777035 0.318018 0.244544
Si Si4 0.241657 0.735586 0.195984
Si Si5 0.649987 0.030958 0.785984
Si Si6 0.573380 0.717506 0.643446
Si Si7 0.857465 0.045559 0.115841
O O1 0.324102 0.706351 0.689943
O O2 0.196337 0.579060 0.458498
O O3 0.502532 0.744950 0.626191
O O4 0.082989 0.324090 0.955285
O O5 0.343236 0.438725 0.785511
O O6 0.249205 0.176549 0.229427
O O7 0.937481 0.019299 0.166878
O O8 0.000000 0.000000 0.000000
O O9 0.715031 0.144560 0.506009
O O10 0.056327 0.589823 0.092096
O O11 0.629642 0.213098 0.099209
O O12 0.194843 0.768294 0.234438
O O13 0.500000 0.000000 0.000000
O O14 0.700933 0.961485 0.957941
O O15 0.706350 0.880567 0.370572
#
# Coordination Sequence:
#
# PCOD8002665 Si02
#       7
#     2   2   2   2   2   2   2
#     4  10  20  37  61  85 125 161 201 248 300 359
#     4  10  24  44  64  90 121 154 198 255 311 372
#     4  10  20  36  57  85 123 169 197 246 295 346
#     4  11  20  36  58  85 125 166 205 246 298 356
#     4  10  20  36  57  86 120 163 204 241 298 349
#     4  10  23  42  63  92 118 158 200 249 313 367
#     4  11  20  40  66  89 124 158 202 256 302 365
#
# _framework density 21.350287999999999
#
# number of rings (size 3 to 8) (size 9 to 14) (size 15 to 20)
#    0.000    1.714    2.857    2.143    2.000    1.143 
#    2.571    0.000    0.000    0.000    0.000    0.000 
#    0.000    0.000    0.000    0.000    0.000    0.000 
#
# Total GULP energy -173487.607483 kJ/mol
# GULP energy per Si atom -12391.971963 kJ/mol
# Density = 2.130169 g / cm^3
# Si number density = 21.350288 Si / 1000 Ang^3
#
#
#
# Elastic Constant Matrix: (Units=GPa)
#
#
# Indices 1 2 3 4 5 6 
#
# 1 93.4891 28.7773 42.0773 -1.9036 10.7350 33.8740
# 2 28.7773 146.5761 27.8346 0.5735 8.9347 22.7601
# 3 42.0773 27.8346 92.7379 -8.3677 -6.3715 15.8013
# 4 -1.9036 0.5735 -8.3677 30.4595 13.3908 3.8686
# 5 10.7350 8.9347 -6.3715 13.3908 23.6074 -1.7748
# 6 33.8740 22.7601 15.8013 3.8686 -1.7748 41.0782
#
#
#
# Elastic Compliance Matrix: (Units=1/GPa)
#
#
# Indices 1 2 3 4 5 6 
#
# 1 0.023428 0.001084 -0.008240 0.010667 -0.020740 -0.018651
# 2 0.001084 0.008185 -0.002268 0.002596 -0.006056 -0.005063
# 3 -0.008240 -0.002268 0.015334 -0.000697 0.009336 0.002622
# 4 0.010667 0.002596 -0.000697 0.051322 -0.036363 -0.016371
# 5 -0.020740 -0.006056 0.009336 -0.036363 0.079011 0.023705
# 6 -0.018651 -0.005063 0.002622 -0.016371 0.023705 0.044086
#
#
# Mechanical properties :
#
#
# Convention : Reuss Voigt Hill
#
# Bulk Modulus (GPa) = 35.58736 58.90905 47.24821
# Shear Modulus (GPa) = 20.03370 34.63661 27.33515
#
# Velocity S-wave (km/s) = 3.06655 4.03215 3.58203
# Velocity P-wave (km/s) = 5.40766 7.02348 6.26786
#
# Compressibility (1/GPa) = 0.02809987
#
# Stress axis : x y z
#
# Youngs Moduli (GPa) = 42.68459 122.16923 65.21443
#
# Poissons Ratio (x) = -0.13238 0.53734
# Poissons Ratio (y) = -0.04625 0.14788
# Poissons Ratio (z) = 0.35170 0.27704
#
# Static dielectric constant tensor:
#      x y z
#    x 4.065070 0.248080 0.190830 
#    y 0.248080 4.186150 0.033470 
#    z 0.190830 0.033470 3.720290 
# 
# 
# High freq. dielectric constant tensor:
#      x y z
#    x 1.833630 0.025370 0.007970 
#    y 0.025370 1.852470 -0.007300 
#    z 0.007970 -0.007300 1.819950 
# 
# From -- ./inp_files/337481.got.cif
#   From: 2010.06.25/outbox.cif.g09.slc.cpg/sg2_169_cif.got.tgz:337481.got - 2010.06.27 13:26:56.
