data_PCOD8002813
_publ_section_title
;
Structure prediction by ZEFSAII (Michael W. Deem and Ramdas Pophale) SiO2 
 PCOD8002813
Probable space group: P -1
;
_chemical_formula_sum "Si O2"
_cell_formula_units_Z 10
_cell_length_a 17.001359
_cell_length_b 11.543209
_cell_length_c 14.692264
_cell_angle_alpha 138.775968
_cell_angle_beta 20.525302
_cell_angle_gamma 147.909818
_cell_volume 523.717219
_symmetry_space_group_name_H-M "P -1"
_symmetry_group_IT_number 2
_symmetry_cell_setting 'triclinic'
loop_
_space_group_symop_operation_xyz
x,y,z
-x,-y,-z
loop_
_atom_site_type_symbol
_atom_site_label
_atom_site_fract_x
_atom_site_fract_y
_atom_site_fract_z
Si Si1 0.189377 0.223175 0.369574
Si Si2 0.487057 0.784730 0.149786
Si Si3 0.768865 0.642568 0.027329
Si Si4 0.004673 0.595316 0.437448
Si Si5 0.270899 0.999277 0.804265
O O1 0.458730 0.410945 0.250909
O O2 0.002167 0.301601 0.589186
O O3 0.282554 0.185930 0.150374
O O4 0.000000 0.000000 0.500000
O O5 0.262453 0.792703 0.338428
O O6 0.657794 0.985639 0.157003
O O7 0.299704 0.543976 0.262897
O O8 0.716035 0.790332 0.112435
O O9 0.941360 0.584992 0.746738
O O10 0.950985 0.772823 0.997774
O O11 0.500000 0.000000 0.500000
#
# Coordination Sequence:
#
# PCOD8002813 Si02
#       5
#     2   2   2   2   2
#     4  11  23  39  57  82 119 153 187 229 279 339
#     4  10  21  33  60  87 110 147 188 237 280 327
#     4  10  21  34  59  87 115 147 186 230 289 329
#     4  10  20  36  59  86 114 141 195 239 276 324
#     4  11  20  35  57  90 117 141 183 241 286 327
#
# _framework density 19.094273999999999
#
# number of rings (size 3 to 8) (size 9 to 14) (size 15 to 20)
#    0.000    1.600    4.000    0.600    5.600    3.200 
#    0.000    1.000    0.000    6.000    0.000    0.000 
#    0.000    0.000    0.000    0.000    0.000    0.000 
#
# Total GULP energy -123926.841886 kJ/mol
# GULP energy per Si atom -12392.684189 kJ/mol
# Density = 1.905081 g / cm^3
# Si number density = 19.094274 Si / 1000 Ang^3
#
#
#
# Elastic Constant Matrix: (Units=GPa)
#
#
# Indices 1 2 3 4 5 6 
#
# 1 123.2148 71.7810 47.9247 -12.0538 -16.7429 25.4162
# 2 71.7810 111.8511 61.3451 -15.4492 -3.9015 10.6488
# 3 47.9247 61.3451 86.6040 2.0522 -5.9443 -4.5212
# 4 -12.0538 -15.4492 2.0522 37.2004 3.7486 -8.2364
# 5 -16.7429 -3.9015 -5.9443 3.7486 25.2132 -8.0421
# 6 25.4162 10.6488 -4.5212 -8.2364 -8.0421 51.8465
#
#
#
# Elastic Compliance Matrix: (Units=1/GPa)
#
#
# Indices 1 2 3 4 5 6 
#
# 1 0.015884 -0.007663 -0.003178 0.000256 0.006857 -0.005386
# 2 -0.007663 0.020915 -0.011222 0.007134 -0.005977 -0.001311
# 3 -0.003178 -0.011222 0.021954 -0.006100 0.003966 0.005424
# 4 0.000256 0.007134 -0.006100 0.031162 -0.004098 0.002192
# 5 0.006857 -0.005977 0.003966 -0.004098 0.046350 0.004750
# 6 -0.005386 -0.001311 0.005424 0.002192 0.004750 0.023755
#
#
# Mechanical properties :
#
#
# Convention : Reuss Voigt Hill
#
# Bulk Modulus (GPa) = 68.36926 75.97460 72.17193
# Shear Modulus (GPa) = 23.92085 32.22663 28.07374
#
# Velocity S-wave (km/s) = 3.54330 4.11270 3.83857
# Velocity P-wave (km/s) = 7.25423 7.90114 7.58458
#
# Compressibility (1/GPa) = 0.01462646
#
# Stress axis : x y z
#
# Youngs Moduli (GPa) = 62.95533 47.81316 45.54897
#
# Poissons Ratio (x) = 0.36641 0.14477
# Poissons Ratio (y) = 0.48244 0.51114
# Poissons Ratio (z) = 0.20010 0.53655
#
# Static dielectric constant tensor:
#      x y z
#    x 3.718190 0.335330 -0.440650 
#    y 0.335330 3.412150 0.048120 
#    z -0.440650 0.048120 3.467880 
# 
# 
# High freq. dielectric constant tensor:
#      x y z
#    x 1.742530 0.027160 -0.037020 
#    y 0.027160 1.716540 0.011850 
#    z -0.037020 0.011850 1.736850 
# 
# From -- ./inp_files/15752.got.cif
#   From: 2010.06.25/outbox.cif.g09.slc.cpg/sg2_8_cif.got.tgz:15752.got - 2010.06.27 13:26:56.
