data_PCOD8002348
_publ_section_title
;
Structure prediction by ZEFSAII (Michael W. Deem and Ramdas Pophale) SiO2 
 PCOD8002348
Probable space group: P -1
;
_chemical_formula_sum "Si O2"
_cell_formula_units_Z 14
_cell_length_a 14.452274
_cell_length_b 9.776379
_cell_length_c 15.698570
_cell_angle_alpha 32.977722
_cell_angle_beta 28.181614
_cell_angle_gamma 50.151143
_cell_volume 526.501512
_symmetry_space_group_name_H-M "P -1"
_symmetry_group_IT_number 2
_symmetry_cell_setting 'triclinic'
loop_
_space_group_symop_operation_xyz
x,y,z
-x,-y,-z
loop_
_atom_site_type_symbol
_atom_site_label
_atom_site_fract_x
_atom_site_fract_y
_atom_site_fract_z
Si Si1 0.684096 0.363128 0.904390
Si Si2 0.350730 0.239506 0.104116
Si Si3 0.424379 0.155693 0.640163
Si Si4 0.269401 0.385345 0.497128
Si Si5 0.998414 0.155433 0.673093
Si Si6 0.189876 0.407246 0.829601
Si Si7 0.950386 0.371154 0.325151
O O1 0.865089 0.671144 0.609413
O O2 0.792266 0.232194 0.813013
O O3 0.467197 0.365210 0.034819
O O4 0.627649 0.166020 0.135323
O O5 0.174903 0.361356 0.167475
O O6 0.249850 0.915930 0.359189
O O7 0.526945 0.341667 0.833385
O O8 0.350121 0.184622 0.590456
O O9 0.313246 0.275946 0.737323
O O10 0.672406 0.334901 0.359710
O O11 0.151726 0.224228 0.594550
O O12 0.094398 0.446603 0.661290
O O13 0.934676 0.834097 0.875812
O O14 0.036978 0.498028 0.846901
#
# Coordination Sequence:
#
# PCOD8002348 Si02
#       7
#     2   2   2   2   2   2   2
#     4   9  17  34  56  79 114 158 182 232 285 348
#     4  10  20  37  58  85 114 151 191 240 282 335
#     4   9  17  31  58  80 113 147 195 230 285 327
#     4  10  21  36  58  89 111 150 194 240 273 348
#     4   9  19  33  57  84 119 146 192 229 293 336
#     4   9  17  32  55  85 110 154 185 234 282 347
#     4  10  20  35  60  83 116 150 192 236 287 332
#
# _framework density 26.590617999999999
#
# number of rings (size 3 to 8) (size 9 to 14) (size 15 to 20)
#    0.000    2.571    1.429    0.429    2.000    5.143 
#    2.571    4.286    0.000    0.000    0.000    0.000 
#    0.000    0.000    0.000    0.000    0.000    0.000 
#
# Total GULP energy -173575.132105 kJ/mol
# GULP energy per Si atom -12398.223722 kJ/mol
# Density = 2.653010 g / cm^3
# Si number density = 26.590618 Si / 1000 Ang^3
#
#
#
# Elastic Constant Matrix: (Units=GPa)
#
#
# Indices 1 2 3 4 5 6 
#
# 1 89.7688 20.5131 30.5258 -15.8592 -6.3588 -37.7809
# 2 20.5131 40.1577 28.8327 -1.1082 7.5018 -23.3265
# 3 30.5258 28.8327 167.8875 -34.0857 13.3447 -27.8363
# 4 -15.8592 -1.1082 -34.0857 40.7990 -17.1990 3.2951
# 5 -6.3588 7.5018 13.3447 -17.1990 33.1494 -11.5497
# 6 -37.7809 -23.3265 -27.8363 3.2951 -11.5497 43.3595
#
#
#
# Elastic Compliance Matrix: (Units=1/GPa)
#
#
# Indices 1 2 3 4 5 6 
#
# 1 0.031746 -0.003812 0.003140 0.024952 0.030422 0.033834
# 2 -0.003812 0.039367 -0.005081 -0.008938 -0.007618 0.013245
# 3 0.003140 -0.005081 0.009025 0.010577 0.005893 0.006563
# 4 0.024952 -0.008938 0.010577 0.058780 0.043824 0.030930
# 5 0.030422 -0.007618 0.005893 0.043824 0.072815 0.042259
# 6 0.033834 0.013245 0.006563 0.030930 0.042259 0.072789
#
#
# Mechanical properties :
#
#
# Convention : Reuss Voigt Hill
#
# Bulk Modulus (GPa) = 14.57037 50.83969 32.70503
# Shear Modulus (GPa) = 15.67867 37.99109 26.83488
#
# Velocity S-wave (km/s) = 2.43087 3.78397 3.18022
# Velocity P-wave (km/s) = 3.65653 6.18483 5.08047
#
# Compressibility (1/GPa) = 0.06863245
#
# Stress axis : x y z
#
# Youngs Moduli (GPa) = 31.50016 25.40171 110.80239
#
# Poissons Ratio (x) = 0.09684 -0.34793
# Poissons Ratio (y) = 0.12009 0.56297
# Poissons Ratio (z) = -0.09891 0.12906
#
# Static dielectric constant tensor:
#      x y z
#    x 4.744410 -0.415230 0.203910 
#    y -0.415230 4.607850 -0.113840 
#    z 0.203910 -0.113840 5.494460 
# 
# 
# High freq. dielectric constant tensor:
#      x y z
#    x 2.062540 -0.026420 0.004410 
#    y -0.026420 2.060170 0.000220 
#    z 0.004410 0.000220 2.084770 
# 
# From -- ./inp_files/266906.got.cif
#   From: 2010.06.25/outbox.cif.g09.slc.cpg/sg2_134_cif.got.tgz:266906.got - 2010.06.27 13:26:56.
