data_PCOD8002854
_publ_section_title
;
Structure prediction by ZEFSAII (Michael W. Deem and Ramdas Pophale) SiO2 
 PCOD8002854
Probable space group: P -1
;
_chemical_formula_sum "Si O2"
_cell_formula_units_Z 16
_cell_length_a 12.808578
_cell_length_b 9.221723
_cell_length_c 12.075101
_cell_angle_alpha 62.411076
_cell_angle_beta 91.455800
_cell_angle_gamma 46.472513
_cell_volume 773.815638
_symmetry_space_group_name_H-M "P -1"
_symmetry_group_IT_number 2
_symmetry_cell_setting 'triclinic'
loop_
_space_group_symop_operation_xyz
x,y,z
-x,-y,-z
loop_
_atom_site_type_symbol
_atom_site_label
_atom_site_fract_x
_atom_site_fract_y
_atom_site_fract_z
Si Si1 0.058083 0.171167 0.866106
Si Si2 0.658812 0.540284 0.269819
Si Si3 0.953624 0.962835 0.848594
Si Si4 0.820736 0.730304 0.729628
Si Si5 0.314708 0.761657 0.450131
Si Si6 0.444801 0.735529 0.974358
Si Si7 0.429249 0.087262 0.164269
Si Si8 0.144507 0.517078 0.866153
O O1 0.977065 0.124225 0.812555
O O2 0.917252 0.490564 0.730840
O O3 0.240900 0.997378 0.887153
O O4 0.088585 0.084506 0.025111
O O5 0.724864 0.302966 0.423205
O O6 0.826720 0.430452 0.270008
O O7 0.564997 0.773490 0.273487
O O8 0.538858 0.633709 0.131511
O O9 0.807791 0.119251 0.698327
O O10 0.130425 0.675681 0.903962
O O11 0.692884 0.778879 0.780575
O O12 0.980125 0.607846 0.844579
O O13 0.712976 0.019325 0.579206
O O14 0.500000 0.500000 0.500000
O O15 0.488228 0.834915 0.860589
O O16 0.500000 0.500000 0.000000
O O17 0.315055 0.203724 0.008565
#
# Coordination Sequence:
#
# PCOD8002854 Si02
#       8
#     2   2   2   2   2   2   2   2
#     4  11  21  40  60  92 119 160 198 254 307 344
#     4  11  22  39  64  88 126 160 199 249 304 356
#     4  10  23  36  64  85 123 155 204 248 300 363
#     4  11  22  35  64  87 124 158 203 252 296 357
#     4  11  23  41  60  92 122 164 202 246 299 365
#     4  11  24  39  65  94 124 153 201 255 307 354
#     4  11  20  37  59  93 118 160 201 254 297 349
#     4  10  20  36  59  92 115 155 203 257 294 350
#
# _framework density 20.676760000000002
#
# number of rings (size 3 to 8) (size 9 to 14) (size 15 to 20)
#    0.000    1.250    2.500    5.625    5.250    2.000 
#    0.000    1.875    0.000    3.000    0.000    0.000 
#    0.000    0.000    0.000    0.000    0.000    0.000 
#
# Total GULP energy -198267.002630 kJ/mol
# GULP energy per Si atom -12391.687664 kJ/mol
# Density = 2.062970 g / cm^3
# Si number density = 20.676760 Si / 1000 Ang^3
#
#
#
# Elastic Constant Matrix: (Units=GPa)
#
#
# Indices 1 2 3 4 5 6 
#
# 1 116.0214 59.1574 30.7302 -13.5988 -21.5316 -6.7527
# 2 59.1574 117.2032 9.0170 -19.0020 -7.1856 4.9142
# 3 30.7302 9.0170 56.0854 -10.1007 -13.7383 5.6933
# 4 -13.5988 -19.0020 -10.1007 29.1952 4.2466 -7.8100
# 5 -21.5316 -7.1856 -13.7383 4.2466 30.8176 -0.0266
# 6 -6.7527 4.9142 5.6933 -7.8100 -0.0266 44.1482
#
#
#
# Elastic Compliance Matrix: (Units=1/GPa)
#
#
# Indices 1 2 3 4 5 6 
#
# 1 0.015174 -0.006872 -0.005958 0.000689 0.006252 0.003980
# 2 -0.006872 0.012711 0.002567 0.005697 -0.001480 -0.001790
# 3 -0.005958 0.002567 0.023472 0.005237 0.006175 -0.003294
# 4 0.000689 0.005697 0.005237 0.041996 -0.001637 0.006224
# 5 0.006252 -0.001480 0.006175 -0.001637 0.039450 0.000059
# 6 0.003980 -0.001790 -0.003294 0.006224 0.000059 0.024985
#
#
# Mechanical properties :
#
#
# Convention : Reuss Voigt Hill
#
# Bulk Modulus (GPa) = 32.43497 54.12434 43.27966
# Shear Modulus (GPa) = 26.51239 33.52590 30.01915
#
# Velocity S-wave (km/s) = 3.58471 4.03107 3.81442
# Velocity P-wave (km/s) = 5.73186 6.92093 6.35427
#
# Compressibility (1/GPa) = 0.03083092
#
# Stress axis : x y z
#
# Youngs Moduli (GPa) = 65.90290 78.66940 42.60456
#
# Poissons Ratio (x) = 0.54065 0.25382
# Poissons Ratio (y) = 0.45291 -0.10937
# Poissons Ratio (z) = 0.39263 -0.20195
#
# Static dielectric constant tensor:
#      x y z
#    x 3.892050 0.064170 -0.290500 
#    y 0.064170 4.453810 -0.531600 
#    z -0.290500 -0.531600 3.657060 
# 
# 
# High freq. dielectric constant tensor:
#      x y z
#    x 1.820550 -0.009020 -0.020800 
#    y -0.009020 1.826930 -0.025890 
#    z -0.020800 -0.025890 1.772300 
# 
# From -- ./inp_files/263385.got.cif
#   From: 2010.06.25/outbox.cif.g09.slc.cpg/sg2_132_cif.got.tgz:263385.got - 2010.06.27 13:26:56.
