data_PCOD8002308
_publ_section_title
;
Structure prediction by ZEFSAII (Michael W. Deem and Ramdas Pophale) SiO2 
 PCOD8002308
Probable space group: P -1
;
_chemical_formula_sum "Si O2"
_cell_formula_units_Z 16
_cell_length_a 12.010200
_cell_length_b 11.071454
_cell_length_c 10.442521
_cell_angle_alpha 62.092280
_cell_angle_beta 55.408490
_cell_angle_gamma 106.776509
_cell_volume 654.113114
_symmetry_space_group_name_H-M "P -1"
_symmetry_group_IT_number 2
_symmetry_cell_setting 'triclinic'
loop_
_space_group_symop_operation_xyz
x,y,z
-x,-y,-z
loop_
_atom_site_type_symbol
_atom_site_label
_atom_site_fract_x
_atom_site_fract_y
_atom_site_fract_z
Si Si1 0.670073 0.783455 0.635679
Si Si2 0.402855 0.008034 0.942862
Si Si3 0.315837 0.250371 0.877941
Si Si4 0.514257 0.077431 0.314021
Si Si5 0.743330 0.714010 0.367225
Si Si6 0.920834 0.584471 0.419331
Si Si7 0.098736 0.472866 0.261260
Si Si8 0.212625 0.295076 0.173856
O O1 0.659483 0.938491 0.576651
O O2 0.794480 0.843144 0.394333
O O3 0.808346 0.836553 0.637867
O O4 0.442853 0.538606 0.907659
O O5 0.422865 0.185963 0.867468
O O6 0.520203 0.060769 0.706992
O O7 0.500000 0.000000 0.000000
O O8 0.161456 0.785751 0.200089
O O9 0.494673 0.502181 0.627326
O O10 0.186527 0.152652 0.875619
O O11 0.165540 0.183877 0.124776
O O12 0.500000 0.000000 0.500000
O O13 0.741019 0.319390 0.032501
O O14 0.852902 0.651417 0.336185
O O15 0.898621 0.419920 0.442157
O O16 0.799577 0.488558 0.683319
O O17 0.046568 0.290438 0.312731
#
# Coordination Sequence:
#
# PCOD8002308 Si02
#       8
#     2   2   2   2   2   2   2   2
#     4   9  16  29  57  82 107 152 199 232 272 350
#     4  11  24  39  61  90 120 155 197 248 299 346
#     4  10  22  35  56  89 124 149 192 247 292 347
#     4  10  20  35  59  87 118 153 196 240 292 351
#     4  10  20  37  61  86 114 159 197 237 293 349
#     4  10  21  37  64  88 113 159 201 242 290 352
#     4   9  19  35  62  86 110 152 205 240 278 355
#     4   9  16  31  55  84 110 146 195 240 282 332
#
# _framework density 24.460601
#
# number of rings (size 3 to 8) (size 9 to 14) (size 15 to 20)
#    0.000    2.250    1.250    1.500    7.000    1.500 
#    0.000    1.250    5.500    0.000    0.000    0.000 
#    0.000    0.000    0.000    0.000    0.000    0.000 
#
# Total GULP energy -198329.116120 kJ/mol
# GULP energy per Si atom -12395.569757 kJ/mol
# Density = 2.440493 g / cm^3
# Si number density = 24.460601 Si / 1000 Ang^3
#
#
#
# Elastic Constant Matrix: (Units=GPa)
#
#
# Indices 1 2 3 4 5 6 
#
# 1 125.0926 55.4082 45.9748 36.7331 36.3203 -23.1467
# 2 55.4082 141.2983 52.7267 59.0985 15.2253 -33.9641
# 3 45.9748 52.7267 116.8253 41.0024 38.5942 -5.9415
# 4 36.7331 59.0985 41.0024 50.9056 6.3984 -6.9455
# 5 36.3203 15.2253 38.5942 6.3984 37.1825 3.7923
# 6 -23.1467 -33.9641 -5.9415 -6.9455 3.7923 58.3468
#
#
#
# Elastic Compliance Matrix: (Units=1/GPa)
#
#
# Indices 1 2 3 4 5 6 
#
# 1 0.017335 0.001711 0.004931 -0.014733 -0.021031 0.007988
# 2 0.001711 0.017429 0.001875 -0.020721 -0.008114 0.009076
# 3 0.004931 0.001875 0.020496 -0.018601 -0.024116 0.004488
# 4 -0.014733 -0.020721 -0.018601 0.063229 0.032772 -0.014404
# 5 -0.021031 -0.008114 -0.024116 0.032772 0.071814 -0.016289
# 6 0.007988 0.009076 0.004488 -0.014404 -0.016289 0.025392
#
#
# Mechanical properties :
#
#
# Convention : Reuss Voigt Hill
#
# Bulk Modulus (GPa) = 13.83238 76.82618 45.32928
# Shear Modulus (GPa) = 22.44570 44.56074 33.50322
#
# Velocity S-wave (km/s) = 3.03252 4.27281 3.70494
# Velocity P-wave (km/s) = 4.23424 7.47120 6.07238
#
# Compressibility (1/GPa) = 0.07229414
#
# Stress axis : x y z
#
# Youngs Moduli (GPa) = 57.68758 57.37500 48.78888
#
# Poissons Ratio (x) = -0.09816 -0.24058
# Poissons Ratio (y) = -0.09869 -0.09148
# Poissons Ratio (z) = -0.28446 -0.10758
#
# Static dielectric constant tensor:
#      x y z
#    x 4.288990 -0.361520 0.092350 
#    y -0.361520 4.725650 0.363240 
#    z 0.092350 0.363240 4.459050 
# 
# 
# High freq. dielectric constant tensor:
#      x y z
#    x 1.959810 -0.019110 0.006530 
#    y -0.019110 1.972120 0.013310 
#    z 0.006530 0.013310 1.975770 
# 
# From -- ./inp_files/256825.got.cif
#   From: 2010.06.25/outbox.cif.g09.slc.cpg/sg2_129_cif.got.tgz:256825.got - 2010.06.27 13:26:56.
