data_PCOD8002075
_publ_section_title
;
Structure prediction by ZEFSAII (Michael W. Deem and Ramdas Pophale) SiO2 
 PCOD8002075
Probable space group: P -1
;
_chemical_formula_sum "Si O2"
_cell_formula_units_Z 16
_cell_length_a 10.954681
_cell_length_b 11.855229
_cell_length_c 16.601361
_cell_angle_alpha 126.286268
_cell_angle_beta 144.875019
_cell_angle_gamma 77.950001
_cell_volume 804.727143
_symmetry_space_group_name_H-M "P -1"
_symmetry_group_IT_number 2
_symmetry_cell_setting 'triclinic'
loop_
_space_group_symop_operation_xyz
x,y,z
-x,-y,-z
loop_
_atom_site_type_symbol
_atom_site_label
_atom_site_fract_x
_atom_site_fract_y
_atom_site_fract_z
Si Si1 0.307809 0.176402 0.328317
Si Si2 0.133746 0.363312 0.964644
Si Si3 0.160851 0.847022 0.018872
Si Si4 0.860541 0.849582 0.463896
Si Si5 0.828409 0.502073 0.793966
Si Si6 0.588084 0.857038 0.160790
Si Si7 0.725659 0.974212 0.591267
Si Si8 0.438455 0.517874 0.883947
O O1 0.586152 0.366834 0.546886
O O2 0.307043 0.019712 0.225175
O O3 0.257809 0.138888 0.380069
O O4 0.088029 0.185862 0.174031
O O5 0.264195 0.439818 0.155385
O O6 0.332202 0.445829 0.033894
O O7 0.918493 0.394269 0.838518
O O8 0.002487 0.160412 0.813017
O O9 0.377867 0.889718 0.088321
O O10 0.059721 0.674203 0.943218
O O11 0.738890 0.848668 0.313468
O O12 0.817334 0.663654 0.365410
O O13 0.691699 0.872981 0.447718
O O14 0.176053 0.989385 0.702177
O O15 0.420901 0.679422 0.942364
O O16 0.500000 0.000000 0.500000
O O17 0.500000 0.500000 0.000000
#
# Coordination Sequence:
#
# PCOD8002075 Si02
#       8
#     2   2   2   2   2   2   2   2
#     4  11  24  40  61  88 120 161 199 244 300 360
#     4  11  22  35  62  96 120 150 196 249 311 347
#     4  11  24  41  60  86 122 163 203 238 297 362
#     4  10  21  35  60  87 118 153 195 248 302 344
#     4  11  22  38  61  91 123 152 194 253 302 352
#     4  10  21  37  56  85 119 154 197 244 292 358
#     4  12  21  38  63  91 122 153 195 255 305 351
#     4  10  20  35  54  85 120 152 190 238 294 356
#
# _framework density 19.882515999999999
#
# number of rings (size 3 to 8) (size 9 to 14) (size 15 to 20)
#    0.000    1.250    3.750    3.375    1.750    1.000 
#    0.000    0.625    0.000    1.500    0.000    0.000 
#    0.000    0.000    0.000    0.000    0.000    0.000 
#
# Total GULP energy -198280.946613 kJ/mol
# GULP energy per Si atom -12392.559163 kJ/mol
# Density = 1.983726 g / cm^3
# Si number density = 19.882516 Si / 1000 Ang^3
#
#
#
# Elastic Constant Matrix: (Units=GPa)
#
#
# Indices 1 2 3 4 5 6 
#
# 1 119.1169 17.7437 41.1861 18.9259 2.8920 -9.7227
# 2 17.7437 54.2979 35.4741 26.3733 -1.4431 -7.0642
# 3 41.1861 35.4741 111.0834 34.6718 -5.8878 -15.9736
# 4 18.9259 26.3733 34.6718 35.5054 -1.3214 -5.3355
# 5 2.8920 -1.4431 -5.8878 -1.3214 23.7357 3.4333
# 6 -9.7227 -7.0642 -15.9736 -5.3355 3.4333 29.2279
#
#
#
# Elastic Compliance Matrix: (Units=1/GPa)
#
#
# Indices 1 2 3 4 5 6 
#
# 1 0.009939 -0.000155 -0.002818 -0.002278 -0.002275 0.001580
# 2 -0.000155 0.029971 -0.003474 -0.018506 -0.000334 0.001955
# 3 -0.002818 -0.003474 0.014974 -0.009794 0.002679 0.004304
# 4 -0.002278 -0.018506 -0.009794 0.052535 -0.000212 -0.000968
# 5 -0.002275 -0.000334 0.002679 -0.000212 0.043698 -0.004545
# 6 0.001580 0.001955 0.004304 -0.000968 -0.004545 0.037921
#
#
# Mechanical properties :
#
#
# Convention : Reuss Voigt Hill
#
# Bulk Modulus (GPa) = 23.81525 52.58955 38.20240
# Shear Modulus (GPa) = 23.15570 30.36676 26.76123
#
# Velocity S-wave (km/s) = 3.41636 3.91232 3.67272
# Velocity P-wave (km/s) = 5.25034 6.84952 6.10254
#
# Compressibility (1/GPa) = 0.04198990
#
# Stress axis : x y z
#
# Youngs Moduli (GPa) = 100.61744 33.36509 66.78192
#
# Poissons Ratio (x) = 0.00518 0.18817
# Poissons Ratio (y) = 0.01564 0.23201
# Poissons Ratio (z) = 0.28350 0.11591
#
# Static dielectric constant tensor:
#      x y z
#    x 3.763610 -0.023580 -0.147120 
#    y -0.023580 3.086830 0.246100 
#    z -0.147120 0.246100 3.688830 
# 
# 
# High freq. dielectric constant tensor:
#      x y z
#    x 1.782640 0.001150 -0.006300 
#    y 0.001150 1.752930 0.043370 
#    z -0.006300 0.043370 1.773460 
# 
# From -- ./inp_files/313460.got.cif
#   From: 2010.06.25/outbox.cif.g09.slc.cpg/sg2_157_cif.got.tgz:313460.got - 2010.06.27 13:26:56.
