data_PCOD8002735
_publ_section_title
;
Structure prediction by ZEFSAII (Michael W. Deem and Ramdas Pophale) SiO2 
 PCOD8002735
Probable space group: P -1
;
_chemical_formula_sum "Si O2"
_cell_formula_units_Z 10
_cell_length_a 12.527578
_cell_length_b 10.364055
_cell_length_c 9.513522
_cell_angle_alpha 139.245821
_cell_angle_beta 43.501103
_cell_angle_gamma 145.286305
_cell_volume 441.340841
_symmetry_space_group_name_H-M "P -1"
_symmetry_group_IT_number 2
_symmetry_cell_setting 'triclinic'
loop_
_space_group_symop_operation_xyz
x,y,z
-x,-y,-z
loop_
_atom_site_type_symbol
_atom_site_label
_atom_site_fract_x
_atom_site_fract_y
_atom_site_fract_z
Si Si1 0.115435 0.953753 0.664189
Si Si2 0.970254 0.637482 0.295595
Si Si3 0.685125 0.150762 0.047983
Si Si4 0.567704 0.104194 0.674929
Si Si5 0.104736 0.369995 0.126896
O O1 0.311718 0.991613 0.459328
O O2 0.957988 0.797911 0.559251
O O3 0.050156 0.799416 0.743814
O O4 0.154965 0.214422 0.860589
O O5 0.764624 0.435800 0.245940
O O6 0.024184 0.470992 0.181647
O O7 0.135533 0.824367 0.177465
O O8 0.619823 0.999906 0.132704
O O9 0.500000 0.000000 0.000000
O O10 0.698661 0.402635 0.797386
O O11 0.500000 0.000000 0.500000
#
# Coordination Sequence:
#
# PCOD8002735 Si02
#       5
#     2   2   2   2   2
#     4  10  20  36  58  86 118 154 194 236 288 344
#     4  10  21  39  61  80 121 155 187 242 291 334
#     4  11  20  38  64  87 114 154 197 233 290 351
#     4  11  21  37  60  87 117 153 193 240 289 338
#     4  10  20  36  58  86 118 154 194 236 288 344
#
# _framework density 22.658225999999999
#
# number of rings (size 3 to 8) (size 9 to 14) (size 15 to 20)
#    0.000    1.600    4.000    4.800    0.000    0.800 
#    0.000   10.000    0.000    0.000    0.000    0.000 
#    0.000    0.000    0.000    0.000    0.000    0.000 
#
# Total GULP energy -123917.895437 kJ/mol
# GULP energy per Si atom -12391.789544 kJ/mol
# Density = 2.260665 g / cm^3
# Si number density = 22.658226 Si / 1000 Ang^3
#
#
#
# Elastic Constant Matrix: (Units=GPa)
#
#
# Indices 1 2 3 4 5 6 
#
# 1 47.1298 42.3220 37.8640 12.3728 25.1994 13.1874
# 2 42.3220 133.9297 60.7177 15.4252 9.7963 16.5692
# 3 37.8640 60.7177 143.9510 34.2873 24.4495 -0.2982
# 4 12.3728 15.4252 34.2873 61.0917 2.8866 19.1045
# 5 25.1994 9.7963 24.4495 2.8866 39.4627 9.9399
# 6 13.1874 16.5692 -0.2982 19.1045 9.9399 38.5986
#
#
#
# Elastic Compliance Matrix: (Units=1/GPa)
#
#
# Indices 1 2 3 4 5 6 
#
# 1 0.049830 -0.011606 -0.003142 -0.002937 -0.025775 -0.003975
# 2 -0.011606 0.012841 -0.004391 0.002761 0.008004 -0.005008
# 3 -0.003142 -0.004391 0.012515 -0.007621 -0.006223 0.008430
# 4 -0.002937 0.002761 -0.007621 0.024700 0.007747 -0.014461
# 5 -0.025775 0.008004 -0.006223 0.007747 0.045691 -0.010278
# 6 -0.003975 -0.005008 0.008430 -0.014461 -0.010278 0.039285
#
#
# Mechanical properties :
#
#
# Convention : Reuss Voigt Hill
#
# Bulk Modulus (GPa) = 27.09510 67.42419 47.25965
# Shear Modulus (GPa) = 21.23660 40.10439 30.67049
#
# Velocity S-wave (km/s) = 3.06479 4.21167 3.68314
# Velocity P-wave (km/s) = 4.95056 7.31249 6.24422
#
# Compressibility (1/GPa) = 0.03690705
#
# Stress axis : x y z
#
# Youngs Moduli (GPa) = 20.06834 77.87564 79.90421
#
# Poissons Ratio (x) = 0.90385 0.25109
# Poissons Ratio (y) = 0.23292 0.35084
# Poissons Ratio (z) = 0.06306 0.34193
#
# Static dielectric constant tensor:
#      x y z
#    x 3.803700 0.325440 0.539110 
#    y 0.325440 4.676420 -0.005400 
#    z 0.539110 -0.005400 4.457510 
# 
# 
# High freq. dielectric constant tensor:
#      x y z
#    x 1.852880 0.017460 0.050180 
#    y 0.017460 1.903610 0.002260 
#    z 0.050180 0.002260 1.906660 
# 
# From -- ./inp_files/76385.got.cif
#   From: 2010.06.25/outbox.cif.g09.slc.cpg/sg2_39_cif.got.tgz:76385.got - 2010.06.27 13:26:56.
