data_PCOD8002171
_publ_section_title
;
Structure prediction by ZEFSAII (Michael W. Deem and Ramdas Pophale) SiO2 
 PCOD8002171
Probable space group: P -1
;
_chemical_formula_sum "Si O2"
_cell_formula_units_Z 14
_cell_length_a 17.876718
_cell_length_b 11.101299
_cell_length_c 12.609422
_cell_angle_alpha 59.611249
_cell_angle_beta 145.376786
_cell_angle_gamma 143.011745
_cell_volume 766.910579
_symmetry_space_group_name_H-M "P -1"
_symmetry_group_IT_number 2
_symmetry_cell_setting 'triclinic'
loop_
_space_group_symop_operation_xyz
x,y,z
-x,-y,-z
loop_
_atom_site_type_symbol
_atom_site_label
_atom_site_fract_x
_atom_site_fract_y
_atom_site_fract_z
Si Si1 0.064759 0.732816 0.864302
Si Si2 0.554445 0.763835 0.913133
Si Si3 0.911948 0.567705 0.992778
Si Si4 0.640948 0.475315 0.411726
Si Si5 0.509442 0.668857 0.466918
Si Si6 0.033953 0.888887 0.158213
Si Si7 0.346237 0.425174 0.987152
O O1 0.051424 0.564141 0.882316
O O2 0.295220 0.982958 0.996970
O O3 0.021845 0.706565 0.950803
O O4 0.893088 0.684350 0.623528
O O5 0.424374 0.686313 0.687199
O O6 0.397890 0.608315 0.899551
O O7 0.692315 0.735796 0.068212
O O8 0.661430 0.390910 0.776705
O O9 0.026799 0.748320 0.137991
O O10 0.537412 0.339705 0.460771
O O11 0.548005 0.552227 0.240814
O O12 0.500000 0.500000 0.500000
O O13 0.743022 0.920357 0.605736
O O14 0.860079 0.724713 0.118006
O O15 0.000000 0.000000 0.000000
#
# Coordination Sequence:
#
# PCOD8002171 Si02
#       7
#     2   2   2   2   2   2   2
#     4  10  20  35  57  74 112 142 173 217 257 317
#     4   9  19  37  52  79 109 138 177 219 256 310
#     4  10  22  35  51  87 104 137 181 211 267 320
#     4   9  18  33  53  80 104 137 177 212 260 317
#     4  11  20  31  55  83 106 135 173 218 274 313
#     4  12  19  35  57  76 111 137 163 229 270 302
#     4   9  19  35  55  82 105 135 179 218 263 310
#
# _framework density 18.255061999999999
#
# number of rings (size 3 to 8) (size 9 to 14) (size 15 to 20)
#    0.857    1.143    2.857    1.714    2.000    1.714 
#    0.000    5.000    0.000    1.714    0.000    0.000 
#    0.000    0.000    0.000    0.000    0.000    0.000 
#
# Total GULP energy -173526.802114 kJ/mol
# GULP energy per Si atom -12394.771580 kJ/mol
# Density = 1.821351 g / cm^3
# Si number density = 18.255062 Si / 1000 Ang^3
#
#
#
# Elastic Constant Matrix: (Units=GPa)
#
#
# Indices 1 2 3 4 5 6 
#
# 1 86.6621 48.7062 29.4715 14.1675 0.9512 6.2714
# 2 48.7062 96.6742 39.2494 23.8021 -5.3560 12.2289
# 3 29.4715 39.2494 90.9473 19.1123 -0.1828 5.0229
# 4 14.1675 23.8021 19.1123 24.6963 -3.9303 -0.9320
# 5 0.9512 -5.3560 -0.1828 -3.9303 18.7319 4.2735
# 6 6.2714 12.2289 5.0229 -0.9320 4.2735 23.5822
#
#
#
# Elastic Compliance Matrix: (Units=1/GPa)
#
#
# Indices 1 2 3 4 5 6 
#
# 1 0.016639 -0.007527 -0.001891 -0.001352 -0.003400 0.000444
# 2 -0.007527 0.019747 -0.003099 -0.011768 0.005596 -0.009058
# 3 -0.001891 -0.003099 0.014584 -0.007573 -0.002025 -0.000929
# 4 -0.001352 -0.011768 -0.007573 0.059948 0.007120 0.009154
# 5 -0.003400 0.005596 -0.002025 0.007120 0.059380 -0.012045
# 6 0.000444 -0.009058 -0.000929 0.009154 -0.012045 0.049726
#
#
# Mechanical properties :
#
#
# Convention : Reuss Voigt Hill
#
# Bulk Modulus (GPa) = 38.55442 56.57087 47.56265
# Shear Modulus (GPa) = 19.70817 23.85919 21.78368
#
# Velocity S-wave (km/s) = 3.28929 3.61915 3.45816
# Velocity P-wave (km/s) = 5.96587 6.96569 6.48508
#
# Compressibility (1/GPa) = 0.02593736
#
# Stress axis : x y z
#
# Youngs Moduli (GPa) = 60.10138 50.63964 68.56876
#
# Poissons Ratio (x) = 0.38116 0.12964
# Poissons Ratio (y) = 0.45238 0.21247
# Poissons Ratio (z) = 0.11363 0.15692
#
# Static dielectric constant tensor:
#      x y z
#    x 3.320230 0.082290 -0.003130 
#    y 0.082290 3.108330 0.061900 
#    z -0.003130 0.061900 3.450790 
# 
# 
# High freq. dielectric constant tensor:
#      x y z
#    x 1.697250 0.005090 -0.002520 
#    y 0.005090 1.679730 0.014120 
#    z -0.002520 0.014120 1.702560 
# 
# From -- ./inp_files/430095.got.cif
#   From: 2010.06.25/outbox.cif.g09.slc.cpg/sg2_216_cif.got.tgz:430095.got - 2010.06.27 13:26:56.
