data_PCOD8002168
_publ_section_title
;
Structure prediction by ZEFSAII (Michael W. Deem and Ramdas Pophale) SiO2 
 PCOD8002168
Probable space group: P -1
;
_chemical_formula_sum "Si O2"
_cell_formula_units_Z 12
_cell_length_a 17.219217
_cell_length_b 18.155513
_cell_length_c 10.159928
_cell_angle_alpha 139.670041
_cell_angle_beta 40.710312
_cell_angle_gamma 164.076091
_cell_volume 558.390775
_symmetry_space_group_name_H-M "P -1"
_symmetry_group_IT_number 2
_symmetry_cell_setting 'triclinic'
loop_
_space_group_symop_operation_xyz
x,y,z
-x,-y,-z
loop_
_atom_site_type_symbol
_atom_site_label
_atom_site_fract_x
_atom_site_fract_y
_atom_site_fract_z
Si Si1 0.394316 0.239241 0.827475
Si Si2 0.396590 0.808494 0.781787
Si Si3 0.467909 0.097436 0.730715
Si Si4 0.041638 0.668871 0.901106
Si Si5 0.002767 0.279970 0.688919
Si Si6 0.220264 0.311868 0.255378
O O1 0.455062 0.174650 0.733576
O O2 0.635633 0.463226 0.710851
O O3 0.409504 0.360806 0.075319
O O4 0.088602 0.979670 0.801836
O O5 0.243509 0.732947 0.749861
O O6 0.161539 0.532158 0.784578
O O7 0.692184 0.998049 0.629357
O O8 0.500000 0.000000 0.000000
O O9 0.727229 0.352299 0.841355
O O10 0.500000 0.000000 0.500000
O O11 0.175864 0.854499 0.859228
O O12 0.030809 0.744575 0.143764
O O13 0.187555 0.331284 0.473339
#
# Coordination Sequence:
#
# PCOD8002168 Si02
#       6
#     2   2   2   2   2   2
#     4  10  23  43  61  90 122 158 208 250 292 359
#     4  10  20  35  56  89 124 154 192 249 297 352
#     4  12  26  40  60  86 128 169 196 237 309 378
#     4  11  23  40  56  90 125 159 200 245 302 368
#     4  11  21  37  64  90 117 157 204 256 304 342
#     4  10  22  41  68  88 115 157 210 261 293 342
#
# _framework density 21.490326
#
# number of rings (size 3 to 8) (size 9 to 14) (size 15 to 20)
#    0.000    1.333    0.000    7.500    7.000    0.000 
#    0.000    1.667    0.000    0.000    0.000    0.000 
#    0.000    0.000    0.000    0.000    0.000    0.000 
#
# Total GULP energy -148772.136198 kJ/mol
# GULP energy per Si atom -12397.678017 kJ/mol
# Density = 2.144141 g / cm^3
# Si number density = 21.490326 Si / 1000 Ang^3
#
#
#
# Elastic Constant Matrix: (Units=GPa)
#
#
# Indices 1 2 3 4 5 6 
#
# 1 86.7410 34.5606 24.0848 4.1273 -7.6022 -8.2449
# 2 34.5606 144.0920 15.9115 -5.7271 6.2663 -7.5254
# 3 24.0848 15.9115 144.9608 -24.7318 -3.6891 -13.0460
# 4 4.1273 -5.7271 -24.7318 34.0610 -1.0351 5.5294
# 5 -7.6022 6.2663 -3.6891 -1.0351 22.9055 3.9788
# 6 -8.2449 -7.5254 -13.0460 5.5294 3.9788 39.4756
#
#
#
# Elastic Compliance Matrix: (Units=1/GPa)
#
#
# Indices 1 2 3 4 5 6 
#
# 1 0.014375 -0.003470 -0.002459 -0.004228 0.004850 0.001632
# 2 -0.003470 0.008036 -0.000058 0.001473 -0.003454 0.000930
# 3 -0.002459 -0.000058 0.008521 0.006275 0.000621 0.001350
# 4 -0.004228 0.001473 0.006275 0.035306 0.001428 -0.003618
# 5 0.004850 -0.003454 0.000621 0.001428 0.047140 -0.004392
# 6 0.001632 0.000930 0.001350 -0.003618 -0.004392 0.027246
#
#
# Mechanical properties :
#
#
# Convention : Reuss Voigt Hill
#
# Bulk Modulus (GPa) = 52.74733 58.32306 55.53519
# Shear Modulus (GPa) = 31.46279 39.37089 35.41684
#
# Velocity S-wave (km/s) = 3.83043 4.28486 4.06401
# Velocity P-wave (km/s) = 6.64537 7.18876 6.92240
#
# Compressibility (1/GPa) = 0.01895831
#
# Stress axis : x y z
#
# Youngs Moduli (GPa) = 69.56430 124.43815 117.35415
#
# Poissons Ratio (x) = 0.43182 0.28852
# Poissons Ratio (y) = 0.24140 0.00685
# Poissons Ratio (z) = 0.17103 0.00727
#
# Static dielectric constant tensor:
#      x y z
#    x 4.335590 -0.842840 0.002940 
#    y -0.842840 7.353780 -1.240780 
#    z 0.002940 -1.240780 4.684330 
# 
# 
# High freq. dielectric constant tensor:
#      x y z
#    x 1.797660 0.001270 0.000040 
#    y 0.001270 1.872690 -0.003190 
#    z 0.000040 -0.003190 1.857520 
# 
# From -- ./inp_files/229756.got.cif
#   From: 2010.06.25/outbox.cif.g09.slc.cpg/sg2_115_cif.got.tgz:229756.got - 2010.06.27 13:26:56.
