data_PCOD8002130
_publ_section_title
;
Structure prediction by ZEFSAII (Michael W. Deem and Ramdas Pophale) SiO2 
 PCOD8002130
Probable space group: P -1
;
_chemical_formula_sum "Si O2"
_cell_formula_units_Z 16
_cell_length_a 10.036978
_cell_length_b 20.798886
_cell_length_c 17.685969
_cell_angle_alpha 157.982771
_cell_angle_beta 111.994353
_cell_angle_gamma 53.483459
_cell_volume 899.808689
_symmetry_space_group_name_H-M "P -1"
_symmetry_group_IT_number 2
_symmetry_cell_setting 'triclinic'
loop_
_space_group_symop_operation_xyz
x,y,z
-x,-y,-z
loop_
_atom_site_type_symbol
_atom_site_label
_atom_site_fract_x
_atom_site_fract_y
_atom_site_fract_z
Si Si1 0.247502 0.328817 0.751942
Si Si2 0.644129 0.892664 0.308208
Si Si3 0.051352 0.771836 0.728142
Si Si4 0.311676 0.565314 0.409148
Si Si5 0.390665 0.973054 0.054500
Si Si6 0.033530 0.779154 0.278374
Si Si7 0.541010 0.720155 0.653566
Si Si8 0.141362 0.562766 0.222890
O O1 0.352394 0.222823 0.740919
O O2 0.083911 0.323389 0.689381
O O3 0.422402 0.170094 0.551846
O O4 0.145711 0.602887 0.036248
O O5 0.809464 0.894395 0.360661
O O6 0.694818 0.732707 0.071597
O O7 0.138686 0.720706 0.606438
O O8 0.223972 0.524567 0.543051
O O9 0.841587 0.840510 0.759969
O O10 0.000000 0.000000 0.000000
O O11 0.460395 0.274510 0.134248
O O12 0.438100 0.635407 0.506037
O O13 0.195493 0.642242 0.389217
O O14 0.403880 0.890370 0.881860
O O15 0.458112 0.117811 0.227549
O O16 0.151567 0.655910 0.248016
O O17 0.000000 0.000000 0.500000
#
# Coordination Sequence:
#
# PCOD8002130 Si02
#       8
#     2   2   2   2   2   2   2   2
#     4   8  15  31  52  71  93 130 174 203 244 309
#     4   8  15  31  53  70  92 131 172 207 245 303
#     4  11  18  35  59  77 104 145 186 221 261 322
#     4  11  21  35  53  79 111 143 177 224 278 321
#     4  10  20  36  56  79 104 141 183 226 265 320
#     4   9  17  31  52  78 102 135 173 209 256 313
#     4  10  20  35  56  80 104 138 185 223 268 321
#     4   9  19  33  50  73 104 134 169 217 265 308
#
# _framework density 17.781559000000001
#
# number of rings (size 3 to 8) (size 9 to 14) (size 15 to 20)
#    0.000    2.500    2.500    2.625    0.000    1.500 
#    4.500    0.000    0.000    1.500    0.000    0.000 
#    0.000    0.000    0.000    0.000    0.000    0.000 
#
# Total GULP energy -198214.400417 kJ/mol
# GULP energy per Si atom -12388.400026 kJ/mol
# Density = 1.774109 g / cm^3
# Si number density = 17.781559 Si / 1000 Ang^3
#
#
#
# Elastic Constant Matrix: (Units=GPa)
#
#
# Indices 1 2 3 4 5 6 
#
# 1 82.2387 37.7856 63.7506 2.1972 -4.2949 -4.8534
# 2 37.7856 73.5643 43.7278 -13.8552 2.1516 -11.6105
# 3 63.7506 43.7278 115.8443 5.2238 0.4406 -8.1812
# 4 2.1972 -13.8552 5.2238 21.7849 -4.2668 0.3625
# 5 -4.2949 2.1516 0.4406 -4.2668 43.6062 7.7844
# 6 -4.8534 -11.6105 -8.1812 0.3625 7.7844 11.9448
#
#
#
# Elastic Compliance Matrix: (Units=1/GPa)
#
#
# Indices 1 2 3 4 5 6 
#
# 1 0.023845 -0.008209 -0.010395 -0.004254 0.003831 -0.007778
# 2 -0.008209 0.028284 -0.005387 0.018876 -0.004361 0.022736
# 3 -0.010395 -0.005387 0.016984 -0.006967 -0.002305 0.003886
# 4 -0.004254 0.018876 -0.006967 0.060509 0.003229 0.007907
# 5 0.003831 -0.004361 -0.002305 0.003229 0.027887 -0.022533
# 6 -0.007778 0.022736 0.003886 0.007907 -0.022533 0.119764
#
#
# Mechanical properties :
#
#
# Convention : Reuss Voigt Hill
#
# Bulk Modulus (GPa) = 47.33057 62.46393 54.89725
# Shear Modulus (GPa) = 15.04671 23.89273 19.46972
#
# Velocity S-wave (km/s) = 2.91210 3.66960 3.31258
# Velocity P-wave (km/s) = 6.16301 7.29105 6.75063
#
# Compressibility (1/GPa) = 0.02112799
#
# Stress axis : x y z
#
# Youngs Moduli (GPa) = 41.93823 35.35618 58.87921
#
# Poissons Ratio (x) = 0.29025 0.61207
# Poissons Ratio (y) = 0.34428 0.31721
# Poissons Ratio (z) = 0.43596 0.19048
#
# Static dielectric constant tensor:
#      x y z
#    x 3.485310 0.069820 -0.009120 
#    y 0.069820 3.076540 0.189450 
#    z -0.009120 0.189450 3.676900 
# 
# 
# High freq. dielectric constant tensor:
#      x y z
#    x 1.681720 -0.015850 -0.008750 
#    y -0.015850 1.650510 0.002620 
#    z -0.008750 0.002620 1.702950 
# 
# From -- ./inp_files/562787.got.cif
#   From: 2010.06.25/outbox.cif.g09.slc.cpg/sg2_282_cif.got.tgz:562787.got - 2010.06.27 13:26:56.
