data_PCOD8002574
_publ_section_title
;
Structure prediction by ZEFSAII (Michael W. Deem and Ramdas Pophale) SiO2 
 PCOD8002574
Probable space group: P -1
;
_chemical_formula_sum "Si O2"
_cell_formula_units_Z 16
_cell_length_a 14.028587
_cell_length_b 14.418988
_cell_length_c 12.487338
_cell_angle_alpha 114.100199
_cell_angle_beta 117.695183
_cell_angle_gamma 20.094614
_cell_volume 765.111716
_symmetry_space_group_name_H-M "P -1"
_symmetry_group_IT_number 2
_symmetry_cell_setting 'triclinic'
loop_
_space_group_symop_operation_xyz
x,y,z
-x,-y,-z
loop_
_atom_site_type_symbol
_atom_site_label
_atom_site_fract_x
_atom_site_fract_y
_atom_site_fract_z
Si Si1 0.644675 0.108293 0.823678
Si Si2 0.754847 0.615885 0.090393
Si Si3 0.628989 0.037403 0.131673
Si Si4 0.883938 0.513638 0.772732
Si Si5 0.884901 0.750529 0.613880
Si Si6 0.972550 0.215731 0.928093
Si Si7 0.319508 0.294359 0.471978
Si Si8 0.292463 0.729041 0.085321
O O1 0.351056 0.307851 0.804227
O O2 0.587914 0.265858 0.807454
O O3 0.861589 0.846176 0.747826
O O4 0.792595 0.009773 0.964856
O O5 0.806379 0.465223 0.984811
O O6 0.049604 0.423188 0.157572
O O7 0.507855 0.887707 0.015907
O O8 0.361725 0.309062 0.191290
O O9 0.806762 0.802987 0.185708
O O10 0.857686 0.925312 0.163347
O O11 0.775221 0.574255 0.627806
O O12 0.810253 0.703818 0.590473
O O13 0.199109 0.471076 0.589967
O O14 0.661327 0.987701 0.519148
O O15 0.753784 0.310570 0.858874
O O16 0.500000 0.500000 0.000000
O O17 0.000000 0.000000 0.000000
#
# Coordination Sequence:
#
# PCOD8002574 Si02
#       8
#     2   2   2   2   2   2   2   2
#     4  10  22  34  59  85 116 152 180 227 286 340
#     4  11  22  34  55  83 118 150 185 220 274 340
#     4  11  24  37  53  80 114 151 192 225 264 335
#     4  12  24  36  55  79 112 155 188 227 275 318
#     4  10  22  38  56  82 111 146 188 231 282 328
#     4  10  21  37  56  83 117 150 181 228 273 334
#     4  10  23  38  56  79 111 148 191 236 271 330
#     4  10  20  36  55  83 115 147 184 224 277 341
#
# _framework density 20.911978000000001
#
# number of rings (size 3 to 8) (size 9 to 14) (size 15 to 20)
#    0.000    1.500    2.500    2.250   12.250    0.000 
#    0.000    0.000    0.000    0.000    0.000    5.250 
#    0.000    0.000    0.000    0.000    0.000    0.000 
#
# Total GULP energy -198244.094808 kJ/mol
# GULP energy per Si atom -12390.255926 kJ/mol
# Density = 2.086438 g / cm^3
# Si number density = 20.911978 Si / 1000 Ang^3
#
#
#
# Elastic Constant Matrix: (Units=GPa)
#
#
# Indices 1 2 3 4 5 6 
#
# 1 97.3460 18.3746 33.3103 14.8281 -14.4418 -8.8997
# 2 18.3746 76.4382 1.9807 19.7128 -6.2155 -5.4943
# 3 33.3103 1.9807 53.8648 19.4833 -18.2047 -1.1348
# 4 14.8281 19.7128 19.4833 34.1806 2.7978 -3.5589
# 5 -14.4418 -6.2155 -18.2047 2.7978 22.6961 6.4756
# 6 -8.8997 -5.4943 -1.1348 -3.5589 6.4756 25.2440
#
#
#
# Elastic Compliance Matrix: (Units=1/GPa)
#
#
# Indices 1 2 3 4 5 6 
#
# 1 0.014142 -0.003380 -0.009511 0.001770 -0.001010 0.004331
# 2 -0.003380 0.020221 0.015490 -0.021052 0.019571 -0.004083
# 3 -0.009511 0.015490 0.058404 -0.044516 0.055632 -0.017903
# 4 0.001770 -0.021052 -0.044516 0.072359 -0.054462 0.018213
# 5 -0.001010 0.019571 0.055632 -0.054462 0.108412 -0.029084
# 6 0.004331 -0.004083 -0.017903 0.018213 -0.029084 0.049475
#
#
# Mechanical properties :
#
#
# Convention : Reuss Voigt Hill
#
# Bulk Modulus (GPa) = 10.20790 37.22003 23.71396
# Shear Modulus (GPa) = 14.26657 28.02301 21.14479
#
# Velocity S-wave (km/s) = 2.61477 3.66464 3.18328
# Velocity P-wave (km/s) = 3.74272 5.97856 4.98754
#
# Compressibility (1/GPa) = 0.09796334
#
# Stress axis : x y z
#
# Youngs Moduli (GPa) = 70.71206 49.45405 17.12217
#
# Poissons Ratio (x) = 0.16717 0.16286
# Poissons Ratio (y) = 0.23903 -0.26522
# Poissons Ratio (z) = 0.67257 -0.76605
#
# Static dielectric constant tensor:
#      x y z
#    x 4.797280 -0.097900 -0.148770 
#    y -0.097900 3.975510 -0.044560 
#    z -0.148770 -0.044560 3.475720 
# 
# 
# High freq. dielectric constant tensor:
#      x y z
#    x 1.804210 -0.004080 -0.026080 
#    y -0.004080 1.841320 -0.001770 
#    z -0.026080 -0.001770 1.771030 
# 
# From -- ./inp_files/455744.got.cif
#   From: 2010.06.25/outbox.cif.g09.slc.cpg/sg2_228_cif.got.tgz:455744.got - 2010.06.27 13:26:56.
