data_PCOD8002958
_publ_section_title
;
Structure prediction by ZEFSAII (Michael W. Deem and Ramdas Pophale) SiO2 
 PCOD8002958
Probable space group: P -1
;
_chemical_formula_sum "Si O2"
_cell_formula_units_Z 16
_cell_length_a 13.809790
_cell_length_b 17.484889
_cell_length_c 14.440274
_cell_angle_alpha 48.921665
_cell_angle_beta 20.038096
_cell_angle_gamma 40.071330
_cell_volume 738.262641
_symmetry_space_group_name_H-M "P -1"
_symmetry_group_IT_number 2
_symmetry_cell_setting 'triclinic'
loop_
_space_group_symop_operation_xyz
x,y,z
-x,-y,-z
loop_
_atom_site_type_symbol
_atom_site_label
_atom_site_fract_x
_atom_site_fract_y
_atom_site_fract_z
Si Si1 0.301933 0.130567 0.748638
Si Si2 0.392375 0.716134 0.007150
Si Si3 0.581379 0.339572 0.254516
Si Si4 0.355178 0.458157 0.916964
Si Si5 0.981300 0.992807 0.133048
Si Si6 0.405327 0.297736 0.629367
Si Si7 0.079098 0.366594 0.550036
Si Si8 0.402256 0.418843 0.702948
O O1 0.396936 0.177937 0.716817
O O2 0.586497 0.087057 0.447111
O O3 0.927173 0.248736 0.955041
O O4 0.237651 0.026288 0.917715
O O5 0.587273 0.648206 0.981516
O O6 0.092804 0.860141 0.177546
O O7 0.242127 0.644358 0.151140
O O8 0.662042 0.718056 0.697219
O O9 0.461172 0.482159 0.247117
O O10 0.662853 0.292960 0.325393
O O11 0.278428 0.326699 0.501561
O O12 0.539638 0.388902 0.709008
O O13 0.959692 0.570525 0.166532
O O14 0.000000 0.000000 0.000000
O O15 0.537836 0.296121 0.615681
O O16 0.000000 0.500000 0.500000
O O17 0.500000 0.500000 0.500000
O O18 0.000000 0.500000 0.000000
#
# Coordination Sequence:
#
# PCOD8002958 Si02
#       8
#     2   2   2   2   2   2   2   2
#     4  11  24  41  63  88 118 161 211 262 297 348
#     4  12  27  42  60  88 126 169 203 250 307 360
#     4  11  21  36  65  91 125 159 203 251 307 365
#     4  10  22  38  62  95 129 160 198 250 318 376
#     4  12  26  44  61  85 120 167 221 258 293 352
#     4  10  21  38  66  95 124 157 201 256 311 368
#     4  12  25  39  58  91 128 161 198 237 305 381
#     4  10  20  36  60  95 128 157 193 248 313 376
#
# _framework density 21.672504
#
# number of rings (size 3 to 8) (size 9 to 14) (size 15 to 20)
#    0.000    1.000    3.750    3.000    5.250    0.000 
#    0.000    0.000    0.000    1.500    0.000    0.000 
#    0.000    0.000    0.000    0.000    0.000    0.000 
#
# Total GULP energy -198251.392264 kJ/mol
# GULP energy per Si atom -12390.712017 kJ/mol
# Density = 2.162318 g / cm^3
# Si number density = 21.672504 Si / 1000 Ang^3
#
#
#
# Elastic Constant Matrix: (Units=GPa)
#
#
# Indices 1 2 3 4 5 6 
#
# 1 101.4946 38.4615 21.4247 5.4587 20.6783 14.7551
# 2 38.4615 115.7078 12.9986 -2.9932 1.9570 19.3120
# 3 21.4247 12.9986 95.4060 -5.8824 8.3903 7.5437
# 4 5.4587 -2.9932 -5.8824 32.1996 7.1257 -1.7610
# 5 20.6783 1.9570 8.3903 7.1257 27.2863 -2.0667
# 6 14.7551 19.3120 7.5437 -1.7610 -2.0667 30.1149
#
#
#
# Elastic Compliance Matrix: (Units=1/GPa)
#
#
# Indices 1 2 3 4 5 6 
#
# 1 0.014460 -0.003630 -0.001500 -0.001054 -0.010352 -0.005153
# 2 -0.003630 0.010694 -0.000329 0.000960 0.001468 -0.004840
# 3 -0.001500 -0.000329 0.011491 0.002943 -0.003292 -0.001987
# 4 -0.001054 0.000960 0.002943 0.033878 -0.008982 0.000528
# 5 -0.010352 0.001468 -0.003292 -0.008982 0.048333 0.007747
# 6 -0.005153 -0.004840 -0.001987 0.000528 0.007747 0.039895
#
#
# Mechanical properties :
#
#
# Convention : Reuss Voigt Hill
#
# Bulk Modulus (GPa) = 38.86942 50.93090 44.90016
# Shear Modulus (GPa) = 28.05140 33.90174 30.97657
#
# Velocity S-wave (km/s) = 3.60158 3.95938 3.78471
# Velocity P-wave (km/s) = 5.93878 6.66735 6.31358
#
# Compressibility (1/GPa) = 0.02572717
#
# Stress axis : x y z
#
# Youngs Moduli (GPa) = 69.15730 93.51163 87.02323
#
# Poissons Ratio (x) = 0.33945 0.13051
# Poissons Ratio (y) = 0.25105 0.02863
# Poissons Ratio (z) = 0.10372 0.03077
#
# Static dielectric constant tensor:
#      x y z
#    x 4.540820 0.504160 0.520110 
#    y 0.504160 4.011920 -0.001360 
#    z 0.520110 -0.001360 4.523850 
# 
# 
# High freq. dielectric constant tensor:
#      x y z
#    x 1.824780 0.034940 0.012300 
#    y 0.034940 1.833500 -0.016320 
#    z 0.012300 -0.016320 1.867100 
# 
# From -- ./inp_files/535088.got.cif
#   From: 2010.06.25/outbox.cif.g09.slc.cpg/sg2_268_cif.got.tgz:535088.got - 2010.06.27 13:26:56.
