data_PCOD8002309
_publ_section_title
;
Structure prediction by ZEFSAII (Michael W. Deem and Ramdas Pophale) SiO2 
 PCOD8002309
Probable space group: P -1
;
_chemical_formula_sum "Si O2"
_cell_formula_units_Z 16
_cell_length_a 17.326165
_cell_length_b 8.528404
_cell_length_c 20.167933
_cell_angle_alpha 48.688995
_cell_angle_beta 158.159349
_cell_angle_gamma 120.233184
_cell_volume 766.499356
_symmetry_space_group_name_H-M "P -1"
_symmetry_group_IT_number 2
_symmetry_cell_setting 'triclinic'
loop_
_space_group_symop_operation_xyz
x,y,z
-x,-y,-z
loop_
_atom_site_type_symbol
_atom_site_label
_atom_site_fract_x
_atom_site_fract_y
_atom_site_fract_z
Si Si1 0.439046 0.992122 0.028562
Si Si2 0.058866 0.706142 0.465417
Si Si3 0.003640 0.477697 0.101271
Si Si4 0.748037 0.881947 0.701027
Si Si5 0.191031 0.958982 0.608960
Si Si6 0.639612 0.265643 0.858630
Si Si7 0.040535 0.808516 0.279330
Si Si8 0.833205 0.590545 0.602283
O O1 0.568576 0.117209 0.140448
O O2 0.488120 0.745762 0.169888
O O3 0.173858 0.091796 0.790365
O O4 0.500000 0.000000 0.000000
O O5 0.204413 0.760901 0.623467
O O6 0.000000 0.500000 0.500000
O O7 0.165009 0.688877 0.481298
O O8 0.218265 0.297005 0.282966
O O9 0.062518 0.479093 0.223412
O O10 0.928996 0.733534 0.942224
O O11 0.785065 0.415812 0.936139
O O12 0.500000 0.000000 0.500000
O O13 0.798290 0.092354 0.656541
O O14 0.135481 0.184581 0.458815
O O15 0.000000 0.000000 0.500000
O O16 0.429521 0.376272 0.610319
O O17 0.790944 0.006252 0.030881
O O18 0.021050 0.610389 0.274523
#
# Coordination Sequence:
#
# PCOD8002309 Si02
#       8
#     2   2   2   2   2   2   2   2
#     4  10  20  35  59  87 119 161 203 250 304 362
#     4  11  23  41  60  89 127 160 205 262 302 365
#     4  10  22  40  64  90 120 164 207 250 305 379
#     4  10  21  41  63  91 127 160 203 253 316 366
#     4  11  21  36  61  88 121 164 205 250 311 367
#     4   9  21  40  58  86 127 157 201 256 303 360
#     4  10  22  40  61  89 126 160 203 261 308 366
#     4  11  22  39  65  90 118 166 208 248 316 366
#
# _framework density 20.874122
#
# number of rings (size 3 to 8) (size 9 to 14) (size 15 to 20)
#    0.000    1.750    1.250    3.750    1.750    2.000 
#    0.000   15.000    0.000    0.000    0.000    0.000 
#    0.000    0.000    0.000    0.000    0.000    0.000 
#
# Total GULP energy -198212.391336 kJ/mol
# GULP energy per Si atom -12388.274459 kJ/mol
# Density = 2.082661 g / cm^3
# Si number density = 20.874122 Si / 1000 Ang^3
#
#
#
# Elastic Constant Matrix: (Units=GPa)
#
#
# Indices 1 2 3 4 5 6 
#
# 1 150.0263 59.5223 32.8167 8.1758 -19.6615 1.7405
# 2 59.5223 105.5282 24.3385 3.5857 -16.5440 -0.8352
# 3 32.8167 24.3385 63.1404 14.3196 -3.4111 -9.0569
# 4 8.1758 3.5857 14.3196 33.8694 -3.5450 -1.8399
# 5 -19.6615 -16.5440 -3.4111 -3.5450 38.9231 5.7526
# 6 1.7405 -0.8352 -9.0569 -1.8399 5.7526 42.6994
#
#
#
# Elastic Compliance Matrix: (Units=1/GPa)
#
#
# Indices 1 2 3 4 5 6 
#
# 1 0.009438 -0.004095 -0.003348 -0.000207 0.002949 -0.001581
# 2 -0.004095 0.012975 -0.003060 0.001228 0.003384 -0.000631
# 3 -0.003348 -0.003060 0.021037 -0.007780 -0.002528 0.004544
# 4 -0.000207 0.001228 -0.007780 0.032999 0.002826 -0.000577
# 5 0.002949 0.003384 -0.002528 0.002826 0.029308 -0.004417
# 6 -0.001581 -0.000631 0.004544 -0.000577 -0.004417 0.025006
#
#
# Mechanical properties :
#
#
# Convention : Reuss Voigt Hill
#
# Bulk Modulus (GPa) = 44.55127 61.33891 52.94509
# Shear Modulus (GPa) = 31.39743 36.56620 33.98181
#
# Velocity S-wave (km/s) = 3.88252 4.18993 4.03915
# Velocity P-wave (km/s) = 6.44110 7.27023 6.86819
#
# Compressibility (1/GPa) = 0.02244605
#
# Stress axis : x y z
#
# Youngs Moduli (GPa) = 105.94999 77.07059 47.53618
#
# Poissons Ratio (x) = 0.31559 0.15914
# Poissons Ratio (y) = 0.43384 0.14544
# Poissons Ratio (z) = 0.35469 0.23580
#
# Static dielectric constant tensor:
#      x y z
#    x 3.471080 0.140340 0.148510 
#    y 0.140340 3.800310 -0.001600 
#    z 0.148510 -0.001600 3.646180 
# 
# 
# High freq. dielectric constant tensor:
#      x y z
#    x 1.837890 0.018520 -0.007600 
#    y 0.018520 1.806830 -0.004360 
#    z -0.007600 -0.004360 1.810740 
# 
# From -- ./inp_files/352420.got.cif
#   From: 2010.06.25/outbox.cif.g09.slc.cpg/sg2_177_cif.got.tgz:352420.got - 2010.06.27 13:26:56.
