data_PCOD8002652
_publ_section_title
;
Structure prediction by ZEFSAII (Michael W. Deem and Ramdas Pophale) SiO2 
 PCOD8002652
Probable space group: P -1
;
_chemical_formula_sum "Si O2"
_cell_formula_units_Z 14
_cell_length_a 16.116819
_cell_length_b 5.329299
_cell_length_c 12.573679
_cell_angle_alpha 115.077636
_cell_angle_beta 137.429429
_cell_angle_gamma 76.848368
_cell_volume 655.387852
_symmetry_space_group_name_H-M "P -1"
_symmetry_group_IT_number 2
_symmetry_cell_setting 'triclinic'
loop_
_space_group_symop_operation_xyz
x,y,z
-x,-y,-z
loop_
_atom_site_type_symbol
_atom_site_label
_atom_site_fract_x
_atom_site_fract_y
_atom_site_fract_z
Si Si1 0.873788 0.168214 0.741733
Si Si2 0.367597 0.159489 0.499956
Si Si3 0.153800 0.953588 0.905583
Si Si4 0.920639 0.227324 0.420638
Si Si5 0.153803 0.450023 0.402023
Si Si6 0.632405 0.105225 0.764761
Si Si7 0.873789 0.432319 0.005841
O O1 0.914690 0.420642 0.740589
O O2 0.923113 0.264058 0.923111
O O3 0.723078 0.112976 0.591259
O O4 0.916361 0.865999 0.693605
O O5 0.296488 0.428534 0.501308
O O6 0.500001 0.190793 0.690796
O O7 0.390043 0.133470 0.390045
O O8 0.162797 0.902621 0.779254
O O9 0.296485 0.018902 0.091669
O O10 0.083637 0.688497 0.860885
O O11 0.085307 0.231162 0.911208
O O12 0.837201 0.330289 0.453655
O O13 0.000000 0.500000 0.500000
O O14 0.000000 0.000000 0.500000
O O15 0.723080 0.376613 0.854898
#
# Coordination Sequence:
#
# PCOD8002652 Si02
#       7
#     2   2   2   2   2   2   2
#     4   9  17  32  58  85 119 149 177 224 284 337
#     4   8  16  31  57  89 120 152 180 216 277 346
#     4  10  20  36  57  84 115 146 192 240 275 331
#     4  12  26  44  65  79 101 153 208 244 284 335
#     4  10  20  36  57  84 115 146 192 240 275 331
#     4   8  16  31  57  89 120 152 180 216 277 346
#     4   9  17  32  58  85 119 149 177 224 284 337
#
# _framework density 21.361395000000002
#
# number of rings (size 3 to 8) (size 9 to 14) (size 15 to 20)
#    1.714    0.857    0.000    3.429    0.000    1.143 
#    0.000    5.000    0.000   30.857    0.000    0.000 
#    0.000    0.000    0.000    0.000    0.000    0.000 
#
# Total GULP energy -173461.994910 kJ/mol
# GULP energy per Si atom -12390.142494 kJ/mol
# Density = 2.131278 g / cm^3
# Si number density = 21.361395 Si / 1000 Ang^3
#
#
#
# Elastic Constant Matrix: (Units=GPa)
#
#
# Indices 1 2 3 4 5 6 
#
# 1 84.1485 62.3306 53.4925 -9.7178 -7.0582 -13.4000
# 2 62.3306 150.3602 72.6920 -14.8312 -7.7479 -16.7812
# 3 53.4925 72.6920 141.3270 -18.4693 -21.0523 -16.4999
# 4 -9.7178 -14.8312 -18.4693 35.3598 -8.2076 -2.8028
# 5 -7.0582 -7.7479 -21.0523 -8.2076 45.5559 6.0677
# 6 -13.4000 -16.7812 -16.4999 -2.8028 6.0677 40.5035
#
#
#
# Elastic Compliance Matrix: (Units=1/GPa)
#
#
# Indices 1 2 3 4 5 6 
#
# 1 0.019040 -0.005640 -0.003873 0.001053 0.000065 0.002448
# 2 -0.005640 0.010775 -0.003122 0.001355 -0.000438 0.001486
# 3 -0.003873 -0.003122 0.011764 0.005070 0.004976 0.001823
# 4 0.001053 0.001355 0.005070 0.034043 0.008326 0.004084
# 5 0.000065 -0.000438 0.004976 0.008326 0.025877 -0.001433
# 6 0.002448 0.001486 0.001823 0.004084 -0.001433 0.027355
#
#
# Mechanical properties :
#
#
# Convention : Reuss Voigt Hill
#
# Bulk Modulus (GPa) = 61.31320 83.65175 72.48248
# Shear Modulus (GPa) = 31.33594 36.77188 34.05391
#
# Velocity S-wave (km/s) = 3.83422 4.15350 3.99705
# Velocity P-wave (km/s) = 6.95463 7.88970 7.43687
#
# Compressibility (1/GPa) = 0.01630970
#
# Stress axis : x y z
#
# Youngs Moduli (GPa) = 52.52002 92.80638 85.00426
#
# Poissons Ratio (x) = 0.52346 0.32918
# Poissons Ratio (y) = 0.29623 0.26539
# Poissons Ratio (z) = 0.20338 0.28975
#
# Static dielectric constant tensor:
#      x y z
#    x 3.935860 -0.122880 -0.053300 
#    y -0.122880 3.838640 0.024550 
#    z -0.053300 0.024550 4.025180 
# 
# 
# High freq. dielectric constant tensor:
#      x y z
#    x 1.830920 0.000130 0.014550 
#    y 0.000130 1.839030 -0.013300 
#    z 0.014550 -0.013300 1.831110 
# 
# From -- ./inp_files/113071.got.cif
#   From: 2010.06.25/outbox.cif.g09.slc.cpg/sg2_57_cif.got.tgz:113071.got - 2010.06.27 13:26:56.
