data_PCOD8002089
_publ_section_title
;
Structure prediction by ZEFSAII (Michael W. Deem and Ramdas Pophale) SiO2 
 PCOD8002089
Probable space group: P -1
;
_chemical_formula_sum "Si O2"
_cell_formula_units_Z 16
_cell_length_a 11.113677
_cell_length_b 20.691239
_cell_length_c 6.567204
_cell_angle_alpha 95.462897
_cell_angle_beta 91.321871
_cell_angle_gamma 31.380411
_cell_volume 777.847761
_symmetry_space_group_name_H-M "P -1"
_symmetry_group_IT_number 2
_symmetry_cell_setting 'triclinic'
loop_
_space_group_symop_operation_xyz
x,y,z
-x,-y,-z
loop_
_atom_site_type_symbol
_atom_site_label
_atom_site_fract_x
_atom_site_fract_y
_atom_site_fract_z
Si Si1 0.068218 0.585818 0.602104
Si Si2 0.977992 0.307738 0.986854
Si Si3 0.912830 0.202990 0.102157
Si Si4 0.615631 0.545777 0.801356
Si Si5 0.332619 0.374193 0.839041
Si Si6 0.851627 0.126214 0.756344
Si Si7 0.293418 0.249495 0.706935
Si Si8 0.826489 0.993496 0.635167
O O1 0.279489 0.503840 0.434359
O O2 0.138071 0.491963 0.714539
O O3 0.020729 0.668258 0.773252
O O4 0.836198 0.679656 0.491557
O O5 0.019206 0.211275 0.969754
O O6 0.180618 0.245912 0.840344
O O7 0.729615 0.436611 0.910548
O O8 0.655714 0.343115 0.202982
O O9 0.903225 0.138911 0.969962
O O10 0.077273 0.113563 0.274120
O O11 0.673177 0.587557 0.930168
O O12 0.588413 0.264316 0.713625
O O13 0.279431 0.322805 0.857415
O O14 0.873636 0.039122 0.770180
O O15 0.040795 0.064801 0.589043
O O16 0.554131 0.108373 0.620645
#
# Coordination Sequence:
#
# PCOD8002089 Si02
#       8
#     2   2   2   2   2   2   2   2
#     4  10  20  35  55  80 109 144 180 217 268 318
#     4  10  23  37  52  80 112 145 182 215 260 323
#     4  11  21  37  59  79 109 145 175 220 273 316
#     4   9  20  36  57  84 107 134 179 230 272 312
#     4   9  18  35  59  83 107 136 176 226 276 317
#     4   9  20  38  59  85 107 130 177 233 273 311
#     4  10  22  37  52  79 115 144 178 221 260 315
#     4  10  21  37  59  83 106 138 181 222 267 322
#
# _framework density 20.569579000000001
#
# number of rings (size 3 to 8) (size 9 to 14) (size 15 to 20)
#    0.000    2.250    0.000    1.875    0.000    9.500 
#    0.000    3.750    0.000    0.000    0.000    0.000 
#    0.000    0.000    0.000    0.000    0.000    0.000 
#
# Total GULP energy -198387.736780 kJ/mol
# GULP energy per Si atom -12399.233549 kJ/mol
# Density = 2.052276 g / cm^3
# Si number density = 20.569579 Si / 1000 Ang^3
#
#
#
# Elastic Constant Matrix: (Units=GPa)
#
#
# Indices 1 2 3 4 5 6 
#
# 1 70.8027 43.5204 17.6547 -10.4753 -18.1725 -14.8283
# 2 43.5204 113.8326 33.2528 -14.0505 -16.0018 -17.8477
# 3 17.6547 33.2528 65.2817 -0.7705 -5.1469 -15.7832
# 4 -10.4753 -14.0505 -0.7705 31.6040 0.3657 -4.2886
# 5 -18.1725 -16.0018 -5.1469 0.3657 21.4570 3.1788
# 6 -14.8283 -17.8477 -15.7832 -4.2886 3.1788 30.0031
#
#
#
# Elastic Compliance Matrix: (Units=1/GPa)
#
#
# Indices 1 2 3 4 5 6 
#
# 1 0.023701 -0.004621 -0.000886 0.006670 0.015138 0.007848
# 2 -0.004621 0.013671 -0.004387 0.004896 0.004590 0.003755
# 3 -0.000886 -0.004387 0.019475 -0.000798 -0.000393 0.007125
# 4 0.006670 0.004896 -0.000798 0.037339 0.006933 0.010392
# 5 0.015138 0.004590 -0.000393 0.006933 0.061980 0.004430
# 6 0.007848 0.003755 0.007125 0.010392 0.004430 0.044206
#
#
# Mechanical properties :
#
#
# Convention : Reuss Voigt Hill
#
# Bulk Modulus (GPa) = 26.98383 48.75255 37.86819
# Shear Modulus (GPa) = 21.50427 26.97876 24.24151
#
# Velocity S-wave (km/s) = 3.23683 3.62551 3.43667
# Velocity P-wave (km/s) = 5.20733 6.42484 5.84785
#
# Compressibility (1/GPa) = 0.03705923
#
# Stress axis : x y z
#
# Youngs Moduli (GPa) = 42.19280 73.14748 51.34903
#
# Poissons Ratio (x) = 0.33798 0.04551
# Poissons Ratio (y) = 0.19496 0.22525
# Poissons Ratio (z) = 0.03740 0.32087
#
# Static dielectric constant tensor:
#      x y z
#    x 3.548310 -0.048800 0.072990 
#    y -0.048800 3.862160 0.042320 
#    z 0.072990 0.042320 3.502730 
# 
# 
# High freq. dielectric constant tensor:
#      x y z
#    x 1.793750 -0.003600 -0.001500 
#    y -0.003600 1.810720 0.001320 
#    z -0.001500 0.001320 1.794590 
# 
# From -- ./inp_files/71415.got.cif
#   From: 2010.06.25/outbox.cif.g09.slc.cpg/sg2_36_cif.got.tgz:71415.got - 2010.06.27 13:26:56.
