data_PCOD8002404
_publ_section_title
;
Structure prediction by ZEFSAII (Michael W. Deem and Ramdas Pophale) SiO2 
 PCOD8002404
Probable space group: P -1
;
_chemical_formula_sum "Si O2"
_cell_formula_units_Z 16
_cell_length_a 9.532063
_cell_length_b 11.449740
_cell_length_c 11.160866
_cell_angle_alpha 125.909953
_cell_angle_beta 87.647423
_cell_angle_gamma 61.516200
_cell_volume 774.145973
_symmetry_space_group_name_H-M "P -1"
_symmetry_group_IT_number 2
_symmetry_cell_setting 'triclinic'
loop_
_space_group_symop_operation_xyz
x,y,z
-x,-y,-z
loop_
_atom_site_type_symbol
_atom_site_label
_atom_site_fract_x
_atom_site_fract_y
_atom_site_fract_z
Si Si1 0.820911 0.929526 0.157167
Si Si2 0.186658 0.739850 0.921459
Si Si3 0.978561 0.323041 0.303010
Si Si4 0.972252 0.864679 0.357700
Si Si5 0.022006 0.607215 0.390714
Si Si6 0.697958 0.709843 0.966147
Si Si7 0.341353 0.941147 0.990641
Si Si8 0.320800 0.527497 0.010803
O O1 0.815972 0.971100 0.324147
O O2 0.833047 0.747622 0.030604
O O3 0.989469 0.903144 0.076005
O O4 0.651417 0.082418 0.170505
O O5 0.164986 0.694757 0.760407
O O6 0.306412 0.806212 0.966886
O O7 0.271722 0.559120 0.890957
O O8 0.927715 0.515724 0.372670
O O9 0.950562 0.322905 0.445266
O O10 0.182883 0.155373 0.156717
O O11 0.913354 0.780666 0.407197
O O12 0.158872 0.705812 0.194318
O O13 0.000000 0.000000 0.500000
O O14 0.211991 0.455196 0.231174
O O15 0.644877 0.655864 0.054781
O O16 0.523838 0.885673 0.009852
O O17 0.500000 0.500000 0.000000
#
# Coordination Sequence:
#
# PCOD8002404 Si02
#       8
#     2   2   2   2   2   2   2   2
#     4  10  21  36  61  87 112 152 197 237 281 346
#     4  10  20  35  61  86 113 155 199 234 277 353
#     4  10  21  37  60  83 118 153 194 234 286 350
#     4  10  24  38  61  82 116 152 196 238 286 344
#     4  10  22  37  57  86 117 149 190 239 295 330
#     4  11  21  38  61  89 118 149 192 246 284 343
#     4  11  21  36  64  86 119 152 195 237 287 341
#     4  10  21  38  59  86 116 151 191 236 295 333
#
# _framework density 20.667936000000001
#
# number of rings (size 3 to 8) (size 9 to 14) (size 15 to 20)
#    0.000    1.750    3.750    1.875    7.000    1.500 
#    0.000    1.875    0.000    1.500    0.000    0.000 
#    0.000    0.000    0.000    0.000    0.000    0.000 
#
# Total GULP energy -198242.203209 kJ/mol
# GULP energy per Si atom -12390.137701 kJ/mol
# Density = 2.062090 g / cm^3
# Si number density = 20.667936 Si / 1000 Ang^3
#
#
#
# Elastic Constant Matrix: (Units=GPa)
#
#
# Indices 1 2 3 4 5 6 
#
# 1 45.3332 7.5209 12.8335 -10.2890 9.2596 -2.9367
# 2 7.5209 127.0168 38.7187 -25.7704 12.2847 7.7672
# 3 12.8335 38.7187 86.7734 -27.0420 21.6591 -3.7278
# 4 -10.2890 -25.7704 -27.0420 35.6888 -3.3214 3.2335
# 5 9.2596 12.2847 21.6591 -3.3214 21.3078 -5.0383
# 6 -2.9367 7.7672 -3.7278 3.2335 -5.0383 35.9633
#
#
#
# Elastic Compliance Matrix: (Units=1/GPa)
#
#
# Indices 1 2 3 4 5 6 
#
# 1 0.025745 0.000870 0.001173 0.007876 -0.011728 -0.000315
# 2 0.000870 0.010270 -0.001878 0.006163 -0.004254 -0.003492
# 3 0.001173 -0.001878 0.021003 0.013235 -0.018990 -0.001172
# 4 0.007876 0.006163 0.013235 0.043871 -0.014854 -0.005342
# 5 -0.011728 -0.004254 -0.018990 -0.014854 0.073753 0.009661
# 6 -0.000315 -0.003492 -0.001172 -0.005342 0.009661 0.030247
#
#
# Mechanical properties :
#
#
# Convention : Reuss Voigt Hill
#
# Bulk Modulus (GPa) = 17.43799 41.91885 29.67842
# Shear Modulus (GPa) = 22.35372 31.92865 27.14118
#
# Velocity S-wave (km/s) = 3.29228 3.93471 3.62774
# Velocity P-wave (km/s) = 4.78620 6.40068 5.65139
#
# Compressibility (1/GPa) = 0.05734607
#
# Stress axis : x y z
#
# Youngs Moduli (GPa) = 38.84204 97.37533 47.61168
#
# Poissons Ratio (x) = -0.08468 -0.05583
# Poissons Ratio (y) = -0.03378 0.08943
# Poissons Ratio (z) = -0.04555 0.18290
#
# Static dielectric constant tensor:
#      x y z
#    x 3.625420 0.106010 0.192250 
#    y 0.106010 4.411100 -0.355900 
#    z 0.192250 -0.355900 3.561070 
# 
# 
# High freq. dielectric constant tensor:
#      x y z
#    x 1.797240 0.021810 0.023790 
#    y 0.021810 1.833480 -0.023920 
#    z 0.023790 -0.023920 1.769960 
# 
# From -- ./inp_files/393131.got.cif
#   From: 2010.06.25/outbox.cif.g09.slc.cpg/sg2_197_cif.got.tgz:393131.got - 2010.06.27 13:26:56.
