data_PCOD8002500
_publ_section_title
;
Structure prediction by ZEFSAII (Michael W. Deem and Ramdas Pophale) SiO2 
 PCOD8002500
Probable space group: P -1
;
_chemical_formula_sum "Si O2"
_cell_formula_units_Z 16
_cell_length_a 16.486335
_cell_length_b 11.720949
_cell_length_c 8.490508
_cell_angle_alpha 127.238195
_cell_angle_beta 143.659699
_cell_angle_gamma 62.509692
_cell_volume 772.853575
_symmetry_space_group_name_H-M "P -1"
_symmetry_group_IT_number 2
_symmetry_cell_setting 'triclinic'
loop_
_space_group_symop_operation_xyz
x,y,z
-x,-y,-z
loop_
_atom_site_type_symbol
_atom_site_label
_atom_site_fract_x
_atom_site_fract_y
_atom_site_fract_z
Si Si1 0.732198 0.312566 0.845633
Si Si2 0.060316 0.942238 0.385012
Si Si3 0.657376 0.034671 0.314912
Si Si4 0.307830 0.437279 0.242874
Si Si5 0.983979 0.222400 0.361426
Si Si6 0.448788 0.501027 0.094972
Si Si7 0.965060 0.657762 0.126078
Si Si8 0.282041 0.264046 0.774077
O O1 0.657278 0.176289 0.534834
O O2 0.757687 0.437878 0.860446
O O3 0.636318 0.361691 0.879601
O O4 0.872174 0.262043 0.094197
O O5 0.228156 0.950527 0.636672
O O6 0.005817 0.774274 0.148507
O O7 0.000000 0.000000 0.500000
O O8 0.997298 0.048259 0.244995
O O9 0.699292 0.900938 0.374100
O O10 0.500000 0.000000 0.000000
O O11 0.428666 0.508408 0.596185
O O12 0.197835 0.351994 0.110776
O O13 0.360596 0.317998 0.104400
O O14 0.955723 0.289673 0.546181
O O15 0.123703 0.297129 0.574865
O O16 0.500000 0.500000 0.000000
O O17 0.348467 0.358623 0.817929
O O18 0.000000 0.500000 0.000000
#
# Coordination Sequence:
#
# PCOD8002500 Si02
#       8
#     2   2   2   2   2   2   2   2
#     4  11  23  41  66  94 125 167 219 268 306 399
#     4   9  20  40  62  94 135 167 203 274 327 370
#     4  11  21  39  68  92 120 173 222 252 312 391
#     4  10  21  40  62  89 124 169 209 252 331 384
#     4   9  21  40  62  90 126 168 215 256 324 379
#     4  11  24  42  61  91 131 170 207 270 330 375
#     4  10  20  35  63  95 126 164 208 267 314 374
#     4   9  20  40  64  86 125 169 208 260 314 388
#
# _framework density 20.702497999999999
#
# number of rings (size 3 to 8) (size 9 to 14) (size 15 to 20)
#    0.000    2.000    0.000    4.500    1.750    6.500 
#    6.750    0.625    0.000    0.000    0.000    0.000 
#    0.000    0.000    0.000    0.000    0.000    0.000 
#
# Total GULP energy -198212.964003 kJ/mol
# GULP energy per Si atom -12388.310250 kJ/mol
# Density = 2.065538 g / cm^3
# Si number density = 20.702498 Si / 1000 Ang^3
#
#
#
# Elastic Constant Matrix: (Units=GPa)
#
#
# Indices 1 2 3 4 5 6 
#
# 1 135.3077 52.1301 42.3475 8.3267 28.6009 5.1668
# 2 52.1301 132.1288 55.0624 17.2264 16.9330 5.3466
# 3 42.3475 55.0624 99.0605 -0.1402 21.5223 10.7335
# 4 8.3267 17.2264 -0.1402 46.0353 1.2389 0.2617
# 5 28.6009 16.9330 21.5223 1.2389 24.8925 4.0941
# 6 5.1668 5.3466 10.7335 0.2617 4.0941 29.5684
#
#
#
# Elastic Compliance Matrix: (Units=1/GPa)
#
#
# Indices 1 2 3 4 5 6 
#
# 1 0.010791 -0.002426 -0.001186 -0.000787 -0.009739 0.000339
# 2 -0.002426 0.011187 -0.005177 -0.003759 -0.000216 0.000343
# 3 -0.001186 -0.005177 0.015633 0.002439 -0.008191 -0.003419
# 4 -0.000787 -0.003759 0.002439 0.023274 0.000245 -0.000308
# 5 -0.009739 -0.000216 -0.008191 0.000245 0.059151 -0.003478
# 6 0.000339 0.000343 -0.003419 -0.000308 -0.003478 0.035424
#
#
# Mechanical properties :
#
#
# Convention : Reuss Voigt Hill
#
# Bulk Modulus (GPa) = 49.91959 73.95301 61.93630
# Shear Modulus (GPa) = 27.82195 34.56306 31.19250
#
# Velocity S-wave (km/s) = 3.66989 4.09040 3.88584
# Velocity P-wave (km/s) = 6.49020 7.62285 7.07921
#
# Compressibility (1/GPa) = 0.02003221
#
# Stress axis : x y z
#
# Youngs Moduli (GPa) = 92.67386 89.39244 63.96758
#
# Poissons Ratio (x) = 0.21685 0.07589
# Poissons Ratio (y) = 0.22481 0.33114
# Poissons Ratio (z) = 0.10995 0.46275
#
# Static dielectric constant tensor:
#      x y z
#    x 4.168340 0.150290 0.382270 
#    y 0.150290 4.196640 0.502050 
#    z 0.382270 0.502050 3.852660 
# 
# 
# High freq. dielectric constant tensor:
#      x y z
#    x 1.810530 -0.007520 0.020880 
#    y -0.007520 1.815060 0.023360 
#    z 0.020880 0.023360 1.798330 
# 
# From -- ./inp_files/256247.got.cif
#   From: 2010.06.25/outbox.cif.g09.slc.cpg/sg2_129_cif.got.tgz:256247.got - 2010.06.27 13:26:56.
