data_PCOD8002900
_publ_section_title
;
Structure prediction by ZEFSAII (Michael W. Deem and Ramdas Pophale) SiO2 
 PCOD8002900
Probable space group: P -1
;
_chemical_formula_sum "Si O2"
_cell_formula_units_Z 16
_cell_length_a 11.334240
_cell_length_b 18.512564
_cell_length_c 10.965649
_cell_angle_alpha 135.790699
_cell_angle_beta 67.028983
_cell_angle_gamma 145.059042
_cell_volume 798.864854
_symmetry_space_group_name_H-M "P -1"
_symmetry_group_IT_number 2
_symmetry_cell_setting 'triclinic'
loop_
_space_group_symop_operation_xyz
x,y,z
-x,-y,-z
loop_
_atom_site_type_symbol
_atom_site_label
_atom_site_fract_x
_atom_site_fract_y
_atom_site_fract_z
Si Si1 0.887712 0.948983 0.786167
Si Si2 0.604478 0.436058 0.356113
Si Si3 0.393444 0.519215 0.147261
Si Si4 0.800563 0.024244 0.408750
Si Si5 0.992826 0.376284 0.714900
Si Si6 0.730349 0.397214 0.879761
Si Si7 0.192454 0.054772 0.441107
Si Si8 0.270787 0.330270 0.210682
O O1 0.623748 0.756754 0.711227
O O2 0.868396 0.017040 0.761302
O O3 0.997436 0.915591 0.651973
O O4 0.046565 0.100794 0.016241
O O5 0.516168 0.435286 0.267261
O O6 0.764767 0.618124 0.598230
O O7 0.784883 0.469152 0.281774
O O8 0.231820 0.480209 0.078161
O O9 0.569822 0.717892 0.380854
O O10 0.259457 0.377191 0.141794
O O11 0.500000 0.500000 0.000000
O O12 0.847650 0.169890 0.512263
O O13 0.542336 0.802846 0.207482
O O14 0.800663 0.033338 0.569006
O O15 0.815194 0.348834 0.720943
O O16 0.095200 0.458813 0.907398
O O17 0.000000 0.000000 0.500000
#
# Coordination Sequence:
#
# PCOD8002900 Si02
#       8
#     2   2   2   2   2   2   2   2
#     4  11  21  36  57  92 121 150 194 245 297 343
#     4  11  23  38  56  86 125 156 197 230 297 359
#     4  11  20  35  60  88 119 146 191 250 295 342
#     4  10  20  36  60  86 119 151 192 248 294 337
#     4  11  23  40  62  82 118 164 191 240 287 354
#     4  10  24  40  59  91 114 150 204 240 291 345
#     4   9  19  31  52  90 119 145 185 243 295 339
#     4  11  22  35  58  89 117 157 190 244 295 347
#
# _framework density 20.028419
#
# number of rings (size 3 to 8) (size 9 to 14) (size 15 to 20)
#    0.000    1.500    1.250    6.000    7.000    1.000 
#    0.000    0.625    0.000    0.750    0.000    0.000 
#    0.000    0.000    0.000    0.000    0.000    0.000 
#
# Total GULP energy -198227.308984 kJ/mol
# GULP energy per Si atom -12389.206812 kJ/mol
# Density = 1.998283 g / cm^3
# Si number density = 20.028419 Si / 1000 Ang^3
#
#
#
# Elastic Constant Matrix: (Units=GPa)
#
#
# Indices 1 2 3 4 5 6 
#
# 1 102.6192 43.5435 21.9666 -7.6412 -2.3802 -8.3794
# 2 43.5435 99.6635 17.0601 -0.2639 -6.0197 -2.0254
# 3 21.9666 17.0601 95.1904 -6.7540 7.7591 -6.5999
# 4 -7.6412 -0.2639 -6.7540 17.7611 -0.0789 -0.7742
# 5 -2.3802 -6.0197 7.7591 -0.0789 24.0257 -0.9077
# 6 -8.3794 -2.0254 -6.5999 -0.7742 -0.9077 28.2566
#
#
#
# Elastic Compliance Matrix: (Units=1/GPa)
#
#
# Indices 1 2 3 4 5 6 
#
# 1 0.012972 -0.005295 -0.001505 0.005075 0.000585 0.003274
# 2 -0.005295 0.012781 -0.001587 -0.002721 0.003144 -0.000998
# 3 -0.001505 -0.001587 0.011919 0.003938 -0.004300 0.002194
# 4 0.005075 -0.002721 0.003938 0.060106 -0.001108 0.003841
# 5 0.000585 0.003144 -0.004300 -0.001108 0.043882 0.000774
# 6 0.003274 -0.000998 0.002194 0.003841 0.000774 0.036932
#
#
# Mechanical properties :
#
#
# Convention : Reuss Voigt Hill
#
# Bulk Modulus (GPa) = 47.85147 51.40148 49.62648
# Shear Modulus (GPa) = 24.71171 28.33553 26.52362
#
# Velocity S-wave (km/s) = 3.51641 3.76542 3.64304
# Velocity P-wave (km/s) = 6.35850 6.68016 6.52131
#
# Compressibility (1/GPa) = 0.02089800
#
# Stress axis : x y z
#
# Youngs Moduli (GPa) = 77.08642 78.24008 83.89879
#
# Poissons Ratio (x) = 0.41426 0.12629
# Poissons Ratio (y) = 0.40815 0.13318
# Poissons Ratio (z) = 0.11604 0.12419
#
# Static dielectric constant tensor:
#      x y z
#    x 4.179260 -0.445640 0.526110 
#    y -0.445640 3.860140 -0.332040 
#    z 0.526110 -0.332040 4.181100 
# 
# 
# High freq. dielectric constant tensor:
#      x y z
#    x 1.759430 -0.016950 0.014910 
#    y -0.016950 1.773760 0.009230 
#    z 0.014910 0.009230 1.791630 
# 
# From -- ./inp_files/438469.got.cif
#   From: 2010.06.25/outbox.cif.g09.slc.cpg/sg2_220_cif.got.tgz:438469.got - 2010.06.27 13:26:56.
