data_PCOD8002818
_publ_section_title
;
Structure prediction by ZEFSAII (Michael W. Deem and Ramdas Pophale) SiO2 
 PCOD8002818
Probable space group: P -1
;
_chemical_formula_sum "Si O2"
_cell_formula_units_Z 16
_cell_length_a 15.403284
_cell_length_b 14.890520
_cell_length_c 8.898514
_cell_angle_alpha 59.732352
_cell_angle_beta 142.676161
_cell_angle_gamma 137.711983
_cell_volume 814.710215
_symmetry_space_group_name_H-M "P -1"
_symmetry_group_IT_number 2
_symmetry_cell_setting 'triclinic'
loop_
_space_group_symop_operation_xyz
x,y,z
-x,-y,-z
loop_
_atom_site_type_symbol
_atom_site_label
_atom_site_fract_x
_atom_site_fract_y
_atom_site_fract_z
Si Si1 0.882252 0.068480 0.655042
Si Si2 0.420506 0.232100 0.998593
Si Si3 0.134228 0.970182 0.671438
Si Si4 0.297111 0.184875 0.192293
Si Si5 0.986514 0.656121 0.433936
Si Si6 0.578517 0.440091 0.568962
Si Si7 0.815862 0.673411 0.467351
Si Si8 0.767780 0.420214 0.116900
O O1 0.811430 0.996528 0.456570
O O2 0.864605 0.184762 0.543660
O O3 0.750817 0.952045 0.694585
O O4 0.103019 0.147577 0.910691
O O5 0.321682 0.292087 0.757120
O O6 0.318691 0.077491 0.934100
O O7 0.430994 0.234346 0.191207
O O8 0.626837 0.324092 0.137737
O O9 0.025064 0.810458 0.690952
O O10 0.000000 0.000000 0.500000
O O11 0.404086 0.304636 0.360120
O O12 0.833836 0.628716 0.366051
O O13 0.884265 0.573361 0.209753
O O14 0.096391 0.612960 0.699274
O O15 0.500000 0.500000 0.500000
O O16 0.738215 0.552355 0.578480
O O17 0.668000 0.399671 0.840616
#
# Coordination Sequence:
#
# PCOD8002818 Si02
#       8
#     2   2   2   2   2   2   2   2
#     4  10  20  36  59  86 119 153 193 240 293 346
#     4  11  20  37  60  90 118 153 196 242 287 344
#     4   9  17  34  55  85 117 151 188 236 290 340
#     4  11  22  34  59  90 119 150 193 249 288 338
#     4  10  22  44  60  84 117 163 192 232 300 354
#     4  12  24  35  57  93 119 147 197 249 289 336
#     4  10  21  37  61  84 122 151 196 236 295 345
#     4  11  24  39  62  85 121 154 197 241 289 352
#
# _framework density 19.638884999999998
#
# number of rings (size 3 to 8) (size 9 to 14) (size 15 to 20)
#    0.000    1.500    5.000    2.250    1.750    2.500 
#    0.000    6.250    0.000    0.000    0.000    0.000 
#    0.000    0.000    0.000    0.000    0.000    0.000 
#
# Total GULP energy -198373.215993 kJ/mol
# GULP energy per Si atom -12398.326000 kJ/mol
# Density = 1.959419 g / cm^3
# Si number density = 19.638885 Si / 1000 Ang^3
#
#
#
# Elastic Constant Matrix: (Units=GPa)
#
#
# Indices 1 2 3 4 5 6 
#
# 1 67.0706 38.5707 17.4720 3.6733 -15.0592 1.8591
# 2 38.5707 104.0674 15.1895 0.7093 -15.1867 2.7258
# 3 17.4720 15.1895 50.0632 12.4155 -17.2850 -7.9835
# 4 3.6733 0.7093 12.4155 20.6243 -0.7558 -9.8926
# 5 -15.0592 -15.1867 -17.2850 -0.7558 27.9946 2.7184
# 6 1.8591 2.7258 -7.9835 -9.8926 2.7184 40.8541
#
#
#
# Elastic Compliance Matrix: (Units=1/GPa)
#
#
# Indices 1 2 3 4 5 6 
#
# 1 0.020903 -0.006350 -0.002980 -0.002505 0.006098 -0.002122
# 2 -0.006350 0.012534 -0.000962 0.001063 0.002884 -0.000670
# 3 -0.002980 -0.000962 0.031569 -0.017317 0.016797 0.001058
# 4 -0.002505 0.001063 -0.017317 0.065244 -0.010982 0.013188
# 5 0.006098 0.002884 0.016797 -0.010982 0.050955 -0.003237
# 6 -0.002122 -0.000670 0.001058 0.013188 -0.003237 0.028234
#
#
# Mechanical properties :
#
#
# Convention : Reuss Voigt Hill
#
# Bulk Modulus (GPa) = 22.51094 40.40727 31.45910
# Shear Modulus (GPa) = 20.42230 27.89254 24.15742
#
# Velocity S-wave (km/s) = 3.22823 3.77274 3.51106
# Velocity P-wave (km/s) = 5.03812 6.29268 5.70002
#
# Compressibility (1/GPa) = 0.04442284
#
# Stress axis : x y z
#
# Youngs Moduli (GPa) = 47.84062 79.78270 31.67620
#
# Poissons Ratio (x) = 0.50659 0.09441
# Poissons Ratio (y) = 0.30377 0.03046
# Poissons Ratio (z) = 0.14258 0.07673
#
# Static dielectric constant tensor:
#      x y z
#    x 3.532890 -0.047810 -0.223850 
#    y -0.047810 4.050490 0.157680 
#    z -0.223850 0.157680 3.404860 
# 
# 
# High freq. dielectric constant tensor:
#      x y z
#    x 1.761010 -0.002140 -0.020310 
#    y -0.002140 1.781300 0.013010 
#    z -0.020310 0.013010 1.736150 
# 
# From -- ./inp_files/262042.got.cif
#   From: 2010.06.25/outbox.cif.g09.slc.cpg/sg2_132_cif.got.tgz:262042.got - 2010.06.27 13:26:56.
