data_PCOD8002674
_publ_section_title
;
Structure prediction by ZEFSAII (Michael W. Deem and Ramdas Pophale) SiO2 
 PCOD8002674
Probable space group: P -1
;
_chemical_formula_sum "Si O2"
_cell_formula_units_Z 16
_cell_length_a 8.467893
_cell_length_b 11.794097
_cell_length_c 16.806103
_cell_angle_alpha 153.358814
_cell_angle_beta 119.705787
_cell_angle_gamma 66.502043
_cell_volume 649.482762
_symmetry_space_group_name_H-M "P -1"
_symmetry_group_IT_number 2
_symmetry_cell_setting 'triclinic'
loop_
_space_group_symop_operation_xyz
x,y,z
-x,-y,-z
loop_
_atom_site_type_symbol
_atom_site_label
_atom_site_fract_x
_atom_site_fract_y
_atom_site_fract_z
Si Si1 0.854893 0.850213 0.097609
Si Si2 0.270581 0.804251 0.172761
Si Si3 0.732048 0.832518 0.762166
Si Si4 0.978925 0.713125 0.887594
Si Si5 0.576260 0.405064 0.776056
Si Si6 0.752004 0.632007 0.224613
Si Si7 0.663719 0.279203 0.380523
Si Si8 0.612809 0.141677 0.456356
O O1 0.064444 0.840339 0.166955
O O2 0.809437 0.134650 0.279687
O O3 0.824543 0.770528 0.947699
O O4 0.716534 0.653893 0.989668
O O5 0.370239 0.819363 0.293784
O O6 0.403713 0.035102 0.307154
O O7 0.302069 0.535649 0.972512
O O8 0.906757 0.771168 0.820425
O O9 0.687995 0.569507 0.535233
O O10 0.541520 0.860857 0.778236
O O11 0.830874 0.100569 0.917521
O O12 0.042233 0.428994 0.735858
O O13 0.371810 0.452053 0.781139
O O14 0.595966 0.338434 0.646785
O O15 0.737938 0.922713 0.377556
O O16 0.702285 0.284947 0.490214
#
# Coordination Sequence:
#
# PCOD8002674 Si02
#       8
#     2   2   2   2   2   2   2   2
#     4  11  22  37  60  87 119 154 198 245 293 348
#     4  10  20  36  57  86 123 159 193 233 292 359
#     4  10  23  43  63  82 118 158 201 246 290 349
#     4  10  22  42  63  89 117 154 199 246 296 347
#     4  11  21  35  57  90 125 158 193 236 292 356
#     4  10  20  38  65  89 120 157 193 241 299 355
#     4  11  23  41  62  87 119 159 198 243 295 348
#     4  11  22  38  61  90 123 156 197 240 293 355
#
# _framework density 24.634989000000001
#
# number of rings (size 3 to 8) (size 9 to 14) (size 15 to 20)
#    0.000    1.500    0.000    7.875    0.000    4.000 
#    0.000    8.750    0.000    0.000    0.000    0.000 
#    0.000    0.000    0.000    0.000    0.000    0.000 
#
# Total GULP energy -198263.313870 kJ/mol
# GULP energy per Si atom -12391.457117 kJ/mol
# Density = 2.457892 g / cm^3
# Si number density = 24.634989 Si / 1000 Ang^3
#
#
#
# Elastic Constant Matrix: (Units=GPa)
#
#
# Indices 1 2 3 4 5 6 
#
# 1 80.7272 15.9834 35.0169 13.6150 -26.0331 -5.8600
# 2 15.9834 50.2923 13.1917 5.4899 -15.7489 -7.7122
# 3 35.0169 13.1917 70.4532 15.8433 -9.6389 -8.5466
# 4 13.6150 5.4899 15.8433 35.4122 -2.3218 2.4913
# 5 -26.0331 -15.7489 -9.6389 -2.3218 47.8856 13.5024
# 6 -5.8600 -7.7122 -8.5466 2.4913 13.5024 28.1137
#
#
#
# Elastic Compliance Matrix: (Units=1/GPa)
#
#
# Indices 1 2 3 4 5 6 
#
# 1 0.019243 -0.001343 -0.007752 -0.002925 0.009117 -0.002833
# 2 -0.001343 0.023282 -0.002124 -0.001986 0.005568 0.002963
# 3 -0.007752 -0.002124 0.020191 -0.006319 -0.002803 0.005846
# 4 -0.002925 -0.001986 -0.006319 0.032893 -0.000268 -0.005862
# 5 0.009117 0.005568 -0.002803 -0.000268 0.030490 -0.012044
# 6 -0.002833 0.002963 0.005846 -0.005862 -0.012044 0.043873
#
#
# Mechanical properties :
#
#
# Convention : Reuss Voigt Hill
#
# Bulk Modulus (GPa) = 24.82638 36.65074 30.73856
# Shear Modulus (GPa) = 24.29114 31.43436 27.86275
#
# Velocity S-wave (km/s) = 3.14354 3.57600 3.36672
# Velocity P-wave (km/s) = 4.82445 5.65333 5.25526
#
# Compressibility (1/GPa) = 0.04027974
#
# Stress axis : x y z
#
# Youngs Moduli (GPa) = 51.96608 42.95080 49.52736
#
# Poissons Ratio (x) = 0.05767 0.38391
# Poissons Ratio (y) = 0.06978 0.10520
# Poissons Ratio (z) = 0.40282 0.09123
#
# Static dielectric constant tensor:
#      x y z
#    x 4.483410 -0.086560 0.203080 
#    y -0.086560 4.511440 0.045050 
#    z 0.203080 0.045050 4.285990 
# 
# 
# High freq. dielectric constant tensor:
#      x y z
#    x 1.979360 -0.008100 0.014820 
#    y -0.008100 1.995340 0.003740 
#    z 0.014820 0.003740 1.973230 
# 
# From -- ./inp_files/223619.got.cif
#   From: 2010.06.25/outbox.cif.g09.slc.cpg/sg2_112_cif.got.tgz:223619.got - 2010.06.27 13:26:56.
