data_PCOD8002598
_publ_section_title
;
Structure prediction by ZEFSAII (Michael W. Deem and Ramdas Pophale) SiO2 
 PCOD8002598
Probable space group: P -1
;
_chemical_formula_sum "Si O2"
_cell_formula_units_Z 16
_cell_length_a 20.991870
_cell_length_b 8.028497
_cell_length_c 6.974987
_cell_angle_alpha 122.870351
_cell_angle_beta 128.956032
_cell_angle_gamma 76.300027
_cell_volume 757.895210
_symmetry_space_group_name_H-M "P -1"
_symmetry_group_IT_number 2
_symmetry_cell_setting 'triclinic'
loop_
_space_group_symop_operation_xyz
x,y,z
-x,-y,-z
loop_
_atom_site_type_symbol
_atom_site_label
_atom_site_fract_x
_atom_site_fract_y
_atom_site_fract_z
Si Si1 0.098071 0.040114 0.697533
Si Si2 0.074174 0.772408 0.163809
Si Si3 0.737039 0.712163 0.411574
Si Si4 0.812111 0.146696 0.915876
Si Si5 0.671826 0.407908 0.806269
Si Si6 0.387368 0.490844 0.644424
Si Si7 0.471544 0.761689 0.298286
Si Si8 0.105639 0.384939 0.184220
O O1 0.115355 0.984470 0.474355
O O2 0.143376 0.900612 0.834773
O O3 0.000000 0.000000 0.500000
O O4 0.127757 0.271119 0.958637
O O5 0.114439 0.752292 0.022536
O O6 0.092560 0.605847 0.245990
O O7 0.974068 0.744479 0.939706
O O8 0.676961 0.657378 0.444067
O O9 0.818458 0.606479 0.521397
O O10 0.760485 0.951014 0.595071
O O11 0.690717 0.629147 0.076977
O O12 0.749450 0.298905 0.932584
O O13 0.660244 0.424338 0.568044
O O14 0.589980 0.282858 0.667019
O O15 0.452770 0.359996 0.600270
O O16 0.428635 0.684130 0.967158
O O17 0.500000 0.000000 0.500000
#
# Coordination Sequence:
#
# PCOD8002598 Si02
#       8
#     2   2   2   2   2   2   2   2
#     4   9  20  37  55  78 110 149 193 240 286 333
#     4  10  20  36  56  79 110 150 196 243 287 336
#     4  10  22  38  55  82 119 150 187 239 285 334
#     4  11  23  36  57  86 114 152 200 238 284 342
#     4  11  23  39  61  89 118 151 189 232 286 341
#     4  10  22  40  61  88 118 150 189 230 282 345
#     4  10  22  41  65  89 118 150 185 231 280 340
#     4   9  19  37  56  78 113 151 190 240 291 337
#
# _framework density 21.111097000000001
#
# number of rings (size 3 to 8) (size 9 to 14) (size 15 to 20)
#    0.000    2.000    0.000    2.625    0.000   10.000 
#    0.000   10.000    0.000    0.000    0.000    0.000 
#    0.000    0.000    0.000    0.000    0.000    0.000 
#
# Total GULP energy -198356.412328 kJ/mol
# GULP energy per Si atom -12397.275770 kJ/mol
# Density = 2.106305 g / cm^3
# Si number density = 21.111097 Si / 1000 Ang^3
#
#
#
# Elastic Constant Matrix: (Units=GPa)
#
#
# Indices 1 2 3 4 5 6 
#
# 1 106.1745 6.4621 18.6517 -2.3683 -0.2381 -9.6219
# 2 6.4621 31.7530 23.8439 0.9064 -1.9345 -16.3939
# 3 18.6517 23.8439 88.6687 -0.2551 3.0188 2.6709
# 4 -2.3683 0.9064 -0.2551 32.2576 -0.1556 6.5180
# 5 -0.2381 -1.9345 3.0188 -0.1556 24.2324 -1.7422
# 6 -9.6219 -16.3939 2.6709 6.5180 -1.7422 27.8264
#
#
#
# Elastic Compliance Matrix: (Units=1/GPa)
#
#
# Indices 1 2 3 4 5 6 
#
# 1 0.010367 0.003966 -0.003490 -0.000685 0.001316 0.006499
# 2 0.003966 0.076522 -0.023462 -0.012581 0.012761 0.052452
# 3 -0.003490 -0.023462 0.019071 0.004203 -0.005564 -0.018193
# 4 -0.000685 -0.012581 0.004203 0.034622 -0.002486 -0.016318
# 5 0.001316 0.012761 -0.005564 -0.002486 0.043827 0.011833
# 6 0.006499 0.052452 -0.018193 -0.016318 0.011833 0.075395
#
#
# Mechanical properties :
#
#
# Convention : Reuss Voigt Hill
#
# Bulk Modulus (GPa) = 16.67038 36.05684 26.36361
# Shear Modulus (GPa) = 15.34819 28.70585 22.02702
#
# Velocity S-wave (km/s) = 2.69926 3.69148 3.23365
# Velocity P-wave (km/s) = 4.19861 5.94020 5.14365
#
# Compressibility (1/GPa) = 0.05998663
#
# Stress axis : x y z
#
# Youngs Moduli (GPa) = 96.46245 13.06821 52.43632
#
# Poissons Ratio (x) = -0.05182 0.18298
# Poissons Ratio (y) = -0.38253 1.23027
# Poissons Ratio (z) = 0.33661 0.30661
#
# Static dielectric constant tensor:
#      x y z
#    x 3.905170 -0.210290 0.004280 
#    y -0.210290 3.584640 0.173330 
#    z 0.004280 0.173330 4.091380 
# 
# 
# High freq. dielectric constant tensor:
#      x y z
#    x 1.831240 -0.015870 0.004020 
#    y -0.015870 1.813690 0.008350 
#    z 0.004020 0.008350 1.836820 
# 
# From -- ./inp_files/106085.got.cif
#   From: 2010.06.25/outbox.cif.g09.slc.cpg/sg2_54_cif.got.tgz:106085.got - 2010.06.27 13:26:56.
