data_PCOD8002067
_publ_section_title
;
Structure prediction by ZEFSAII (Michael W. Deem and Ramdas Pophale) SiO2 
 PCOD8002067
Probable space group: P -1
;
_chemical_formula_sum "Si O2"
_cell_formula_units_Z 16
_cell_length_a 20.717979
_cell_length_b 17.264236
_cell_length_c 5.336774
_cell_angle_alpha 60.493282
_cell_angle_beta 125.138895
_cell_angle_gamma 150.961239
_cell_volume 757.430038
_symmetry_space_group_name_H-M "P -1"
_symmetry_group_IT_number 2
_symmetry_cell_setting 'triclinic'
loop_
_space_group_symop_operation_xyz
x,y,z
-x,-y,-z
loop_
_atom_site_type_symbol
_atom_site_label
_atom_site_fract_x
_atom_site_fract_y
_atom_site_fract_z
Si Si1 0.706365 0.960388 0.317425
Si Si2 0.907873 0.026550 0.912956
Si Si3 0.802467 0.763341 0.839492
Si Si4 0.340525 0.793894 0.738726
Si Si5 0.617506 0.470367 0.183123
Si Si6 0.313920 0.222492 0.798926
Si Si7 0.674701 0.128079 0.917793
Si Si8 0.607578 0.353711 0.825803
O O1 0.834210 0.052001 0.643043
O O2 0.688977 0.873834 0.196848
O O3 0.554345 0.819520 0.342171
O O4 0.739765 0.090415 0.085085
O O5 0.881310 0.932047 0.779523
O O6 0.831093 0.910481 0.160399
O O7 0.078176 0.195226 0.060214
O O8 0.682553 0.680429 0.502322
O O9 0.725579 0.654008 0.091501
O O10 0.271030 0.763094 0.371874
O O11 0.506073 0.967759 0.807058
O O12 0.272066 0.780487 0.845718
O O13 0.309067 0.659936 0.918946
O O14 0.673518 0.465882 0.552263
O O15 0.459087 0.357537 0.069163
O O16 0.621822 0.424050 0.998418
#
# Coordination Sequence:
#
# PCOD8002067 Si02
#       8
#     2   2   2   2   2   2   2   2
#     4   9  19  32  51  82 108 145 179 223 273 321
#     4  10  20  38  55  74 113 142 182 229 274 315
#     4  10  23  36  53  81 104 147 188 224 272 322
#     4   9  17  29  47  77 110 142 167 218 272 319
#     4  11  22  36  57  82 109 147 184 225 266 327
#     4  10  20  35  55  77 111 143 179 230 275 315
#     4   9  17  27  49  77 110 138 175 212 268 328
#     4  10  20  35  54  80 115 143 179 224 276 318
#
# _framework density 21.124063
#
# number of rings (size 3 to 8) (size 9 to 14) (size 15 to 20)
#    0.000    2.250    1.250    1.500    3.500    3.500 
#    0.000    0.000    0.000    0.000    0.000    5.250 
#    0.000    0.000    0.000    0.000    0.000    0.000 
#
# Total GULP energy -198254.230888 kJ/mol
# GULP energy per Si atom -12390.889431 kJ/mol
# Density = 2.107598 g / cm^3
# Si number density = 21.124063 Si / 1000 Ang^3
#
#
#
# Elastic Constant Matrix: (Units=GPa)
#
#
# Indices 1 2 3 4 5 6 
#
# 1 64.5329 14.2087 49.4621 -2.1465 4.6998 7.2551
# 2 14.2087 34.2708 26.6931 -8.2795 7.3147 12.4699
# 3 49.4621 26.6931 175.4617 -26.8639 4.6669 2.5400
# 4 -2.1465 -8.2795 -26.8639 20.5399 -0.3685 -6.6068
# 5 4.6998 7.3147 4.6669 -0.3685 41.8772 -3.1698
# 6 7.2551 12.4699 2.5400 -6.6068 -3.1698 21.1310
#
#
#
# Elastic Compliance Matrix: (Units=1/GPa)
#
#
# Indices 1 2 3 4 5 6 
#
# 1 0.022687 -0.002419 -0.007616 -0.011624 -0.002088 -0.009394
# 2 -0.002419 0.046691 -0.005353 0.002851 -0.009274 -0.026580
# 3 -0.007616 -0.005353 0.010614 0.013863 0.001413 0.009045
# 4 -0.011624 0.002851 0.013863 0.074574 0.001751 0.024221
# 5 -0.002088 -0.009274 0.001413 0.001751 0.026388 0.010526
# 6 -0.009394 -0.026580 0.009045 0.024221 0.010526 0.074299
#
#
# Mechanical properties :
#
#
# Convention : Reuss Voigt Hill
#
# Bulk Modulus (GPa) = 20.31794 50.55479 35.43636
# Shear Modulus (GPa) = 16.53244 28.96974 22.75109
#
# Velocity S-wave (km/s) = 2.80060 3.70727 3.28536
# Velocity P-wave (km/s) = 4.48297 6.50457 5.58599
#
# Compressibility (1/GPa) = 0.04921760
#
# Stress axis : x y z
#
# Youngs Moduli (GPa) = 44.07790 21.41721 94.21089
#
# Poissons Ratio (x) = 0.05180 0.71747
# Poissons Ratio (y) = 0.10661 0.50435
# Poissons Ratio (z) = 0.33568 0.11466
#
# Static dielectric constant tensor:
#      x y z
#    x 3.826830 0.014510 0.162340 
#    y 0.014510 3.410520 0.003230 
#    z 0.162340 0.003230 4.026000 
# 
# 
# High freq. dielectric constant tensor:
#      x y z
#    x 1.820230 -0.005740 0.001670 
#    y -0.005740 1.771210 -0.010890 
#    z 0.001670 -0.010890 1.840220 
# 
# From -- ./inp_files/56937.got.cif
#   From: 2010.06.25/outbox.cif.g09.slc.cpg/sg2_29_cif.got.tgz:56937.got - 2010.06.27 13:26:56.
