data_PCOD8002545
_publ_section_title
;
Structure prediction by ZEFSAII (Michael W. Deem and Ramdas Pophale) SiO2 
 PCOD8002545
Probable space group: P -1
;
_chemical_formula_sum "Si O2"
_cell_formula_units_Z 14
_cell_length_a 7.639712
_cell_length_b 20.149995
_cell_length_c 13.198138
_cell_angle_alpha 146.109908
_cell_angle_beta 34.763891
_cell_angle_gamma 133.963666
_cell_volume 645.490067
_symmetry_space_group_name_H-M "P -1"
_symmetry_group_IT_number 2
_symmetry_cell_setting 'triclinic'
loop_
_space_group_symop_operation_xyz
x,y,z
-x,-y,-z
loop_
_atom_site_type_symbol
_atom_site_label
_atom_site_fract_x
_atom_site_fract_y
_atom_site_fract_z
Si Si1 0.698372 0.684956 0.290504
Si Si2 0.923536 0.237381 0.611714
Si Si3 0.947742 0.115573 0.737095
Si Si4 0.840772 0.474537 0.838606
Si Si5 0.008626 0.589416 0.516322
Si Si6 0.590768 0.804310 0.029317
Si Si7 0.843605 0.981320 0.279090
O O1 0.337687 0.655575 0.426175
O O2 0.778316 0.726069 0.417860
O O3 0.784787 0.787293 0.297037
O O4 0.911077 0.572107 0.016722
O O5 0.858819 0.338954 0.691979
O O6 0.635114 0.222362 0.803928
O O7 0.994215 0.114684 0.362991
O O8 0.604487 0.156918 0.926554
O O9 0.972209 0.089426 0.811809
O O10 0.000000 0.000000 0.500000
O O11 0.060805 0.487618 0.651153
O O12 0.500000 0.500000 0.000000
O O13 0.000000 0.500000 0.500000
O O14 0.754710 0.685315 0.772223
O O15 0.838159 0.907246 0.081883
O O16 0.500000 0.000000 0.500000
#
# Coordination Sequence:
#
# PCOD8002545 Si02
#       7
#     2   2   2   2   2   2   2
#     4  10  22  40  67  91 124 166 212 266 306 387
#     4  10  20  41  64  93 119 163 224 254 310 385
#     4  11  20  40  67  99 124 165 222 255 312 385
#     4  10  22  37  64  87 117 169 213 255 313 381
#     4  11  25  43  59  93 134 166 210 267 326 373
#     4  10  22  39  65  93 129 169 206 270 317 369
#     4  10  20  35  69  92 125 166 211 258 316 377
#
# _framework density 21.688946999999999
#
# number of rings (size 3 to 8) (size 9 to 14) (size 15 to 20)
#    0.000    1.714    4.286    2.143   10.000    1.143 
#    2.571    7.143    0.000    0.000    0.000    0.000 
#    0.000    0.000    0.000    0.000    0.000    0.000 
#
# Total GULP energy -173509.312593 kJ/mol
# GULP energy per Si atom -12393.522328 kJ/mol
# Density = 2.163958 g / cm^3
# Si number density = 21.688947 Si / 1000 Ang^3
#
#
#
# Elastic Constant Matrix: (Units=GPa)
#
#
# Indices 1 2 3 4 5 6 
#
# 1 103.2240 32.7283 28.2757 10.3216 -18.6260 -9.5206
# 2 32.7283 96.7369 21.1765 26.1606 -11.4644 -10.6745
# 3 28.2757 21.1765 99.8181 15.6381 -17.3565 -2.7353
# 4 10.3216 26.1606 15.6381 27.9815 -7.3967 -5.5521
# 5 -18.6260 -11.4644 -17.3565 -7.3967 29.1365 12.4869
# 6 -9.5206 -10.6745 -2.7353 -5.5521 12.4869 36.6280
#
#
#
# Elastic Compliance Matrix: (Units=1/GPa)
#
#
# Indices 1 2 3 4 5 6 
#
# 1 0.012182 -0.003338 -0.001980 0.001250 0.005450 0.000377
# 2 -0.003338 0.015041 -0.000305 -0.012395 -0.000276 0.001708
# 3 -0.001980 -0.000305 0.012336 -0.004829 0.005755 -0.002376
# 4 0.001250 -0.012395 -0.004829 0.051379 0.005053 0.002418
# 5 0.005450 -0.000276 0.005755 0.005053 0.048393 -0.013966
# 6 0.000377 0.001708 -0.002376 0.002418 -0.013966 0.032848
#
#
# Mechanical properties :
#
#
# Convention : Reuss Voigt Hill
#
# Bulk Modulus (GPa) = 35.32067 51.57112 43.44589
# Shear Modulus (GPa) = 25.92520 33.25577 29.59049
#
# Velocity S-wave (km/s) = 3.46109 3.91999 3.69767
# Velocity P-wave (km/s) = 5.68266 6.65715 6.18912
#
# Compressibility (1/GPa) = 0.02831203
#
# Stress axis : x y z
#
# Youngs Moduli (GPa) = 82.08963 66.48436 81.06362
#
# Poissons Ratio (x) = 0.22195 0.16054
# Poissons Ratio (y) = 0.27405 0.02470
# Poissons Ratio (z) = 0.16257 0.02026
#
# Static dielectric constant tensor:
#      x y z
#    x 4.639340 0.350740 0.728150 
#    y 0.350740 4.014800 0.541040 
#    z 0.728150 0.541040 4.261500 
# 
# 
# High freq. dielectric constant tensor:
#      x y z
#    x 1.863630 0.001820 0.005920 
#    y 0.001820 1.836490 0.032520 
#    z 0.005920 0.032520 1.844550 
# 
# From -- ./inp_files/399053.got.cif
#   From: 2010.06.25/outbox.cif.g09.slc.cpg/sg2_200_cif.got.tgz:399053.got - 2010.06.27 13:26:56.
