data_PCOD8002344
_publ_section_title
;
Structure prediction by ZEFSAII (Michael W. Deem and Ramdas Pophale) SiO2 
 PCOD8002344
Probable space group: P -1
;
_chemical_formula_sum "Si O2"
_cell_formula_units_Z 16
_cell_length_a 12.305390
_cell_length_b 13.712661
_cell_length_c 5.310408
_cell_angle_alpha 71.083209
_cell_angle_beta 113.012341
_cell_angle_gamma 68.877099
_cell_volume 646.704713
_symmetry_space_group_name_H-M "P -1"
_symmetry_group_IT_number 2
_symmetry_cell_setting 'triclinic'
loop_
_space_group_symop_operation_xyz
x,y,z
-x,-y,-z
loop_
_atom_site_type_symbol
_atom_site_label
_atom_site_fract_x
_atom_site_fract_y
_atom_site_fract_z
Si Si1 0.425551 0.965706 0.159718
Si Si2 0.134398 0.050021 0.401385
Si Si3 0.302410 0.759181 0.707920
Si Si4 0.288064 0.156468 0.246600
Si Si5 0.035558 0.391670 0.438436
Si Si6 0.218513 0.391393 0.203125
Si Si7 0.545953 0.275851 0.641490
Si Si8 0.009263 0.818164 0.336401
O O1 0.547399 0.888641 0.545735
O O2 0.387419 0.870069 0.112061
O O3 0.282987 0.089427 0.041597
O O4 0.500000 0.000000 0.000000
O O5 0.233099 0.105659 0.459443
O O6 0.053923 0.085177 0.567151
O O7 0.229778 0.905249 0.553698
O O8 0.023407 0.112207 0.017998
O O9 0.396710 0.708780 0.582816
O O10 0.179915 0.732689 0.596537
O O11 0.401076 0.683507 0.103760
O O12 0.206643 0.307020 0.041086
O O13 0.046913 0.272214 0.667589
O O14 0.000000 0.500000 0.500000
O O15 0.181142 0.346071 0.460288
O O16 0.896845 0.461771 0.065607
O O17 0.374729 0.361905 0.402207
#
# Coordination Sequence:
#
# PCOD8002344 Si02
#       8
#     2   2   2   2   2   2   2   2
#     4  10  21  33  58  95 138 181 210 269 334 422
#     4  12  23  42  68 104 137 183 223 280 340 412
#     4  12  25  47  66 104 141 188 224 275 336 424
#     4  10  20  35  59  95 136 169 219 270 344 402
#     4  11  25  46  74 100 133 177 233 298 349 406
#     4  10  24  44  68 102 133 179 229 293 353 401
#     4  11  25  42  70  98 145 180 226 279 343 409
#     4  12  27  45  72  98 139 183 237 280 339 407
#
# _framework density 24.74081
#
# number of rings (size 3 to 8) (size 9 to 14) (size 15 to 20)
#    0.000    1.000    2.500    3.750    8.750    1.000 
#    0.000    1.250    0.000    0.000    0.000    0.000 
#    0.000    0.000    0.000    0.000    0.000    0.000 
#
# Total GULP energy -198331.208168 kJ/mol
# GULP energy per Si atom -12395.700511 kJ/mol
# Density = 2.468450 g / cm^3
# Si number density = 24.740810 Si / 1000 Ang^3
#
#
#
# Elastic Constant Matrix: (Units=GPa)
#
#
# Indices 1 2 3 4 5 6 
#
# 1 115.2855 16.7197 31.0593 17.4018 17.3983 -28.9012
# 2 16.7197 52.5306 27.2694 7.8636 0.5920 -20.7280
# 3 31.0593 27.2694 85.3103 22.4340 5.9791 -13.6092
# 4 17.4018 7.8636 22.4340 45.4712 -2.2909 -4.9475
# 5 17.3983 0.5920 5.9791 -2.2909 43.0263 7.6224
# 6 -28.9012 -20.7280 -13.6092 -4.9475 7.6224 37.9703
#
#
#
# Elastic Compliance Matrix: (Units=1/GPa)
#
#
# Indices 1 2 3 4 5 6 
#
# 1 0.013580 0.002098 -0.002298 -0.003529 -0.007461 0.011696
# 2 0.002098 0.027985 -0.006931 -0.000752 -0.002947 0.014884
# 3 -0.002298 -0.006931 0.016483 -0.006145 -0.001574 -0.000110
# 4 -0.003529 -0.000752 -0.006145 0.026422 0.004176 -0.002695
# 5 -0.007461 -0.002947 -0.001574 0.004176 0.029068 -0.013143
# 6 0.011696 0.014884 -0.000110 -0.002695 -0.013143 0.045612
#
#
# Mechanical properties :
#
#
# Convention : Reuss Voigt Hill
#
# Bulk Modulus (GPa) = 22.83797 44.80256 33.82027
# Shear Modulus (GPa) = 26.59496 37.16543 31.88020
#
# Velocity S-wave (km/s) = 3.28219 3.88002 3.59356
# Velocity P-wave (km/s) = 4.85949 6.18230 5.56037
#
# Compressibility (1/GPa) = 0.04378672
#
# Stress axis : x y z
#
# Youngs Moduli (GPa) = 73.63997 35.73309 60.66959
#
# Poissons Ratio (x) = -0.07497 0.13941
# Poissons Ratio (y) = -0.15450 0.42048
# Poissons Ratio (z) = 0.16921 0.24765
#
# Static dielectric constant tensor:
#      x y z
#    x 4.265910 -0.211850 0.364570 
#    y -0.211850 4.626610 -0.035420 
#    z 0.364570 -0.035420 5.031490 
# 
# 
# High freq. dielectric constant tensor:
#      x y z
#    x 1.985540 -0.014910 0.018010 
#    y -0.014910 1.969890 0.013970 
#    z 0.018010 0.013970 2.003550 
# 
# From -- ./inp_files/75828.got.cif
#   From: 2010.06.25/outbox.cif.g09.slc.cpg/sg2_38_cif.got.tgz:75828.got - 2010.06.27 13:26:56.
