data_PCOD8002146
_publ_section_title
;
Structure prediction by ZEFSAII (Michael W. Deem and Ramdas Pophale) SiO2 
 PCOD8002146
Probable space group: P -1
;
_chemical_formula_sum "Si O2"
_cell_formula_units_Z 16
_cell_length_a 4.996169
_cell_length_b 15.312097
_cell_length_c 12.460164
_cell_angle_alpha 119.922638
_cell_angle_beta 77.031471
_cell_angle_gamma 88.990177
_cell_volume 795.557465
_symmetry_space_group_name_H-M "P -1"
_symmetry_group_IT_number 2
_symmetry_cell_setting 'triclinic'
loop_
_space_group_symop_operation_xyz
x,y,z
-x,-y,-z
loop_
_atom_site_type_symbol
_atom_site_label
_atom_site_fract_x
_atom_site_fract_y
_atom_site_fract_z
Si Si1 0.616237 0.703166 0.515649
Si Si2 0.372091 0.279566 0.930689
Si Si3 0.545459 0.581530 0.636591
Si Si4 0.782732 0.883555 0.491102
Si Si5 0.384377 0.447493 0.879373
Si Si6 0.805214 0.404709 0.633098
Si Si7 0.198808 0.639734 0.901716
Si Si8 0.649643 0.113798 0.654121
O O1 0.639982 0.679184 0.627229
O O2 0.660865 0.818254 0.555513
O O3 0.324520 0.675349 0.481672
O O4 0.871596 0.630073 0.391393
O O5 0.276245 0.347630 0.874610
O O6 0.542971 0.173086 0.809054
O O7 0.553897 0.325928 0.031032
O O8 0.076909 0.275534 0.013326
O O9 0.500000 0.500000 0.500000
O O10 0.778255 0.518930 0.654895
O O11 0.279536 0.624966 0.760109
O O12 0.609825 0.880996 0.397227
O O13 0.102035 0.840841 0.402666
O O14 0.762066 0.997929 0.608955
O O15 0.647459 0.406071 0.758614
O O16 0.154724 0.527530 0.884617
O O17 0.500000 0.500000 0.000000
#
# Coordination Sequence:
#
# PCOD8002146 Si02
#       8
#     2   2   2   2   2   2   2   2
#     4  11  20  34  55  75 101 135 172 215 260 303
#     4  11  20  34  52  72 103 139 169 205 258 311
#     4   9  21  37  54  76 106 140 177 220 258 297
#     4  10  20  35  56  83 106 133 173 215 261 314
#     4   9  19  31  47  71 101 133 167 203 244 305
#     4  10  21  33  50  77 106 135 171 208 256 309
#     4  10  22  34  49  74 102 135 174 209 251 308
#     4  10  21  36  55  80 110 135 167 216 266 311
#
# _framework density 20.111682999999999
#
# number of rings (size 3 to 8) (size 9 to 14) (size 15 to 20)
#    0.000    2.000    0.000    3.750    0.000   14.000 
#    0.000    0.000    0.000    1.500    0.000    0.000 
#    0.000    0.000    0.000    0.000    0.000    0.000 
#
# Total GULP energy -198265.020159 kJ/mol
# GULP energy per Si atom -12391.563760 kJ/mol
# Density = 2.006591 g / cm^3
# Si number density = 20.111683 Si / 1000 Ang^3
#
#
#
# Elastic Constant Matrix: (Units=GPa)
#
#
# Indices 1 2 3 4 5 6 
#
# 1 68.9511 3.6541 24.9272 2.9279 -16.4220 1.0333
# 2 3.6541 99.3735 37.9281 -6.7154 -6.1068 12.1328
# 3 24.9272 37.9281 124.7835 -1.0825 -21.0036 1.3380
# 4 2.9279 -6.7154 -1.0825 24.1922 -2.7922 -4.3245
# 5 -16.4220 -6.1068 -21.0036 -2.7922 26.2539 4.5965
# 6 1.0333 12.1328 1.3380 -4.3245 4.5965 18.2962
#
#
#
# Elastic Compliance Matrix: (Units=1/GPa)
#
#
# Indices 1 2 3 4 5 6 
#
# 1 0.017822 0.001273 -0.002166 -0.001537 0.010363 -0.004659
# 2 0.001273 0.012700 -0.003573 0.002006 0.002577 -0.008406
# 3 -0.002166 -0.003573 0.010595 0.000517 0.006300 0.000257
# 4 -0.001537 0.002006 0.000517 0.043951 0.003137 0.008319
# 5 0.010363 0.002577 0.006300 0.003137 0.053239 -0.015388
# 6 -0.004659 -0.008406 0.000257 0.008319 -0.015388 0.066307
#
#
# Mechanical properties :
#
#
# Convention : Reuss Voigt Hill
#
# Bulk Modulus (GPa) = 31.07082 47.34744 39.20913
# Shear Modulus (GPa) = 22.29410 28.85505 25.57458
#
# Velocity S-wave (km/s) = 3.33305 3.79191 3.56986
# Velocity P-wave (km/s) = 5.50409 6.53948 6.04399
#
# Compressibility (1/GPa) = 0.03218453
#
# Stress axis : x y z
#
# Youngs Moduli (GPa) = 56.11052 78.73835 94.38509
#
# Poissons Ratio (x) = -0.10026 0.20446
# Poissons Ratio (y) = -0.07144 0.33727
# Poissons Ratio (z) = 0.12155 0.28136
#
# Static dielectric constant tensor:
#      x y z
#    x 3.497230 -0.026440 -0.126480 
#    y -0.026440 4.091950 -0.130970 
#    z -0.126480 -0.130970 3.699630 
# 
# 
# High freq. dielectric constant tensor:
#      x y z
#    x 1.785850 -0.002050 -0.010970 
#    y -0.002050 1.758270 -0.009420 
#    z -0.010970 -0.009420 1.776260 
# 
# From -- ./inp_files/93753.got.cif
#   From: 2010.06.25/outbox.cif.g09.slc.cpg/sg2_47_cif.got.tgz:93753.got - 2010.06.27 13:26:56.
