data_PCOD8002138
_publ_section_title
;
Structure prediction by ZEFSAII (Michael W. Deem and Ramdas Pophale) SiO2 
 PCOD8002138
Probable space group: P -1
;
_chemical_formula_sum "Si O2"
_cell_formula_units_Z 12
_cell_length_a 6.537685
_cell_length_b 19.124735
_cell_length_c 21.967425
_cell_angle_alpha 17.422937
_cell_angle_beta 135.071928
_cell_angle_gamma 135.135203
_cell_volume 573.564339
_symmetry_space_group_name_H-M "P -1"
_symmetry_group_IT_number 2
_symmetry_cell_setting 'triclinic'
loop_
_space_group_symop_operation_xyz
x,y,z
-x,-y,-z
loop_
_atom_site_type_symbol
_atom_site_label
_atom_site_fract_x
_atom_site_fract_y
_atom_site_fract_z
Si Si1 0.194700 0.852037 0.079766
Si Si2 0.050730 0.321786 0.056984
Si Si3 0.288178 0.576590 0.216818
Si Si4 0.654357 0.160124 0.306255
Si Si5 0.036165 0.292956 0.725242
Si Si6 0.114296 0.063495 0.568539
O O1 0.113316 0.656184 0.172794
O O2 0.188513 0.716467 0.256804
O O3 0.500000 0.000000 0.000000
O O4 0.971300 0.043269 0.881943
O O5 0.313608 0.173383 0.224444
O O6 0.164688 0.584356 0.887023
O O7 0.857975 0.171779 0.192318
O O8 0.855384 0.322519 0.955626
O O9 0.631782 0.677457 0.204662
O O10 0.251787 0.292914 0.445139
O O11 0.779849 0.087812 0.458080
O O12 0.699444 0.956984 0.436462
O O13 0.000000 0.500000 0.500000
#
# Coordination Sequence:
#
# PCOD8002138 Si02
#       6
#     2   2   2   2   2   2
#     4   9  21  41  60  83 114 145 185 233 285 343
#     4  10  20  36  56  78 113 149 183 232 279 324
#     4  10  23  35  53  88 113 141 189 232 279 336
#     4   9  20  36  54  80 108 149 192 223 274 331
#     4  10  22  40  62  83 111 151 188 230 286 342
#     4  10  20  35  56  81 112 146 187 231 274 329
#
# _framework density 20.921802
#
# number of rings (size 3 to 8) (size 9 to 14) (size 15 to 20)
#    0.000    2.333    0.000    1.000    0.000   12.000 
#    0.000    3.333    0.000    0.000    0.000    0.000 
#    0.000    0.000    0.000    0.000    0.000    0.000 
#
# Total GULP energy -148721.881641 kJ/mol
# GULP energy per Si atom -12393.490137 kJ/mol
# Density = 2.087418 g / cm^3
# Si number density = 20.921802 Si / 1000 Ang^3
#
#
#
# Elastic Constant Matrix: (Units=GPa)
#
#
# Indices 1 2 3 4 5 6 
#
# 1 91.6838 39.1146 29.9805 -1.6750 -7.5181 -17.9303
# 2 39.1146 77.0265 30.4449 -6.7437 8.3138 -16.3962
# 3 29.9805 30.4449 106.2662 4.8881 -14.3778 -21.6751
# 4 -1.6750 -6.7437 4.8881 37.9088 -7.8369 12.8604
# 5 -7.5181 8.3138 -14.3778 -7.8369 43.1271 1.5108
# 6 -17.9303 -16.3962 -21.6751 12.8604 1.5108 31.6976
#
#
#
# Elastic Compliance Matrix: (Units=1/GPa)
#
#
# Indices 1 2 3 4 5 6 
#
# 1 0.015329 -0.006879 -0.000827 -0.001450 0.003285 0.004979
# 2 -0.006879 0.019477 -0.003846 0.001259 -0.006124 0.003335
# 3 -0.000827 -0.003846 0.013125 -0.004355 0.003898 0.008099
# 4 -0.001450 0.001259 -0.004355 0.033908 0.004815 -0.017133
# 5 0.003285 -0.006124 0.003898 0.004815 0.027181 -0.001893
# 6 0.004979 0.003335 0.008099 -0.017133 -0.001893 0.048669
#
#
# Mechanical properties :
#
#
# Convention : Reuss Voigt Hill
#
# Bulk Modulus (GPa) = 40.27826 52.67295 46.47560
# Shear Modulus (GPa) = 26.44552 34.24245 30.34399
#
# Velocity S-wave (km/s) = 3.55916 4.04999 3.81248
# Velocity P-wave (km/s) = 6.01529 6.86299 6.45308
#
# Compressibility (1/GPa) = 0.02482729
#
# Stress axis : x y z
#
# Youngs Moduli (GPa) = 65.23694 51.34342 76.18973
#
# Poissons Ratio (x) = 0.35318 0.06303
# Poissons Ratio (y) = 0.44874 0.29300
# Poissons Ratio (z) = 0.05397 0.19745
#
# Static dielectric constant tensor:
#      x y z
#    x 3.833670 -0.230310 0.139110 
#    y -0.230310 3.726570 -0.158700 
#    z 0.139110 -0.158700 3.922520 
# 
# 
# High freq. dielectric constant tensor:
#      x y z
#    x 1.814550 -0.014550 0.001520 
#    y -0.014550 1.802360 -0.007590 
#    z 0.001520 -0.007590 1.830790 
# 
# From -- ./inp_files/9925.got.cif
#   From: 2010.06.25/outbox.cif.g09.slc.cpg/sg2_5_cif.got.tgz:9925.got - 2010.06.27 13:26:56.
