data_PCOD8002527
_publ_section_title
;
Structure prediction by ZEFSAII (Michael W. Deem and Ramdas Pophale) SiO2 
 PCOD8002527
Probable space group: P -1
;
_chemical_formula_sum "Si O2"
_cell_formula_units_Z 16
_cell_length_a 15.139247
_cell_length_b 8.996119
_cell_length_c 11.818998
_cell_angle_alpha 65.300026
_cell_angle_beta 134.060212
_cell_angle_gamma 139.795655
_cell_volume 724.092737
_symmetry_space_group_name_H-M "P -1"
_symmetry_group_IT_number 2
_symmetry_cell_setting 'triclinic'
loop_
_space_group_symop_operation_xyz
x,y,z
-x,-y,-z
loop_
_atom_site_type_symbol
_atom_site_label
_atom_site_fract_x
_atom_site_fract_y
_atom_site_fract_z
Si Si1 0.861672 0.679060 0.755658
Si Si2 0.510325 0.418610 0.832996
Si Si3 0.537067 0.158933 0.081438
Si Si4 0.152172 0.039627 0.065203
Si Si5 0.089782 0.419194 0.635730
Si Si6 0.156709 0.274711 0.528133
Si Si7 0.445947 0.789268 0.263928
Si Si8 0.773542 0.956728 0.632039
O O1 0.886776 0.681306 0.643459
O O2 0.740074 0.410469 0.773118
O O3 0.751669 0.739590 0.667877
O O4 0.055858 0.854008 0.933992
O O5 0.682442 0.697524 0.920978
O O6 0.345590 0.366136 0.660866
O O7 0.557944 0.330093 0.810441
O O8 0.457329 0.263595 0.949272
O O9 0.748711 0.387877 0.198918
O O10 0.463278 0.999863 0.180185
O O11 0.500000 0.000000 0.000000
O O12 0.219459 0.989111 0.244989
O O13 0.000000 0.000000 0.000000
O O14 0.165177 0.415974 0.588654
O O15 0.000000 0.500000 0.500000
O O16 0.955419 0.169990 0.659677
O O17 0.000000 0.000000 0.500000
O O18 0.610965 0.901055 0.454650
#
# Coordination Sequence:
#
# PCOD8002527 Si02
#       8
#     2   2   2   2   2   2   2   2
#     4  11  21  38  65  99 137 171 232 277 338 397
#     4  11  21  40  65 101 138 173 230 282 333 402
#     4  10  24  39  64 101 135 179 222 275 343 407
#     4  10  20  35  65 102 134 171 224 288 333 395
#     4  12  25  46  68  99 137 185 230 279 347 417
#     4  12  26  43  70 102 137 181 230 289 341 398
#     4  11  19  37  65  99 133 179 222 271 336 414
#     4  11  19  36  67  97 129 175 228 278 326 400
#
# _framework density 22.096616999999998
#
# number of rings (size 3 to 8) (size 9 to 14) (size 15 to 20)
#    0.000    1.000    6.250    2.625    3.500    0.500 
#    0.000    0.625    0.000    1.500    0.000    0.000 
#    0.000    0.000    0.000    0.000    0.000    0.000 
#
# Total GULP energy -198354.868410 kJ/mol
# GULP energy per Si atom -12397.179276 kJ/mol
# Density = 2.204632 g / cm^3
# Si number density = 22.096617 Si / 1000 Ang^3
#
#
#
# Elastic Constant Matrix: (Units=GPa)
#
#
# Indices 1 2 3 4 5 6 
#
# 1 47.0513 26.5674 20.9653 1.9945 -14.5501 10.3837
# 2 26.5674 141.9672 62.5925 1.2553 -12.6315 38.7896
# 3 20.9653 62.5925 150.6867 7.2763 -28.7660 13.4266
# 4 1.9945 1.2553 7.2763 49.3180 8.1538 -1.8184
# 5 -14.5501 -12.6315 -28.7660 8.1538 19.9894 0.3164
# 6 10.3837 38.7896 13.4266 -1.8184 0.3164 24.9729
#
#
#
# Elastic Compliance Matrix: (Units=1/GPa)
#
#
# Indices 1 2 3 4 5 6 
#
# 1 0.034194 -0.000477 0.003676 -0.008045 0.033420 -0.016463
# 2 -0.000477 0.014838 -0.003024 -0.001642 0.005686 -0.021415
# 3 0.003676 -0.003024 0.011771 -0.005238 0.019901 -0.003793
# 4 -0.008045 -0.001642 -0.005238 0.025987 -0.025205 0.010923
# 5 0.033420 0.005686 0.019901 -0.025205 0.117446 -0.036750
# 6 -0.016463 -0.021415 -0.003793 0.010923 -0.036750 0.083452
#
#
# Mechanical properties :
#
#
# Convention : Reuss Voigt Hill
#
# Bulk Modulus (GPa) = 16.35270 62.21729 39.28500
# Shear Modulus (GPa) = 16.24844 34.16141 25.20493
#
# Velocity S-wave (km/s) = 2.71465 3.93619 3.38104
# Velocity P-wave (km/s) = 4.15239 6.99115 5.74972
#
# Compressibility (1/GPa) = 0.06115199
#
# Stress axis : x y z
#
# Youngs Moduli (GPa) = 29.24526 67.39423 84.95425
#
# Poissons Ratio (x) = 0.03214 -0.31228
# Poissons Ratio (y) = 0.01395 0.25693
# Poissons Ratio (z) = -0.10750 0.20382
#
# Static dielectric constant tensor:
#      x y z
#    x 15.575340 4.494410 3.232890 
#    y 4.494410 5.929030 1.030110 
#    z 3.232890 1.030110 5.701380 
# 
# 
# High freq. dielectric constant tensor:
#      x y z
#    x 1.819750 0.019250 -0.015250 
#    y 0.019250 1.882320 0.001660 
#    z -0.015250 0.001660 1.895520 
# 
# From -- ./inp_files/318194.got.cif
#   From: 2010.06.25/outbox.cif.g09.slc.cpg/sg2_160_cif.got.tgz:318194.got - 2010.06.27 13:26:56.
