data_PCOD8002710
_publ_section_title
;
Structure prediction by ZEFSAII (Michael W. Deem and Ramdas Pophale) SiO2 
 PCOD8002710
Probable space group: P -1
;
_chemical_formula_sum "Si O2"
_cell_formula_units_Z 16
_cell_length_a 15.325948
_cell_length_b 15.795384
_cell_length_c 5.185193
_cell_angle_alpha 76.167615
_cell_angle_beta 62.527332
_cell_angle_gamma 43.180205
_cell_volume 752.229529
_symmetry_space_group_name_H-M "P -1"
_symmetry_group_IT_number 2
_symmetry_cell_setting 'triclinic'
loop_
_space_group_symop_operation_xyz
x,y,z
-x,-y,-z
loop_
_atom_site_type_symbol
_atom_site_label
_atom_site_fract_x
_atom_site_fract_y
_atom_site_fract_z
Si Si1 0.161198 0.331698 0.487350
Si Si2 0.551476 0.516852 0.667753
Si Si3 0.640881 0.016250 0.633263
Si Si4 0.119869 0.661578 0.711335
Si Si5 0.960365 0.770721 0.341680
Si Si6 0.519539 0.896223 0.713717
Si Si7 0.514566 0.736898 0.531988
Si Si8 0.827043 0.566014 0.100650
O O1 0.048297 0.328042 0.595832
O O2 0.317435 0.185668 0.369791
O O3 0.131349 0.390635 0.767667
O O4 0.131531 0.423534 0.244192
O O5 0.500000 0.500000 0.500000
O O6 0.719599 0.414552 0.502326
O O7 0.481036 0.657349 0.682351
O O8 0.500000 0.500000 0.000000
O O9 0.805742 0.909824 0.434071
O O10 0.545275 0.024706 0.534765
O O11 0.604025 0.142733 0.574468
O O12 0.592553 0.008404 0.979184
O O13 0.097731 0.572308 0.834464
O O14 0.030449 0.754079 0.525958
O O15 0.057658 0.745563 0.994326
O O16 0.522765 0.787996 0.749474
O O17 0.661194 0.654605 0.242804
#
# Coordination Sequence:
#
# PCOD8002710 Si02
#       8
#     2   2   2   2   2   2   2   2
#     4  11  20  34  55  89 116 158 218 242 281 320
#     4  11  24  41  72  97 109 137 188 254 304 355
#     4  10  20  36  58  83 117 171 197 236 286 336
#     4  11  25  43  58  85 127 154 186 240 305 368
#     4  12  25  37  57  86 124 171 195 231 287 350
#     4   9  18  34  56  84 117 159 201 256 265 320
#     4   8  20  36  62  87 117 145 195 243 304 328
#     4  10  20  37  58  80 119 161 198 255 289 325
#
# _framework density 21.270104
#
# number of rings (size 3 to 8) (size 9 to 14) (size 15 to 20)
#    0.750    1.000    1.250    3.000    1.750    6.000 
#    0.000    0.000    0.000    4.500    0.000    0.000 
#    0.000    0.000    0.000    0.000    0.000    0.000 
#
# Total GULP energy -198383.632860 kJ/mol
# GULP energy per Si atom -12398.977054 kJ/mol
# Density = 2.122169 g / cm^3
# Si number density = 21.270104 Si / 1000 Ang^3
#
#
#
# Elastic Constant Matrix: (Units=GPa)
#
#
# Indices 1 2 3 4 5 6 
#
# 1 74.9099 26.3580 35.4821 -15.5624 0.8292 -13.8476
# 2 26.3580 80.4124 36.2910 -7.7353 5.6187 -19.6088
# 3 35.4821 36.2910 164.1957 -10.9102 18.1580 -8.1327
# 4 -15.5624 -7.7353 -10.9102 35.2539 -2.2659 3.0173
# 5 0.8292 5.6187 18.1580 -2.2659 31.9172 -4.8506
# 6 -13.8476 -19.6088 -8.1327 3.0173 -4.8506 26.9440
#
#
#
# Elastic Compliance Matrix: (Units=1/GPa)
#
#
# Indices 1 2 3 4 5 6 
#
# 1 0.018097 -0.002689 -0.002934 0.006147 0.003070 0.006322
# 2 -0.002689 0.017065 -0.002648 0.000879 0.000181 0.010172
# 3 -0.002934 -0.002648 0.007696 0.000404 -0.004095 -0.001895
# 4 0.006147 0.000879 0.000404 0.031451 0.001798 0.000722
# 5 0.003070 0.000181 -0.004095 0.001798 0.034667 0.006513
# 6 0.006322 0.010172 -0.001895 0.000722 0.006513 0.048286
#
#
# Mechanical properties :
#
#
# Convention : Reuss Voigt Hill
#
# Bulk Modulus (GPa) = 38.00250 57.30892 47.65571
# Shear Modulus (GPa) = 27.38588 33.58213 30.48400
#
# Velocity S-wave (km/s) = 3.59211 3.97777 3.78985
# Velocity P-wave (km/s) = 5.92535 6.93533 6.45014
#
# Compressibility (1/GPa) = 0.02631406
#
# Stress axis : x y z
#
# Youngs Moduli (GPa) = 55.25711 58.59955 129.94481
#
# Poissons Ratio (x) = 0.15759 0.38129
# Poissons Ratio (y) = 0.14860 0.34415
# Poissons Ratio (z) = 0.16214 0.15520
#
# Static dielectric constant tensor:
#      x y z
#    x 3.788970 -0.002600 0.119350 
#    y -0.002600 4.013740 0.128900 
#    z 0.119350 0.128900 3.867730 
# 
# 
# High freq. dielectric constant tensor:
#      x y z
#    x 1.809600 -0.012200 0.018890 
#    y -0.012200 1.847030 0.010730 
#    z 0.018890 0.010730 1.841480 
# 
# From -- ./inp_files/99354.got.cif
#   From: 2010.06.25/outbox.cif.g09.slc.cpg/sg2_50_cif.got.tgz:99354.got - 2010.06.27 13:26:56.
