data_PCOD8002564
_publ_section_title
;
Structure prediction by ZEFSAII (Michael W. Deem and Ramdas Pophale) SiO2 
 PCOD8002564
Probable space group: P -1
;
_chemical_formula_sum "Si O2"
_cell_formula_units_Z 16
_cell_length_a 19.426884
_cell_length_b 6.652524
_cell_length_c 23.267204
_cell_angle_alpha 46.717755
_cell_angle_beta 20.710025
_cell_angle_gamma 56.873213
_cell_volume 719.739791
_symmetry_space_group_name_H-M "P -1"
_symmetry_group_IT_number 2
_symmetry_cell_setting 'triclinic'
loop_
_space_group_symop_operation_xyz
x,y,z
-x,-y,-z
loop_
_atom_site_type_symbol
_atom_site_label
_atom_site_fract_x
_atom_site_fract_y
_atom_site_fract_z
Si Si1 0.286629 0.847272 0.405997
Si Si2 0.440350 0.599853 0.435190
Si Si3 0.520384 0.484946 0.131168
Si Si4 0.957374 0.922094 0.114246
Si Si5 0.664556 0.222776 0.170164
Si Si6 0.701833 0.266745 0.266311
Si Si7 0.132488 0.603800 0.449529
Si Si8 0.913947 0.017884 0.685146
O O1 0.360602 0.617468 0.429003
O O2 0.213645 0.706692 0.428932
O O3 0.472619 0.174348 0.194762
O O4 0.089519 0.878624 0.586429
O O5 0.266221 0.346188 0.656177
O O6 0.666900 0.552755 0.265396
O O7 0.474268 0.904623 0.381671
O O8 0.597339 0.458878 0.141270
O O9 0.315770 0.565438 0.275892
O O10 0.691502 0.755179 0.912468
O O11 0.914549 0.196214 0.128271
O O12 0.144594 0.819530 0.008089
O O13 0.000000 0.000000 0.000000
O O14 0.709954 0.319833 0.180995
O O15 0.500000 0.000000 0.500000
O O16 0.060920 0.845137 0.425867
O O17 0.943096 0.278361 0.659019
#
# Coordination Sequence:
#
# PCOD8002564 Si02
#       8
#     2   2   2   2   2   2   2   2
#     4  10  21  36  56  82 111 146 185 224 272 328
#     4  10  20  36  55  75 106 142 175 220 272 320
#     4  10  21  36  56  82 111 146 185 224 272 328
#     4   9  19  34  53  78 104 135 178 219 263 322
#     4  10  20  36  55  75 106 142 175 220 272 320
#     4   9  19  34  53  78 104 135 178 219 263 322
#     4  10  21  37  57  82 112 145 182 226 274 323
#     4  10  21  37  57  82 112 145 182 226 274 323
#
# _framework density 22.230257999999999
#
# number of rings (size 3 to 8) (size 9 to 14) (size 15 to 20)
#    0.000    2.250    0.000    2.250    0.000    6.500 
#    0.000    5.000    0.000    0.000    0.000    0.000 
#    0.000    0.000    0.000    0.000    0.000    0.000 
#
# Total GULP energy -198239.960315 kJ/mol
# GULP energy per Si atom -12389.997520 kJ/mol
# Density = 2.217966 g / cm^3
# Si number density = 22.230258 Si / 1000 Ang^3
#
#
#
# Elastic Constant Matrix: (Units=GPa)
#
#
# Indices 1 2 3 4 5 6 
#
# 1 75.7497 8.4294 10.6869 -2.0272 -2.1445 6.0765
# 2 8.4294 65.0204 26.6917 0.1614 8.8351 -8.2424
# 3 10.6869 26.6917 84.1680 -3.6607 3.8144 -0.9716
# 4 -2.0272 0.1614 -3.6607 28.4730 -5.2115 -12.5324
# 5 -2.1445 8.8351 3.8144 -5.2115 23.2812 2.3705
# 6 6.0765 -8.2424 -0.9716 -12.5324 2.3705 39.1605
#
#
#
# Elastic Compliance Matrix: (Units=1/GPa)
#
#
# Indices 1 2 3 4 5 6 
#
# 1 0.013894 -0.001964 -0.001283 0.000101 0.002535 -0.002722
# 2 -0.001964 0.019480 -0.005560 -0.000246 -0.007189 0.004624
# 3 -0.001283 -0.005560 0.013875 0.001705 0.000109 -0.000088
# 4 0.000101 -0.000246 0.001705 0.042592 0.008021 0.013120
# 5 0.002535 -0.007189 0.000109 0.008021 0.047920 -0.002237
# 6 -0.002722 0.004624 -0.000088 0.013120 -0.002237 0.031263
#
#
# Mechanical properties :
#
#
# Convention : Reuss Voigt Hill
#
# Bulk Modulus (GPa) = 33.74395 35.17268 34.45831
# Shear Modulus (GPa) = 25.44301 30.12494 27.78398
#
# Velocity S-wave (km/s) = 3.38675 3.68521 3.53912
# Velocity P-wave (km/s) = 5.52319 5.82786 5.67757
#
# Compressibility (1/GPa) = 0.02963495
#
# Stress axis : x y z
#
# Youngs Moduli (GPa) = 71.97436 51.33385 72.07058
#
# Poissons Ratio (x) = 0.10084 0.09247
# Poissons Ratio (y) = 0.14138 0.40070
# Poissons Ratio (z) = 0.09235 0.28541
#
# Static dielectric constant tensor:
#      x y z
#    x 3.798450 -0.423990 -0.287080 
#    y -0.423990 4.643960 0.308900 
#    z -0.287080 0.308900 4.174380 
# 
# 
# High freq. dielectric constant tensor:
#      x y z
#    x 1.859460 -0.023320 -0.014270 
#    y -0.023320 1.884610 -0.003190 
#    z -0.014270 -0.003190 1.871720 
# 
# From -- ./inp_files/51247.got.cif
#   From: 2010.06.25/outbox.cif.g09.slc.cpg/sg2_26_cif.got.tgz:51247.got - 2010.06.27 13:26:56.
