data_PCOD8002265
_publ_section_title
;
Structure prediction by ZEFSAII (Michael W. Deem and Ramdas Pophale) SiO2 
 PCOD8002265
Probable space group: P -1
;
_chemical_formula_sum "Si O2"
_cell_formula_units_Z 16
_cell_length_a 14.815685
_cell_length_b 12.047764
_cell_length_c 9.498937
_cell_angle_alpha 111.327407
_cell_angle_beta 123.905414
_cell_angle_gamma 116.206838
_cell_volume 724.024887
_symmetry_space_group_name_H-M "P -1"
_symmetry_group_IT_number 2
_symmetry_cell_setting 'triclinic'
loop_
_space_group_symop_operation_xyz
x,y,z
-x,-y,-z
loop_
_atom_site_type_symbol
_atom_site_label
_atom_site_fract_x
_atom_site_fract_y
_atom_site_fract_z
Si Si1 0.556505 0.354574 0.416396
Si Si2 0.332030 0.358219 0.132281
Si Si3 0.579401 0.232923 0.803803
Si Si4 0.963375 0.906059 0.725507
Si Si5 0.210465 0.023635 0.482918
Si Si6 0.905677 0.718950 0.315935
Si Si7 0.650499 0.034223 0.802607
Si Si8 0.018921 0.265607 0.110628
O O1 0.480314 0.382645 0.249021
O O2 0.568376 0.435028 0.614173
O O3 0.760588 0.483557 0.600019
O O4 0.405528 0.106878 0.184847
O O5 0.238173 0.307244 0.878011
O O6 0.163357 0.163938 0.004947
O O7 0.611625 0.134309 0.860016
O O8 0.433343 0.177843 0.748981
O O9 0.487784 0.130202 0.523315
O O10 0.792841 0.490339 0.097055
O O11 0.954963 0.789720 0.553169
O O12 0.964271 0.849969 0.855881
O O13 0.784452 0.834411 0.503031
O O14 0.110778 0.911919 0.496934
O O15 0.076037 0.826696 0.167839
O O16 0.883342 0.231664 0.066499
#
# Coordination Sequence:
#
# PCOD8002265 Si02
#       8
#     2   2   2   2   2   2   2   2
#     4  11  20  34  62  87 118 151 196 244 298 342
#     4  10  20  35  58  88 121 154 186 244 299 348
#     4  10  22  38  63  86 117 161 201 242 292 346
#     4  11  22  37  59  90 130 150 188 246 302 354
#     4  10  21  37  62  87 121 152 199 242 293 354
#     4  11  22  41  56  89 126 160 186 239 305 357
#     4  10  21  40  59  90 121 148 204 259 280 335
#     4  11  21  36  61  92 115 156 198 241 294 347
#
# _framework density 22.098689
#
# number of rings (size 3 to 8) (size 9 to 14) (size 15 to 20)
#    0.000    1.500    5.000    1.875    1.750    1.500 
#    2.250    4.375    0.000    1.500    0.000    0.000 
#    0.000    0.000    0.000    0.000    0.000    0.000 
#
# Total GULP energy -198372.921601 kJ/mol
# GULP energy per Si atom -12398.307600 kJ/mol
# Density = 2.204839 g / cm^3
# Si number density = 22.098689 Si / 1000 Ang^3
#
#
#
# Elastic Constant Matrix: (Units=GPa)
#
#
# Indices 1 2 3 4 5 6 
#
# 1 100.4224 27.7591 14.5789 9.7331 27.5366 -17.0450
# 2 27.7591 72.3897 10.9586 12.5683 7.2044 -18.2981
# 3 14.5789 10.9586 26.2126 6.5339 7.7453 -2.1010
# 4 9.7331 12.5683 6.5339 20.5448 0.4412 0.4324
# 5 27.5366 7.2044 7.7453 0.4412 24.6605 -0.3851
# 6 -17.0450 -18.2981 -2.1010 0.4324 -0.3851 28.9907
#
#
#
# Elastic Compliance Matrix: (Units=1/GPa)
#
#
# Indices 1 2 3 4 5 6 
#
# 1 0.018046 -0.001115 -0.001343 -0.007232 -0.019122 0.009662
# 2 -0.001115 0.019894 -0.003101 -0.010835 -0.003214 0.011795
# 3 -0.001343 -0.003101 0.046835 -0.012117 -0.012077 0.000668
# 4 -0.007232 -0.010835 -0.012117 0.062555 0.013729 -0.012719
# 5 -0.019122 -0.003214 -0.012077 0.013729 0.066179 -0.013473
# 6 0.009662 0.011795 0.000668 -0.012719 -0.013473 0.047678
#
#
# Mechanical properties :
#
#
# Convention : Reuss Voigt Hill
#
# Bulk Modulus (GPa) = 13.57652 33.95756 23.76704
# Shear Modulus (GPa) = 16.84313 24.55442 20.69877
#
# Velocity S-wave (km/s) = 2.76375 3.33697 3.06380
# Velocity P-wave (km/s) = 4.04244 5.49971 4.82640
#
# Compressibility (1/GPa) = 0.07365660
#
# Stress axis : x y z
#
# Youngs Moduli (GPa) = 55.41474 50.26753 21.35149
#
# Poissons Ratio (x) = 0.05607 0.02867
# Poissons Ratio (y) = 0.06182 0.06620
# Poissons Ratio (z) = 0.07441 0.15586
#
# Static dielectric constant tensor:
#      x y z
#    x 3.942540 -0.143100 0.314520 
#    y -0.143100 3.842660 0.024580 
#    z 0.314520 0.024580 3.830630 
# 
# 
# High freq. dielectric constant tensor:
#      x y z
#    x 1.849690 -0.000520 0.020240 
#    y -0.000520 1.857750 0.003900 
#    z 0.020240 0.003900 1.852820 
# 
# From -- ./inp_files/308163.got.cif
#   From: 2010.06.25/outbox.cif.g09.slc.cpg/sg2_155_cif.got.tgz:308163.got - 2010.06.27 13:26:56.
