data_PCOD8002594
_publ_section_title
;
Structure prediction by ZEFSAII (Michael W. Deem and Ramdas Pophale) SiO2 
 PCOD8002594
Probable space group: P -1
;
_chemical_formula_sum "Si O2"
_cell_formula_units_Z 16
_cell_length_a 15.454263
_cell_length_b 8.373569
_cell_length_c 16.088855
_cell_angle_alpha 107.762607
_cell_angle_beta 27.794385
_cell_angle_gamma 95.684797
_cell_volume 853.421250
_symmetry_space_group_name_H-M "P -1"
_symmetry_group_IT_number 2
_symmetry_cell_setting 'triclinic'
loop_
_space_group_symop_operation_xyz
x,y,z
-x,-y,-z
loop_
_atom_site_type_symbol
_atom_site_label
_atom_site_fract_x
_atom_site_fract_y
_atom_site_fract_z
Si Si1 0.004020 0.866788 0.699039
Si Si2 0.379195 0.385455 0.784088
Si Si3 0.446113 0.190062 0.320246
Si Si4 0.964436 0.675863 0.004467
Si Si5 0.427265 0.034942 0.974129
Si Si6 0.220986 0.595215 0.609906
Si Si7 0.849591 0.206260 0.994383
Si Si8 0.400544 0.838049 0.291913
O O1 0.058258 0.714622 0.700398
O O2 0.184510 0.823589 0.472954
O O3 0.813793 0.867499 0.809073
O O4 0.967619 0.059822 0.802275
O O5 0.576524 0.361720 0.558117
O O6 0.442928 0.327485 0.815231
O O7 0.221429 0.593201 0.953633
O O8 0.264186 0.260445 0.825605
O O9 0.269667 0.384718 0.514151
O O10 0.382293 0.028630 0.382076
O O11 0.651045 0.176085 0.190020
O O12 0.498095 0.155056 0.171112
O O13 0.127742 0.636736 0.786697
O O14 0.000818 0.820518 0.058180
O O15 0.000000 0.500000 0.000000
O O16 0.520221 0.168483 0.871042
O O17 0.500000 0.000000 0.000000
#
# Coordination Sequence:
#
# PCOD8002594 Si02
#       8
#     2   2   2   2   2   2   2   2
#     4  10  20  36  56  78 102 142 173 208 259 315
#     4   9  19  35  52  74 103 138 178 215 255 302
#     4   8  19  35  55  74 104 140 169 210 262 309
#     4  10  21  31  53  76 104 139 183 219 255 294
#     4   9  19  36  57  81 107 129 164 217 262 308
#     4  10  20  37  53  74 108 141 175 214 256 303
#     4   9  19  35  51  75 106 139 178 217 258 296
#     4   9  19  35  55  79 100 137 174 206 259 316
#
# _framework density 18.748066999999999
#
# number of rings (size 3 to 8) (size 9 to 14) (size 15 to 20)
#    0.750    2.000    0.000    0.750    3.500    5.500 
#    0.000    1.875    0.000   12.000    0.000    0.000 
#    0.000    0.000    0.000    0.000    0.000    0.000 
#
# Total GULP energy -198246.036195 kJ/mol
# GULP energy per Si atom -12390.377262 kJ/mol
# Density = 1.870540 g / cm^3
# Si number density = 18.748067 Si / 1000 Ang^3
#
#
#
# Elastic Constant Matrix: (Units=GPa)
#
#
# Indices 1 2 3 4 5 6 
#
# 1 67.6688 6.1555 41.6956 -7.9189 -7.9847 -14.3308
# 2 6.1555 51.9809 18.6936 -4.7716 -1.0969 -12.8851
# 3 41.6956 18.6936 81.1740 -17.7690 -10.1636 -14.5359
# 4 -7.9189 -4.7716 -17.7690 32.0656 -7.1656 4.4249
# 5 -7.9847 -1.0969 -10.1636 -7.1656 22.7552 -0.8930
# 6 -14.3308 -12.8851 -14.5359 4.4249 -0.8930 24.0171
#
#
#
# Elastic Compliance Matrix: (Units=1/GPa)
#
#
# Indices 1 2 3 4 5 6 
#
# 1 0.023555 0.003524 -0.010680 -0.000003 0.004042 0.009632
# 2 0.003524 0.023554 -0.005041 0.000105 0.000613 0.011692
# 3 -0.010680 -0.005041 0.023307 0.011331 0.010118 0.003318
# 4 -0.000003 0.000105 0.011331 0.041544 0.018145 -0.000067
# 5 0.004042 0.000613 0.010118 0.018145 0.055925 0.007601
# 6 0.009632 0.011692 0.003318 -0.000067 0.007601 0.055960
#
#
# Mechanical properties :
#
#
# Convention : Reuss Voigt Hill
#
# Bulk Modulus (GPa) = 21.72869 37.10144 29.41506
# Shear Modulus (GPa) = 18.96952 24.71951 21.84452
#
# Velocity S-wave (km/s) = 3.18435 3.63507 3.41715
# Velocity P-wave (km/s) = 5.01349 6.11970 5.59401
#
# Compressibility (1/GPa) = 0.04602211
#
# Stress axis : x y z
#
# Youngs Moduli (GPa) = 42.45428 42.45524 42.90465
#
# Poissons Ratio (x) = -0.14963 0.45824
# Poissons Ratio (y) = -0.14962 0.21629
# Poissons Ratio (z) = 0.45343 0.21402
#
# Static dielectric constant tensor:
#      x y z
#    x 3.306050 0.066290 -0.283770 
#    y 0.066290 3.491070 -0.139280 
#    z -0.283770 -0.139280 3.407580 
# 
# 
# High freq. dielectric constant tensor:
#      x y z
#    x 1.703060 -0.006500 -0.022310 
#    y -0.006500 1.721200 -0.014790 
#    z -0.022310 -0.014790 1.726080 
# 
# From -- ./inp_files/349514.got.cif
#   From: 2010.06.25/outbox.cif.g09.slc.cpg/sg2_175_cif.got.tgz:349514.got - 2010.06.27 13:26:56.
