data_PCOD8002917
_publ_section_title
;
Structure prediction by ZEFSAII (Michael W. Deem and Ramdas Pophale) SiO2 
 PCOD8002917
Probable space group: P -1
;
_chemical_formula_sum "Si O2"
_cell_formula_units_Z 14
_cell_length_a 22.168932
_cell_length_b 14.542100
_cell_length_c 11.478009
_cell_angle_alpha 40.328530
_cell_angle_beta 148.678945
_cell_angle_gamma 160.064737
_cell_volume 638.294291
_symmetry_space_group_name_H-M "P -1"
_symmetry_group_IT_number 2
_symmetry_cell_setting 'triclinic'
loop_
_space_group_symop_operation_xyz
x,y,z
-x,-y,-z
loop_
_atom_site_type_symbol
_atom_site_label
_atom_site_fract_x
_atom_site_fract_y
_atom_site_fract_z
Si Si1 0.485423 0.578135 0.580945
Si Si2 0.202978 0.240286 0.899849
Si Si3 0.861611 0.188516 0.191434
Si Si4 0.996235 0.173153 0.199952
Si Si5 0.561857 0.208789 0.251028
Si Si6 0.802130 0.236525 0.736771
Si Si7 0.245719 0.103369 0.493777
O O1 0.264301 0.428367 0.403833
O O2 0.424221 0.367247 0.619069
O O3 0.625552 0.819099 0.483849
O O4 0.644918 0.710504 0.825331
O O5 0.318872 0.514242 0.815281
O O6 0.148019 0.115635 0.801606
O O7 0.954639 0.001170 0.779458
O O8 0.904702 0.114670 0.234290
O O9 0.054620 0.509696 0.186594
O O10 0.870916 0.141431 0.384468
O O11 0.609027 0.986005 0.951262
O O12 0.954805 0.255347 0.955695
O O13 0.736750 0.257143 0.491978
O O14 0.426272 0.055683 0.296105
#
# Coordination Sequence:
#
# PCOD8002917 Si02
#       7
#     2   2   2   2   2   2   2
#     4  10  22  40  62  87 125 158 198 251 302 351
#     4  11  21  38  61  94 121 154 202 251 301 355
#     4  11  21  40  62  89 121 160 204 243 296 363
#     4  10  24  38  60  95 126 151 197 257 301 350
#     4  10  20  36  60  88 116 166 193 243 296 361
#     4  10  22  40  57  87 128 161 201 237 300 366
#     4  10  21  40  61  89 118 164 202 240 298 365
#
# _framework density 21.933457000000001
#
# number of rings (size 3 to 8) (size 9 to 14) (size 15 to 20)
#    0.000    1.714    2.857    2.143    0.000    9.143 
#    0.000    0.714    0.000    1.714    0.000    0.000 
#    0.000    0.000    0.000    0.000    0.000    0.000 
#
# Total GULP energy -173452.033934 kJ/mol
# GULP energy per Si atom -12389.430995 kJ/mol
# Density = 2.188354 g / cm^3
# Si number density = 21.933457 Si / 1000 Ang^3
#
#
#
# Elastic Constant Matrix: (Units=GPa)
#
#
# Indices 1 2 3 4 5 6 
#
# 1 25.1607 30.8748 29.9614 -4.4410 -8.1505 15.3750
# 2 30.8748 76.8599 22.0432 14.4507 -6.6021 5.1508
# 3 29.9614 22.0432 171.9945 11.7262 5.5378 13.5611
# 4 -4.4410 14.4507 11.7262 36.0642 -1.1291 -3.4923
# 5 -8.1505 -6.6021 5.5378 -1.1291 18.0102 -0.1152
# 6 15.3750 5.1508 13.5611 -3.4923 -0.1152 19.5156
#
#
#
# Elastic Compliance Matrix: (Units=1/GPa)
#
#
# Indices 1 2 3 4 5 6 
#
# 1 -0.527226 0.182876 0.060288 -0.134920 -0.196635 0.299900
# 2 0.182876 -0.048153 -0.022331 0.040920 0.073849 -0.108090
# 3 0.060288 -0.022331 -0.000305 0.013324 0.019778 -0.038890
# 4 -0.134920 0.040920 0.013324 -0.002902 -0.049790 0.085421
# 5 -0.196635 0.073849 0.019778 -0.049790 -0.014874 0.112683
# 6 0.299900 -0.108090 -0.038890 0.085421 0.112683 -0.113526
#
#
# Mechanical properties :
#
#
# Convention : Reuss Voigt Hill
#
# Bulk Modulus (GPa) = -7.46175 48.86376 20.70100
# Shear Modulus (GPa) = -4.18997 27.46038 11.63520
#
# Velocity S-wave (km/s) = -1.38364 3.54218 2.30571
# Velocity P-wave (km/s) = 2.44172 6.24947 4.06780
#
# Compressibility (1/GPa) = -0.13401679
#
# Stress axis : x y z
#
# Youngs Moduli (GPa) = -1.89672 -20.76702 -3278.53398
#
# Poissons Ratio (x) = 3.79779 197.65783
# Poissons Ratio (y) = 0.34686 -73.21162
# Poissons Ratio (z) = 0.11435 -0.46374
#
# Static dielectric constant tensor:
#      x y z
#    x 3.444770 0.092610 0.137760 
#    y 0.092610 4.014360 0.091360 
#    z 0.137760 0.091360 4.587170 
# 
# 
# High freq. dielectric constant tensor:
#      x y z
#    x 1.798790 0.004070 0.002130 
#    y 0.004070 1.868700 0.016000 
#    z 0.002130 0.016000 1.890770 
# 
# From -- ./inp_files/475149.got.cif
#   From: 2010.06.25/outbox.cif.g09.slc.cpg/sg2_238_cif.got.tgz:475149.got - 2010.06.27 13:26:56.
