data_PCOD8002284
_publ_section_title
;
Structure prediction by ZEFSAII (Michael W. Deem and Ramdas Pophale) SiO2 
 PCOD8002284
Probable space group: P -1
;
_chemical_formula_sum "Si O2"
_cell_formula_units_Z 16
_cell_length_a 10.274728
_cell_length_b 16.903040
_cell_length_c 27.015473
_cell_angle_alpha 17.076008
_cell_angle_beta 39.422824
_cell_angle_gamma 39.168226
_cell_volume 857.638282
_symmetry_space_group_name_H-M "P -1"
_symmetry_group_IT_number 2
_symmetry_cell_setting 'triclinic'
loop_
_space_group_symop_operation_xyz
x,y,z
-x,-y,-z
loop_
_atom_site_type_symbol
_atom_site_label
_atom_site_fract_x
_atom_site_fract_y
_atom_site_fract_z
Si Si1 0.352063 0.637122 0.918017
Si Si2 0.479921 0.039876 0.563412
Si Si3 0.324466 0.536692 0.373010
Si Si4 0.146739 0.273707 0.124309
Si Si5 0.813154 0.606537 0.347475
Si Si6 0.078798 0.144844 0.738803
Si Si7 0.561207 0.219269 0.711582
Si Si8 0.154455 0.107357 0.532641
O O1 0.479664 0.805835 0.744250
O O2 0.152287 0.837545 0.880792
O O3 0.500000 0.500000 0.000000
O O4 0.275115 0.400800 0.051587
O O5 0.483238 0.334972 0.411142
O O6 0.271835 0.067935 0.574424
O O7 0.687989 0.956274 0.520784
O O8 0.192810 0.350949 0.552393
O O9 0.451106 0.698735 0.276018
O O10 0.169741 0.764452 0.250202
O O11 0.311394 0.090356 0.148347
O O12 0.007283 0.095571 0.301265
O O13 0.000000 0.500000 0.000000
O O14 0.866688 0.841929 0.227048
O O15 0.680839 0.419635 0.527260
O O16 0.676222 0.753259 0.254328
O O17 0.029226 0.419734 0.376679
#
# Coordination Sequence:
#
# PCOD8002284 Si02
#       8
#     2   2   2   2   2   2   2   2
#     4  11  22  35  55  83 114 141 176 225 277 321
#     4  10  20  36  57  82 108 143 183 226 266 323
#     4   9  16  29  51  77  99 133 179 228 259 299
#     4  11  20  35  56  83 111 147 180 219 270 327
#     4   9  16  31  50  78 102 137 178 225 265 307
#     4   9  16  28  51  74 102 134 178 220 259 307
#     4   9  18  28  49  77 109 132 175 230 267 302
#     4  10  20  35  59  81 107 144 185 222 268 323
#
# _framework density 18.655884
#
# number of rings (size 3 to 8) (size 9 to 14) (size 15 to 20)
#    0.000    2.250    2.500    1.500    3.500    3.000 
#    0.000    2.500    0.000    9.000    0.000    0.000 
#    0.000    0.000    0.000    0.000    0.000    0.000 
#
# Total GULP energy -198398.701199 kJ/mol
# GULP energy per Si atom -12399.918825 kJ/mol
# Density = 1.861342 g / cm^3
# Si number density = 18.655884 Si / 1000 Ang^3
#
#
#
# Elastic Constant Matrix: (Units=GPa)
#
#
# Indices 1 2 3 4 5 6 
#
# 1 142.2162 58.6004 31.8719 -15.5380 7.5645 17.3126
# 2 58.6004 128.1164 38.9361 -23.2306 0.1069 10.3401
# 3 31.8719 38.9361 54.7394 -17.0005 2.3856 6.9443
# 4 -15.5380 -23.2306 -17.0005 25.1191 3.1295 -5.8780
# 5 7.5645 0.1069 2.3856 3.1295 27.7391 -12.6849
# 6 17.3126 10.3401 6.9443 -5.8780 -12.6849 31.0164
#
#
#
# Elastic Compliance Matrix: (Units=1/GPa)
#
#
# Indices 1 2 3 4 5 6 
#
# 1 0.009982 -0.003228 -0.002225 0.000945 -0.005377 -0.006017
# 2 -0.003228 0.011726 -0.004806 0.005578 0.000776 0.000343
# 3 -0.002225 -0.004806 0.027453 0.012676 -0.004401 -0.002700
# 4 0.000945 0.005578 0.012676 0.055560 -0.006411 0.002682
# 5 -0.005377 0.000776 -0.004401 -0.006411 0.048912 0.022516
# 6 -0.006017 0.000343 -0.002700 0.002682 0.022516 0.045806
#
#
# Mechanical properties :
#
#
# Convention : Reuss Voigt Hill
#
# Bulk Modulus (GPa) = 34.91148 64.87654 49.89401
# Shear Modulus (GPa) = 21.78617 29.81915 25.80266
#
# Velocity S-wave (km/s) = 3.42100 4.00231 3.72302
# Velocity P-wave (km/s) = 5.86160 7.49726 6.72931
#
# Compressibility (1/GPa) = 0.02864387
#
# Stress axis : x y z
#
# Youngs Moduli (GPa) = 100.18006 85.28330 36.42571
#
# Poissons Ratio (x) = 0.27531 0.08103
# Poissons Ratio (y) = 0.32340 0.17505
# Poissons Ratio (z) = 0.22286 0.40985
#
# Static dielectric constant tensor:
#      x y z
#    x 2.519200 -0.605320 1.080620 
#    y -0.605320 3.046770 0.256850 
#    z 1.080620 0.256850 2.082000 
# 
# 
# High freq. dielectric constant tensor:
#      x y z
#    x 1.735400 0.005760 0.002880 
#    y 0.005760 1.721870 -0.037150 
#    z 0.002880 -0.037150 1.684890 
# 
# From -- ./inp_files/238615.got.cif
#   From: 2010.06.25/outbox.cif.g09.slc.cpg/sg2_120_cif.got.tgz:238615.got - 2010.06.27 13:26:56.
