data_PCOD8002386
_publ_section_title
;
Structure prediction by ZEFSAII (Michael W. Deem and Ramdas Pophale) SiO2 
 PCOD8002386
Probable space group: P -1
;
_chemical_formula_sum "Si O2"
_cell_formula_units_Z 14
_cell_length_a 9.753060
_cell_length_b 21.191387
_cell_length_c 11.473200
_cell_angle_alpha 152.068614
_cell_angle_beta 52.456986
_cell_angle_gamma 143.699584
_cell_volume 610.839719
_symmetry_space_group_name_H-M "P -1"
_symmetry_group_IT_number 2
_symmetry_cell_setting 'triclinic'
loop_
_space_group_symop_operation_xyz
x,y,z
-x,-y,-z
loop_
_atom_site_type_symbol
_atom_site_label
_atom_site_fract_x
_atom_site_fract_y
_atom_site_fract_z
Si Si1 0.160225 0.754191 0.739374
Si Si2 0.754565 0.428880 0.055331
Si Si3 0.804070 0.680701 0.263583
Si Si4 0.639660 0.950803 0.494540
Si Si5 0.657718 0.463508 0.407899
Si Si6 0.539264 0.122275 0.999871
Si Si7 0.435668 0.665192 0.336168
O O1 0.208023 0.768774 0.877847
O O2 0.248794 0.665342 0.490420
O O3 0.870260 0.624487 0.653414
O O4 0.311378 0.960819 0.940151
O O5 0.736181 0.566452 0.231987
O O6 0.790030 0.466917 0.235775
O O7 0.532300 0.200220 0.768022
O O8 0.000000 0.500000 0.000000
O O9 0.625408 0.710825 0.407292
O O10 0.741120 0.549775 0.973744
O O11 0.089157 0.885993 0.436949
O O12 0.617286 0.830407 0.413675
O O13 0.546905 0.041747 0.744115
O O14 0.500000 0.500000 0.500000
O O15 0.494598 0.254546 0.210685
#
# Coordination Sequence:
#
# PCOD8002386 Si02
#       7
#     2   2   2   2   2   2   2
#     4  10  22  44  67  91 126 172 217 262 323 383
#     4  11  24  42  63  91 132 175 213 255 324 392
#     4  10  20  35  60  92 127 162 207 271 315 371
#     4  10  20  39  65  96 121 164 219 264 317 380
#     4  12  27  44  64  98 134 172 215 263 324 390
#     4  10  22  42  70  94 122 172 216 268 319 380
#     4   9  19  36  61  92 126 160 211 265 322 371
#
# _framework density 22.919270000000001
#
# number of rings (size 3 to 8) (size 9 to 14) (size 15 to 20)
#    0.000    1.714    0.000    5.143    2.000    4.000 
#   12.857    0.000    0.000    0.000    0.000    0.000 
#    0.000    0.000    0.000    0.000    0.000    0.000 
#
# Total GULP energy -173565.271746 kJ/mol
# GULP energy per Si atom -12397.519410 kJ/mol
# Density = 2.286710 g / cm^3
# Si number density = 22.919270 Si / 1000 Ang^3
#
#
#
# Elastic Constant Matrix: (Units=GPa)
#
#
# Indices 1 2 3 4 5 6 
#
# 1 118.1744 11.4434 46.3864 20.2470 -22.5471 6.1764
# 2 11.4434 47.2237 21.7438 15.2131 -2.7817 1.6655
# 3 46.3864 21.7438 98.6510 27.1547 -1.1336 4.7619
# 4 20.2470 15.2131 27.1547 36.2857 -2.0894 6.6192
# 5 -22.5471 -2.7817 -1.1336 -2.0894 33.7130 1.7775
# 6 6.1764 1.6655 4.7619 6.6192 1.7775 29.8908
#
#
#
# Elastic Compliance Matrix: (Units=1/GPa)
#
#
# Indices 1 2 3 4 5 6 
#
# 1 0.012514 0.000733 -0.005136 -0.002664 0.008182 -0.001705
# 2 0.000733 0.025470 -0.003669 -0.008369 0.001910 0.000754
# 3 -0.005136 -0.003669 0.015322 -0.007401 -0.003717 0.000685
# 4 -0.002664 -0.008369 -0.007401 0.039283 0.000057 -0.006507
# 5 0.008182 0.001910 -0.003717 0.000057 0.035345 -0.003319
# 6 -0.001705 0.000754 0.000685 -0.006507 -0.003319 0.035295
#
#
# Mechanical properties :
#
#
# Convention : Reuss Voigt Hill
#
# Bulk Modulus (GPa) = 26.91025 47.02180 36.96603
# Shear Modulus (GPa) = 26.07436 32.27628 29.17532
#
# Velocity S-wave (km/s) = 3.37658 3.75675 3.57173
# Velocity P-wave (km/s) = 5.19313 6.27522 5.75964
#
# Compressibility (1/GPa) = 0.03716056
#
# Stress axis : x y z
#
# Youngs Moduli (GPa) = 79.91283 39.26240 65.26634
#
# Poissons Ratio (x) = -0.02877 0.33520
# Poissons Ratio (y) = -0.05855 0.23947
# Poissons Ratio (z) = 0.41042 0.14406
#
# Static dielectric constant tensor:
#      x y z
#    x 2.589170 0.056810 -0.518710 
#    y 0.056810 3.773020 0.265050 
#    z -0.518710 0.265050 4.312640 
# 
# 
# High freq. dielectric constant tensor:
#      x y z
#    x 1.907610 -0.018410 -0.004120 
#    y -0.018410 1.889950 0.010950 
#    z -0.004120 0.010950 1.913970 
# 
# From -- ./inp_files/404427.got.cif
#   From: 2010.06.25/outbox.cif.g09.slc.cpg/sg2_203_cif.got.tgz:404427.got - 2010.06.27 13:26:56.
