data_PCOD8002410
_publ_section_title
;
Structure prediction by ZEFSAII (Michael W. Deem and Ramdas Pophale) SiO2 
 PCOD8002410
Probable space group: P -1
;
_chemical_formula_sum "Si O2"
_cell_formula_units_Z 14
_cell_length_a 9.265119
_cell_length_b 18.558839
_cell_length_c 11.318334
_cell_angle_alpha 34.111822
_cell_angle_beta 111.087015
_cell_angle_gamma 133.506898
_cell_volume 677.706841
_symmetry_space_group_name_H-M "P -1"
_symmetry_group_IT_number 2
_symmetry_cell_setting 'triclinic'
loop_
_space_group_symop_operation_xyz
x,y,z
-x,-y,-z
loop_
_atom_site_type_symbol
_atom_site_label
_atom_site_fract_x
_atom_site_fract_y
_atom_site_fract_z
Si Si1 0.203107 0.229700 0.250360
Si Si2 0.850119 0.383871 0.350280
Si Si3 0.577777 0.933896 0.193550
Si Si4 0.506172 0.361490 0.585331
Si Si5 0.918341 0.669658 0.129555
Si Si6 0.310918 0.536394 0.994065
Si Si7 0.287275 0.490784 0.316541
O O1 0.182686 0.317768 0.234471
O O2 0.216589 0.323504 0.009820
O O3 0.449219 0.309858 0.218982
O O4 0.000000 0.000000 0.500000
O O5 0.594459 0.180790 0.590248
O O6 0.952134 0.548072 0.252325
O O7 0.019070 0.365665 0.424687
O O8 0.840264 0.441968 0.137607
O O9 0.583564 0.808863 0.289007
O O10 0.500000 0.000000 0.000000
O O11 0.834485 0.114630 0.069417
O O12 0.761500 0.568439 0.338065
O O13 0.313074 0.353177 0.524762
O O14 0.542557 0.342463 0.759202
O O15 0.360513 0.588758 0.075979
#
# Coordination Sequence:
#
# PCOD8002410 Si02
#       7
#     2   2   2   2   2   2   2
#     4  10  20  35  61  88 112 150 199 245 289 347
#     4  10  22  39  62  90 120 154 199 245 296 351
#     4  11  22  39  64  89 117 159 203 244 289 347
#     4  10  23  40  61  88 120 160 200 239 291 355
#     4  10  20  39  62  86 115 156 202 245 285 344
#     4  10  21  38  61  86 118 156 193 243 298 348
#     4  11  21  40  61  87 125 158 192 242 301 354
#
# _framework density 20.657899
#
# number of rings (size 3 to 8) (size 9 to 14) (size 15 to 20)
#    0.000    1.714    1.429    3.000    4.000    2.286 
#    0.000   12.143    0.000    7.714    0.000    0.000 
#    0.000    0.000    0.000    0.000    0.000    0.000 
#
# Total GULP energy -173574.621168 kJ/mol
# GULP energy per Si atom -12398.187226 kJ/mol
# Density = 2.061088 g / cm^3
# Si number density = 20.657899 Si / 1000 Ang^3
#
#
#
# Elastic Constant Matrix: (Units=GPa)
#
#
# Indices 1 2 3 4 5 6 
#
# 1 118.0966 50.5250 43.6919 3.9469 -0.7206 19.0606
# 2 50.5250 112.1920 44.9997 6.8738 -9.4160 7.0980
# 3 43.6919 44.9997 89.2864 -12.2879 -0.1244 -6.0786
# 4 3.9469 6.8738 -12.2879 50.5466 0.9328 -2.3129
# 5 -0.7206 -9.4160 -0.1244 0.9328 14.8672 13.5498
# 6 19.0606 7.0980 -6.0786 -2.3129 13.5498 29.6986
#
#
#
# Elastic Compliance Matrix: (Units=1/GPa)
#
#
# Indices 1 2 3 4 5 6 
#
# 1 0.016278 0.000761 -0.010698 -0.005497 0.023279 -0.023868
# 2 0.000761 0.017814 -0.011780 -0.006955 0.031966 -0.022283
# 3 -0.010698 -0.011780 0.026142 0.011064 -0.039269 0.033810
# 4 -0.005497 -0.006955 0.011064 0.025273 -0.025253 0.020945
# 5 0.023279 0.031966 -0.039269 -0.025253 0.204711 -0.125982
# 6 -0.023868 -0.022283 0.033810 0.020945 -0.125982 0.120346
#
#
# Mechanical properties :
#
#
# Convention : Reuss Voigt Hill
#
# Bulk Modulus (GPa) = 59.52634 66.44536 62.98585
# Shear Modulus (GPa) = 10.87907 31.04637 20.96272
#
# Velocity S-wave (km/s) = 2.29733 3.88091 3.18898
# Velocity P-wave (km/s) = 5.99290 7.23301 6.64196
#
# Compressibility (1/GPa) = 0.01679928
#
# Stress axis : x y z
#
# Youngs Moduli (GPa) = 61.43253 56.13428 38.25284
#
# Poissons Ratio (x) = -0.04270 0.40923
# Poissons Ratio (y) = -0.04673 0.45063
# Poissons Ratio (z) = 0.65720 0.66128
#
# Static dielectric constant tensor:
#      x y z
#    x 3.831430 0.014340 0.060810 
#    y 0.014340 3.618460 0.239410 
#    z 0.060810 0.239410 3.563030 
# 
# 
# High freq. dielectric constant tensor:
#      x y z
#    x 1.812100 0.009070 0.003670 
#    y 0.009070 1.821040 0.018650 
#    z 0.003670 0.018650 1.787220 
# 
# From -- ./inp_files/70520.got.cif
#   From: 2010.06.25/outbox.cif.g09.slc.cpg/sg2_36_cif.got.tgz:70520.got - 2010.06.27 13:26:56.
