data_PCOD8002939
_publ_section_title
;
Structure prediction by ZEFSAII (Michael W. Deem and Ramdas Pophale) SiO2 
 PCOD8002939
Probable space group: P -1
;
_chemical_formula_sum "Si O2"
_cell_formula_units_Z 14
_cell_length_a 9.076067
_cell_length_b 20.823420
_cell_length_c 11.445737
_cell_angle_alpha 32.722107
_cell_angle_beta 122.706041
_cell_angle_gamma 142.058684
_cell_volume 667.794888
_symmetry_space_group_name_H-M "P -1"
_symmetry_group_IT_number 2
_symmetry_cell_setting 'triclinic'
loop_
_space_group_symop_operation_xyz
x,y,z
-x,-y,-z
loop_
_atom_site_type_symbol
_atom_site_label
_atom_site_fract_x
_atom_site_fract_y
_atom_site_fract_z
Si Si1 0.309089 0.249282 0.032371
Si Si2 0.068396 0.548420 0.588985
Si Si3 0.460643 0.929364 0.259574
Si Si4 0.361437 0.016487 0.504228
Si Si5 0.284698 0.464656 0.394504
Si Si6 0.994077 0.747902 0.938638
Si Si7 0.961703 0.107192 0.876773
O O1 0.298534 0.106189 0.274582
O O2 0.240833 0.287800 0.061531
O O3 0.599100 0.426480 0.843002
O O4 0.107835 0.183003 0.946270
O O5 0.826107 0.484336 0.651504
O O6 0.000000 0.500000 0.500000
O O7 0.326947 0.757988 0.389338
O O8 0.110826 0.438238 0.826753
O O9 0.440159 0.872700 0.471734
O O10 0.332791 0.995666 0.076826
O O11 0.763244 0.106261 0.091109
O O12 0.500000 0.000000 0.500000
O O13 0.087259 0.829213 0.723040
O O14 0.500000 0.500000 0.500000
O O15 0.062327 0.256430 0.598072
O O16 0.000000 0.000000 0.000000
#
# Coordination Sequence:
#
# PCOD8002939 Si02
#       7
#     2   2   2   2   2   2   2
#     4  11  21  40  60  89 123 165 200 249 313 367
#     4  11  21  39  64  90 125 161 204 256 312 358
#     4   9  23  40  60  95 120 157 213 247 307 367
#     4  10  21  41  66  87 122 165 207 253 310 361
#     4   9  20  35  56  89 121 155 205 249 302 367
#     4  10  23  40  64  85 130 161 204 254 311 362
#     4  10  20  36  60  91 123 153 207 257 304 358
#
# _framework density 20.964521999999999
#
# number of rings (size 3 to 8) (size 9 to 14) (size 15 to 20)
#    0.857    1.143    0.000    4.714    4.000    2.286 
#    2.571    8.571    0.000    0.000    0.000    0.000 
#    0.000    0.000    0.000    0.000    0.000    0.000 
#
# Total GULP energy -173435.873167 kJ/mol
# GULP energy per Si atom -12388.276655 kJ/mol
# Density = 2.091681 g / cm^3
# Si number density = 20.964522 Si / 1000 Ang^3
#
#
#
# Elastic Constant Matrix: (Units=GPa)
#
#
# Indices 1 2 3 4 5 6 
#
# 1 154.4229 4.7274 55.1533 -10.7516 6.5013 -19.7273
# 2 4.7274 51.7036 2.7305 -5.7279 2.0228 -8.0814
# 3 55.1533 2.7305 127.0327 -2.0930 13.3136 -12.3219
# 4 -10.7516 -5.7279 -2.0930 29.8674 -9.4918 8.3478
# 5 6.5013 2.0228 13.3136 -9.4918 39.4366 5.3839
# 6 -19.7273 -8.0814 -12.3219 8.3478 5.3839 27.6520
#
#
#
# Elastic Compliance Matrix: (Units=1/GPa)
#
#
# Indices 1 2 3 4 5 6 
#
# 1 0.008237 0.000255 -0.003086 0.001429 -0.000566 0.004255
# 2 0.000255 0.020513 0.000224 0.001872 -0.001540 0.006012
# 3 -0.003086 0.000224 0.009970 -0.002762 -0.004070 0.003932
# 4 0.001429 0.001872 -0.002762 0.042434 0.012859 -0.014978
# 5 -0.000566 -0.001540 -0.004070 0.012859 0.031736 -0.012729
# 6 0.004255 0.006012 0.003932 -0.014978 -0.012729 0.049708
#
#
# Mechanical properties :
#
#
# Convention : Reuss Voigt Hill
#
# Bulk Modulus (GPa) = 29.84621 50.93128 40.38875
# Shear Modulus (GPa) = 27.93590 37.42774 32.68182
#
# Velocity S-wave (km/s) = 3.65435 4.22985 3.95259
# Velocity P-wave (km/s) = 5.66331 6.94279 6.33543
#
# Compressibility (1/GPa) = 0.03350509
#
# Stress axis : x y z
#
# Youngs Moduli (GPa) = 121.40359 48.74938 100.30541
#
# Poissons Ratio (x) = -0.01245 0.30956
# Poissons Ratio (y) = -0.03099 -0.02243
# Poissons Ratio (z) = 0.37467 -0.01090
#
# Static dielectric constant tensor:
#      x y z
#    x 4.848800 0.418820 -0.478660 
#    y 0.418820 3.472370 -0.147270 
#    z -0.478660 -0.147270 4.617640 
# 
# 
# High freq. dielectric constant tensor:
#      x y z
#    x 1.833460 0.001780 0.001480 
#    y 0.001780 1.785030 -0.002790 
#    z 0.001480 -0.002790 1.831810 
# 
# From -- ./inp_files/404570.got.cif
#   From: 2010.06.25/outbox.cif.g09.slc.cpg/sg2_203_cif.got.tgz:404570.got - 2010.06.27 13:26:56.
