data_PCOD8002340
_publ_section_title
;
Structure prediction by ZEFSAII (Michael W. Deem and Ramdas Pophale) SiO2 
 PCOD8002340
Probable space group: P -1
;
_chemical_formula_sum "Si O2"
_cell_formula_units_Z 16
_cell_length_a 12.292274
_cell_length_b 16.399964
_cell_length_c 13.755528
_cell_angle_alpha 140.138808
_cell_angle_beta 124.650954
_cell_angle_gamma 24.701568
_cell_volume 651.228586
_symmetry_space_group_name_H-M "P -1"
_symmetry_group_IT_number 2
_symmetry_cell_setting 'triclinic'
loop_
_space_group_symop_operation_xyz
x,y,z
-x,-y,-z
loop_
_atom_site_type_symbol
_atom_site_label
_atom_site_fract_x
_atom_site_fract_y
_atom_site_fract_z
Si Si1 0.278191 0.921666 0.878224
Si Si2 0.595581 0.153178 0.398074
Si Si3 0.307691 0.274938 0.201083
Si Si4 0.861497 0.244195 0.316109
Si Si5 0.142619 0.801984 0.300644
Si Si6 0.724001 0.061040 0.593450
Si Si7 0.613704 0.192833 0.961656
Si Si8 0.791938 0.542452 0.164889
O O1 0.594730 0.681568 0.767461
O O2 0.244335 0.799676 0.735448
O O3 0.287100 0.963360 0.033001
O O4 0.998194 0.240202 0.984045
O O5 0.391039 0.219711 0.307591
O O6 0.407817 0.445402 0.584996
O O7 0.727743 0.997701 0.428517
O O8 0.864479 0.946696 0.267593
O O9 0.964505 0.529199 0.248647
O O10 0.500000 0.000000 0.000000
O O11 0.005667 0.210967 0.444942
O O12 0.104779 0.004292 0.137921
O O13 0.231614 0.823824 0.281666
O O14 0.438656 0.466816 0.165142
O O15 0.000000 0.000000 0.500000
O O16 0.410279 0.294879 0.693839
O O17 0.404791 0.282651 0.872630
#
# Coordination Sequence:
#
# PCOD8002340 Si02
#       8
#     2   2   2   2   2   2   2   2
#     4  11  21  37  64  91 125 163 198 252 308 357
#     4  11  23  41  63  92 127 156 200 258 307 366
#     4  10  23  41  61  87 120 165 213 247 293 367
#     4  11  23  38  64  99 123 154 204 251 313 375
#     4  10  20  35  59  92 125 158 198 244 305 370
#     4  10  21  38  61  88 125 163 196 251 312 356
#     4  11  22  39  63  93 126 161 203 252 308 367
#     4  10  22  41  60  87 123 166 213 246 292 367
#
# _framework density 24.568947999999999
#
# number of rings (size 3 to 8) (size 9 to 14) (size 15 to 20)
#    0.000    1.500    0.000    6.375    0.000    7.000 
#    0.000    5.000    0.000    0.000    0.000    0.000 
#    0.000    0.000    0.000    0.000    0.000    0.000 
#
# Total GULP energy -198306.687313 kJ/mol
# GULP energy per Si atom -12394.167957 kJ/mol
# Density = 2.451303 g / cm^3
# Si number density = 24.568948 Si / 1000 Ang^3
#
#
#
# Elastic Constant Matrix: (Units=GPa)
#
#
# Indices 1 2 3 4 5 6 
#
# 1 127.3981 38.9848 19.4967 -7.5960 -31.5109 -20.2077
# 2 38.9848 102.5583 21.3590 -21.1328 -12.0360 10.5059
# 3 19.4967 21.3590 71.8574 -8.1616 -19.3099 -5.0807
# 4 -7.5960 -21.1328 -8.1616 49.1367 -5.9314 -5.9617
# 5 -31.5109 -12.0360 -19.3099 -5.9314 28.9452 1.2750
# 6 -20.2077 10.5059 -5.0807 -5.9617 1.2750 25.0189
#
#
#
# Elastic Compliance Matrix: (Units=1/GPa)
#
#
# Indices 1 2 3 4 5 6 
#
# 1 0.016509 -0.005583 0.003933 0.005078 0.018578 0.016741
# 2 -0.005583 0.014148 -0.003415 0.003241 -0.001355 -0.010303
# 3 0.003933 -0.003415 0.019611 0.005508 0.016674 0.009056
# 4 0.005078 0.003241 0.005508 0.026460 0.015560 0.009371
# 5 0.018578 -0.001355 0.016674 0.015560 0.067675 0.019219
# 6 0.016741 -0.010303 0.009056 0.009371 0.019219 0.060910
#
#
# Mechanical properties :
#
#
# Convention : Reuss Voigt Hill
#
# Bulk Modulus (GPa) = 24.91376 51.27721 38.09548
# Shear Modulus (GPa) = 21.85086 35.41837 28.63461
#
# Velocity S-wave (km/s) = 2.98546 3.80095 3.41762
# Velocity P-wave (km/s) = 4.69535 6.33869 5.57787
#
# Compressibility (1/GPa) = 0.04013847
#
# Stress axis : x y z
#
# Youngs Moduli (GPa) = 60.57214 70.68057 50.99128
#
# Poissons Ratio (x) = 0.39460 -0.20054
# Poissons Ratio (y) = 0.33817 0.17414
# Poissons Ratio (z) = -0.23822 0.24138
#
# Static dielectric constant tensor:
#      x y z
#    x 4.843620 -0.445300 -0.054980 
#    y -0.445300 4.824070 -0.231420 
#    z -0.054980 -0.231420 4.100510 
# 
# 
# High freq. dielectric constant tensor:
#      x y z
#    x 1.966720 -0.014570 -0.022480 
#    y -0.014570 2.000270 -0.018440 
#    z -0.022480 -0.018440 1.964240 
# 
# From -- ./inp_files/522520.got.cif
#   From: 2010.06.25/outbox.cif.g09.slc.cpg/sg2_262_cif.got.tgz:522520.got - 2010.06.27 13:26:56.
