data_PCOD8002347
_publ_section_title
;
Structure prediction by ZEFSAII (Michael W. Deem and Ramdas Pophale) SiO2 
 PCOD8002347
Probable space group: P -1
;
_chemical_formula_sum "Si O2"
_cell_formula_units_Z 14
_cell_length_a 9.293795
_cell_length_b 16.019184
_cell_length_c 18.134191
_cell_angle_alpha 152.696341
_cell_angle_beta 140.838567
_cell_angle_gamma 40.807132
_cell_volume 760.261344
_symmetry_space_group_name_H-M "P -1"
_symmetry_group_IT_number 2
_symmetry_cell_setting 'triclinic'
loop_
_space_group_symop_operation_xyz
x,y,z
-x,-y,-z
loop_
_atom_site_type_symbol
_atom_site_label
_atom_site_fract_x
_atom_site_fract_y
_atom_site_fract_z
Si Si1 0.784707 0.042391 0.852012
Si Si2 0.362479 0.659015 0.345321
Si Si3 0.470386 0.391892 0.051003
Si Si4 0.953470 0.387524 0.188445
Si Si5 0.832916 0.640105 0.597847
Si Si6 0.088087 0.363370 0.766188
Si Si7 0.560572 0.994545 0.435008
O O1 0.679415 0.007978 0.704171
O O2 0.895999 0.843734 0.778041
O O3 0.570794 0.165161 0.913749
O O4 0.981500 0.162443 0.012549
O O5 0.404463 0.464028 0.164114
O O6 0.564148 0.653090 0.481426
O O7 0.118860 0.697677 0.321158
O O8 0.350804 0.822931 0.410127
O O9 0.679311 0.482250 0.173205
O O10 0.246250 0.448211 0.952827
O O11 0.024029 0.476065 0.211225
O O12 0.117986 0.428648 0.352522
O O13 0.000000 0.500000 0.500000
O O14 0.235100 0.185679 0.642039
O O15 0.500000 0.000000 0.500000
#
# Coordination Sequence:
#
# PCOD8002347 Si02
#       7
#     2   2   2   2   2   2   2
#     4   8  20  34  58  83 102 142 193 232 268 320
#     4  11  22  36  57  85 115 150 181 236 285 323
#     4   9  19  37  57  81 109 150 188 223 279 337
#     4  10  20  35  60  79 111 149 191 228 269 331
#     4  11  20  37  60  82 109 147 198 228 270 332
#     4  11  22  36  55  87 120 143 181 235 290 327
#     4  10  21  35  59  83 115 145 188 229 277 337
#
# _framework density 18.414719999999999
#
# number of rings (size 3 to 8) (size 9 to 14) (size 15 to 20)
#    0.857    1.143    1.429    2.571    4.000    0.571 
#    0.000    0.000    0.000    1.714    0.000    0.000 
#    0.000    0.000    0.000    0.000    0.000    0.000 
#
# Total GULP energy -173554.797727 kJ/mol
# GULP energy per Si atom -12396.771266 kJ/mol
# Density = 1.837281 g / cm^3
# Si number density = 18.414720 Si / 1000 Ang^3
#
#
#
# Elastic Constant Matrix: (Units=GPa)
#
#
# Indices 1 2 3 4 5 6 
#
# 1 101.7782 35.8929 43.7380 -6.8177 4.4624 9.7551
# 2 35.8929 84.1047 43.2842 -5.4894 4.8451 19.3540
# 3 43.7380 43.2842 90.0154 -4.3714 -10.0339 11.1880
# 4 -6.8177 -5.4894 -4.3714 33.1713 -2.7476 -3.6862
# 5 4.4624 4.8451 -10.0339 -2.7476 20.4331 -0.0332
# 6 9.7551 19.3540 11.1880 -3.6862 -0.0332 23.1691
#
#
#
# Elastic Compliance Matrix: (Units=1/GPa)
#
#
# Indices 1 2 3 4 5 6 
#
# 1 0.013529 -0.002126 -0.005973 0.001112 -0.005236 -0.000867
# 2 -0.002126 0.020247 -0.008139 -0.000201 -0.008380 -0.012132
# 3 -0.005973 -0.008139 0.019399 0.001066 0.012904 0.000135
# 4 0.001112 -0.000201 0.001066 0.031323 0.004547 0.004176
# 5 -0.005236 -0.008380 0.012904 0.004547 0.059025 0.003782
# 6 -0.000867 -0.012132 0.000135 0.004176 0.003782 0.054265
#
#
# Mechanical properties :
#
#
# Convention : Reuss Voigt Hill
#
# Bulk Modulus (GPa) = 48.31278 57.96983 53.14131
# Shear Modulus (GPa) = 21.08244 25.55357 23.31801
#
# Velocity S-wave (km/s) = 3.38726 3.72919 3.56233
# Velocity P-wave (km/s) = 6.44911 7.07750 6.77060
#
# Compressibility (1/GPa) = 0.02069846
#
# Stress axis : x y z
#
# Youngs Moduli (GPa) = 73.91478 49.38891 51.54972
#
# Poissons Ratio (x) = 0.10500 0.30792
# Poissons Ratio (y) = 0.15714 0.41957
# Poissons Ratio (z) = 0.44152 0.40198
#
# Static dielectric constant tensor:
#      x y z
#    x 3.029000 0.028170 -0.110140 
#    y 0.028170 3.354070 -0.019780 
#    z -0.110140 -0.019780 3.523230 
# 
# 
# High freq. dielectric constant tensor:
#      x y z
#    x 1.680550 0.005840 -0.015800 
#    y 0.005840 1.711390 -0.004610 
#    z -0.015800 -0.004610 1.725420 
# 
# From -- ./inp_files/243975.got.cif
#   From: 2010.06.25/outbox.cif.g09.slc.cpg/sg2_122_cif.got.tgz:243975.got - 2010.06.27 13:26:56.
