data_PCOD8002769
_publ_section_title
;
Structure prediction by ZEFSAII (Michael W. Deem and Ramdas Pophale) SiO2 
 PCOD8002769
Probable space group: P -1
;
_chemical_formula_sum "Si O2"
_cell_formula_units_Z 16
_cell_length_a 8.690016
_cell_length_b 14.898914
_cell_length_c 20.663573
_cell_angle_alpha 18.995451
_cell_angle_beta 53.027586
_cell_angle_gamma 51.556659
_cell_volume 681.073440
_symmetry_space_group_name_H-M "P -1"
_symmetry_group_IT_number 2
_symmetry_cell_setting 'triclinic'
loop_
_space_group_symop_operation_xyz
x,y,z
-x,-y,-z
loop_
_atom_site_type_symbol
_atom_site_label
_atom_site_fract_x
_atom_site_fract_y
_atom_site_fract_z
Si Si1 0.728951 0.406711 0.922180
Si Si2 0.480701 0.089586 0.686864
Si Si3 0.776924 0.960918 0.587257
Si Si4 0.485411 0.359849 0.311823
Si Si5 0.900859 0.577719 0.573479
Si Si6 0.794158 0.299674 0.676025
Si Si7 0.081649 0.209787 0.881928
Si Si8 0.514918 0.970525 0.910279
O O1 0.757124 0.633641 0.814521
O O2 0.588838 0.575031 0.786596
O O3 0.952076 0.260305 0.945194
O O4 0.624785 0.159291 0.142555
O O5 0.332246 0.388596 0.518079
O O6 0.540247 0.044289 0.778163
O O7 0.670759 0.092578 0.590880
O O8 0.676157 0.114994 0.442091
O O9 0.000000 0.000000 0.500000
O O10 0.315150 0.251743 0.469280
O O11 0.532572 0.640694 0.140269
O O12 0.864616 0.291219 0.739094
O O13 0.006697 0.761926 0.374535
O O14 0.032726 0.503624 0.654152
O O15 0.682762 0.053712 0.855375
O O16 0.314615 0.134979 0.882108
O O17 0.000000 0.000000 0.000000
#
# Coordination Sequence:
#
# PCOD8002769 Si02
#       8
#     2   2   2   2   2   2   2   2
#     4  10  23  42  71  88 126 174 214 252 314 381
#     4  11  22  42  65  93 127 167 215 255 313 377
#     4  12  27  46  63  93 125 168 223 269 305 364
#     4  10  22  45  64  92 125 170 212 258 315 384
#     4  10  20  36  58  96 130 164 204 256 318 388
#     4  11  22  36  60  99 139 162 203 261 329 377
#     4  11  18  38  67  98 128 163 210 253 323 391
#     4  11  23  39  67  99 133 165 204 265 326 379
#
# _framework density 23.492325999999998
#
# number of rings (size 3 to 8) (size 9 to 14) (size 15 to 20)
#    0.000    1.250    6.250    1.125    1.750    1.500 
#    6.750    2.500    0.000    0.000    0.000    0.000 
#    0.000    0.000    0.000    0.000    0.000    0.000 
#
# Total GULP energy -198283.351972 kJ/mol
# GULP energy per Si atom -12392.709498 kJ/mol
# Density = 2.343886 g / cm^3
# Si number density = 23.492326 Si / 1000 Ang^3
#
#
#
# Elastic Constant Matrix: (Units=GPa)
#
#
# Indices 1 2 3 4 5 6 
#
# 1 78.4554 28.4716 32.9057 2.8252 -27.6775 -15.7044
# 2 28.4716 95.4775 28.9171 14.8972 -4.2242 -20.4112
# 3 32.9057 28.9171 78.2840 2.0397 -10.2279 -6.7959
# 4 2.8252 14.8972 2.0397 40.3522 0.2688 -4.1989
# 5 -27.6775 -4.2242 -10.2279 0.2688 32.8666 3.3653
# 6 -15.7044 -20.4112 -6.7959 -4.1989 3.3653 24.7817
#
#
#
# Elastic Compliance Matrix: (Units=1/GPa)
#
#
# Indices 1 2 3 4 5 6 
#
# 1 0.024169 -0.002704 -0.006136 0.000454 0.017155 0.009154
# 2 -0.002704 0.014930 -0.003793 -0.004160 -0.002443 0.009170
# 3 -0.006136 -0.003793 0.016495 0.000757 -0.000290 -0.002322
# 4 0.000454 -0.004160 0.000757 0.026414 -0.000295 0.001584
# 5 0.017155 -0.002443 -0.000290 -0.000295 0.044191 0.002728
# 6 0.009154 0.009170 -0.002322 0.001584 0.002728 0.052968
#
#
# Mechanical properties :
#
#
# Convention : Reuss Voigt Hill
#
# Bulk Modulus (GPa) = 32.97302 48.08954 40.53128
# Shear Modulus (GPa) = 23.30529 30.39493 26.85011
#
# Velocity S-wave (km/s) = 3.15308 3.60088 3.38439
# Velocity P-wave (km/s) = 5.22705 6.14843 5.70637
#
# Compressibility (1/GPa) = 0.03032783
#
# Stress axis : x y z
#
# Youngs Moduli (GPa) = 41.37566 66.97781 60.62331
#
# Poissons Ratio (x) = 0.18109 0.37200
# Poissons Ratio (y) = 0.11187 0.22996
# Poissons Ratio (z) = 0.25389 0.25407
#
# Static dielectric constant tensor:
#      x y z
#    x 4.044190 0.220030 0.081960 
#    y 0.220030 3.997800 0.187760 
#    z 0.081960 0.187760 4.263220 
# 
# 
# High freq. dielectric constant tensor:
#      x y z
#    x 1.924410 -0.006680 0.006100 
#    y -0.006680 1.920630 0.012480 
#    z 0.006100 0.012480 1.931800 
# 
# From -- ./inp_files/379238.got.cif
#   From: 2010.06.25/outbox.cif.g09.slc.cpg/sg2_190_cif.got.tgz:379238.got - 2010.06.27 13:26:56.
