data_PCOD8002124
_publ_section_title
;
Structure prediction by ZEFSAII (Michael W. Deem and Ramdas Pophale) SiO2 
 PCOD8002124
Probable space group: P -1
;
_chemical_formula_sum "Si O2"
_cell_formula_units_Z 16
_cell_length_a 15.957797
_cell_length_b 7.574557
_cell_length_c 10.732686
_cell_angle_alpha 44.695732
_cell_angle_beta 100.256932
_cell_angle_gamma 108.391397
_cell_volume 863.758694
_symmetry_space_group_name_H-M "P -1"
_symmetry_group_IT_number 2
_symmetry_cell_setting 'triclinic'
loop_
_space_group_symop_operation_xyz
x,y,z
-x,-y,-z
loop_
_atom_site_type_symbol
_atom_site_label
_atom_site_fract_x
_atom_site_fract_y
_atom_site_fract_z
Si Si1 0.661933 0.900259 0.876427
Si Si2 0.740635 0.545227 0.921169
Si Si3 0.470784 0.882857 0.417726
Si Si4 0.664107 0.510574 0.280946
Si Si5 0.209065 0.576252 0.254370
Si Si6 0.340665 0.910023 0.709948
Si Si7 0.204579 0.177576 0.648609
Si Si8 0.101143 0.643370 0.974916
O O1 0.725732 0.804708 0.845373
O O2 0.577278 0.935687 0.763126
O O3 0.719188 0.172494 0.805140
O O4 0.628934 0.692635 0.083624
O O5 0.738342 0.558361 0.763782
O O6 0.836792 0.507191 0.007575
O O7 0.665255 0.290489 0.076012
O O8 0.406690 0.593171 0.573371
O O9 0.500000 0.000000 0.500000
O O10 0.560964 0.889129 0.365253
O O11 0.682292 0.263203 0.336633
O O12 0.752857 0.684920 0.281252
O O13 0.169885 0.381858 0.454583
O O14 0.127337 0.649190 0.126114
O O15 0.273597 0.082431 0.628649
O O16 0.120804 0.939243 0.782130
O O17 0.000000 0.500000 0.000000
#
# Coordination Sequence:
#
# PCOD8002124 Si02
#       8
#     2   2   2   2   2   2   2   2
#     4  11  19  39  56  78 115 149 190 221 272 332
#     4   8  20  36  59  79 109 151 178 222 289 319
#     4  10  22  33  53  86 111 146 194 236 264 308
#     4  10  20  35  56  77 107 152 184 229 273 314
#     4  10  21  35  60  83 105 151 179 223 278 330
#     4   9  20  37  52  80 113 148 189 229 270 315
#     4  11  20  37  60  80 112 148 183 220 282 334
#     4   9  20  40  60  86 112 134 182 232 276 335
#
# _framework density 18.523693000000002
#
# number of rings (size 3 to 8) (size 9 to 14) (size 15 to 20)
#    0.750    1.500    2.500    0.000    3.500    5.500 
#    0.000    1.875    0.000    0.750    0.000    0.000 
#    0.000    0.000    0.000    0.000    0.000    0.000 
#
# Total GULP energy -198242.476797 kJ/mol
# GULP energy per Si atom -12390.154800 kJ/mol
# Density = 1.848153 g / cm^3
# Si number density = 18.523693 Si / 1000 Ang^3
#
#
#
# Elastic Constant Matrix: (Units=GPa)
#
#
# Indices 1 2 3 4 5 6 
#
# 1 35.2426 46.7935 24.7806 -17.8641 5.0512 10.6520
# 2 46.7935 69.7830 25.6433 8.6390 -12.6449 3.3962
# 3 24.7806 25.6433 125.3636 5.0497 -0.5711 10.5135
# 4 -17.8641 8.6390 5.0497 19.3162 11.2494 -0.4534
# 5 5.0512 -12.6449 -0.5711 11.2494 16.3550 -3.5638
# 6 10.6520 3.3962 10.5135 -0.4534 -3.5638 25.7236
#
#
#
# Elastic Compliance Matrix: (Units=1/GPa)
#
#
# Indices 1 2 3 4 5 6 
#
# 1 -0.004410 0.011301 -0.000627 -0.025458 0.028478 0.004087
# 2 0.011301 0.003176 -0.003234 0.018548 -0.015113 -0.005544
# 3 -0.000627 -0.003234 0.009033 0.000025 -0.002746 -0.003385
# 4 -0.025458 0.018548 0.000025 0.009817 0.017787 0.010720
# 5 0.028478 -0.015113 -0.002746 0.017787 0.027336 -0.004574
# 6 0.004087 -0.005544 -0.003385 0.010720 -0.004574 0.038853
#
#
# Mechanical properties :
#
#
# Convention : Reuss Voigt Hill
#
# Bulk Modulus (GPa) = 44.09864 47.20265 45.65064
# Shear Modulus (GPa) = 65.37098 21.15708 43.26403
#
# Velocity S-wave (km/s) = 5.94702 3.38326 4.83805
# Velocity P-wave (km/s) = 8.42700 6.38745 7.47710
#
# Compressibility (1/GPa) = 0.02267644
#
# Stress axis : x y z
#
# Youngs Moduli (GPa) = -226.76764 314.85546 110.70739
#
# Poissons Ratio (x) = -3.55807 0.06947
# Poissons Ratio (y) = 2.56262 0.35808
# Poissons Ratio (z) = -0.14229 1.01840
#
# Static dielectric constant tensor:
#      x y z
#    x 3.209990 -0.115880 0.112530 
#    y -0.115880 3.416580 -0.274510 
#    z 0.112530 -0.274510 4.746520 
# 
# 
# High freq. dielectric constant tensor:
#      x y z
#    x 1.677300 -0.002160 -0.006850 
#    y -0.002160 1.713160 -0.000550 
#    z -0.006850 -0.000550 1.735760 
# 
# From -- ./inp_files/445484.got.cif
#   From: 2010.06.25/outbox.cif.g09.slc.cpg/sg2_223_cif.got.tgz:445484.got - 2010.06.27 13:26:56.
