data_PCOD8002964
_publ_section_title
;
Structure prediction by ZEFSAII (Michael W. Deem and Ramdas Pophale) SiO2 
 PCOD8002964
Probable space group: P -1
;
_chemical_formula_sum "Si O2"
_cell_formula_units_Z 16
_cell_length_a 13.277391
_cell_length_b 9.108301
_cell_length_c 10.913455
_cell_angle_alpha 118.635587
_cell_angle_beta 142.704529
_cell_angle_gamma 60.010451
_cell_volume 684.216274
_symmetry_space_group_name_H-M "P -1"
_symmetry_group_IT_number 2
_symmetry_cell_setting 'triclinic'
loop_
_space_group_symop_operation_xyz
x,y,z
-x,-y,-z
loop_
_atom_site_type_symbol
_atom_site_label
_atom_site_fract_x
_atom_site_fract_y
_atom_site_fract_z
Si Si1 0.471612 0.147042 0.430688
Si Si2 0.943269 0.397610 0.515187
Si Si3 0.827201 0.948237 0.032721
Si Si4 0.331470 0.512349 0.536278
Si Si5 0.710295 0.311175 0.073315
Si Si6 0.210662 0.840325 0.416523
Si Si7 0.437140 0.340501 0.004458
Si Si8 0.223387 0.090541 0.750670
O O1 0.456306 0.334116 0.549912
O O2 0.640120 0.103477 0.492556
O O3 0.500000 0.000000 0.500000
O O4 0.292752 0.165074 0.190841
O O5 0.824048 0.525913 0.547179
O O6 0.830164 0.279944 0.295824
O O7 0.000000 0.500000 0.500000
O O8 0.087273 0.270254 0.678182
O O9 0.777336 0.975001 0.138307
O O10 0.029917 0.876507 0.182943
O O11 0.772410 0.135377 0.986457
O O12 0.255749 0.634783 0.398220
O O13 0.437119 0.629866 0.756423
O O14 0.515336 0.327528 0.937091
O O15 0.719762 0.487114 0.080014
O O16 0.188104 0.947366 0.565160
O O17 0.396267 0.155734 0.917289
#
# Coordination Sequence:
#
# PCOD8002964 Si02
#       8
#     2   2   2   2   2   2   2   2
#     4  12  30  51  71  99 141 194 244 289 341 419
#     4  11  21  37  68 105 142 173 221 295 347 414
#     4  12  25  45  73 105 137 186 236 291 355 417
#     4  11  25  47  66  98 143 186 236 284 349 416
#     4  10  20  36  60  97 137 174 224 279 350 404
#     4  12  26  46  74 105 144 182 231 299 350 426
#     4  10  21  36  65  95 136 185 219 281 347 411
#     4  12  22  41  70 111 137 172 230 290 363 413
#
# _framework density 23.384419000000001
#
# number of rings (size 3 to 8) (size 9 to 14) (size 15 to 20)
#    0.000    0.750    3.750    4.500    1.750    2.500 
#    2.250    0.000    0.000    0.000    0.000    0.000 
#    0.000    0.000    0.000    0.000    0.000    0.000 
#
# Total GULP energy -198276.114961 kJ/mol
# GULP energy per Si atom -12392.257185 kJ/mol
# Density = 2.333120 g / cm^3
# Si number density = 23.384419 Si / 1000 Ang^3
#
#
#
# Elastic Constant Matrix: (Units=GPa)
#
#
# Indices 1 2 3 4 5 6 
#
# 1 92.2656 19.1210 31.9509 -7.8869 10.5245 5.1254
# 2 19.1210 125.2882 13.1088 -15.6060 13.3427 8.0252
# 3 31.9509 13.1088 90.8811 -5.7864 20.6560 -1.0235
# 4 -7.8869 -15.6060 -5.7864 31.1558 2.9047 1.2402
# 5 10.5245 13.3427 20.6560 2.9047 22.9932 -0.3234
# 6 5.1254 8.0252 -1.0235 1.2402 -0.3234 34.0921
#
#
#
# Elastic Compliance Matrix: (Units=1/GPa)
#
#
# Indices 1 2 3 4 5 6 
#
# 1 0.012904 -0.000901 -0.003739 0.002418 -0.002358 -0.001950
# 2 -0.000901 0.009558 0.000735 0.005396 -0.006509 -0.002351
# 3 -0.003739 0.000735 0.015386 0.003464 -0.012966 0.000602
# 4 0.002418 0.005396 0.003464 0.037303 -0.012105 -0.003002
# 5 -0.002358 -0.006509 -0.012966 -0.012105 0.061560 0.002522
# 6 -0.001950 -0.002351 0.000602 -0.003002 0.002522 0.030330
#
#
# Mechanical properties :
#
#
# Convention : Reuss Voigt Hill
#
# Bulk Modulus (GPa) = 33.29126 48.53293 40.91209
# Shear Modulus (GPa) = 27.04687 33.93185 30.48936
#
# Velocity S-wave (km/s) = 3.40460 3.81339 3.61478
# Velocity P-wave (km/s) = 5.45183 6.33946 5.91233
#
# Compressibility (1/GPa) = 0.03003791
#
# Stress axis : x y z
#
# Youngs Moduli (GPa) = 77.49741 104.62302 64.99317
#
# Poissons Ratio (x) = 0.09425 0.24299
# Poissons Ratio (y) = 0.06982 -0.04774
# Poissons Ratio (z) = 0.28974 -0.07685
#
# Static dielectric constant tensor:
#      x y z
#    x 4.302870 0.154430 0.452030 
#    y 0.154430 4.499080 -0.088000 
#    z 0.452030 -0.088000 4.489330 
# 
# 
# High freq. dielectric constant tensor:
#      x y z
#    x 1.903820 0.008060 0.023990 
#    y 0.008060 1.942920 -0.013710 
#    z 0.023990 -0.013710 1.921750 
# 
# From -- ./inp_files/448093.got.cif
#   From: 2010.06.25/outbox.cif.g09.slc.cpg/sg2_225_cif.got.tgz:448093.got - 2010.06.27 13:26:56.
