data_PCOD8002643
_publ_section_title
;
Structure prediction by ZEFSAII (Michael W. Deem and Ramdas Pophale) SiO2 
 PCOD8002643
Probable space group: P -1
;
_chemical_formula_sum "Si O2"
_cell_formula_units_Z 16
_cell_length_a 18.791092
_cell_length_b 7.792787
_cell_length_c 10.100061
_cell_angle_alpha 91.683006
_cell_angle_beta 41.849708
_cell_angle_gamma 114.339450
_cell_volume 799.807385
_symmetry_space_group_name_H-M "P -1"
_symmetry_group_IT_number 2
_symmetry_cell_setting 'triclinic'
loop_
_space_group_symop_operation_xyz
x,y,z
-x,-y,-z
loop_
_atom_site_type_symbol
_atom_site_label
_atom_site_fract_x
_atom_site_fract_y
_atom_site_fract_z
Si Si1 0.585644 0.577704 0.585462
Si Si2 0.812278 0.828805 0.480288
Si Si3 0.997871 0.305564 0.158968
Si Si4 0.992897 0.693914 0.160435
Si Si5 0.252470 0.935459 0.962629
Si Si6 0.496057 0.750484 0.504895
Si Si7 0.240283 0.559751 0.011231
Si Si8 0.690723 0.685086 0.925758
O O1 0.721097 0.734457 0.475995
O O2 0.581666 0.686716 0.460510
O O3 0.574385 0.375587 0.537041
O O4 0.464299 0.497802 0.851620
O O5 0.899259 0.738871 0.367400
O O6 0.723299 0.755880 0.731886
O O7 0.896303 0.081923 0.364911
O O8 0.946934 0.454356 0.246493
O O9 0.013663 0.268219 0.984155
O O10 0.139074 0.412000 0.033391
O O11 0.140649 0.865231 0.007924
O O12 0.211381 0.728815 0.102893
O O13 0.387763 0.011194 0.697423
O O14 0.267780 0.115929 0.036280
O O15 0.387815 0.713315 0.755021
O O16 0.230430 0.411469 0.138676
#
# Coordination Sequence:
#
# PCOD8002643 Si02
#       8
#     2   2   2   2   2   2   2   2
#     4   9  19  35  57  83 109 137 179 230 267 313
#     4  12  22  37  59  76 109 155 177 211 274 319
#     4  10  22  37  56  85 111 135 178 227 271 324
#     4  10  22  37  56  85 111 135 178 227 271 324
#     4  10  20  36  57  81 111 142 178 226 269 313
#     4   9  17  34  60  85 105 136 181 223 276 325
#     4  10  20  36  57  81 111 142 178 226 269 313
#     4  10  23  38  53  80 109 143 190 220 254 322
#
# _framework density 20.004816000000002
#
# number of rings (size 3 to 8) (size 9 to 14) (size 15 to 20)
#    0.000    2.000    0.000    4.125    0.000    3.000 
#    0.000    7.500    0.000    7.500    0.000    0.000 
#    0.000    0.000    0.000    0.000    0.000    0.000 
#
# Total GULP energy -198290.100427 kJ/mol
# GULP energy per Si atom -12393.131277 kJ/mol
# Density = 1.995928 g / cm^3
# Si number density = 20.004816 Si / 1000 Ang^3
#
#
#
# Elastic Constant Matrix: (Units=GPa)
#
#
# Indices 1 2 3 4 5 6 
#
# 1 82.4685 35.8895 13.6454 -15.2022 -2.7892 4.3045
# 2 35.8895 91.8125 22.7924 -19.6488 -1.7093 -2.8170
# 3 13.6454 22.7924 59.9513 -5.1980 7.3748 -1.3605
# 4 -15.2022 -19.6488 -5.1980 14.5486 6.5895 0.9268
# 5 -2.7892 -1.7093 7.3748 6.5895 27.2650 -7.6222
# 6 4.3045 -2.8170 -1.3605 0.9268 -7.6222 31.5605
#
#
#
# Elastic Compliance Matrix: (Units=1/GPa)
#
#
# Indices 1 2 3 4 5 6 
#
# 1 0.016372 -0.003411 -0.001029 0.013507 -0.002529 -0.003589
# 2 -0.003411 0.017356 -0.003738 0.019806 -0.002875 0.000577
# 3 -0.001029 -0.003738 0.019512 0.004053 -0.006916 -0.001141
# 4 0.013507 0.019806 0.004053 0.126353 -0.032193 -0.011385
# 5 -0.002529 -0.002875 -0.006916 -0.032193 0.049433 0.012674
# 6 -0.003589 0.000577 -0.001141 -0.011385 0.012674 0.035572
#
#
# Mechanical properties :
#
#
# Convention : Reuss Voigt Hill
#
# Bulk Modulus (GPa) = 27.11191 42.09856 34.60524
# Shear Modulus (GPa) = 17.05036 25.46848 21.25942
#
# Velocity S-wave (km/s) = 2.92261 3.57195 3.26347
# Velocity P-wave (km/s) = 4.99709 6.17265 5.61572
#
# Compressibility (1/GPa) = 0.03688415
#
# Stress axis : x y z
#
# Youngs Moduli (GPa) = 61.07890 57.61706 51.25116
#
# Poissons Ratio (x) = 0.19653 0.05273
# Poissons Ratio (y) = 0.20834 0.19158
# Poissons Ratio (z) = 0.06285 0.21537
#
# Static dielectric constant tensor:
#      x y z
#    x 3.640880 -0.112200 -0.070210 
#    y -0.112200 3.736670 -0.201880 
#    z -0.070210 -0.201880 3.431780 
# 
# 
# High freq. dielectric constant tensor:
#      x y z
#    x 1.782710 -0.005130 -0.007200 
#    y -0.005130 1.787890 -0.015400 
#    z -0.007200 -0.015400 1.764770 
# 
# From -- ./inp_files/311971.got.cif
#   From: 2010.06.25/outbox.cif.g09.slc.cpg/sg2_156_cif.got.tgz:311971.got - 2010.06.27 13:26:56.
