data_PCOD8002416
_publ_section_title
;
Structure prediction by ZEFSAII (Michael W. Deem and Ramdas Pophale) SiO2 
 PCOD8002416
Probable space group: P -1
;
_chemical_formula_sum "Si O2"
_cell_formula_units_Z 14
_cell_length_a 9.284896
_cell_length_b 12.197511
_cell_length_c 13.054370
_cell_angle_alpha 34.605966
_cell_angle_beta 131.089353
_cell_angle_gamma 133.223981
_cell_volume 596.001113
_symmetry_space_group_name_H-M "P -1"
_symmetry_group_IT_number 2
_symmetry_cell_setting 'triclinic'
loop_
_space_group_symop_operation_xyz
x,y,z
-x,-y,-z
loop_
_atom_site_type_symbol
_atom_site_label
_atom_site_fract_x
_atom_site_fract_y
_atom_site_fract_z
Si Si1 0.744276 0.099988 0.811078
Si Si2 0.610259 0.378235 0.278378
Si Si3 0.983286 0.303189 0.285774
Si Si4 0.986358 0.974320 0.181810
Si Si5 0.790735 0.864771 0.632864
Si Si6 0.569967 0.278232 0.103849
Si Si7 0.927127 0.555938 0.563306
O O1 0.769877 0.337899 0.621306
O O2 0.850824 0.015075 0.836915
O O3 0.512491 0.949694 0.809636
O O4 0.829056 0.073485 0.983878
O O5 0.453888 0.219663 0.404590
O O6 0.568262 0.270872 0.231431
O O7 0.844598 0.422121 0.384312
O O8 0.567417 0.591743 0.098997
O O9 0.805285 0.382162 0.096960
O O10 0.142275 0.297469 0.278152
O O11 0.097318 0.441674 0.327259
O O12 0.853802 0.079448 0.440789
O O13 0.868502 0.739681 0.343016
O O14 0.100630 0.114341 0.222001
#
# Coordination Sequence:
#
# PCOD8002416 Si02
#       7
#     2   2   2   2   2   2   2
#     4  11  21  37  58  88 124 152 188 244 288 357
#     4  10  20  35  61  89 112 147 199 245 287 341
#     4   9  22  39  61  85 114 153 198 242 291 346
#     4  10  21  35  59  87 116 155 191 237 293 342
#     4  10  20  39  62  84 115 153 198 243 290 342
#     4  10  21  36  57  90 117 148 194 244 290 342
#     4  10  22  38  61  89 117 152 196 240 296 343
#
# _framework density 23.489889000000002
#
# number of rings (size 3 to 8) (size 9 to 14) (size 15 to 20)
#    0.000    2.000    1.429    2.143    6.000    2.286 
#    0.000    0.714    3.143    2.571    0.000    0.000 
#    0.000    0.000    0.000    0.000    0.000    0.000 
#
# Total GULP energy -173575.042964 kJ/mol
# GULP energy per Si atom -12398.217355 kJ/mol
# Density = 2.343643 g / cm^3
# Si number density = 23.489889 Si / 1000 Ang^3
#
#
#
# Elastic Constant Matrix: (Units=GPa)
#
#
# Indices 1 2 3 4 5 6 
#
# 1 74.2797 10.7871 -3.4673 -5.8193 5.2903 -21.6628
# 2 10.7871 87.4280 6.2836 -16.0221 -5.9856 -8.5611
# 3 -3.4673 6.2836 57.1049 -6.5762 -4.7960 -3.1995
# 4 -5.8193 -16.0221 -6.5762 30.5467 -0.8725 -2.9504
# 5 5.2903 -5.9856 -4.7960 -0.8725 15.3757 -0.4474
# 6 -21.6628 -8.5611 -3.1995 -2.9504 -0.4474 23.1811
#
#
#
# Elastic Compliance Matrix: (Units=1/GPa)
#
#
# Indices 1 2 3 4 5 6 
#
# 1 0.020277 0.000059 0.002630 0.006246 -0.005196 0.020029
# 2 0.000059 0.013960 0.000287 0.008191 0.006155 0.006412
# 3 0.002630 0.000287 0.019084 0.005501 0.005646 0.006007
# 4 0.006246 0.008191 0.005501 0.041008 0.005517 0.014947
# 5 -0.005196 0.006155 0.005646 0.005517 0.071304 0.000275
# 6 0.020029 0.006412 0.006007 0.014947 0.000275 0.066961
#
#
# Mechanical properties :
#
#
# Convention : Reuss Voigt Hill
#
# Bulk Modulus (GPa) = 16.87086 27.33548 22.10317
# Shear Modulus (GPa) = 20.29215 27.50130 23.89673
#
# Velocity S-wave (km/s) = 2.94235 3.42537 3.19301
# Velocity P-wave (km/s) = 4.32909 5.22557 4.79831
#
# Compressibility (1/GPa) = 0.05927380
#
# Stress axis : x y z
#
# Youngs Moduli (GPa) = 49.31598 71.63162 52.39976
#
# Poissons Ratio (x) = -0.00425 -0.13780
# Poissons Ratio (y) = -0.00293 -0.01503
# Poissons Ratio (z) = -0.12969 -0.02055
#
# Static dielectric constant tensor:
#      x y z
#    x 4.143750 -0.166820 0.116030 
#    y -0.166820 4.182340 0.047210 
#    z 0.116030 0.047210 4.275440 
# 
# 
# High freq. dielectric constant tensor:
#      x y z
#    x 1.892830 -0.009980 0.000690 
#    y -0.009980 1.931770 -0.000520 
#    z 0.000690 -0.000520 1.933260 
# 
# From -- ./inp_files/174284.got.cif
#   From: 2010.06.25/outbox.cif.g09.slc.cpg/sg2_88_cif.got.tgz:174284.got - 2010.06.27 13:26:56.
