data_PCOD8002115
_publ_section_title
;
Structure prediction by ZEFSAII (Michael W. Deem and Ramdas Pophale) SiO2 
 PCOD8002115
Probable space group: P -1
;
_chemical_formula_sum "Si O2"
_cell_formula_units_Z 14
_cell_length_a 10.305036
_cell_length_b 15.814624
_cell_length_c 10.385690
_cell_angle_alpha 114.063374
_cell_angle_beta 96.223651
_cell_angle_gamma 141.368658
_cell_volume 639.346065
_symmetry_space_group_name_H-M "P -1"
_symmetry_group_IT_number 2
_symmetry_cell_setting 'triclinic'
loop_
_space_group_symop_operation_xyz
x,y,z
-x,-y,-z
loop_
_atom_site_type_symbol
_atom_site_label
_atom_site_fract_x
_atom_site_fract_y
_atom_site_fract_z
Si Si1 0.543387 0.704457 0.696815
Si Si2 0.845981 0.991625 0.130321
Si Si3 0.502048 0.200817 0.775379
Si Si4 0.390403 0.015295 0.420112
Si Si5 0.897407 0.233646 0.220331
Si Si6 0.677252 0.250718 0.357737
Si Si7 0.031815 0.657103 0.992325
O O1 0.195686 0.438399 0.476632
O O2 0.581339 0.835376 0.733698
O O3 0.786280 0.795474 0.704909
O O4 0.640893 0.779788 0.904365
O O5 0.791960 0.058904 0.103785
O O6 0.745667 0.921791 0.224604
O O7 0.302375 0.036095 0.528132
O O8 0.712214 0.418776 0.876824
O O9 0.705826 0.252058 0.898233
O O10 0.691883 0.237984 0.503295
O O11 0.500000 0.000000 0.500000
O O12 0.114992 0.808928 0.163931
O O13 0.007877 0.345635 0.164497
O O14 0.614740 0.116011 0.181080
O O15 0.000000 0.500000 0.500000
#
# Coordination Sequence:
#
# PCOD8002115 Si02
#       7
#     2   2   2   2   2   2   2
#     4  10  23  39  58  87 120 148 190 243 287 340
#     4  11  23  39  61  85 115 156 193 232 291 347
#     4  10  21  37  56  83 118 153 187 232 288 343
#     4  10  20  35  55  85 119 146 183 237 286 334
#     4  11  21  38  63  88 113 149 196 242 285 335
#     4  10  20  36  62  88 113 149 192 239 285 332
#     4  10  21  35  57  88 116 146 191 240 285 334
#
# _framework density 21.897373999999999
#
# number of rings (size 3 to 8) (size 9 to 14) (size 15 to 20)
#    0.000    1.714    0.000    5.571    0.000    8.571 
#    0.000    2.857    0.000    5.143    0.000    0.000 
#    0.000    0.000    0.000    0.000    0.000    0.000 
#
# Total GULP energy -173490.552628 kJ/mol
# GULP energy per Si atom -12392.182331 kJ/mol
# Density = 2.184753 g / cm^3
# Si number density = 21.897374 Si / 1000 Ang^3
#
#
#
# Elastic Constant Matrix: (Units=GPa)
#
#
# Indices 1 2 3 4 5 6 
#
# 1 102.5755 46.3093 16.5443 -6.1035 -8.1527 18.9206
# 2 46.3093 138.1503 24.8481 -33.0773 -16.5085 7.0024
# 3 16.5443 24.8481 78.8848 -15.5649 -23.9461 10.3866
# 4 -6.1035 -33.0773 -15.5649 36.9425 2.7096 -9.6857
# 5 -8.1527 -16.5085 -23.9461 2.7096 32.2481 -6.7839
# 6 18.9206 7.0024 10.3866 -9.6857 -6.7839 32.5156
#
#
#
# Elastic Compliance Matrix: (Units=1/GPa)
#
#
# Indices 1 2 3 4 5 6 
#
# 1 0.013420 -0.005239 -0.001663 -0.005156 -0.001786 -0.008058
# 2 -0.005239 0.011881 0.000440 0.010796 0.005153 0.004640
# 3 -0.001663 0.000440 0.018079 0.006743 0.012608 -0.000263
# 4 -0.005156 0.010796 0.006743 0.041415 0.008403 0.012611
# 5 -0.001786 0.005153 0.012608 0.008403 0.043422 0.007465
# 6 -0.008058 0.004640 -0.000263 0.012611 0.007465 0.039842
#
#
# Mechanical properties :
#
#
# Convention : Reuss Voigt Hill
#
# Bulk Modulus (GPa) = 32.83335 55.00156 43.91745
# Shear Modulus (GPa) = 26.15952 35.80183 30.98068
#
# Velocity S-wave (km/s) = 3.46011 4.04788 3.76548
# Velocity P-wave (km/s) = 5.56686 6.85708 6.24537
#
# Compressibility (1/GPa) = 0.03045684
#
# Stress axis : x y z
#
# Youngs Moduli (GPa) = 74.51659 84.16751 55.31253
#
# Poissons Ratio (x) = 0.44094 0.09197
# Poissons Ratio (y) = 0.39038 -0.02433
# Poissons Ratio (z) = 0.12390 -0.03703
#
# Static dielectric constant tensor:
#      x y z
#    x 4.391010 -0.064900 -0.733160 
#    y -0.064900 3.937650 -0.234980 
#    z -0.733160 -0.234980 4.796760 
# 
# 
# High freq. dielectric constant tensor:
#      x y z
#    x 1.840950 -0.009800 -0.029040 
#    y -0.009800 1.859210 -0.009860 
#    z -0.029040 -0.009860 1.871480 
# 
# From -- ./inp_files/278138.got.cif
#   From: 2010.06.25/outbox.cif.g09.slc.cpg/sg2_140_cif.got.tgz:278138.got - 2010.06.27 13:26:56.
