data_PCOD8002684
_publ_section_title
;
Structure prediction by ZEFSAII (Michael W. Deem and Ramdas Pophale) SiO2 
 PCOD8002684
Probable space group: P -1
;
_chemical_formula_sum "Si O2"
_cell_formula_units_Z 16
_cell_length_a 16.901498
_cell_length_b 26.937478
_cell_length_c 25.541599
_cell_angle_alpha 10.688468
_cell_angle_beta 19.405482
_cell_angle_gamma 19.401134
_cell_volume 690.775712
_symmetry_space_group_name_H-M "P -1"
_symmetry_group_IT_number 2
_symmetry_cell_setting 'triclinic'
loop_
_space_group_symop_operation_xyz
x,y,z
-x,-y,-z
loop_
_atom_site_type_symbol
_atom_site_label
_atom_site_fract_x
_atom_site_fract_y
_atom_site_fract_z
Si Si1 0.033095 0.559458 0.978497
Si Si2 0.794931 0.242054 0.160952
Si Si3 0.449336 0.201263 0.901263
Si Si4 0.790001 0.950781 0.369671
Si Si5 0.842684 0.779642 0.331740
Si Si6 0.291074 0.935400 0.486824
Si Si7 0.280848 0.368376 0.716212
Si Si8 0.245315 0.473916 0.242102
O O1 0.771864 0.711760 0.009360
O O2 0.154329 0.260130 0.237999
O O3 0.208418 0.766692 0.665143
O O4 0.000000 0.500000 0.000000
O O5 0.879818 0.960441 0.364246
O O6 0.784992 0.184979 0.287273
O O7 0.542245 0.423247 0.105007
O O8 0.987929 0.420067 0.845634
O O9 0.363936 0.294871 0.799645
O O10 0.659393 0.351274 0.631578
O O11 0.571612 0.872052 0.166487
O O12 0.500000 0.000000 0.500000
O O13 0.893215 0.654338 0.584222
O O14 0.865601 0.193938 0.035588
O O15 0.584641 0.895203 0.342122
O O16 0.793430 0.701763 0.501698
O O17 0.000000 0.500000 0.500000
O O18 0.000000 0.000000 0.000000
#
# Coordination Sequence:
#
# PCOD8002684 Si02
#       8
#     2   2   2   2   2   2   2   2
#     4  12  25  46  68  92 131 175 228 284 326 387
#     4  10  21  37  63  92 123 160 215 256 309 404
#     4  10  22  39  58  88 123 158 196 258 330 368
#     4  10  20  36  57  89 129 163 194 257 325 380
#     4  11  23  44  68  96 131 175 222 281 332 388
#     4  11  25  42  69  98 120 172 232 268 331 405
#     4  10  21  36  60  89 123 155 197 260 316 379
#     4  10  22  38  59  90 129 168 210 255 322 391
#
# _framework density 23.162365000000001
#
# number of rings (size 3 to 8) (size 9 to 14) (size 15 to 20)
#    0.000    1.500    1.250    4.125    3.500    9.000 
#    0.000    7.500    0.000    0.000    0.000    0.000 
#    0.000    0.000    0.000    0.000    0.000    0.000 
#
# Total GULP energy -198271.817902 kJ/mol
# GULP energy per Si atom -12391.988619 kJ/mol
# Density = 2.310965 g / cm^3
# Si number density = 23.162365 Si / 1000 Ang^3
#
#
#
# Elastic Constant Matrix: (Units=GPa)
#
#
# Indices 1 2 3 4 5 6 
#
# 1 78.8479 35.8564 42.3816 3.2131 -18.9883 5.0860
# 2 35.8564 124.0378 58.3381 7.8802 -14.2583 6.7359
# 3 42.3816 58.3381 162.6179 4.7826 -25.7943 3.1430
# 4 3.2131 7.8802 4.7826 43.0917 -6.9963 -9.0580
# 5 -18.9883 -14.2583 -25.7943 -6.9963 41.2513 -5.2287
# 6 5.0860 6.7359 3.1430 -9.0580 -5.2287 17.9413
#
#
#
# Elastic Compliance Matrix: (Units=1/GPa)
#
#
# Indices 1 2 3 4 5 6 
#
# 1 0.016655 -0.003005 -0.002456 0.000006 0.004872 -0.001740
# 2 -0.003005 0.010628 -0.002957 -0.002283 -0.000440 -0.003901
# 3 -0.002456 -0.002957 0.008335 0.000705 0.003393 0.001691
# 4 0.000006 -0.002283 0.000705 0.028155 0.006567 0.016860
# 5 0.004872 -0.000440 0.003393 0.006567 0.030900 0.010510
# 6 -0.001740 -0.003901 0.001691 0.016860 0.010510 0.068974
#
#
# Mechanical properties :
#
#
# Convention : Reuss Voigt Hill
#
# Bulk Modulus (GPa) = 53.24418 70.96176 62.10297
# Shear Modulus (GPa) = 26.77471 35.71869 31.24670
#
# Velocity S-wave (km/s) = 3.40363 3.93122 3.67690
# Velocity P-wave (km/s) = 6.20351 7.16304 6.70047
#
# Compressibility (1/GPa) = 0.01878139
#
# Stress axis : x y z
#
# Youngs Moduli (GPa) = 60.04271 94.09435 119.97545
#
# Poissons Ratio (x) = 0.28276 0.29469
# Poissons Ratio (y) = 0.18043 0.35473
# Poissons Ratio (z) = 0.14748 0.27821
#
# Static dielectric constant tensor:
#      x y z
#    x 4.303460 -0.019410 -0.577270 
#    y -0.019410 4.170740 -0.106270 
#    z -0.577270 -0.106270 4.654150 
# 
# 
# High freq. dielectric constant tensor:
#      x y z
#    x 1.916100 -0.006930 -0.015690 
#    y -0.006930 1.903650 -0.004810 
#    z -0.015690 -0.004810 1.938410 
# 
# From -- ./inp_files/620533.got.cif
#   From: 2010.06.25/outbox.cif.g09.slc.cpg/sg2_311_cif.got.tgz:620533.got - 2010.06.27 13:26:56.
