data_PCOD8002714
_publ_section_title
;
Structure prediction by ZEFSAII (Michael W. Deem and Ramdas Pophale) SiO2 
 PCOD8002714
Probable space group: P -1
;
_chemical_formula_sum "Si O2"
_cell_formula_units_Z 14
_cell_length_a 16.355970
_cell_length_b 8.975968
_cell_length_c 14.063782
_cell_angle_alpha 104.801527
_cell_angle_beta 138.641253
_cell_angle_gamma 43.404718
_cell_volume 721.615991
_symmetry_space_group_name_H-M "P -1"
_symmetry_group_IT_number 2
_symmetry_cell_setting 'triclinic'
loop_
_space_group_symop_operation_xyz
x,y,z
-x,-y,-z
loop_
_atom_site_type_symbol
_atom_site_label
_atom_site_fract_x
_atom_site_fract_y
_atom_site_fract_z
Si Si1 0.004965 0.472966 0.288316
Si Si2 0.714799 0.244929 0.370988
Si Si3 0.546170 0.230980 0.881756
Si Si4 0.912952 0.909976 0.303021
Si Si5 0.756174 0.696926 0.284215
Si Si6 0.420791 0.896578 0.663679
Si Si7 0.826649 0.659517 0.958931
O O1 0.051929 0.606071 0.364565
O O2 0.776043 0.672347 0.182541
O O3 0.963285 0.474393 0.143278
O O4 0.219541 0.153240 0.458898
O O5 0.528077 0.552631 0.214759
O O6 0.597363 0.264746 0.353589
O O7 0.915302 0.131208 0.577701
O O8 0.820246 0.022015 0.347453
O O9 0.321083 0.390402 0.759173
O O10 0.703482 0.136702 0.085577
O O11 0.682764 0.965620 0.894965
O O12 0.000000 0.500000 0.500000
O O13 0.579095 0.005142 0.221379
O O14 0.661223 0.688822 0.791964
O O15 0.000000 0.500000 0.000000
#
# Coordination Sequence:
#
# PCOD8002714 Si02
#       7
#     2   2   2   2   2   2   2
#     4  10  20  36  58  84 112 145 185 231 274 336
#     4  11  21  33  52  86 124 148 175 215 281 351
#     4  10  22  36  56  81 118 151 181 227 280 333
#     4  10  21  32  52  82 120 157 173 211 273 349
#     4   9  17  32  55  83 115 145 178 220 279 334
#     4  10  21  34  58  85 115 145 180 230 280 331
#     4  10  23  41  61  79 101 147 203 243 272 313
#
# _framework density 19.400901000000001
#
# number of rings (size 3 to 8) (size 9 to 14) (size 15 to 20)
#    0.000    2.000    1.429    3.000    8.000    3.429 
#    0.000    0.714    0.000    4.286    0.000    0.000 
#    0.000    0.000    0.000    0.000    0.000    0.000 
#
# Total GULP energy -173563.986062 kJ/mol
# GULP energy per Si atom -12397.427576 kJ/mol
# Density = 1.935674 g / cm^3
# Si number density = 19.400901 Si / 1000 Ang^3
#
#
#
# Elastic Constant Matrix: (Units=GPa)
#
#
# Indices 1 2 3 4 5 6 
#
# 1 142.7029 48.9793 71.4628 -12.4398 11.0501 9.3715
# 2 48.9793 48.9768 37.4302 -2.6189 1.9807 13.3443
# 3 71.4628 37.4302 120.6669 -1.4766 5.9327 15.4503
# 4 -12.4398 -2.6189 -1.4766 13.6974 0.8021 1.2001
# 5 11.0501 1.9807 5.9327 0.8021 36.8668 -2.3307
# 6 9.3715 13.3443 15.4503 1.2001 -2.3307 40.9927
#
#
#
# Elastic Compliance Matrix: (Units=1/GPa)
#
#
# Indices 1 2 3 4 5 6 
#
# 1 0.013975 -0.009754 -0.005166 0.010317 -0.002966 0.001456
# 2 -0.009754 0.035363 -0.004317 -0.001978 0.001286 -0.007524
# 3 -0.005166 -0.004317 0.012936 -0.003909 -0.000355 -0.002195
# 4 0.010317 -0.001978 -0.003909 0.082083 -0.004326 -0.002890
# 5 -0.002966 0.001286 -0.000355 -0.004326 0.028230 0.002125
# 6 0.001456 -0.007524 -0.002195 -0.002890 0.002125 0.027544
#
#
# Mechanical properties :
#
#
# Convention : Reuss Voigt Hill
#
# Bulk Modulus (GPa) = 42.01240 69.78793 55.90017
# Shear Modulus (GPa) = 20.28077 28.60968 24.44522
#
# Velocity S-wave (km/s) = 3.23670 3.84429 3.55351
# Velocity P-wave (km/s) = 5.97245 7.46688 6.76108
#
# Compressibility (1/GPa) = 0.02380249
#
# Stress axis : x y z
#
# Youngs Moduli (GPa) = 71.55416 28.27776 77.30126
#
# Poissons Ratio (x) = 0.27581 0.39931
# Poissons Ratio (y) = 0.69791 0.33373
# Poissons Ratio (z) = 0.36962 0.12208
#
# Static dielectric constant tensor:
#      x y z
#    x 3.634510 0.119670 0.129460 
#    y 0.119670 3.257590 0.066720 
#    z 0.129460 0.066720 3.659820 
# 
# 
# High freq. dielectric constant tensor:
#      x y z
#    x 1.743120 0.025380 0.003180 
#    y 0.025380 1.718170 0.003180 
#    z 0.003180 0.003180 1.769870 
# 
# From -- ./inp_files/255448.got.cif
#   From: 2010.06.25/outbox.cif.g09.slc.cpg/sg2_128_cif.got.tgz:255448.got - 2010.06.27 13:26:56.
