data_PCOD8002197
_publ_section_title
;
Structure prediction by ZEFSAII (Michael W. Deem and Ramdas Pophale) SiO2 
 PCOD8002197
Probable space group: P -1
;
_chemical_formula_sum "Si O2"
_cell_formula_units_Z 16
_cell_length_a 20.024947
_cell_length_b 17.946576
_cell_length_c 14.768760
_cell_angle_alpha 19.653647
_cell_angle_beta 35.212751
_cell_angle_gamma 28.395579
_cell_volume 846.757623
_symmetry_space_group_name_H-M "P -1"
_symmetry_group_IT_number 2
_symmetry_cell_setting 'triclinic'
loop_
_space_group_symop_operation_xyz
x,y,z
-x,-y,-z
loop_
_atom_site_type_symbol
_atom_site_label
_atom_site_fract_x
_atom_site_fract_y
_atom_site_fract_z
Si Si1 0.036272 0.853303 0.222221
Si Si2 0.265122 0.289653 0.661494
Si Si3 0.139829 0.337494 0.280921
Si Si4 0.567235 0.839082 0.869477
Si Si5 0.083667 0.078250 0.085413
Si Si6 0.525429 0.411998 0.468985
Si Si7 0.238886 0.498813 0.644073
Si Si8 0.265994 0.163361 0.158497
O O1 0.190411 0.570367 0.368019
O O2 0.919629 0.793130 0.441725
O O3 0.034629 0.045985 0.078703
O O4 0.000000 0.000000 0.000000
O O5 0.211761 0.109883 0.891927
O O6 0.219106 0.367481 0.728091
O O7 0.433332 0.119596 0.658264
O O8 0.297260 0.238065 0.253162
O O9 0.147235 0.244129 0.274575
O O10 0.044623 0.660068 0.022350
O O11 0.600357 0.863305 0.910052
O O12 0.534912 0.613569 0.161933
O O13 0.134962 0.821816 0.385503
O O14 0.500000 0.500000 0.500000
O O15 0.400258 0.398325 0.585533
O O16 0.674976 0.122334 0.627236
O O17 0.196791 0.400080 0.890542
#
# Coordination Sequence:
#
# PCOD8002197 Si02
#       8
#     2   2   2   2   2   2   2   2
#     4  10  23  44  68  85 109 147 193 246 303 365
#     4  10  20  38  59  91 117 149 201 241 282 343
#     4   9  22  40  57  87 121 157 189 242 296 342
#     4  10  20  35  57  84 120 158 190 238 288 329
#     4  10  22  38  62  84 115 153 200 234 293 360
#     4  12  19  30  56  84 118 170 209 227 278 331
#     4  11  19  33  54  86 121 161 203 237 265 337
#     4  10  22  33  53  85 129 161 195 243 274 328
#
# _framework density 18.895609
#
# number of rings (size 3 to 8) (size 9 to 14) (size 15 to 20)
#    0.750    1.000    3.750    1.125    1.750    2.500 
#    0.000    6.250    0.000    1.500    0.000    0.000 
#    0.000    0.000    0.000    0.000    0.000    0.000 
#
# Total GULP energy -198338.650409 kJ/mol
# GULP energy per Si atom -12396.165651 kJ/mol
# Density = 1.885260 g / cm^3
# Si number density = 18.895609 Si / 1000 Ang^3
#
#
#
# Elastic Constant Matrix: (Units=GPa)
#
#
# Indices 1 2 3 4 5 6 
#
# 1 66.2691 31.0463 49.9002 -5.8381 14.8638 2.1713
# 2 31.0463 106.7896 64.7208 -19.1663 13.3337 -4.6809
# 3 49.9002 64.7208 126.5663 -10.4238 19.1151 8.5146
# 4 -5.8381 -19.1663 -10.4238 34.6630 0.5893 -2.3179
# 5 14.8638 13.3337 19.1151 0.5893 35.7421 -3.4726
# 6 2.1713 -4.6809 8.5146 -2.3179 -3.4726 24.8704
#
#
#
# Elastic Compliance Matrix: (Units=1/GPa)
#
#
# Indices 1 2 3 4 5 6 
#
# 1 0.022423 -0.001308 -0.007326 0.000914 -0.004963 -0.000304
# 2 -0.001308 0.015716 -0.007226 0.006717 -0.000979 0.006035
# 3 -0.007326 -0.007226 0.015298 -0.001010 -0.003052 -0.006478
# 4 0.000914 0.006717 -0.001010 0.032739 -0.002474 0.004236
# 5 -0.004963 -0.000979 -0.003052 -0.002474 0.032626 0.005619
# 6 -0.000304 0.006035 -0.006478 0.004236 0.005619 0.044768
#
#
# Mechanical properties :
#
#
# Convention : Reuss Voigt Hill
#
# Bulk Modulus (GPa) = 46.04772 65.66217 55.85495
# Shear Modulus (GPa) = 24.68773 29.31896 27.00334
#
# Velocity S-wave (km/s) = 3.61852 3.94334 3.78442
# Velocity P-wave (km/s) = 6.47153 7.45377 6.97995
#
# Compressibility (1/GPa) = 0.02171660
#
# Stress axis : x y z
#
# Youngs Moduli (GPa) = 44.59641 63.62918 65.36834
#
# Poissons Ratio (x) = 0.08325 0.47891
# Poissons Ratio (y) = 0.05835 0.47233
# Poissons Ratio (z) = 0.32673 0.45977
#
# Static dielectric constant tensor:
#      x y z
#    x 3.435140 -0.180340 -0.126480 
#    y -0.180340 3.265070 -0.250070 
#    z -0.126480 -0.250070 3.428470 
# 
# 
# High freq. dielectric constant tensor:
#      x y z
#    x 1.723020 -0.015500 -0.015580 
#    y -0.015500 1.716780 -0.022720 
#    z -0.015580 -0.022720 1.733830 
# 
# From -- ./inp_files/76359.got.cif
#   From: 2010.06.25/outbox.cif.g09.slc.cpg/sg2_39_cif.got.tgz:76359.got - 2010.06.27 13:26:56.
