data_PCOD8002154
_publ_section_title
;
Structure prediction by ZEFSAII (Michael W. Deem and Ramdas Pophale) SiO2 
 PCOD8002154
Probable space group: P -1
;
_chemical_formula_sum "Si O2"
_cell_formula_units_Z 16
_cell_length_a 11.075309
_cell_length_b 8.430724
_cell_length_c 17.081701
_cell_angle_alpha 118.589684
_cell_angle_beta 129.056747
_cell_angle_gamma 101.024543
_cell_volume 751.676322
_symmetry_space_group_name_H-M "P -1"
_symmetry_group_IT_number 2
_symmetry_cell_setting 'triclinic'
loop_
_space_group_symop_operation_xyz
x,y,z
-x,-y,-z
loop_
_atom_site_type_symbol
_atom_site_label
_atom_site_fract_x
_atom_site_fract_y
_atom_site_fract_z
Si Si1 0.321259 0.344397 0.501111
Si Si2 0.819089 0.528701 0.273127
Si Si3 0.457101 0.348349 0.847928
Si Si4 0.646341 0.367746 0.564575
Si Si5 0.561825 0.246759 0.251885
Si Si6 0.807562 0.906894 0.171505
Si Si7 0.845996 0.209249 0.114724
Si Si8 0.670918 0.080338 0.396521
O O1 0.459153 0.272915 0.528525
O O2 0.355533 0.498635 0.477108
O O3 0.420724 0.528652 0.661584
O O4 0.059675 0.078739 0.344294
O O5 0.703569 0.620419 0.230769
O O6 0.707597 0.335855 0.255637
O O7 0.787885 0.367587 0.149029
O O8 0.078560 0.781505 0.456685
O O9 0.346940 0.157285 0.833748
O O10 0.478105 0.221295 0.755794
O O11 0.706923 0.632411 0.033795
O O12 0.587485 0.116451 0.448959
O O13 0.893271 0.584154 0.755484
O O14 0.667800 0.214971 0.355071
O O15 0.301821 0.979599 0.064063
O O16 0.795923 0.046072 0.132126
#
# Coordination Sequence:
#
# PCOD8002154 Si02
#       8
#     2   2   2   2   2   2   2   2
#     4   9  18  36  58  79 103 141 187 224 270 307
#     4  11  21  35  55  80 114 145 175 223 268 323
#     4  11  22  34  56  81 113 148 176 214 270 329
#     4   8  18  37  58  77 104 141 182 233 265 307
#     4  11  20  32  57  84 109 141 179 226 265 321
#     4  10  21  36  55  81 113 146 174 221 268 324
#     4  10  20  35  56  84 111 139 180 223 270 313
#     4  10  21  35  54  81 110 142 183 218 268 323
#
# _framework density 21.285755999999999
#
# number of rings (size 3 to 8) (size 9 to 14) (size 15 to 20)
#    0.000    2.000    1.250    3.375    3.500    0.500 
#    0.000    0.625    0.000    6.750    0.000    0.000 
#    0.000    0.000    0.000    0.000    0.000    0.000 
#
# Total GULP energy -198365.350734 kJ/mol
# GULP energy per Si atom -12397.834421 kJ/mol
# Density = 2.123731 g / cm^3
# Si number density = 21.285756 Si / 1000 Ang^3
#
#
#
# Elastic Constant Matrix: (Units=GPa)
#
#
# Indices 1 2 3 4 5 6 
#
# 1 98.0678 5.1805 63.3606 15.4002 -11.3552 -28.9138
# 2 5.1805 41.4620 4.0479 4.1304 -3.6488 -13.2354
# 3 63.3606 4.0479 151.0440 21.3157 -31.7161 -17.5907
# 4 15.4002 4.1304 21.3157 29.3144 -6.1322 -6.2136
# 5 -11.3552 -3.6488 -31.7161 -6.1322 21.0225 6.8636
# 6 -28.9138 -13.2354 -17.5907 -6.2136 6.8636 22.0397
#
#
#
# Elastic Compliance Matrix: (Units=1/GPa)
#
#
# Indices 1 2 3 4 5 6 
#
# 1 0.023353 0.007118 -0.007877 -0.002920 -0.008864 0.030562
# 2 0.007118 0.032370 -0.000503 -0.002212 -0.001115 0.028099
# 3 -0.007877 -0.000503 0.013151 -0.003199 0.016592 -0.006208
# 4 -0.002920 -0.002212 -0.003199 0.039595 0.004048 0.002190
# 5 -0.008864 -0.001115 0.016592 0.004048 0.075829 -0.021529
# 6 0.030562 0.028099 -0.006208 0.002190 -0.021529 0.104708
#
#
# Mechanical properties :
#
#
# Convention : Reuss Voigt Hill
#
# Bulk Modulus (GPa) = 15.07157 48.41687 31.74422
# Shear Modulus (GPa) = 15.94152 29.00763 22.47458
#
# Velocity S-wave (km/s) = 2.73963 3.69558 3.25291
# Velocity P-wave (km/s) = 4.13562 6.40353 5.39020
#
# Compressibility (1/GPa) = 0.06635011
#
# Stress axis : x y z
#
# Youngs Moduli (GPa) = 42.82099 30.89251 76.04170
#
# Poissons Ratio (x) = -0.21989 0.59898
# Poissons Ratio (y) = -0.30479 0.03823
# Poissons Ratio (z) = 0.33730 0.01553
#
# Static dielectric constant tensor:
#      x y z
#    x 4.000660 -0.176490 -0.163750 
#    y -0.176490 3.574740 0.042890 
#    z -0.163750 0.042890 4.148680 
# 
# 
# High freq. dielectric constant tensor:
#      x y z
#    x 1.813730 -0.019320 -0.010730 
#    y -0.019320 1.816500 -0.000240 
#    z -0.010730 -0.000240 1.848450 
# 
# From -- ./inp_files/214502.got.cif
#   From: 2010.06.25/outbox.cif.g09.slc.cpg/sg2_108_cif.got.tgz:214502.got - 2010.06.27 13:26:56.
