data_PCOD8002729
_publ_section_title
;
Structure prediction by ZEFSAII (Michael W. Deem and Ramdas Pophale) SiO2 
 PCOD8002729
Probable space group: P -1
;
_chemical_formula_sum "Si O2"
_cell_formula_units_Z 16
_cell_length_a 9.045156
_cell_length_b 11.457486
_cell_length_c 22.145373
_cell_angle_alpha 147.437607
_cell_angle_beta 83.541342
_cell_angle_gamma 73.091835
_cell_volume 850.378274
_symmetry_space_group_name_H-M "P -1"
_symmetry_group_IT_number 2
_symmetry_cell_setting 'triclinic'
loop_
_space_group_symop_operation_xyz
x,y,z
-x,-y,-z
loop_
_atom_site_type_symbol
_atom_site_label
_atom_site_fract_x
_atom_site_fract_y
_atom_site_fract_z
Si Si1 0.887782 0.861609 0.585465
Si Si2 0.279279 0.766635 0.706532
Si Si3 0.706228 0.747460 0.838825
Si Si4 0.373746 0.856529 0.163778
Si Si5 0.774595 0.191768 0.410514
Si Si6 0.977053 0.715744 0.730778
Si Si7 0.405006 0.049674 0.883558
Si Si8 0.124147 0.664928 0.243428
O O1 0.117096 0.684572 0.529171
O O2 0.913489 0.629802 0.440085
O O3 0.709829 0.994906 0.701596
O O4 0.799998 0.163431 0.684156
O O5 0.528142 0.444833 0.549688
O O6 0.185921 0.904127 0.703707
O O7 0.160767 0.704300 0.723257
O O8 0.253301 0.011868 0.854130
O O9 0.839634 0.825017 0.846884
O O10 0.874887 0.415329 0.721758
O O11 0.614939 0.741745 0.777471
O O12 0.500000 0.000000 0.000000
O O13 0.523652 0.900257 0.158073
O O14 0.175349 0.038393 0.207399
O O15 0.500000 0.500000 0.000000
O O16 0.894940 0.890265 0.317174
O O17 0.286949 0.344523 0.059736
#
# Coordination Sequence:
#
# PCOD8002729 Si02
#       8
#     2   2   2   2   2   2   2   2
#     4  10  20  36  58  86 113 149 194 238 279 336
#     4  11  22  36  54  86 123 152 182 221 309 351
#     4   9  20  40  66  81 107 152 201 245 279 329
#     4  11  19  35  57  88 114 147 196 242 278 338
#     4   9  20  36  55  81 117 156 178 235 282 349
#     4  11  22  36  59  86 115 153 191 240 283 341
#     4  10  21  36  60  85 118 151 183 239 295 340
#     4   9  19  40  59  82 108 150 206 232 278 328
#
# _framework density 18.815156000000002
#
# number of rings (size 3 to 8) (size 9 to 14) (size 15 to 20)
#    0.750    1.250    2.500    1.875    3.500    1.000 
#    0.000    3.125    0.000    0.000    0.000    0.000 
#    0.000    0.000    0.000    0.000    0.000    0.000 
#
# Total GULP energy -198226.258079 kJ/mol
# GULP energy per Si atom -12389.141130 kJ/mol
# Density = 1.877233 g / cm^3
# Si number density = 18.815156 Si / 1000 Ang^3
#
#
#
# Elastic Constant Matrix: (Units=GPa)
#
#
# Indices 1 2 3 4 5 6 
#
# 1 120.9373 36.5702 38.2793 -2.8289 14.2404 24.2184
# 2 36.5702 115.2634 36.3438 12.6743 2.4742 13.9385
# 3 38.2793 36.3438 74.2392 3.6871 2.1389 13.1936
# 4 -2.8289 12.6743 3.6871 28.3815 5.0976 -9.4258
# 5 14.2404 2.4742 2.1389 5.0976 25.3839 -2.2157
# 6 24.2184 13.9385 13.1936 -9.4258 -2.2157 27.9137
#
#
#
# Elastic Compliance Matrix: (Units=1/GPa)
#
#
# Indices 1 2 3 4 5 6 
#
# 1 0.012668 -0.001676 -0.004040 0.001077 -0.007560 -0.008481
# 2 -0.001676 0.011663 -0.003691 -0.006675 0.001036 -0.004797
# 3 -0.004040 -0.003691 0.018177 -0.002691 0.001281 -0.004050
# 4 0.001077 -0.006675 -0.002691 0.046203 -0.007374 0.018687
# 5 -0.007560 0.001036 0.001281 -0.007374 0.045480 0.006556
# 6 -0.008481 -0.004797 -0.004050 0.018687 0.006556 0.054323
#
#
# Mechanical properties :
#
#
# Convention : Reuss Voigt Hill
#
# Bulk Modulus (GPa) = 42.20608 59.20294 50.70451
# Shear Modulus (GPa) = 23.23138 29.61890 26.42514
#
# Velocity S-wave (km/s) = 3.51766 3.97193 3.75168
# Velocity P-wave (km/s) = 6.24334 7.25044 6.76565
#
# Compressibility (1/GPa) = 0.02369327
#
# Stress axis : x y z
#
# Youngs Moduli (GPa) = 78.93931 85.73883 55.01574
#
# Poissons Ratio (x) = 0.14370 0.22226
# Poissons Ratio (y) = 0.13230 0.20309
# Poissons Ratio (z) = 0.31890 0.31650
#
# Static dielectric constant tensor:
#      x y z
#    x 3.369240 0.087910 -0.140920 
#    y 0.087910 3.901770 0.053120 
#    z -0.140920 0.053120 3.311050 
# 
# 
# High freq. dielectric constant tensor:
#      x y z
#    x 1.708270 0.012230 -0.012280 
#    y 0.012230 1.732460 0.002010 
#    z -0.012280 0.002010 1.724910 
# 
# From -- ./inp_files/607671.got.cif
#   From: 2010.06.25/outbox.cif.g09.slc.cpg/sg2_304_cif.got.tgz:607671.got - 2010.06.27 13:26:56.
