data_PCOD8002025
_publ_section_title
;
Structure prediction by ZEFSAII (Michael W. Deem and Ramdas Pophale) SiO2 
 PCOD8002025
Probable space group: P -1
;
_chemical_formula_sum "Si O2"
_cell_formula_units_Z 16
_cell_length_a 24.656202
_cell_length_b 9.642001
_cell_length_c 7.688023
_cell_angle_alpha 60.626941
_cell_angle_beta 36.734538
_cell_angle_gamma 52.309415
_cell_volume 865.051535
_symmetry_space_group_name_H-M "P -1"
_symmetry_group_IT_number 2
_symmetry_cell_setting 'triclinic'
loop_
_space_group_symop_operation_xyz
x,y,z
-x,-y,-z
loop_
_atom_site_type_symbol
_atom_site_label
_atom_site_fract_x
_atom_site_fract_y
_atom_site_fract_z
Si Si1 0.562637 0.547075 0.949888
Si Si2 0.312915 0.747105 0.945575
Si Si3 0.724110 0.903637 0.005740
Si Si4 0.752285 0.603756 0.344643
Si Si5 0.389870 0.143770 0.978807
Si Si6 0.885048 0.558244 0.724721
Si Si7 0.216322 0.497861 0.295592
Si Si8 0.425608 0.867073 0.325090
O O1 0.662568 0.543078 0.607176
O O2 0.500000 0.500000 0.000000
O O3 0.592021 0.404567 0.115271
O O4 0.498224 0.737031 0.075396
O O5 0.347591 0.798015 0.643259
O O6 0.268758 0.915593 0.081888
O O7 0.227042 0.680947 0.169209
O O8 0.710015 0.811961 0.277715
O O9 0.631243 0.935568 0.096213
O O10 0.827519 0.771258 0.728076
O O11 0.805726 0.561861 0.421495
O O12 0.834001 0.495839 0.052885
O O13 0.505731 0.114280 0.705199
O O14 0.319399 0.350707 0.044674
O O15 0.366852 0.050248 0.263618
O O16 0.873697 0.473894 0.622598
O O17 0.000000 0.500000 0.500000
#
# Coordination Sequence:
#
# PCOD8002025 Si02
#       8
#     2   2   2   2   2   2   2   2
#     4  11  23  33  51  84 117 155 194 230 276 330
#     4  11  22  34  52  82 115 153 184 234 289 325
#     4   9  21  37  57  79 115 145 190 233 291 331
#     4   9  20  37  60  79 118 145 192 228 286 329
#     4  10  20  35  51  77 111 158 196 236 260 330
#     4   9  21  39  67  87 102 144 197 233 289 356
#     4  10  20  39  58  82 117 146 181 237 295 333
#     4  11  22  32  53  78 115 154 210 221 269 329
#
# _framework density 18.496008
#
# number of rings (size 3 to 8) (size 9 to 14) (size 15 to 20)
#    0.750    1.250    2.500    1.875    5.250    1.000 
#    0.000    0.625    0.000    3.000    0.000    0.000 
#    0.000    0.000    0.000    0.000    0.000    0.000 
#
# Total GULP energy -198339.080138 kJ/mol
# GULP energy per Si atom -12396.192509 kJ/mol
# Density = 1.845391 g / cm^3
# Si number density = 18.496008 Si / 1000 Ang^3
#
#
#
# Elastic Constant Matrix: (Units=GPa)
#
#
# Indices 1 2 3 4 5 6 
#
# 1 152.6784 37.3928 43.7783 -5.5513 -10.3513 15.5614
# 2 37.3928 84.1145 17.7453 -14.5937 -8.6664 17.6051
# 3 43.7783 17.7453 60.1946 -2.4519 -4.0624 3.8773
# 4 -5.5513 -14.5937 -2.4519 22.2014 -2.2037 4.4894
# 5 -10.3513 -8.6664 -4.0624 -2.2037 23.7895 -1.2194
# 6 15.5614 17.6051 3.8773 4.4894 -1.2194 27.2993
#
#
#
# Elastic Compliance Matrix: (Units=1/GPa)
#
#
# Indices 1 2 3 4 5 6 
#
# 1 0.009167 -0.001615 -0.005741 0.001545 0.002383 -0.003517
# 2 -0.001615 0.019302 -0.002580 0.015365 0.006625 -0.013392
# 3 -0.005741 -0.002580 0.021380 -0.001175 0.000212 0.002103
# 4 0.001545 0.015365 -0.001175 0.060519 0.010645 -0.020099
# 5 0.002383 0.006625 0.000212 0.010645 0.046234 -0.005346
# 6 -0.003517 -0.013392 0.002103 -0.020099 -0.005346 0.050039
#
#
# Mechanical properties :
#
#
# Convention : Reuss Voigt Hill
#
# Bulk Modulus (GPa) = 33.35874 54.98004 44.16939
# Shear Modulus (GPa) = 21.14107 27.86276 24.50191
#
# Velocity S-wave (km/s) = 3.38451 3.88547 3.64361
# Velocity P-wave (km/s) = 5.77477 7.06534 6.45241
#
# Compressibility (1/GPa) = 0.02997715
#
# Stress axis : x y z
#
# Youngs Moduli (GPa) = 109.08112 51.80843 46.77303
#
# Poissons Ratio (x) = 0.08365 0.26853
# Poissons Ratio (y) = 0.17613 0.12069
# Poissons Ratio (z) = 0.62624 0.13368
#
# Static dielectric constant tensor:
#      x y z
#    x 3.536930 0.044880 0.153990 
#    y 0.044880 3.392290 -0.115360 
#    z 0.153990 -0.115360 2.982830 
# 
# 
# High freq. dielectric constant tensor:
#      x y z
#    x 1.722760 0.005570 0.017540 
#    y 0.005570 1.712360 -0.011090 
#    z 0.017540 -0.011090 1.681290 
# 
# From -- ./inp_files/215142.got.cif
#   From: 2010.06.25/outbox.cif.g09.slc.cpg/sg2_108_cif.got.tgz:215142.got - 2010.06.27 13:26:56.
