data_PCOD8002565
_publ_section_title
;
Structure prediction by ZEFSAII (Michael W. Deem and Ramdas Pophale) SiO2 
 PCOD8002565
Probable space group: P -1
;
_chemical_formula_sum "Si O2"
_cell_formula_units_Z 16
_cell_length_a 11.574527
_cell_length_b 7.752422
_cell_length_c 14.749572
_cell_angle_alpha 100.400617
_cell_angle_beta 137.739449
_cell_angle_gamma 64.416932
_cell_volume 781.409111
_symmetry_space_group_name_H-M "P -1"
_symmetry_group_IT_number 2
_symmetry_cell_setting 'triclinic'
loop_
_space_group_symop_operation_xyz
x,y,z
-x,-y,-z
loop_
_atom_site_type_symbol
_atom_site_label
_atom_site_fract_x
_atom_site_fract_y
_atom_site_fract_z
Si Si1 0.110732 0.319199 0.711895
Si Si2 0.294982 0.732260 0.313877
Si Si3 0.992719 0.294187 0.978881
Si Si4 0.922251 0.812402 0.778583
Si Si5 0.286636 0.584786 0.843034
Si Si6 0.273331 0.443191 0.423327
Si Si7 0.730856 0.854684 0.032642
Si Si8 0.338740 0.896458 0.818664
O O1 0.240477 0.416389 0.755532
O O2 0.137678 0.320043 0.838379
O O3 0.882511 0.448242 0.575903
O O4 0.188251 0.095771 0.698891
O O5 0.267336 0.611461 0.369049
O O6 0.518631 0.671841 0.421192
O O7 0.181803 0.962729 0.294275
O O8 0.216114 0.677857 0.171364
O O9 0.037709 0.191828 0.091960
O O10 0.147709 0.143146 0.983477
O O11 0.000000 0.500000 0.000000
O O12 0.779390 0.714877 0.670811
O O13 0.123696 0.701339 0.833462
O O14 0.270410 0.727069 0.761937
O O15 0.500000 0.500000 0.000000
O O16 0.649542 0.059248 0.061623
O O17 0.549901 0.820697 0.890613
#
# Coordination Sequence:
#
# PCOD8002565 Si02
#       8
#     2   2   2   2   2   2   2   2
#     4   9  16  30  46  74 101 129 168 222 261 298
#     4  11  21  36  54  77 106 154 183 213 270 323
#     4  12  21  35  54  80 119 143 173 219 280 330
#     4  11  23  35  54  83 114 142 175 230 273 323
#     4  11  17  27  49  75 103 134 169 215 272 308
#     4  10  20  36  55  76 110 143 188 222 259 324
#     4   9  16  31  47  73 108 137 165 220 270 307
#     4   9  17  29  50  72 107 129 179 220 262 311
#
# _framework density 20.475829000000001
#
# number of rings (size 3 to 8) (size 9 to 14) (size 15 to 20)
#    0.750    1.000    3.750    3.000    0.000    0.000 
#    0.000    0.000    0.000    0.000    0.000   10.500 
#    0.000    0.000    0.000    0.000    0.000    0.000 
#
# Total GULP energy -198272.134665 kJ/mol
# GULP energy per Si atom -12392.008417 kJ/mol
# Density = 2.042923 g / cm^3
# Si number density = 20.475829 Si / 1000 Ang^3
#
#
#
# Elastic Constant Matrix: (Units=GPa)
#
#
# Indices 1 2 3 4 5 6 
#
# 1 66.3686 21.5889 42.2076 -6.6291 28.7428 7.9859
# 2 21.5889 116.8564 35.8566 -14.5367 18.0334 23.8335
# 3 42.2076 35.8566 96.0598 -6.5348 33.6789 -0.5081
# 4 -6.6291 -14.5367 -6.5348 20.7143 -2.9681 7.6145
# 5 28.7428 18.0334 33.6789 -2.9681 38.0658 -0.3208
# 6 7.9859 23.8335 -0.5081 7.6145 -0.3208 31.2036
#
#
#
# Elastic Compliance Matrix: (Units=1/GPa)
#
#
# Indices 1 2 3 4 5 6 
#
# 1 0.028172 0.003673 -0.007583 0.011828 -0.015492 -0.013185
# 2 0.003673 0.015496 -0.004694 0.016058 -0.004852 -0.016821
# 3 -0.007583 -0.004694 0.018231 -0.003606 -0.008406 0.006616
# 4 0.011828 0.016058 -0.003606 0.073307 -0.007913 -0.033321
# 5 -0.015492 -0.004852 -0.008406 -0.007913 0.047170 0.009950
# 6 -0.013185 -0.016821 0.006616 -0.033321 0.009950 0.056611
#
#
# Mechanical properties :
#
#
# Convention : Reuss Voigt Hill
#
# Bulk Modulus (GPa) = 22.37540 53.17679 37.77609
# Shear Modulus (GPa) = 18.44384 29.97218 24.20801
#
# Velocity S-wave (km/s) = 3.00452 3.83009 3.44215
# Velocity P-wave (km/s) = 4.79454 6.75177 5.85551
#
# Compressibility (1/GPa) = 0.04469195
#
# Stress axis : x y z
#
# Youngs Moduli (GPa) = 35.49578 64.53227 54.85144
#
# Poissons Ratio (x) = -0.23706 0.41595
# Poissons Ratio (y) = -0.13039 0.25747
# Poissons Ratio (z) = 0.26918 0.30291
#
# Static dielectric constant tensor:
#      x y z
#    x 3.583360 0.212480 0.444270 
#    y 0.212480 3.903320 -0.088460 
#    z 0.444270 -0.088460 3.483230 
# 
# 
# High freq. dielectric constant tensor:
#      x y z
#    x 1.786430 0.016710 0.045460 
#    y 0.016710 1.814220 -0.013050 
#    z 0.045460 -0.013050 1.759910 
# 
# From -- ./inp_files/513385.got.cif
#   From: 2010.06.25/outbox.cif.g09.slc.cpg/sg2_257_cif.got.tgz:513385.got - 2010.06.27 13:26:56.
