data_PCOD8002422
_publ_section_title
;
Structure prediction by ZEFSAII (Michael W. Deem and Ramdas Pophale) SiO2 
 PCOD8002422
Probable space group: P -1
;
_chemical_formula_sum "Si O2"
_cell_formula_units_Z 16
_cell_length_a 12.108317
_cell_length_b 8.736114
_cell_length_c 17.604812
_cell_angle_alpha 99.993333
_cell_angle_beta 47.673250
_cell_angle_gamma 62.017106
_cell_volume 804.572597
_symmetry_space_group_name_H-M "P -1"
_symmetry_group_IT_number 2
_symmetry_cell_setting 'triclinic'
loop_
_space_group_symop_operation_xyz
x,y,z
-x,-y,-z
loop_
_atom_site_type_symbol
_atom_site_label
_atom_site_fract_x
_atom_site_fract_y
_atom_site_fract_z
Si Si1 0.346765 0.808998 0.384424
Si Si2 0.478279 0.702637 0.974718
Si Si3 0.717987 0.252905 0.427362
Si Si4 0.756403 0.639497 0.081147
Si Si5 0.152934 0.691022 0.115922
Si Si6 0.881616 0.299644 0.571673
Si Si7 0.407256 0.172000 0.197728
Si Si8 0.886510 0.862330 0.704642
O O1 0.399417 0.726715 0.441068
O O2 0.576657 0.713361 0.234260
O O3 0.316795 0.675044 0.338033
O O4 0.074627 0.126422 0.538229
O O5 0.351817 0.655886 0.993009
O O6 0.349813 0.849203 0.127222
O O7 0.763952 0.436706 0.848589
O O8 0.449827 0.863341 0.940674
O O9 0.500000 0.500000 0.500000
O O10 0.868076 0.287847 0.377210
O O11 0.877675 0.995863 0.281823
O O12 0.603448 0.905567 0.132369
O O13 0.856444 0.434307 0.954305
O O14 0.000000 0.500000 0.000000
O O15 0.723135 0.590682 0.667813
O O16 0.081899 0.116955 0.395198
O O17 0.179236 0.265150 0.273487
#
# Coordination Sequence:
#
# PCOD8002422 Si02
#       8
#     2   2   2   2   2   2   2   2
#     4  10  21  43  64  89 120 163 210 251 299 366
#     4  10  20  38  68  91 116 160 210 257 298 355
#     4  10  23  41  63  90 118 161 209 251 303 369
#     4  12  27  41  58  92 137 164 197 250 316 372
#     4  10  21  43  64  89 120 163 210 251 299 366
#     4  10  20  38  68  91 116 160 210 257 298 355
#     4  12  22  37  60  97 124 157 205 254 314 360
#     4  10  20  35  61  90 121 150 203 262 296 355
#
# _framework density 19.886336
#
# number of rings (size 3 to 8) (size 9 to 14) (size 15 to 20)
#    0.000    1.500    2.500    2.250    0.000    6.000 
#    0.000    2.500    0.000    0.000    0.000    0.000 
#    0.000    0.000    0.000    0.000    0.000    0.000 
#
# Total GULP energy -198240.711412 kJ/mol
# GULP energy per Si atom -12390.044463 kJ/mol
# Density = 1.984107 g / cm^3
# Si number density = 19.886336 Si / 1000 Ang^3
#
#
#
# Elastic Constant Matrix: (Units=GPa)
#
#
# Indices 1 2 3 4 5 6 
#
# 1 124.0878 72.1215 64.5812 8.1462 -6.0288 9.0275
# 2 72.1215 157.3514 77.5679 4.6150 -5.8422 -4.8590
# 3 64.5812 77.5679 118.7346 3.1781 7.6012 -6.2371
# 4 8.1462 4.6150 3.1781 40.1284 4.0421 -1.8930
# 5 -6.0288 -5.8422 7.6012 4.0421 32.7259 1.1222
# 6 9.0275 -4.8590 -6.2371 -1.8930 1.1222 36.6196
#
#
#
# Elastic Compliance Matrix: (Units=1/GPa)
#
#
# Indices 1 2 3 4 5 6 
#
# 1 0.013713 -0.003448 -0.005640 -0.002552 0.003709 -0.005044
# 2 -0.003448 0.010606 -0.005134 -0.000298 0.002443 0.001293
# 3 -0.005640 -0.005134 0.015369 0.001271 -0.005805 0.003570
# 4 -0.002552 -0.000298 0.001271 0.025891 -0.004094 0.002270
# 5 0.003709 0.002443 -0.005805 -0.004094 0.033627 -0.002821
# 6 -0.005044 0.001293 0.003570 0.002270 -0.002821 0.029535
#
#
# Mechanical properties :
#
#
# Convention : Reuss Voigt Hill
#
# Bulk Modulus (GPa) = 88.93895 92.07942 90.50918
# Shear Modulus (GPa) = 31.06904 34.28835 32.67869
#
# Velocity S-wave (km/s) = 3.95692 4.15687 4.05813
# Velocity P-wave (km/s) = 8.10537 8.33324 8.22009
#
# Compressibility (1/GPa) = 0.01124367
#
# Stress axis : x y z
#
# Youngs Moduli (GPa) = 72.92315 94.28926 65.06727
#
# Poissons Ratio (x) = 0.32513 0.36699
# Poissons Ratio (y) = 0.25145 0.33403
# Poissons Ratio (z) = 0.41130 0.48404
#
# Static dielectric constant tensor:
#      x y z
#    x 3.710320 0.202550 0.018170 
#    y 0.202550 3.583750 -0.106840 
#    z 0.018170 -0.106840 3.591030 
# 
# 
# High freq. dielectric constant tensor:
#      x y z
#    x 1.769010 0.010720 0.010870 
#    y 0.010720 1.776050 -0.007760 
#    z 0.010870 -0.007760 1.778690 
# 
# From -- ./inp_files/559039.got.cif
#   From: 2010.06.25/outbox.cif.g09.slc.cpg/sg2_280_cif.got.tgz:559039.got - 2010.06.27 13:26:56.
