data_PCOD8002695
_publ_section_title
;
Structure prediction by ZEFSAII (Michael W. Deem and Ramdas Pophale) SiO2 
 PCOD8002695
Probable space group: P -1
;
_chemical_formula_sum "Si O2"
_cell_formula_units_Z 14
_cell_length_a 9.421345
_cell_length_b 9.335716
_cell_length_c 16.581508
_cell_angle_alpha 59.724758
_cell_angle_beta 60.893442
_cell_angle_gamma 30.540612
_cell_volume 635.474316
_symmetry_space_group_name_H-M "P -1"
_symmetry_group_IT_number 2
_symmetry_cell_setting 'triclinic'
loop_
_space_group_symop_operation_xyz
x,y,z
-x,-y,-z
loop_
_atom_site_type_symbol
_atom_site_label
_atom_site_fract_x
_atom_site_fract_y
_atom_site_fract_z
Si Si1 0.637808 0.633955 0.187349
Si Si2 0.860075 0.235462 0.563833
Si Si3 0.256468 0.609486 0.615591
Si Si4 0.242910 0.913075 0.818760
Si Si5 0.899808 0.332405 0.038340
Si Si6 0.546172 0.083487 0.087414
Si Si7 0.295133 0.592297 0.272301
O O1 0.808968 0.462877 0.272683
O O2 0.863832 0.434367 0.109279
O O3 0.392974 0.701550 0.224544
O O4 0.488789 0.935818 0.143598
O O5 0.593547 0.337868 0.591811
O O6 0.878949 0.335083 0.449082
O O7 0.817625 0.376219 0.617936
O O8 0.135763 0.891360 0.593679
O O9 0.227802 0.745249 0.912056
O O10 0.344200 0.960610 0.842186
O O11 0.451519 0.734797 0.734809
O O12 0.941314 0.221117 0.783149
O O13 0.741762 0.580685 0.947035
O O14 0.228769 0.055212 0.004511
#
# Coordination Sequence:
#
# PCOD8002695 Si02
#       7
#     2   2   2   2   2   2   2
#     4  10  22  37  56  82 109 138 176 224 271 310
#     4   9  16  31  53  81 106 135 171 212 258 312
#     4   9  18  30  52  81 109 132 168 218 264 308
#     4  11  22  38  56  77 106 144 182 218 260 316
#     4  11  22  37  55  77 104 143 184 221 260 314
#     4  12  24  37  55  78 109 141 180 224 268 310
#     4  10  20  36  58  80 107 139 177 217 262 317
#
# _framework density 22.030788000000001
#
# number of rings (size 3 to 8) (size 9 to 14) (size 15 to 20)
#    0.000    1.714    0.000    6.857    0.000    5.714 
#    0.000    0.000    0.000    1.714    0.000    0.000 
#    0.000    0.000    0.000    0.000    0.000    0.000 
#
# Total GULP energy -173591.087686 kJ/mol
# GULP energy per Si atom -12399.363406 kJ/mol
# Density = 2.198064 g / cm^3
# Si number density = 22.030788 Si / 1000 Ang^3
#
#
#
# Elastic Constant Matrix: (Units=GPa)
#
#
# Indices 1 2 3 4 5 6 
#
# 1 56.8505 0.2040 17.7156 6.5118 12.1120 11.2817
# 2 0.2040 62.3693 -0.3326 7.9553 -3.0517 -6.2045
# 3 17.7156 -0.3326 87.5477 7.6869 34.8641 -0.6903
# 4 6.5118 7.9553 7.6869 26.2287 1.6543 9.0456
# 5 12.1120 -3.0517 34.8641 1.6543 20.7697 0.1906
# 6 11.2817 -6.2045 -0.6903 9.0456 0.1906 22.2540
#
#
#
# Elastic Compliance Matrix: (Units=1/GPa)
#
#
# Indices 1 2 3 4 5 6 
#
# 1 0.022977 -0.001993 0.002089 -0.000583 -0.017045 -0.011756
# 2 -0.001993 0.018369 -0.001475 -0.008326 0.006914 0.009411
# 3 0.002089 -0.001475 0.036361 -0.008014 -0.061864 0.003445
# 4 -0.000583 -0.008326 -0.008014 0.050479 0.008758 -0.022867
# 5 -0.017045 0.006914 -0.061864 0.008758 0.162216 0.003701
# 6 -0.011756 0.009411 0.003445 -0.022867 0.003701 0.062889
#
#
# Mechanical properties :
#
#
# Convention : Reuss Voigt Hill
#
# Bulk Modulus (GPa) = 13.34253 26.88238 20.11246
# Shear Modulus (GPa) = 13.12224 26.46252 19.79238
#
# Velocity S-wave (km/s) = 2.44321 3.46954 3.00058
# Velocity P-wave (km/s) = 3.74546 5.31779 4.59931
#
# Compressibility (1/GPa) = 0.07494830
#
# Stress axis : x y z
#
# Youngs Moduli (GPa) = 43.52137 54.44062 27.50207
#
# Poissons Ratio (x) = 0.10851 -0.05745
# Poissons Ratio (y) = 0.08675 0.04057
# Poissons Ratio (z) = -0.09092 0.08030
#
# Static dielectric constant tensor:
#      x y z
#    x 3.564400 0.031040 0.436040 
#    y 0.031040 3.975930 0.149100 
#    z 0.436040 0.149100 4.335040 
# 
# 
# High freq. dielectric constant tensor:
#      x y z
#    x 1.822550 -0.008650 0.043490 
#    y -0.008650 1.879540 0.010320 
#    z 0.043490 0.010320 1.864020 
# 
# From -- ./inp_files/36428.got.cif
#   From: 2010.06.25/outbox.cif.g09.slc.cpg/sg2_19_cif.got.tgz:36428.got - 2010.06.27 13:26:56.
