data_PCOD8002596
_publ_section_title
;
Structure prediction by ZEFSAII (Michael W. Deem and Ramdas Pophale) SiO2 
 PCOD8002596
Probable space group: P -1
;
_chemical_formula_sum "Si O2"
_cell_formula_units_Z 16
_cell_length_a 14.666162
_cell_length_b 10.199463
_cell_length_c 14.365135
_cell_angle_alpha 93.216699
_cell_angle_beta 30.826204
_cell_angle_gamma 72.519902
_cell_volume 804.795034
_symmetry_space_group_name_H-M "P -1"
_symmetry_group_IT_number 2
_symmetry_cell_setting 'triclinic'
loop_
_space_group_symop_operation_xyz
x,y,z
-x,-y,-z
loop_
_atom_site_type_symbol
_atom_site_label
_atom_site_fract_x
_atom_site_fract_y
_atom_site_fract_z
Si Si1 0.824207 0.215822 0.159295
Si Si2 0.681254 0.475941 0.451066
Si Si3 0.944631 0.196731 0.693168
Si Si4 0.376165 0.865142 0.067487
Si Si5 0.824780 0.498819 0.713459
Si Si6 0.460232 0.982122 0.185431
Si Si7 0.870554 0.599190 0.876898
Si Si8 0.740479 0.409012 0.067880
O O1 0.844798 0.296804 0.236150
O O2 0.530227 0.335418 0.412320
O O3 0.904252 0.259481 0.999754
O O4 0.000000 0.000000 0.000000
O O5 0.858774 0.488406 0.345106
O O6 0.545988 0.461069 0.650234
O O7 0.885568 0.072528 0.718354
O O8 0.882656 0.314522 0.658768
O O9 0.789244 0.312295 0.924223
O O10 0.228631 0.083741 0.460556
O O11 0.380553 0.947436 0.160205
O O12 0.556672 0.651392 0.913946
O O13 0.463371 0.908341 0.904749
O O14 0.861811 0.524327 0.787025
O O15 0.000000 0.500000 0.500000
O O16 0.684899 0.812862 0.039637
O O17 0.796561 0.535961 0.020995
#
# Coordination Sequence:
#
# PCOD8002596 Si02
#       8
#     2   2   2   2   2   2   2   2
#     4   9  20  43  67  94 120 152 199 242 304 378
#     4   9  21  43  65  86 127 156 189 253 303 366
#     4  11  21  36  59  86 115 159 208 252 297 364
#     4  10  21  37  54  79 116 164 207 252 309 342
#     4  10  20  36  56  78 120 155 203 254 291 353
#     4  10  22  37  52  85 120 154 209 260 290 360
#     4  10  22  39  58  84 120 163 193 246 314 343
#     4   9  22  38  60  89 122 150 199 248 298 366
#
# _framework density 19.880838000000001
#
# number of rings (size 3 to 8) (size 9 to 14) (size 15 to 20)
#    0.750    1.500    1.250    0.750    1.750    3.500 
#    4.500    0.625    0.000    0.000    0.000    0.000 
#    0.000    0.000    0.000    0.000    0.000    0.000 
#
# Total GULP energy -198215.913586 kJ/mol
# GULP energy per Si atom -12388.494599 kJ/mol
# Density = 1.983559 g / cm^3
# Si number density = 19.880838 Si / 1000 Ang^3
#
#
#
# Elastic Constant Matrix: (Units=GPa)
#
#
# Indices 1 2 3 4 5 6 
#
# 1 45.0950 34.1006 33.3237 -8.3236 -1.1659 -14.4876
# 2 34.1006 120.5529 61.1555 -10.4936 -8.1703 -14.4362
# 3 33.3237 61.1555 102.2763 -23.5132 -8.1386 -1.6674
# 4 -8.3236 -10.4936 -23.5132 44.1016 -0.9992 0.5824
# 5 -1.1659 -8.1703 -8.1386 -0.9992 33.9562 -2.1867
# 6 -14.4876 -14.4362 -1.6674 0.5824 -2.1867 20.4787
#
#
#
# Elastic Compliance Matrix: (Units=1/GPa)
#
#
# Indices 1 2 3 4 5 6 
#
# 1 0.041019 -0.002789 -0.011103 0.000809 -0.000219 0.026102
# 2 -0.002789 0.013672 -0.007274 -0.001205 0.001886 0.007308
# 3 -0.011103 -0.007274 0.019236 0.006624 0.001940 -0.011398
# 4 0.000809 -0.001205 0.006624 0.026123 0.002077 -0.000259
# 5 -0.000219 0.001886 0.001940 0.002077 0.030715 0.004553
# 6 0.026102 0.007308 -0.011398 -0.000259 0.004553 0.072014
#
#
# Mechanical properties :
#
#
# Convention : Reuss Voigt Hill
#
# Bulk Modulus (GPa) = 31.65158 58.34263 44.99711
# Shear Modulus (GPa) = 19.55844 28.99691 24.27767
#
# Velocity S-wave (km/s) = 3.13993 3.82322 3.49830
# Velocity P-wave (km/s) = 5.39452 6.99280 6.24500
#
# Compressibility (1/GPa) = 0.03159400
#
# Stress axis : x y z
#
# Youngs Moduli (GPa) = 24.37914 73.13995 51.98556
#
# Poissons Ratio (x) = 0.20401 0.57719
# Poissons Ratio (y) = 0.06800 0.37817
# Poissons Ratio (z) = 0.27068 0.53206
#
# Static dielectric constant tensor:
#      x y z
#    x 3.320190 -0.111240 0.031360 
#    y -0.111240 3.590360 -0.029810 
#    z 0.031360 -0.029810 3.657670 
# 
# 
# High freq. dielectric constant tensor:
#      x y z
#    x 1.751040 -0.004640 0.002970 
#    y -0.004640 1.773430 -0.007560 
#    z 0.002970 -0.007560 1.777400 
# 
# From -- ./inp_files/575405.got.cif
#   From: 2010.06.25/outbox.cif.g09.slc.cpg/sg2_288_cif.got.tgz:575405.got - 2010.06.27 13:26:56.
