data_PCOD8002338
_publ_section_title
;
Structure prediction by ZEFSAII (Michael W. Deem and Ramdas Pophale) SiO2 
 PCOD8002338
Probable space group: P -1
;
_chemical_formula_sum "Si O2"
_cell_formula_units_Z 16
_cell_length_a 15.165294
_cell_length_b 20.243486
_cell_length_c 16.137394
_cell_angle_alpha 29.447420
_cell_angle_beta 18.115627
_cell_angle_gamma 36.392553
_cell_volume 748.934867
_symmetry_space_group_name_H-M "P -1"
_symmetry_group_IT_number 2
_symmetry_cell_setting 'triclinic'
loop_
_space_group_symop_operation_xyz
x,y,z
-x,-y,-z
loop_
_atom_site_type_symbol
_atom_site_label
_atom_site_fract_x
_atom_site_fract_y
_atom_site_fract_z
Si Si1 0.322012 0.186108 0.482058
Si Si2 0.659100 0.655017 0.861932
Si Si3 0.765717 0.029386 0.084268
Si Si4 0.413100 0.644334 0.803706
Si Si5 0.808813 0.933102 0.867687
Si Si6 0.116618 0.202357 0.883843
Si Si7 0.313786 0.745028 0.204205
Si Si8 0.340186 0.110152 0.129452
O O1 0.448645 0.232266 0.227665
O O2 0.438737 0.061864 0.564967
O O3 0.366765 0.318860 0.356212
O O4 0.983868 0.137919 0.822718
O O5 0.974706 0.708404 0.557433
O O6 0.664089 0.516546 0.959942
O O7 0.441731 0.632185 0.158364
O O8 0.929480 0.927551 0.994366
O O9 0.593306 0.110707 0.084914
O O10 0.570496 0.710179 0.508568
O O11 0.126400 0.704551 0.016740
O O12 0.745230 0.846502 0.933980
O O13 0.905509 0.837754 0.956224
O O14 0.055267 0.060941 0.490969
O O15 0.521766 0.986101 0.096709
O O16 0.470284 0.761021 0.135940
#
# Coordination Sequence:
#
# PCOD8002338 Si02
#       8
#     2   2   2   2   2   2   2   2
#     4   9  21  37  56  84 115 151 191 251 283 342
#     4  11  24  40  58  80 113 162 205 236 276 329
#     4   9  20  36  57  90 116 144 189 234 316 339
#     4  11  24  40  58  80 113 162 205 236 276 329
#     4  10  20  35  59  92 123 146 177 227 294 360
#     4  11  22  37  62  85 119 150 185 245 286 351
#     4  11  22  37  62  85 119 150 185 245 286 351
#     4  10  20  35  59  92 123 146 177 227 294 360
#
# _framework density 21.363675000000001
#
# number of rings (size 3 to 8) (size 9 to 14) (size 15 to 20)
#    0.000    1.750    1.250    2.625    3.500    6.000 
#    0.000    6.250    0.000    4.500    0.000    0.000 
#    0.000    0.000    0.000    0.000    0.000    0.000 
#
# Total GULP energy -198291.103157 kJ/mol
# GULP energy per Si atom -12393.193947 kJ/mol
# Density = 2.131505 g / cm^3
# Si number density = 21.363675 Si / 1000 Ang^3
#
#
#
# Elastic Constant Matrix: (Units=GPa)
#
#
# Indices 1 2 3 4 5 6 
#
# 1 101.7049 12.9740 24.6975 -8.9608 -6.6628 19.2084
# 2 12.9740 58.0437 12.7268 4.2080 -9.4923 3.9980
# 3 24.6975 12.7268 64.5245 4.3949 -4.8206 6.6688
# 4 -8.9608 4.2080 4.3949 34.9391 8.4398 -4.8088
# 5 -6.6628 -9.4923 -4.8206 8.4398 28.2479 1.0500
# 6 19.2084 3.9980 6.6688 -4.8088 1.0500 22.5254
#
#
#
# Elastic Compliance Matrix: (Units=1/GPa)
#
#
# Indices 1 2 3 4 5 6 
#
# 1 0.012987 -0.001332 -0.003780 0.002292 0.001631 -0.009305
# 2 -0.001332 0.019780 -0.002198 -0.004674 0.007468 -0.003070
# 3 -0.003780 -0.002198 0.018145 -0.004036 0.002774 -0.002749
# 4 0.002292 -0.004674 -0.004036 0.034342 -0.012276 0.007974
# 5 0.001631 0.007468 0.002774 -0.012276 0.042739 -0.008151
# 6 -0.009305 -0.003070 -0.002749 0.007974 -0.008151 0.055770
#
#
# Mechanical properties :
#
#
# Convention : Reuss Voigt Hill
#
# Bulk Modulus (GPa) = 27.55595 36.11886 31.83740
# Shear Modulus (GPa) = 23.75516 28.73414 26.24465
#
# Velocity S-wave (km/s) = 3.33820 3.67140 3.50876
# Velocity P-wave (km/s) = 5.27111 5.90895 5.59912
#
# Compressibility (1/GPa) = 0.03628980
#
# Stress axis : x y z
#
# Youngs Moduli (GPa) = 77.00250 50.55690 55.11236
#
# Poissons Ratio (x) = 0.06736 0.20835
# Poissons Ratio (y) = 0.10259 0.12113
# Poissons Ratio (z) = 0.29111 0.11112
#
# Static dielectric constant tensor:
#      x y z
#    x 4.032980 0.208980 0.030350 
#    y 0.208980 3.590470 -0.021540 
#    z 0.030350 -0.021540 3.776000 
# 
# 
# High freq. dielectric constant tensor:
#      x y z
#    x 1.835440 0.022850 -0.006790 
#    y 0.022850 1.814680 0.013470 
#    z -0.006790 0.013470 1.832670 
# 
# From -- ./inp_files/534990.got.cif
#   From: 2010.06.25/outbox.cif.g09.slc.cpg/sg2_268_cif.got.tgz:534990.got - 2010.06.27 13:26:56.
