data_PCOD8002856
_publ_section_title
;
Structure prediction by ZEFSAII (Michael W. Deem and Ramdas Pophale) SiO2 
 PCOD8002856
Probable space group: P -1
;
_chemical_formula_sum "Si O2"
_cell_formula_units_Z 14
_cell_length_a 12.046342
_cell_length_b 7.824900
_cell_length_c 8.874269
_cell_angle_alpha 109.699468
_cell_angle_beta 103.227142
_cell_angle_gamma 48.671157
_cell_volume 591.368935
_symmetry_space_group_name_H-M "P -1"
_symmetry_group_IT_number 2
_symmetry_cell_setting 'triclinic'
loop_
_space_group_symop_operation_xyz
x,y,z
-x,-y,-z
loop_
_atom_site_type_symbol
_atom_site_label
_atom_site_fract_x
_atom_site_fract_y
_atom_site_fract_z
Si Si1 0.734809 0.964143 0.397986
Si Si2 0.418436 0.393751 0.437593
Si Si3 0.788226 0.842983 0.045625
Si Si4 0.241547 0.771334 0.280330
Si Si5 0.267448 0.429550 0.696107
Si Si6 0.905974 0.338174 0.013198
Si Si7 0.447772 0.748054 0.114429
O O1 0.785784 0.944460 0.236552
O O2 0.793329 0.710950 0.400270
O O3 0.554846 0.116727 0.395837
O O4 0.811628 0.051262 0.541305
O O5 0.500000 0.500000 0.500000
O O6 0.321992 0.505450 0.287769
O O7 0.303317 0.491043 0.568816
O O8 0.921874 0.789051 0.972545
O O9 0.808511 0.606265 0.001087
O O10 0.637223 0.044728 0.973167
O O11 0.119007 0.818561 0.141519
O O12 0.347956 0.809490 0.246232
O O13 0.413486 0.272901 0.799074
O O14 0.142720 0.657128 0.827383
O O15 0.500000 0.500000 0.000000
#
# Coordination Sequence:
#
# PCOD8002856 Si02
#       7
#     2   2   2   2   2   2   2
#     4  10  22  37  61  96 124 167 203 271 317 374
#     4  10  20  36  59  92 129 160 198 272 309 373
#     4  10  25  44  67  87 137 166 216 257 322 376
#     4  11  23  36  63  94 129 159 218 254 325 369
#     4  11  22  39  66  92 130 162 218 256 326 370
#     4  10  24  46  63  96 123 178 210 261 313 388
#     4  12  23  39  65 101 124 167 213 271 307 383
#
# _framework density 23.673884999999999
#
# number of rings (size 3 to 8) (size 9 to 14) (size 15 to 20)
#    0.000    1.429    4.286    1.286    4.000    2.286 
#    0.000    1.429    0.000    5.143    0.000    0.000 
#    0.000    0.000    0.000    0.000    0.000    0.000 
#
# Total GULP energy -173475.623871 kJ/mol
# GULP energy per Si atom -12391.115991 kJ/mol
# Density = 2.362000 g / cm^3
# Si number density = 23.673885 Si / 1000 Ang^3
#
#
#
# Elastic Constant Matrix: (Units=GPa)
#
#
# Indices 1 2 3 4 5 6 
#
# 1 78.7092 -2.3887 27.5576 10.3544 -20.2484 0.1379
# 2 -2.3887 48.2727 8.0281 8.9579 1.0651 12.9772
# 3 27.5576 8.0281 93.3991 20.7220 -9.8310 10.7932
# 4 10.3544 8.9579 20.7220 22.3060 10.5920 -4.3600
# 5 -20.2484 1.0651 -9.8310 10.5920 52.8614 3.0868
# 6 0.1379 12.9772 10.7932 -4.3600 3.0868 23.3147
#
#
#
# Elastic Compliance Matrix: (Units=1/GPa)
#
#
# Indices 1 2 3 4 5 6 
#
# 1 0.017974 0.006206 0.000262 -0.017907 0.010891 -0.008472
# 2 0.006206 0.034650 0.008246 -0.036510 0.012374 -0.031607
# 3 0.000262 0.008246 0.020946 -0.032722 0.011668 -0.021952
# 4 -0.017907 -0.036510 -0.032722 0.131145 -0.042324 0.065705
# 5 0.010891 0.012374 0.011668 -0.042324 0.034944 -0.024895
# 6 -0.008472 -0.031607 -0.021952 0.065705 -0.024895 0.086279
#
#
# Mechanical properties :
#
#
# Convention : Reuss Voigt Hill
#
# Bulk Modulus (GPa) = 9.70897 31.86388 20.78643
# Shear Modulus (GPa) = 15.11287 32.17536 23.64412
#
# Velocity S-wave (km/s) = 2.52935 3.69061 3.16372
# Velocity P-wave (km/s) = 3.55531 5.62579 4.70583
#
# Compressibility (1/GPa) = 0.10299749
#
# Stress axis : x y z
#
# Youngs Moduli (GPa) = 55.63554 28.85962 47.74255
#
# Poissons Ratio (x) = -0.17911 -0.01249
# Poissons Ratio (y) = -0.34529 -0.39367
# Poissons Ratio (z) = -0.01455 -0.23797
#
# Static dielectric constant tensor:
#      x y z
#    x 4.227250 0.101990 -0.406810 
#    y 0.101990 11.293980 -0.542120 
#    z -0.406810 -0.542120 4.622210 
# 
# 
# High freq. dielectric constant tensor:
#      x y z
#    x 1.929290 0.015150 -0.012400 
#    y 0.015150 1.919210 0.007690 
#    z -0.012400 0.007690 1.945410 
# 
# From -- ./inp_files/240485.got.cif
#   From: 2010.06.25/outbox.cif.g09.slc.cpg/sg2_121_cif.got.tgz:240485.got - 2010.06.27 13:26:56.
