data_PCOD8002561
_publ_section_title
;
Structure prediction by ZEFSAII (Michael W. Deem and Ramdas Pophale) SiO2 
 PCOD8002561
Probable space group: P -1
;
_chemical_formula_sum "Si O2"
_cell_formula_units_Z 14
_cell_length_a 14.446556
_cell_length_b 9.233006
_cell_length_c 10.498228
_cell_angle_alpha 58.572876
_cell_angle_beta 53.325554
_cell_angle_gamma 95.417742
_cell_volume 771.667042
_symmetry_space_group_name_H-M "P -1"
_symmetry_group_IT_number 2
_symmetry_cell_setting 'triclinic'
loop_
_space_group_symop_operation_xyz
x,y,z
-x,-y,-z
loop_
_atom_site_type_symbol
_atom_site_label
_atom_site_fract_x
_atom_site_fract_y
_atom_site_fract_z
Si Si1 0.988631 0.421246 0.861686
Si Si2 0.875633 0.956090 0.714236
Si Si3 0.966595 0.656822 0.407317
Si Si4 0.355792 0.152103 0.237751
Si Si5 0.229752 0.492741 0.993684
Si Si6 0.667243 0.495010 0.826175
Si Si7 0.770722 0.247735 0.322880
O O1 0.919820 0.545539 0.823024
O O2 0.992404 0.296836 0.796574
O O3 0.150034 0.590247 0.699546
O O4 0.891361 0.257199 0.131409
O O5 0.938052 0.120848 0.701617
O O6 0.758287 0.964449 0.729635
O O7 0.801093 0.721462 0.939077
O O8 0.000000 0.000000 0.500000
O O9 0.797559 0.541021 0.614167
O O10 0.000000 0.500000 0.500000
O O11 0.326894 0.296287 0.276733
O O12 0.342919 0.983675 0.423042
O O13 0.517489 0.295858 0.982617
O O14 0.328366 0.565425 0.003581
O O15 0.306104 0.674287 0.737785
#
# Coordination Sequence:
#
# PCOD8002561 Si02
#       7
#     2   2   2   2   2   2   2
#     4   9  19  31  56  81 107 135 182 233 258 314
#     4  11  19  33  59  79 106 145 185 220 269 317
#     4  12  19  33  56  86 111 137 184 230 266 316
#     4  10  20  36  54  84 107 149 175 229 263 334
#     4   9  17  35  54  77 105 144 180 217 265 326
#     4  10  21  33  56  81 115 136 188 220 275 313
#     4   9  18  35  56  74 114 141 185 215 277 320
#
# _framework density 18.142541000000001
#
# number of rings (size 3 to 8) (size 9 to 14) (size 15 to 20)
#    0.857    1.143    4.286    1.714    0.000    0.571 
#    0.000    5.714    0.000    0.000    0.000    7.000 
#    0.000    0.000    0.000    0.000    0.000    0.000 
#
# Total GULP energy -173501.190576 kJ/mol
# GULP energy per Si atom -12392.942184 kJ/mol
# Density = 1.810125 g / cm^3
# Si number density = 18.142541 Si / 1000 Ang^3
#
#
#
# Elastic Constant Matrix: (Units=GPa)
#
#
# Indices 1 2 3 4 5 6 
#
# 1 77.6658 32.3677 31.2222 -6.5849 2.5705 5.7215
# 2 32.3677 99.2048 40.3337 7.5538 6.2021 18.0691
# 3 31.2222 40.3337 75.8520 -7.4996 1.2373 3.6557
# 4 -6.5849 7.5538 -7.4996 21.3451 -6.7973 5.3858
# 5 2.5705 6.2021 1.2373 -6.7973 33.6759 -5.1773
# 6 5.7215 18.0691 3.6557 5.3858 -5.1773 33.7380
#
#
#
# Elastic Compliance Matrix: (Units=1/GPa)
#
#
# Indices 1 2 3 4 5 6 
#
# 1 0.016766 -0.004061 -0.004149 0.005598 0.000594 -0.001022
# 2 -0.004061 0.016999 -0.007950 -0.010136 -0.005620 -0.006798
# 3 -0.004149 -0.007950 0.019874 0.009057 0.003163 0.001848
# 4 0.005598 -0.010136 0.009057 0.060439 0.012659 -0.004208
# 5 0.000594 -0.005620 0.003163 0.012659 0.034010 0.005765
# 6 -0.001022 -0.006798 0.001848 -0.004208 0.005765 0.034810
#
#
# Mechanical properties :
#
#
# Convention : Reuss Voigt Hill
#
# Bulk Modulus (GPa) = 46.90735 51.17441 49.04088
# Shear Modulus (GPa) = 22.48973 27.67174 25.08074
#
# Velocity S-wave (km/s) = 3.52463 3.90967 3.72213
# Velocity P-wave (km/s) = 6.51729 6.97487 6.74996
#
# Compressibility (1/GPa) = 0.02131862
#
# Stress axis : x y z
#
# Youngs Moduli (GPa) = 59.64374 58.82765 50.31774
#
# Poissons Ratio (x) = 0.23889 0.20876
# Poissons Ratio (y) = 0.24220 0.40004
# Poissons Ratio (z) = 0.24746 0.46770
#
# Static dielectric constant tensor:
#      x y z
#    x 3.470540 0.010510 0.025680 
#    y 0.010510 3.368470 -0.149850 
#    z 0.025680 -0.149850 3.160590 
# 
# 
# High freq. dielectric constant tensor:
#      x y z
#    x 1.706660 0.001760 0.003420 
#    y 0.001760 1.682320 -0.016380 
#    z 0.003420 -0.016380 1.676990 
# 
# From -- ./inp_files/386754.got.cif
#   From: 2010.06.25/outbox.cif.g09.slc.cpg/sg2_194_cif.got.tgz:386754.got - 2010.06.27 13:26:56.
