data_PCOD8002497
_publ_section_title
;
Structure prediction by ZEFSAII (Michael W. Deem and Ramdas Pophale) SiO2 
 PCOD8002497
Probable space group: P -1
;
_chemical_formula_sum "Si O2"
_cell_formula_units_Z 16
_cell_length_a 17.618671
_cell_length_b 8.808853
_cell_length_c 12.340025
_cell_angle_alpha 123.597355
_cell_angle_beta 27.366479
_cell_angle_gamma 116.770071
_cell_volume 729.081084
_symmetry_space_group_name_H-M "P -1"
_symmetry_group_IT_number 2
_symmetry_cell_setting 'triclinic'
loop_
_space_group_symop_operation_xyz
x,y,z
-x,-y,-z
loop_
_atom_site_type_symbol
_atom_site_label
_atom_site_fract_x
_atom_site_fract_y
_atom_site_fract_z
Si Si1 0.793227 0.830181 0.692525
Si Si2 0.472094 0.949424 0.230417
Si Si3 0.995028 0.287915 0.426515
Si Si4 0.611606 0.668346 0.437084
Si Si5 0.727861 0.825532 0.139059
Si Si6 0.666248 0.158243 0.846315
Si Si7 0.328922 0.387885 0.425238
Si Si8 0.628649 0.206241 0.506759
O O1 0.952373 0.793820 0.553012
O O2 0.798686 0.697121 0.528328
O O3 0.755601 0.042643 0.786013
O O4 0.637236 0.804853 0.958393
O O5 0.407829 0.984485 0.201252
O O6 0.341481 0.847816 0.426132
O O7 0.506730 0.139840 0.320485
O O8 0.000000 0.500000 0.500000
O O9 0.803965 0.252767 0.641678
O O10 0.104253 0.208190 0.155807
O O11 0.500000 0.500000 0.500000
O O12 0.729955 0.697716 0.195313
O O13 0.721049 0.644090 0.398700
O O14 0.569090 0.777545 0.254876
O O15 0.720039 0.042956 0.255390
O O16 0.522530 0.312898 0.129550
O O17 0.298678 0.605684 0.534564
#
# Coordination Sequence:
#
# PCOD8002497 Si02
#       8
#     2   2   2   2   2   2   2   2
#     4  11  22  41  65  91 129 160 212 266 309 370
#     4  10  20  38  64  95 126 158 210 262 316 357
#     4  12  27  42  63  92 130 170 210 251 316 389
#     4  11  20  35  65  95 127 154 208 266 300 371
#     4  10  22  40  58  94 126 170 204 255 318 368
#     4  11  23  40  65  95 128 167 201 263 321 372
#     4  11  21  38  69 102 117 157 216 266 316 355
#     4  10  20  35  63  94 124 159 209 262 310 366
#
# _framework density 21.945433000000001
#
# number of rings (size 3 to 8) (size 9 to 14) (size 15 to 20)
#    0.000    1.250    5.000    1.875    1.750    1.000 
#    0.000    3.750    0.000    1.500    0.000    0.000 
#    0.000    0.000    0.000    0.000    0.000    0.000 
#
# Total GULP energy -198252.245411 kJ/mol
# GULP energy per Si atom -12390.765338 kJ/mol
# Density = 2.189548 g / cm^3
# Si number density = 21.945433 Si / 1000 Ang^3
#
#
#
# Elastic Constant Matrix: (Units=GPa)
#
#
# Indices 1 2 3 4 5 6 
#
# 1 90.0071 21.7424 29.4139 -1.9312 26.0234 -13.1858
# 2 21.7424 104.0010 27.0952 11.8697 12.9539 -8.1316
# 3 29.4139 27.0952 77.0059 -7.7962 14.2864 -2.9481
# 4 -1.9312 11.8697 -7.7962 28.0033 -1.7832 3.4360
# 5 26.0234 12.9539 14.2864 -1.7832 30.6574 -4.5935
# 6 -13.1858 -8.1316 -2.9481 3.4360 -4.5935 33.6069
#
#
#
# Elastic Compliance Matrix: (Units=1/GPa)
#
#
# Indices 1 2 3 4 5 6 
#
# 1 0.016421 -0.000540 -0.003921 -0.001004 -0.011263 0.004531
# 2 -0.000540 0.012140 -0.004148 -0.006842 -0.002734 0.002688
# 3 -0.003921 -0.004148 0.017020 0.006303 -0.002795 -0.002075
# 4 -0.001004 -0.006842 0.006303 0.041107 0.002392 -0.005372
# 5 -0.011263 -0.002734 -0.002795 0.002392 0.044860 0.000561
# 6 0.004531 0.002688 -0.002075 -0.005372 0.000561 0.032628
#
#
# Mechanical properties :
#
#
# Convention : Reuss Voigt Hill
#
# Bulk Modulus (GPa) = 35.25604 47.50189 41.37896
# Shear Modulus (GPa) = 26.19881 31.30434 28.75158
#
# Velocity S-wave (km/s) = 3.45891 3.78095 3.62351
# Velocity P-wave (km/s) = 5.66148 6.38383 6.03347
#
# Compressibility (1/GPa) = 0.02836394
#
# Stress axis : x y z
#
# Youngs Moduli (GPa) = 60.89916 82.36999 58.75283
#
# Poissons Ratio (x) = 0.04446 0.23036
# Poissons Ratio (y) = 0.03287 0.24371
# Poissons Ratio (z) = 0.23878 0.34168
#
# Static dielectric constant tensor:
#      x y z
#    x 4.222610 -0.249910 0.092680 
#    y -0.249910 4.004800 -0.029630 
#    z 0.092680 -0.029630 4.261870 
# 
# 
# High freq. dielectric constant tensor:
#      x y z
#    x 1.861250 -0.017290 0.034040 
#    y -0.017290 1.871190 0.005400 
#    z 0.034040 0.005400 1.836300 
# 
# From -- ./inp_files/180400.got.cif
#   From: 2010.06.25/outbox.cif.g09.slc.cpg/sg2_91_cif.got.tgz:180400.got - 2010.06.27 13:26:56.
