data_PCOD8002620
_publ_section_title
;
Structure prediction by ZEFSAII (Michael W. Deem and Ramdas Pophale) SiO2 
 PCOD8002620
Probable space group: P -1
;
_chemical_formula_sum "Si O2"
_cell_formula_units_Z 16
_cell_length_a 11.846102
_cell_length_b 8.429339
_cell_length_c 14.800432
_cell_angle_alpha 68.177365
_cell_angle_beta 97.522287
_cell_angle_gamma 143.310244
_cell_volume 781.617931
_symmetry_space_group_name_H-M "P -1"
_symmetry_group_IT_number 2
_symmetry_cell_setting 'triclinic'
loop_
_space_group_symop_operation_xyz
x,y,z
-x,-y,-z
loop_
_atom_site_type_symbol
_atom_site_label
_atom_site_fract_x
_atom_site_fract_y
_atom_site_fract_z
Si Si1 0.902093 0.885913 0.917960
Si Si2 0.876779 0.213071 0.807610
Si Si3 0.502672 0.862855 0.157358
Si Si4 0.503454 0.766741 0.979746
Si Si5 0.706809 0.159550 0.468268
Si Si6 0.107038 0.843070 0.370437
Si Si7 0.921873 0.794075 0.749302
Si Si8 0.207593 0.874629 0.712002
O O1 0.955692 0.817937 0.857270
O O2 0.983473 0.160713 0.824592
O O3 0.668360 0.582138 0.979134
O O4 0.000000 0.000000 0.000000
O O5 0.813303 0.165987 0.706918
O O6 0.022967 0.531593 0.796945
O O7 0.698451 0.950831 0.910200
O O8 0.269547 0.557404 0.220991
O O9 0.562345 0.132644 0.091037
O O10 0.621329 0.925750 0.238662
O O11 0.555312 0.830186 0.077750
O O12 0.747364 0.043178 0.559304
O O13 0.707608 0.086557 0.382261
O O14 0.877794 0.508766 0.431711
O O15 0.500000 0.000000 0.500000
O O16 0.121492 0.066201 0.318208
O O17 0.114746 0.952829 0.684582
#
# Coordination Sequence:
#
# PCOD8002620 Si02
#       8
#     2   2   2   2   2   2   2   2
#     4  10  21  36  55  87 122 161 206 246 284 343
#     4  10  20  37  59  86 117 162 202 242 300 344
#     4  10  22  36  56  89 125 159 198 243 290 348
#     4  10  20  36  56  85 122 165 201 240 294 343
#     4  10  23  42  67  92 112 149 201 248 307 362
#     4   9  22  43  63  87 122 154 190 254 302 351
#     4  10  22  42  58  88 127 157 198 239 300 356
#     4  11  23  38  64  89 117 161 199 247 301 357
#
# _framework density 20.470358999999998
#
# number of rings (size 3 to 8) (size 9 to 14) (size 15 to 20)
#    0.000    2.000    1.250    1.125    3.500    3.000 
#    0.000    1.250    0.000    0.000    0.000    0.000 
#    0.000    0.000    0.000    0.000    0.000    0.000 
#
# Total GULP energy -198245.663383 kJ/mol
# GULP energy per Si atom -12390.353961 kJ/mol
# Density = 2.042377 g / cm^3
# Si number density = 20.470359 Si / 1000 Ang^3
#
#
#
# Elastic Constant Matrix: (Units=GPa)
#
#
# Indices 1 2 3 4 5 6 
#
# 1 86.3482 47.3950 43.2388 13.9329 -11.6861 16.8093
# 2 47.3950 96.3482 46.4669 20.0781 1.4125 5.7491
# 3 43.2388 46.4669 102.0895 17.1399 -4.9838 14.6810
# 4 13.9329 20.0781 17.1399 29.7622 3.9339 5.7475
# 5 -11.6861 1.4125 -4.9838 3.9339 37.2374 -6.8115
# 6 16.8093 5.7491 14.6810 5.7475 -6.8115 25.3869
#
#
#
# Elastic Compliance Matrix: (Units=1/GPa)
#
#
# Indices 1 2 3 4 5 6 
#
# 1 0.019723 -0.007367 -0.003406 -0.001415 0.004730 -0.007832
# 2 -0.007367 0.017178 -0.004392 -0.006175 -0.002101 0.004362
# 3 -0.003406 -0.004392 0.014373 -0.002976 0.000561 -0.004238
# 4 -0.001415 -0.006175 -0.002976 0.042392 -0.006415 -0.007262
# 5 0.004730 -0.002101 0.000561 -0.006415 0.030383 0.006624
# 6 -0.007832 0.004362 -0.004238 -0.007262 0.006624 0.049461
#
#
# Mechanical properties :
#
#
# Convention : Reuss Voigt Hill
#
# Bulk Modulus (GPa) = 47.74133 62.10969 54.92551
# Shear Modulus (GPa) = 23.71681 28.32298 26.01989
#
# Velocity S-wave (km/s) = 3.40750 3.72373 3.56912
# Velocity P-wave (km/s) = 6.23332 6.99252 6.62380
#
# Compressibility (1/GPa) = 0.02094621
#
# Stress axis : x y z
#
# Youngs Moduli (GPa) = 50.70244 58.21302 69.57392
#
# Poissons Ratio (x) = 0.42883 0.23695
# Poissons Ratio (y) = 0.37351 0.30555
# Poissons Ratio (z) = 0.17268 0.25566
#
# Static dielectric constant tensor:
#      x y z
#    x 3.654590 -0.165310 -0.268730 
#    y -0.165310 3.687240 -0.162010 
#    z -0.268730 -0.162010 5.864180 
# 
# 
# High freq. dielectric constant tensor:
#      x y z
#    x 1.794160 -0.014390 -0.001660 
#    y -0.014390 1.796980 0.002370 
#    z -0.001660 0.002370 1.803540 
# 
# From -- ./inp_files/39362.got.cif
#   From: 2010.06.25/outbox.cif.g09.slc.cpg/sg2_20_cif.got.tgz:39362.got - 2010.06.27 13:26:56.
