data_PCOD8002413
_publ_section_title
;
Structure prediction by ZEFSAII (Michael W. Deem and Ramdas Pophale) SiO2 
 PCOD8002413
Probable space group: P -1
;
_chemical_formula_sum "Si O2"
_cell_formula_units_Z 16
_cell_length_a 14.035911
_cell_length_b 13.728546
_cell_length_c 6.387214
_cell_angle_alpha 114.425939
_cell_angle_beta 78.197686
_cell_angle_gamma 139.080002
_cell_volume 721.885713
_symmetry_space_group_name_H-M "P -1"
_symmetry_group_IT_number 2
_symmetry_cell_setting 'triclinic'
loop_
_space_group_symop_operation_xyz
x,y,z
-x,-y,-z
loop_
_atom_site_type_symbol
_atom_site_label
_atom_site_fract_x
_atom_site_fract_y
_atom_site_fract_z
Si Si1 0.166363 0.735270 0.795618
Si Si2 0.355556 0.526468 0.089116
Si Si3 0.417405 0.383032 0.235691
Si Si4 0.023956 0.276863 0.892870
Si Si5 0.368962 0.930848 0.254243
Si Si6 0.162269 0.893239 0.559746
Si Si7 0.871827 0.973701 0.975954
Si Si8 0.331271 0.737514 0.449921
O O1 0.156441 0.806551 0.672555
O O2 0.186822 0.635989 0.580268
O O3 0.312772 0.876685 0.994868
O O4 0.021418 0.641334 0.922184
O O5 0.364277 0.433841 0.155607
O O6 0.374644 0.650174 0.325730
O O7 0.477301 0.614352 0.930395
O O8 0.196298 0.399044 0.939839
O O9 0.500000 0.500000 0.500000
O O10 0.270364 0.200761 0.219213
O O11 0.986506 0.238468 0.630180
O O12 0.929147 0.110080 0.911103
O O13 0.302154 0.983793 0.432606
O O14 0.313268 0.777995 0.266407
O O15 0.543848 0.091650 0.329623
O O16 0.178258 0.022566 0.771336
O O17 0.000000 0.000000 0.000000
#
# Coordination Sequence:
#
# PCOD8002413 Si02
#       8
#     2   2   2   2   2   2   2   2
#     4   9  19  36  59  92 124 157 208 251 302 379
#     4  11  25  43  62  91 127 165 207 262 319 370
#     4  11  27  45  63  92 129 162 211 268 318 368
#     4  10  22  40  65  91 126 166 208 254 313 377
#     4   9  18  36  58  90 123 164 203 253 307 381
#     4   9  20  36  61  89 123 159 211 256 302 368
#     4  11  22  40  65  92 118 165 217 255 310 377
#     4  10  20  35  61  88 124 163 204 253 316 369
#
# _framework density 22.164172000000001
#
# number of rings (size 3 to 8) (size 9 to 14) (size 15 to 20)
#    0.000    2.000    1.250    1.125    1.750    8.000 
#    0.000    5.625    0.000    0.000    0.000    0.000 
#    0.000    0.000    0.000    0.000    0.000    0.000 
#
# Total GULP energy -198257.441623 kJ/mol
# GULP energy per Si atom -12391.090101 kJ/mol
# Density = 2.211373 g / cm^3
# Si number density = 22.164172 Si / 1000 Ang^3
#
#
#
# Elastic Constant Matrix: (Units=GPa)
#
#
# Indices 1 2 3 4 5 6 
#
# 1 123.9709 27.9684 59.6679 1.8937 -6.1855 13.6354
# 2 27.9684 65.6575 17.2856 7.5962 -0.4338 13.1542
# 3 59.6679 17.2856 128.9788 2.8890 -2.0636 3.3539
# 4 1.8937 7.5962 2.8890 21.5890 0.4675 1.5038
# 5 -6.1855 -0.4338 -2.0636 0.4675 59.4735 4.3982
# 6 13.6354 13.1542 3.3539 1.5038 4.3982 25.5097
#
#
#
# Elastic Compliance Matrix: (Units=1/GPa)
#
#
# Indices 1 2 3 4 5 6 
#
# 1 0.011587 -0.002882 -0.004860 0.000922 0.001330 -0.004352
# 2 -0.002882 0.018925 -0.000863 -0.005754 0.000433 -0.007840
# 3 -0.004860 -0.000863 0.010082 -0.000739 -0.000290 0.001811
# 4 0.000922 -0.005754 -0.000739 0.048385 -0.000335 -0.000223
# 5 0.001330 0.000433 -0.000290 -0.000335 0.017233 -0.003848
# 6 -0.004352 -0.007840 0.001811 -0.000223 -0.003848 0.046008
#
#
# Mechanical properties :
#
#
# Convention : Reuss Voigt Hill
#
# Bulk Modulus (GPa) = 42.76715 58.71680 50.74197
# Shear Modulus (GPa) = 28.21266 35.56012 31.88639
#
# Velocity S-wave (km/s) = 3.57164 4.00984 3.79706
# Velocity P-wave (km/s) = 6.02879 6.92731 6.49361
#
# Compressibility (1/GPa) = 0.02338243
#
# Stress axis : x y z
#
# Youngs Moduli (GPa) = 86.30487 52.84064 99.18518
#
# Poissons Ratio (x) = 0.15230 0.48206
# Poissons Ratio (y) = 0.24875 0.08562
# Poissons Ratio (z) = 0.41946 0.04561
#
# Static dielectric constant tensor:
#      x y z
#    x 4.464770 0.190650 -0.333720 
#    y 0.190650 3.610340 -0.179340 
#    z -0.333720 -0.179340 4.519060 
# 
# 
# High freq. dielectric constant tensor:
#      x y z
#    x 1.895380 0.016990 -0.004190 
#    y 0.016990 1.835980 -0.005680 
#    z -0.004190 -0.005680 1.886730 
# 
# From -- ./inp_files/98580.got.cif
#   From: 2010.06.25/outbox.cif.g09.slc.cpg/sg2_50_cif.got.tgz:98580.got - 2010.06.27 13:26:56.
