data_PCOD8002790
_publ_section_title
;
Structure prediction by ZEFSAII (Michael W. Deem and Ramdas Pophale) SiO2 
 PCOD8002790
Probable space group: P -1
;
_chemical_formula_sum "Si O2"
_cell_formula_units_Z 16
_cell_length_a 19.500445
_cell_length_b 9.207938
_cell_length_c 6.384984
_cell_angle_alpha 50.018475
_cell_angle_beta 120.979578
_cell_angle_gamma 105.546319
_cell_volume 749.736099
_symmetry_space_group_name_H-M "P -1"
_symmetry_group_IT_number 2
_symmetry_cell_setting 'triclinic'
loop_
_space_group_symop_operation_xyz
x,y,z
-x,-y,-z
loop_
_atom_site_type_symbol
_atom_site_label
_atom_site_fract_x
_atom_site_fract_y
_atom_site_fract_z
Si Si1 0.237374 0.043503 0.601004
Si Si2 0.709738 0.684154 0.897379
Si Si3 0.371280 0.100554 0.073903
Si Si4 0.828707 0.346286 0.266375
Si Si5 0.463517 0.777415 0.734302
Si Si6 0.043497 0.590621 0.295310
Si Si7 0.108231 0.361302 0.230829
Si Si8 0.548160 0.570955 0.697509
O O1 0.247518 0.144994 0.299978
O O2 0.171640 0.175964 0.507368
O O3 0.208899 0.836066 0.715335
O O4 0.321901 0.019322 0.881296
O O5 0.685391 0.730540 0.057738
O O6 0.628410 0.656338 0.664448
O O7 0.764069 0.485948 0.159674
O O8 0.456383 0.169341 0.062956
O O9 0.393237 0.947092 0.437351
O O10 0.895413 0.278568 0.612333
O O11 0.863079 0.461780 0.020165
O O12 0.491309 0.727461 0.587227
O O13 0.424697 0.606373 0.942873
O O14 0.093667 0.428166 0.385105
O O15 0.000000 0.500000 0.500000
O O16 0.975580 0.703246 0.938126
O O17 0.500000 0.500000 0.500000
#
# Coordination Sequence:
#
# PCOD8002790 Si02
#       8
#     2   2   2   2   2   2   2   2
#     4  11  23  38  59  88 121 154 197 240 291 349
#     4  10  23  38  56  85 116 155 198 241 297 347
#     4  10  21  39  56  81 120 156 195 252 294 351
#     4  10  22  37  57  90 118 153 197 236 290 346
#     4   9  21  37  56  83 113 154 202 241 305 349
#     4   9  18  39  66  86 120 154 189 238 281 344
#     4   9  20  40  61  88 119 156 190 232 292 341
#     4  10  20  36  59  84 111 151 199 251 296 349
#
# _framework density 21.340844000000001
#
# number of rings (size 3 to 8) (size 9 to 14) (size 15 to 20)
#    0.000    2.250    0.000    1.500    3.500    1.500 
#    4.500    9.375    0.000    0.000    0.000    0.000 
#    0.000    0.000    0.000    0.000    0.000    0.000 
#
# Total GULP energy -198307.429998 kJ/mol
# GULP energy per Si atom -12394.214375 kJ/mol
# Density = 2.129227 g / cm^3
# Si number density = 21.340844 Si / 1000 Ang^3
#
#
#
# Elastic Constant Matrix: (Units=GPa)
#
#
# Indices 1 2 3 4 5 6 
#
# 1 81.2851 36.2977 19.6747 -1.1360 6.3538 -2.6127
# 2 36.2977 121.9910 42.9836 10.1513 11.0220 22.4886
# 3 19.6747 42.9836 57.1856 8.3786 15.6460 5.8031
# 4 -1.1360 10.1513 8.3786 43.8524 6.2399 8.1779
# 5 6.3538 11.0220 15.6460 6.2399 25.7700 5.5268
# 6 -2.6127 22.4886 5.8031 8.1779 5.5268 27.5096
#
#
#
# Elastic Compliance Matrix: (Units=1/GPa)
#
#
# Indices 1 2 3 4 5 6 
#
# 1 0.015301 -0.004940 -0.001724 0.001062 -0.002151 0.005972
# 2 -0.004940 0.014596 -0.008889 -0.000144 0.002775 -0.011040
# 3 -0.001724 -0.008889 0.028301 -0.002335 -0.013357 0.004511
# 4 0.001062 -0.000144 -0.002335 0.024931 -0.003535 -0.005990
# 5 -0.002151 0.002775 -0.013357 -0.003535 0.048923 -0.008433
# 6 0.005972 -0.011040 0.004511 -0.005990 -0.008433 0.048467
#
#
# Mechanical properties :
#
#
# Convention : Reuss Voigt Hill
#
# Bulk Modulus (GPa) = 36.91332 50.93041 43.92187
# Shear Modulus (GPa) = 22.65995 30.19344 26.42669
#
# Velocity S-wave (km/s) = 3.26208 3.76549 3.52279
# Velocity P-wave (km/s) = 5.61452 6.54387 6.09693
#
# Compressibility (1/GPa) = 0.02709049
#
# Stress axis : x y z
#
# Youngs Moduli (GPa) = 65.35727 68.51278 35.33500
#
# Poissons Ratio (x) = 0.33845 0.06092
# Poissons Ratio (y) = 0.32286 0.31410
# Poissons Ratio (z) = 0.11269 0.60902
#
# Static dielectric constant tensor:
#      x y z
#    x 4.176010 0.153620 0.181250 
#    y 0.153620 3.960060 0.110620 
#    z 0.181250 0.110620 3.784870 
# 
# 
# High freq. dielectric constant tensor:
#      x y z
#    x 1.844580 -0.002490 0.014100 
#    y -0.002490 1.832930 0.013040 
#    z 0.014100 0.013040 1.820500 
# 
# From -- ./inp_files/116720.got.cif
#   From: 2010.06.25/outbox.cif.g09.slc.cpg/sg2_59_cif.got.tgz:116720.got - 2010.06.27 13:26:56.
