data_PCOD8002642
_publ_section_title
;
Structure prediction by ZEFSAII (Michael W. Deem and Ramdas Pophale) SiO2 
 PCOD8002642
Probable space group: P -1
;
_chemical_formula_sum "Si O2"
_cell_formula_units_Z 16
_cell_length_a 14.574040
_cell_length_b 13.583253
_cell_length_c 9.125009
_cell_angle_alpha 67.385077
_cell_angle_beta 143.687381
_cell_angle_gamma 127.427608
_cell_volume 827.978595
_symmetry_space_group_name_H-M "P -1"
_symmetry_group_IT_number 2
_symmetry_cell_setting 'triclinic'
loop_
_space_group_symop_operation_xyz
x,y,z
-x,-y,-z
loop_
_atom_site_type_symbol
_atom_site_label
_atom_site_fract_x
_atom_site_fract_y
_atom_site_fract_z
Si Si1 0.322131 0.712304 0.978658
Si Si2 0.776397 0.005732 0.110168
Si Si3 0.896250 0.181073 0.415152
Si Si4 0.566945 0.974780 0.303446
Si Si5 0.403298 0.267500 0.878237
Si Si6 0.189545 0.045588 0.138014
Si Si7 0.279587 0.296535 0.994444
Si Si8 0.438085 0.538149 0.256230
O O1 0.127511 0.701452 0.719685
O O2 0.405819 0.724965 0.914342
O O3 0.466033 0.832522 0.193880
O O4 0.301406 0.585996 0.096916
O O5 0.578380 0.989875 0.856319
O O6 0.759459 0.881090 0.231792
O O7 0.855810 0.024385 0.037753
O O8 0.922314 0.126633 0.327301
O O9 0.065884 0.225711 0.713345
O O10 0.701127 0.070223 0.295255
O O11 0.686890 0.989331 0.590930
O O12 0.412859 0.338412 0.000372
O O13 0.385296 0.344818 0.673320
O O14 0.302698 0.198311 0.176073
O O15 0.000000 0.000000 0.000000
O O16 0.327997 0.417837 0.078768
O O17 0.500000 0.500000 0.500000
#
# Coordination Sequence:
#
# PCOD8002642 Si02
#       8
#     2   2   2   2   2   2   2   2
#     4   9  19  34  60  77 102 145 186 217 262 320
#     4  10  20  36  57  81 110 151 181 219 268 326
#     4  11  19  35  56  84 112 139 183 224 273 321
#     4  11  17  36  56  81 112 146 182 221 265 332
#     4   9  19  36  56  83 102 144 189 216 262 330
#     4  11  23  34  50  85 118 143 177 225 278 318
#     4  11  23  34  55  83 111 142 181 227 272 313
#     4  10  20  39  59  78 104 143 186 224 271 321
#
# _framework density 19.324172999999998
#
# number of rings (size 3 to 8) (size 9 to 14) (size 15 to 20)
#    0.750    1.000    3.750    2.250    0.000    3.500 
#    0.000    0.000    0.000    0.750    0.000    0.000 
#    0.000    0.000    0.000    0.000    0.000    0.000 
#
# Total GULP energy -198231.008419 kJ/mol
# GULP energy per Si atom -12389.438026 kJ/mol
# Density = 1.928019 g / cm^3
# Si number density = 19.324173 Si / 1000 Ang^3
#
#
#
# Elastic Constant Matrix: (Units=GPa)
#
#
# Indices 1 2 3 4 5 6 
#
# 1 114.4941 44.9947 34.3075 0.0994 -13.0617 -7.9814
# 2 44.9947 97.7330 33.1799 -21.2000 -14.6472 -19.6281
# 3 34.3075 33.1799 76.1942 -12.1120 -7.5314 -8.7017
# 4 0.0994 -21.2000 -12.1120 30.4168 0.7623 -6.6899
# 5 -13.0617 -14.6472 -7.5314 0.7623 23.4818 -0.9808
# 6 -7.9814 -19.6281 -8.7017 -6.6899 -0.9808 33.5355
#
#
#
# Elastic Compliance Matrix: (Units=1/GPa)
#
#
# Indices 1 2 3 4 5 6 
#
# 1 0.012351 -0.006004 -0.004133 -0.006556 0.001891 -0.002900
# 2 -0.006004 0.021683 -0.001286 0.017613 0.009816 0.014729
# 3 -0.004133 -0.001286 0.017362 0.006897 0.002419 0.004215
# 4 -0.006556 0.017613 0.006897 0.052374 0.008739 0.021242
# 5 0.001891 0.009816 0.002419 0.008739 0.050673 0.010048
# 6 -0.002900 0.014729 0.004215 0.021242 0.010048 0.043375
#
#
# Mechanical properties :
#
#
# Convention : Reuss Voigt Hill
#
# Bulk Modulus (GPa) = 35.02747 57.04283 46.03515
# Shear Modulus (GPa) = 21.72191 29.21609 25.46900
#
# Velocity S-wave (km/s) = 3.35637 3.89253 3.63435
# Velocity P-wave (km/s) = 5.76072 7.05587 6.44093
#
# Compressibility (1/GPa) = 0.02854902
#
# Stress axis : x y z
#
# Youngs Moduli (GPa) = 80.96184 46.11962 57.59544
#
# Poissons Ratio (x) = 0.27692 0.23805
# Poissons Ratio (y) = 0.48612 0.07409
# Poissons Ratio (z) = 0.33463 0.05933
#
# Static dielectric constant tensor:
#      x y z
#    x 3.678810 -0.231510 -0.083900 
#    y -0.231510 3.632830 -0.271150 
#    z -0.083900 -0.271150 3.270170 
# 
# 
# High freq. dielectric constant tensor:
#      x y z
#    x 1.757370 -0.021900 -0.006590 
#    y -0.021900 1.746640 -0.022690 
#    z -0.006590 -0.022690 1.728690 
# 
# From -- ./inp_files/200328.got.cif
#   From: 2010.06.25/outbox.cif.g09.slc.cpg/sg2_101_cif.got.tgz:200328.got - 2010.06.27 13:26:56.
