data_PCOD8002567
_publ_section_title
;
Structure prediction by ZEFSAII (Michael W. Deem and Ramdas Pophale) SiO2 
 PCOD8002567
Probable space group: P -1
;
_chemical_formula_sum "Si O2"
_cell_formula_units_Z 16
_cell_length_a 13.557569
_cell_length_b 11.960338
_cell_length_c 8.621994
_cell_angle_alpha 143.481162
_cell_angle_beta 104.093847
_cell_angle_gamma 74.799222
_cell_volume 801.562793
_symmetry_space_group_name_H-M "P -1"
_symmetry_group_IT_number 2
_symmetry_cell_setting 'triclinic'
loop_
_space_group_symop_operation_xyz
x,y,z
-x,-y,-z
loop_
_atom_site_type_symbol
_atom_site_label
_atom_site_fract_x
_atom_site_fract_y
_atom_site_fract_z
Si Si1 0.123794 0.103355 0.575525
Si Si2 0.397707 0.522751 0.322318
Si Si3 0.204889 0.665091 0.595340
Si Si4 0.750226 0.576954 0.100929
Si Si5 0.888922 0.992448 0.879771
Si Si6 0.449541 0.213644 0.240918
Si Si7 0.900116 0.257791 0.671866
Si Si8 0.242280 0.323566 0.443110
O O1 0.105998 0.992081 0.286054
O O2 0.021161 0.240759 0.732226
O O3 0.144916 0.942451 0.535860
O O4 0.219069 0.225582 0.737583
O O5 0.317095 0.641767 0.537702
O O6 0.348111 0.479647 0.091130
O O7 0.440700 0.322509 0.193367
O O8 0.485146 0.660863 0.482337
O O9 0.119281 0.687506 0.453794
O O10 0.189857 0.482540 0.486455
O O11 0.193155 0.842657 0.903022
O O12 0.846268 0.417717 0.942328
O O13 0.720635 0.593472 0.288072
O O14 0.849966 0.796973 0.694377
O O15 0.000000 0.000000 0.000000
O O16 0.339314 0.204736 0.266836
O O17 0.500000 0.000000 0.000000
#
# Coordination Sequence:
#
# PCOD8002567 Si02
#       8
#     2   2   2   2   2   2   2   2
#     4  10  21  36  52  81 114 153 198 232 278 324
#     4   9  21  37  60  86 113 145 187 231 284 342
#     4  10  20  37  57  85 112 152 191 233 280 330
#     4  10  21  38  55  82 117 149 185 232 283 339
#     4  11  21  37  54  82 116 152 192 234 274 329
#     4  10  20  40  62  86 110 143 187 235 284 341
#     4  10  20  36  55  78 112 156 193 238 274 326
#     4  10  23  38  59  84 114 151 189 233 286 338
#
# _framework density 19.961006999999999
#
# number of rings (size 3 to 8) (size 9 to 14) (size 15 to 20)
#    0.000    2.000    1.250    1.875    0.000    6.000 
#    2.250    0.625    0.000    0.000    0.000    0.000 
#    0.000    0.000    0.000    0.000    0.000    0.000 
#
# Total GULP energy -198429.343762 kJ/mol
# GULP energy per Si atom -12401.833985 kJ/mol
# Density = 1.991557 g / cm^3
# Si number density = 19.961007 Si / 1000 Ang^3
#
#
#
# Elastic Constant Matrix: (Units=GPa)
#
#
# Indices 1 2 3 4 5 6 
#
# 1 52.2693 40.1604 29.9036 -3.1426 10.8391 1.9547
# 2 40.1604 123.0571 53.5027 4.2641 -0.8546 -1.6395
# 3 29.9036 53.5027 96.1531 -0.5735 -5.5077 -10.5524
# 4 -3.1426 4.2641 -0.5735 25.3429 -6.3390 0.2465
# 5 10.8391 -0.8546 -5.5077 -6.3390 36.6175 0.3930
# 6 1.9547 -1.6395 -10.5524 0.2465 0.3930 24.4183
#
#
#
# Elastic Compliance Matrix: (Units=1/GPa)
#
#
# Indices 1 2 3 4 5 6 
#
# 1 0.031135 -0.007480 -0.006705 0.002548 -0.009896 -0.005759
# 2 -0.007480 0.012742 -0.004772 -0.002847 0.001307 -0.000600
# 3 -0.006705 -0.004772 0.016187 0.001387 0.004472 0.007125
# 4 0.002548 -0.002847 0.001387 0.041953 0.006654 -0.000326
# 5 -0.009896 0.001307 0.004472 0.006654 0.032070 0.002229
# 6 -0.005759 -0.000600 0.007125 -0.000326 0.002229 0.044420
#
#
# Mechanical properties :
#
#
# Convention : Reuss Voigt Hill
#
# Bulk Modulus (GPa) = 45.14379 57.62364 51.38371
# Shear Modulus (GPa) = 22.34110 27.13658 24.73884
#
# Velocity S-wave (km/s) = 3.34913 3.69111 3.52427
# Velocity P-wave (km/s) = 6.13357 6.86269 6.50835
#
# Compressibility (1/GPa) = 0.02215144
#
# Stress axis : x y z
#
# Youngs Moduli (GPa) = 32.11779 78.48218 61.77914
#
# Poissons Ratio (x) = 0.58704 0.41421
# Poissons Ratio (y) = 0.24024 0.29479
# Poissons Ratio (z) = 0.21534 0.37449
#
# Static dielectric constant tensor:
#      x y z
#    x 3.558200 0.031170 -0.135740 
#    y 0.031170 3.671100 0.046080 
#    z -0.135740 0.046080 3.643470 
# 
# 
# High freq. dielectric constant tensor:
#      x y z
#    x 1.772920 0.002360 -0.004690 
#    y 0.002360 1.779880 0.007050 
#    z -0.004690 0.007050 1.779500 
# 
# From -- ./inp_files/53734.got.cif
#   From: 2010.06.25/outbox.cif.g09.slc.cpg/sg2_27_cif.got.tgz:53734.got - 2010.06.27 13:26:56.
