data_PCOD8002233
_publ_section_title
;
Structure prediction by ZEFSAII (Michael W. Deem and Ramdas Pophale) SiO2 
 PCOD8002233
Probable space group: P -1
;
_chemical_formula_sum "Si O2"
_cell_formula_units_Z 14
_cell_length_a 13.881525
_cell_length_b 15.065066
_cell_length_c 15.119205
_cell_angle_alpha 18.753424
_cell_angle_beta 139.125442
_cell_angle_gamma 129.200428
_cell_volume 609.937110
_symmetry_space_group_name_H-M "P -1"
_symmetry_group_IT_number 2
_symmetry_cell_setting 'triclinic'
loop_
_space_group_symop_operation_xyz
x,y,z
-x,-y,-z
loop_
_atom_site_type_symbol
_atom_site_label
_atom_site_fract_x
_atom_site_fract_y
_atom_site_fract_z
Si Si1 0.093287 0.148253 0.799491
Si Si2 0.290888 0.176485 0.246915
Si Si3 0.750059 0.627085 0.159171
Si Si4 0.428463 0.632159 0.971887
Si Si5 0.919919 0.409531 0.767332
Si Si6 0.787277 0.930956 0.448868
Si Si7 0.860449 0.310464 0.010843
O O1 0.212258 0.151626 0.956345
O O2 0.139947 0.267047 0.627660
O O3 0.909607 0.340394 0.517247
O O4 0.107013 0.810930 0.115297
O O5 0.361325 0.827035 0.652378
O O6 0.325192 0.182409 0.161219
O O7 0.374901 0.353843 0.196259
O O8 0.103985 0.318013 0.007605
O O9 0.621315 0.515159 0.218611
O O10 0.361086 0.848064 0.805900
O O11 0.822910 0.404819 0.793177
O O12 0.949722 0.870169 0.672767
O O13 0.782933 0.083407 0.205660
O O14 0.779086 0.610084 0.730709
#
# Coordination Sequence:
#
# PCOD8002233 Si02
#       7
#     2   2   2   2   2   2   2
#     4  10  24  40  61  86 111 161 204 232 278 336
#     4  11  23  36  59  90 120 155 185 236 297 354
#     4  10  24  41  60  84 121 156 198 239 278 345
#     4  12  23  38  58  89 125 152 185 238 300 349
#     4  11  21  39  63  85 119 149 199 243 280 341
#     4  10  21  33  56  87 116 150 185 228 300 348
#     4  10  20  35  58  83 118 147 187 239 284 347
#
# _framework density 22.953185999999999
#
# number of rings (size 3 to 8) (size 9 to 14) (size 15 to 20)
#    0.000    1.429    1.429    4.286    4.000    9.714 
#    0.000    0.000    0.000    5.143    0.000    0.000 
#    0.000    0.000    0.000    0.000    0.000    0.000 
#
# Total GULP energy -173633.196745 kJ/mol
# GULP energy per Si atom -12402.371196 kJ/mol
# Density = 2.290094 g / cm^3
# Si number density = 22.953186 Si / 1000 Ang^3
#
#
#
# Elastic Constant Matrix: (Units=GPa)
#
#
# Indices 1 2 3 4 5 6 
#
# 1 96.6771 27.2090 14.4285 9.0595 -9.5474 -14.2965
# 2 27.2090 84.9696 0.2546 -3.7699 5.0186 5.4448
# 3 14.4285 0.2546 33.5537 -10.5167 -12.2498 4.6540
# 4 9.0595 -3.7699 -10.5167 23.7347 3.7491 -9.2917
# 5 -9.5474 5.0186 -12.2498 3.7491 17.3007 -5.4735
# 6 -14.2965 5.4448 4.6540 -9.2917 -5.4735 26.6308
#
#
#
# Elastic Compliance Matrix: (Units=1/GPa)
#
#
# Indices 1 2 3 4 5 6 
#
# 1 0.017092 -0.007256 -0.007112 -0.008214 0.011915 0.011485
# 2 -0.007256 0.015443 0.001545 0.004499 -0.010894 -0.007992
# 3 -0.007112 0.001545 0.048587 0.020347 0.025532 -0.000278
# 4 -0.008214 0.004499 0.020347 0.059726 -0.000633 0.011824
# 5 0.011915 -0.010894 0.025532 -0.000633 0.093049 0.023065
# 6 0.011485 -0.007992 -0.000278 0.011824 0.023065 0.054265
#
#
# Mechanical properties :
#
#
# Convention : Reuss Voigt Hill
#
# Bulk Modulus (GPa) = 18.02651 33.22051 25.62351
# Shear Modulus (GPa) = 15.04659 25.08712 20.06686
#
# Velocity S-wave (km/s) = 2.56312 3.30960 2.95998
# Velocity P-wave (km/s) = 4.07800 5.39529 4.78222
#
# Compressibility (1/GPa) = 0.05547385
#
# Stress axis : x y z
#
# Youngs Moduli (GPa) = 58.50633 64.75432 20.58183
#
# Poissons Ratio (x) = 0.46986 0.14639
# Poissons Ratio (y) = 0.42453 -0.03179
# Poissons Ratio (z) = 0.41612 -0.10001
#
# Static dielectric constant tensor:
#      x y z
#    x 4.191460 0.014640 -0.281420 
#    y 0.014640 3.953430 -0.067670 
#    z -0.281420 -0.067670 3.927310 
# 
# 
# High freq. dielectric constant tensor:
#      x y z
#    x 1.909300 -0.006600 -0.023070 
#    y -0.006600 1.891770 -0.019220 
#    z -0.023070 -0.019220 1.888890 
# 
# From -- ./inp_files/533557.got.cif
#   From: 2010.06.25/outbox.cif.g09.slc.cpg/sg2_267_cif.got.tgz:533557.got - 2010.06.27 13:26:56.
