data_PCOD8002731
_publ_section_title
;
Structure prediction by ZEFSAII (Michael W. Deem and Ramdas Pophale) SiO2 
 PCOD8002731
Probable space group: P -1
;
_chemical_formula_sum "Si O2"
_cell_formula_units_Z 16
_cell_length_a 16.268014
_cell_length_b 16.623490
_cell_length_c 21.450913
_cell_angle_alpha 32.913409
_cell_angle_beta 30.053227
_cell_angle_gamma 17.177047
_cell_volume 854.879438
_symmetry_space_group_name_H-M "P -1"
_symmetry_group_IT_number 2
_symmetry_cell_setting 'triclinic'
loop_
_space_group_symop_operation_xyz
x,y,z
-x,-y,-z
loop_
_atom_site_type_symbol
_atom_site_label
_atom_site_fract_x
_atom_site_fract_y
_atom_site_fract_z
Si Si1 0.860723 0.897812 0.733418
Si Si2 0.278589 0.382333 0.868669
Si Si3 0.986186 0.415233 0.834903
Si Si4 0.335182 0.042593 0.309351
Si Si5 0.506987 0.580205 0.086346
Si Si6 0.018369 0.892628 0.995721
Si Si7 0.493368 0.523232 0.271358
Si Si8 0.081561 0.003235 0.589456
O O1 0.553820 0.079358 0.854011
O O2 0.933818 0.013014 0.626173
O O3 0.840206 0.889549 0.678758
O O4 0.150402 0.583711 0.767572
O O5 0.416998 0.375347 0.838151
O O6 0.000000 0.500000 0.000000
O O7 0.031859 0.245478 0.865015
O O8 0.812190 0.691234 0.743591
O O9 0.770149 0.507644 0.970724
O O10 0.316714 0.207575 0.777612
O O11 0.308985 0.948062 0.445153
O O12 0.646970 0.348357 0.098680
O O13 0.217008 0.873648 0.053873
O O14 0.430582 0.561683 0.213882
O O15 0.000000 0.000000 0.000000
O O16 0.190001 0.704114 0.388778
O O17 0.755914 0.213594 0.322044
#
# Coordination Sequence:
#
# PCOD8002731 Si02
#       8
#     2   2   2   2   2   2   2   2
#     4  10  22  35  50  73 104 148 196 233 275 308
#     4  10  21  33  48  73 104 145 180 229 286 320
#     4  10  22  34  55  90 109 140 174 219 294 316
#     4  12  21  36  56  78 113 144 195 237 267 318
#     4  10  20  36  58  86 116 137 174 217 278 328
#     4  10  20  37  59  90 120 135 166 211 280 351
#     4  10  21  36  54  76 111 142 190 229 262 334
#     4  10  22  38  52  76 106 158 197 232 266 302
#
# _framework density 18.716089
#
# number of rings (size 3 to 8) (size 9 to 14) (size 15 to 20)
#    0.750    1.000    1.250    3.375    3.500    0.000 
#    0.000    5.000    0.000    0.000    0.000   17.500 
#    0.000    0.000    0.000    0.000    0.000    0.000 
#
# Total GULP energy -198260.889531 kJ/mol
# GULP energy per Si atom -12391.305596 kJ/mol
# Density = 1.867349 g / cm^3
# Si number density = 18.716089 Si / 1000 Ang^3
#
#
#
# Elastic Constant Matrix: (Units=GPa)
#
#
# Indices 1 2 3 4 5 6 
#
# 1 60.1163 16.2435 32.7157 -6.2447 9.7379 9.6529
# 2 16.2435 91.4344 11.6182 -5.5692 -1.3200 1.0110
# 3 32.7157 11.6182 67.5826 -2.7879 6.5350 6.7373
# 4 -6.2447 -5.5692 -2.7879 21.0280 -0.5179 -0.9664
# 5 9.7379 -1.3200 6.5350 -0.5179 16.4269 0.9843
# 6 9.6529 1.0110 6.7373 -0.9664 0.9843 27.6179
#
#
#
# Elastic Compliance Matrix: (Units=1/GPa)
#
#
# Indices 1 2 3 4 5 6 
#
# 1 0.026453 -0.003170 -0.010358 0.005088 -0.011294 -0.006022
# 2 -0.003170 0.011770 -0.000787 0.002187 0.003157 0.000833
# 3 -0.010358 -0.000787 0.020226 -0.000707 -0.001917 -0.001241
# 4 0.005088 0.002187 -0.000707 0.049531 -0.001002 0.000083
# 5 -0.011294 0.003157 -0.001917 -0.001002 0.068446 0.001825
# 6 -0.006022 0.000833 -0.001241 0.000083 0.001825 0.038524
#
#
# Mechanical properties :
#
#
# Convention : Reuss Voigt Hill
#
# Bulk Modulus (GPa) = 33.53588 37.80978 35.67283
# Shear Modulus (GPa) = 19.72237 23.58494 21.65365
#
# Velocity S-wave (km/s) = 3.24970 3.55370 3.40509
# Velocity P-wave (km/s) = 5.66020 6.08966 5.87885
#
# Compressibility (1/GPa) = 0.02981881
#
# Stress axis : x y z
#
# Youngs Moduli (GPa) = 37.80301 84.96519 49.44083
#
# Poissons Ratio (x) = 0.26932 0.51212
# Poissons Ratio (y) = 0.11983 0.03891
# Poissons Ratio (z) = 0.39157 0.06686
#
# Static dielectric constant tensor:
#      x y z
#    x 3.072380 -0.009320 -0.071490 
#    y -0.009320 3.733050 -0.033360 
#    z -0.071490 -0.033360 3.151100 
# 
# 
# High freq. dielectric constant tensor:
#      x y z
#    x 1.686990 -0.004030 0.002900 
#    y -0.004030 1.754970 -0.001390 
#    z 0.002900 -0.001390 1.702460 
# 
# From -- ./inp_files/143138.got.cif
#   From: 2010.06.25/outbox.cif.g09.slc.cpg/sg2_72_cif.got.tgz:143138.got - 2010.06.27 13:26:56.
