data_PCOD8002511
_publ_section_title
;
Structure prediction by ZEFSAII (Michael W. Deem and Ramdas Pophale) SiO2 
 PCOD8002511
Probable space group: P -1
;
_chemical_formula_sum "Si O2"
_cell_formula_units_Z 14
_cell_length_a 8.668287
_cell_length_b 12.398754
_cell_length_c 17.693863
_cell_angle_alpha 36.639693
_cell_angle_beta 141.675794
_cell_angle_gamma 141.742791
_cell_volume 638.394701
_symmetry_space_group_name_H-M "P -1"
_symmetry_group_IT_number 2
_symmetry_cell_setting 'triclinic'
loop_
_space_group_symop_operation_xyz
x,y,z
-x,-y,-z
loop_
_atom_site_type_symbol
_atom_site_label
_atom_site_fract_x
_atom_site_fract_y
_atom_site_fract_z
Si Si1 0.772778 0.059492 0.644445
Si Si2 0.317640 0.333752 0.125764
Si Si3 0.775519 0.320246 0.913732
Si Si4 0.247305 0.085077 0.921363
Si Si5 0.190708 0.968652 0.491425
Si Si6 0.951986 0.264174 0.283120
Si Si7 0.365771 0.244590 0.031612
O O1 0.520963 0.103549 0.554596
O O2 0.028861 0.121436 0.763650
O O3 0.625403 0.815632 0.713484
O O4 0.869102 0.142369 0.550757
O O5 0.211431 0.206761 0.074783
O O6 0.586282 0.530795 0.100643
O O7 0.064792 0.374180 0.038358
O O8 0.532475 0.280338 0.902449
O O9 0.825628 0.506605 0.772377
O O10 0.702226 0.113169 0.957599
O O11 0.182656 0.099277 0.977107
O O12 0.042483 0.116162 0.354495
O O13 0.065328 0.791590 0.603752
O O14 0.653107 0.229298 0.158733
#
# Coordination Sequence:
#
# PCOD8002511 Si02
#       7
#     2   2   2   2   2   2   2
#     4  10  21  40  60  83 118 155 200 237 291 344
#     4   9  19  36  59  92 112 153 191 244 293 347
#     4   9  21  37  58  89 122 146 192 240 306 345
#     4  10  22  38  60  93 119 148 185 254 310 340
#     4  10  22  39  63  79 116 165 206 231 269 356
#     4  10  21  39  61  87 111 158 205 235 282 349
#     4  10  20  35  64  91 117 141 197 249 301 341
#
# _framework density 21.930005000000001
#
# number of rings (size 3 to 8) (size 9 to 14) (size 15 to 20)
#    0.000    2.286    1.429    0.000    8.000    3.429 
#    0.000    1.429    0.000    0.000    0.000    0.000 
#    0.000    0.000    0.000    0.000    0.000    0.000 
#
# Total GULP energy -173456.001785 kJ/mol
# GULP energy per Si atom -12389.714413 kJ/mol
# Density = 2.188009 g / cm^3
# Si number density = 21.930005 Si / 1000 Ang^3
#
#
#
# Elastic Constant Matrix: (Units=GPa)
#
#
# Indices 1 2 3 4 5 6 
#
# 1 105.6040 4.4794 28.1516 4.1857 -0.6217 17.5011
# 2 4.4794 29.4129 21.0790 2.5764 -11.5739 1.5065
# 3 28.1516 21.0790 93.5310 0.8777 1.1730 5.2698
# 4 4.1857 2.5764 0.8777 30.3484 5.6640 -4.9412
# 5 -0.6217 -11.5739 1.1730 5.6640 34.5945 0.9142
# 6 17.5011 1.5065 5.2698 -4.9412 0.9142 28.4808
#
#
#
# Elastic Compliance Matrix: (Units=1/GPa)
#
#
# Indices 1 2 3 4 5 6 
#
# 1 0.011667 0.002126 -0.003576 -0.003191 0.001756 -0.007230
# 2 0.002126 0.050616 -0.011990 -0.008385 0.018853 -0.003825
# 3 -0.003576 -0.011990 0.014474 0.002124 -0.004932 0.000680
# 4 -0.003191 -0.008385 0.002124 0.037195 -0.009256 0.008762
# 5 0.001756 0.018853 -0.004932 -0.009256 0.037033 -0.003958
# 6 -0.007230 -0.003825 0.000680 0.008762 -0.003958 0.041278
#
#
# Mechanical properties :
#
#
# Convention : Reuss Voigt Hill
#
# Bulk Modulus (GPa) = 20.04831 37.32976 28.68903
# Shear Modulus (GPa) = 21.20738 30.34060 25.77399
#
# Velocity S-wave (km/s) = 3.11311 3.72361 3.43196
# Velocity P-wave (km/s) = 4.69934 5.96206 5.36796
#
# Compressibility (1/GPa) = 0.04987953
#
# Stress axis : x y z
#
# Youngs Moduli (GPa) = 85.70882 19.75658 69.09156
#
# Poissons Ratio (x) = -0.04201 0.24705
# Poissons Ratio (y) = -0.18226 0.82838
# Poissons Ratio (z) = 0.30647 0.23687
#
# Static dielectric constant tensor:
#      x y z
#    x 4.281840 0.267900 -0.009510 
#    y 0.267900 3.670090 -0.210620 
#    z -0.009510 -0.210620 3.956550 
# 
# 
# High freq. dielectric constant tensor:
#      x y z
#    x 1.888250 0.020090 -0.002330 
#    y 0.020090 1.826380 -0.012260 
#    z -0.002330 -0.012260 1.857710 
# 
# From -- ./inp_files/182447.got.cif
#   From: 2010.06.25/outbox.cif.g09.slc.cpg/sg2_92_cif.got.tgz:182447.got - 2010.06.27 13:26:56.
