data_PCOD8002547
_publ_section_title
;
Structure prediction by ZEFSAII (Michael W. Deem and Ramdas Pophale) SiO2 
 PCOD8002547
Probable space group: P -1
;
_chemical_formula_sum "Si O2"
_cell_formula_units_Z 14
_cell_length_a 15.388836
_cell_length_b 11.568771
_cell_length_c 8.455542
_cell_angle_alpha 87.625845
_cell_angle_beta 130.673656
_cell_angle_gamma 54.047213
_cell_volume 668.301776
_symmetry_space_group_name_H-M "P -1"
_symmetry_group_IT_number 2
_symmetry_cell_setting 'triclinic'
loop_
_space_group_symop_operation_xyz
x,y,z
-x,-y,-z
loop_
_atom_site_type_symbol
_atom_site_label
_atom_site_fract_x
_atom_site_fract_y
_atom_site_fract_z
Si Si1 0.009887 0.871326 0.107361
Si Si2 0.188427 0.197404 0.697052
Si Si3 0.404525 0.484658 0.774659
Si Si4 0.793551 0.568065 0.384069
Si Si5 0.359391 0.870525 0.132128
Si Si6 0.266944 0.324510 0.337957
Si Si7 0.924521 0.732539 0.787404
O O1 0.215686 0.691396 0.450534
O O2 0.976392 0.804746 0.936948
O O3 0.000000 0.000000 0.000000
O O4 0.839022 0.000466 0.025663
O O5 0.287742 0.243136 0.789727
O O6 0.126799 0.193427 0.456804
O O7 0.007344 0.362951 0.588743
O O8 0.336647 0.985664 0.961473
O O9 0.348469 0.422652 0.826799
O O10 0.559126 0.315028 0.835856
O O11 0.500000 0.500000 0.000000
O O12 0.804540 0.560642 0.587749
O O13 0.517391 0.802702 0.440745
O O14 0.251798 0.196728 0.341303
O O15 0.115409 0.492842 0.016233
#
# Coordination Sequence:
#
# PCOD8002547 Si02
#       7
#     2   2   2   2   2   2   2
#     4  12  27  47  63  90 134 172 217 270 317 381
#     4  10  20  35  72  99 126 166 208 265 329 376
#     4  11  25  45  67  93 129 172 219 267 310 383
#     4   9  18  40  62  98 132 162 204 265 313 380
#     4  11  23  45  69  94 126 172 215 267 323 384
#     4   9  19  39  67  92 133 166 203 266 327 376
#     4  10  20  39  63  98 132 165 206 265 321 380
#
# _framework density 20.948620999999999
#
# number of rings (size 3 to 8) (size 9 to 14) (size 15 to 20)
#    0.000    1.714    4.286    0.000    2.000    8.000 
#    2.571    0.000    0.000    0.000    0.000    0.000 
#    0.000    0.000    0.000    0.000    0.000    0.000 
#
# Total GULP energy -173540.940008 kJ/mol
# GULP energy per Si atom -12395.781429 kJ/mol
# Density = 2.090094 g / cm^3
# Si number density = 20.948621 Si / 1000 Ang^3
#
#
#
# Elastic Constant Matrix: (Units=GPa)
#
#
# Indices 1 2 3 4 5 6 
#
# 1 100.5645 43.9238 45.3236 -1.5271 -0.3119 22.1365
# 2 43.9238 92.7513 55.1516 8.2421 9.7879 24.9126
# 3 45.3236 55.1516 111.2936 2.7700 5.6274 17.7566
# 4 -1.5271 8.2421 2.7700 37.9422 7.5978 10.8225
# 5 -0.3119 9.7879 5.6274 7.5978 21.7961 1.6512
# 6 22.1365 24.9126 17.7566 10.8225 1.6512 33.3901
#
#
#
# Elastic Compliance Matrix: (Units=1/GPa)
#
#
# Indices 1 2 3 4 5 6 
#
# 1 0.014438 -0.003774 -0.003218 0.002943 0.002169 -0.006106
# 2 -0.003774 0.019210 -0.006374 -0.000303 -0.006321 -0.008030
# 3 -0.003218 -0.006374 0.013557 0.000567 -0.000846 -0.000462
# 4 0.002943 -0.000303 0.000567 0.031927 -0.010198 -0.011870
# 5 0.002169 -0.006321 -0.000846 -0.010198 0.052185 0.004453
# 6 -0.006106 -0.008030 -0.000462 -0.011870 0.004453 0.043861
#
#
# Mechanical properties :
#
#
# Convention : Reuss Voigt Hill
#
# Bulk Modulus (GPa) = 48.84791 65.93416 57.39104
# Shear Modulus (GPa) = 23.95380 29.30636 26.63008
#
# Velocity S-wave (km/s) = 3.38517 3.74433 3.56927
# Velocity P-wave (km/s) = 6.21673 7.08773 6.66647
#
# Compressibility (1/GPa) = 0.02047170
#
# Stress axis : x y z
#
# Youngs Moduli (GPa) = 69.26037 52.05686 73.76283
#
# Poissons Ratio (x) = 0.19647 0.23739
# Poissons Ratio (y) = 0.26140 0.47017
# Poissons Ratio (z) = 0.22290 0.33182
#
# Static dielectric constant tensor:
#      x y z
#    x 3.902830 0.250480 0.072630 
#    y 0.250480 3.817480 -0.006200 
#    z 0.072630 -0.006200 3.797250 
# 
# 
# High freq. dielectric constant tensor:
#      x y z
#    x 1.815980 0.010570 0.005930 
#    y 0.010570 1.818960 -0.002610 
#    z 0.005930 -0.002610 1.819590 
# 
# From -- ./inp_files/269611.got.cif
#   From: 2010.06.25/outbox.cif.g09.slc.cpg/sg2_135_cif.got.tgz:269611.got - 2010.06.27 13:26:56.
