data_PCOD8002863
_publ_section_title
;
Structure prediction by ZEFSAII (Michael W. Deem and Ramdas Pophale) SiO2 
 PCOD8002863
Probable space group: P -1
;
_chemical_formula_sum "Si O2"
_cell_formula_units_Z 16
_cell_length_a 15.987136
_cell_length_b 8.193087
_cell_length_c 11.320570
_cell_angle_alpha 142.559911
_cell_angle_beta 131.088892
_cell_angle_gamma 47.114342
_cell_volume 637.356607
_symmetry_space_group_name_H-M "P -1"
_symmetry_group_IT_number 2
_symmetry_cell_setting 'triclinic'
loop_
_space_group_symop_operation_xyz
x,y,z
-x,-y,-z
loop_
_atom_site_type_symbol
_atom_site_label
_atom_site_fract_x
_atom_site_fract_y
_atom_site_fract_z
Si Si1 0.962032 0.516025 0.710271
Si Si2 0.202787 0.146233 0.829633
Si Si3 0.888725 0.853043 0.619366
Si Si4 0.286882 0.535548 0.559572
Si Si5 0.295033 0.630702 0.128487
Si Si6 0.510083 0.274594 0.481909
Si Si7 0.316810 0.331287 0.736154
Si Si8 0.049772 0.176542 0.905062
O O1 0.845627 0.439451 0.581188
O O2 0.944454 0.803881 0.936712
O O3 0.080460 0.257158 0.706044
O O4 0.974188 0.585072 0.622600
O O5 0.294483 0.840592 0.697265
O O6 0.268038 0.375657 0.025820
O O7 0.173765 0.049556 0.879138
O O8 0.811858 0.076223 0.775701
O O9 0.798393 0.761110 0.401196
O O10 0.966579 0.989605 0.689728
O O11 0.382554 0.301451 0.433297
O O12 0.315720 0.463553 0.682443
O O13 0.414758 0.659961 0.304072
O O14 0.311022 0.564813 0.965501
O O15 0.500000 0.500000 0.500000
O O16 0.567410 0.950772 0.301230
O O17 0.000000 0.500000 0.000000
#
# Coordination Sequence:
#
# PCOD8002863 Si02
#       8
#     2   2   2   2   2   2   2   2
#     4  10  22  39  65  93 136 179 215 273 331 395
#     4  11  24  38  64  99 136 176 225 272 333 401
#     4  10  21  42  67  97 138 179 223 269 338 396
#     4  11  25  44  65 101 133 177 227 279 334 397
#     4  11  24  44  68 102 131 177 226 273 341 398
#     4  11  26  47  73  97 132 172 224 287 340 400
#     4  10  25  45  70  98 133 176 225 283 333 400
#     4  10  20  36  59  93 132 175 213 271 325 390
#
# _framework density 25.103684999999999
#
# number of rings (size 3 to 8) (size 9 to 14) (size 15 to 20)
#    0.000    1.500    2.500    1.875    3.500    6.500 
#    0.000    2.500    0.000    0.000    0.000    0.000 
#    0.000    0.000    0.000    0.000    0.000    0.000 
#
# Total GULP energy -198360.468443 kJ/mol
# GULP energy per Si atom -12397.529278 kJ/mol
# Density = 2.504655 g / cm^3
# Si number density = 25.103685 Si / 1000 Ang^3
#
#
#
# Elastic Constant Matrix: (Units=GPa)
#
#
# Indices 1 2 3 4 5 6 
#
# 1 105.4030 7.7424 -0.8718 -10.9533 -3.6817 -1.5458
# 2 7.7424 93.6301 -2.6604 9.8447 0.8423 -0.5031
# 3 -0.8718 -2.6604 66.8005 -2.2570 -8.5120 3.6192
# 4 -10.9533 9.8447 -2.2570 17.7229 8.6971 -4.2494
# 5 -3.6817 0.8423 -8.5120 8.6971 39.3496 5.7344
# 6 -1.5458 -0.5031 3.6192 -4.2494 5.7344 30.2554
#
#
#
# Elastic Compliance Matrix: (Units=1/GPa)
#
#
# Indices 1 2 3 4 5 6 
#
# 1 0.010483 -0.001732 0.000111 0.008448 -0.001100 0.001889
# 2 -0.001732 0.011738 0.000468 -0.008813 0.001860 -0.001540
# 3 0.000111 0.000468 0.015613 -0.000791 0.003948 -0.002714
# 4 0.008448 -0.008813 -0.000791 0.079355 -0.018934 0.015114
# 5 -0.001100 0.001860 0.003948 -0.018934 0.031643 -0.009154
# 6 0.001889 -0.001540 -0.002714 0.015114 -0.009154 0.037305
#
#
# Mechanical properties :
#
#
# Convention : Reuss Voigt Hill
#
# Bulk Modulus (GPa) = 28.14736 30.47268 29.31002
# Shear Modulus (GPa) = 24.96414 34.90713 29.93564
#
# Velocity S-wave (km/s) = 3.15690 3.73301 3.45698
# Velocity P-wave (km/s) = 4.95225 5.54487 5.25692
#
# Compressibility (1/GPa) = 0.03552731
#
# Stress axis : x y z
#
# Youngs Moduli (GPa) = 95.39591 85.18996 64.04761
#
# Poissons Ratio (x) = 0.14754 -0.00709
# Poissons Ratio (y) = 0.16521 -0.02995
# Poissons Ratio (z) = -0.01056 -0.03983
#
# Static dielectric constant tensor:
#      x y z
#    x 4.993290 -0.174230 -0.564460 
#    y -0.174230 4.600750 0.173300 
#    z -0.564460 0.173300 4.989550 
# 
# 
# High freq. dielectric constant tensor:
#      x y z
#    x 2.010520 0.000380 -0.015500 
#    y 0.000380 2.004300 0.016950 
#    z -0.015500 0.016950 1.997180 
# 
# From -- ./inp_files/448407.got.cif
#   From: 2010.06.25/outbox.cif.g09.slc.cpg/sg2_225_cif.got.tgz:448407.got - 2010.06.27 13:26:56.
