data_PCOD8002597
_publ_section_title
;
Structure prediction by ZEFSAII (Michael W. Deem and Ramdas Pophale) SiO2 
 PCOD8002597
Probable space group: P -1
;
_chemical_formula_sum "Si O2"
_cell_formula_units_Z 16
_cell_length_a 13.580072
_cell_length_b 15.015712
_cell_length_c 19.109785
_cell_angle_alpha 29.993203
_cell_angle_beta 25.961388
_cell_angle_gamma 46.209150
_cell_volume 783.045986
_symmetry_space_group_name_H-M "P -1"
_symmetry_group_IT_number 2
_symmetry_cell_setting 'triclinic'
loop_
_space_group_symop_operation_xyz
x,y,z
-x,-y,-z
loop_
_atom_site_type_symbol
_atom_site_label
_atom_site_fract_x
_atom_site_fract_y
_atom_site_fract_z
Si Si1 0.961648 0.331772 0.889417
Si Si2 0.819123 0.606251 0.553425
Si Si3 0.629880 0.668228 0.052959
Si Si4 0.106486 0.916707 0.426080
Si Si5 0.929432 0.402422 0.240813
Si Si6 0.527011 0.597573 0.545660
Si Si7 0.189774 0.083294 0.759496
Si Si8 0.787130 0.606248 0.734074
O O1 0.899928 0.446696 0.787230
O O2 0.915294 0.408342 0.941651
O O3 0.243832 0.355637 0.684433
O O4 0.778865 0.104308 0.164488
O O5 0.546769 0.446705 0.819370
O O6 0.893517 0.797395 0.326615
O O7 0.837856 0.675707 0.574292
O O8 0.000000 0.500000 0.500000
O O9 0.506962 0.591665 0.258325
O O10 0.888203 0.644370 0.895699
O O11 0.674552 0.895689 0.873108
O O12 0.207029 0.769895 0.498756
O O13 0.903885 0.797389 0.578596
O O14 0.000000 0.000000 0.500000
O O15 0.722155 0.444313 0.305688
O O16 0.562870 0.769887 0.461459
O O17 0.000000 0.000000 0.000000
O O18 0.500000 0.500000 0.000000
#
# Coordination Sequence:
#
# PCOD8002597 Si02
#       8
#     2   2   2   2   2   2   2   2
#     4  10  21  38  55  81 115 144 188 241 282 340
#     4  11  22  39  62  88 118 157 197 241 295 350
#     4  10  21  38  55  81 115 144 188 241 282 340
#     4   9  20  37  57  84 115 149 193 240 288 345
#     4  10  20  36  56  79 108 148 185 228 287 341
#     4  10  20  36  56  79 108 148 185 228 287 341
#     4   9  20  37  57  84 115 149 193 240 288 345
#     4  11  22  39  62  88 118 157 197 241 295 350
#
# _framework density 20.433026999999999
#
# number of rings (size 3 to 8) (size 9 to 14) (size 15 to 20)
#    0.000    2.000    0.000    5.250    0.000    6.000 
#    0.000   11.250    0.000    0.000    0.000    0.000 
#    0.000    0.000    0.000    0.000    0.000    0.000 
#
# Total GULP energy -198286.284023 kJ/mol
# GULP energy per Si atom -12392.892751 kJ/mol
# Density = 2.038652 g / cm^3
# Si number density = 20.433027 Si / 1000 Ang^3
#
#
#
# Elastic Constant Matrix: (Units=GPa)
#
#
# Indices 1 2 3 4 5 6 
#
# 1 120.5015 24.6369 34.1641 -17.1953 4.3228 5.5317
# 2 24.6369 69.7613 23.9245 -19.1517 -0.6661 4.2232
# 3 34.1641 23.9245 96.7173 -29.3075 6.0113 3.1002
# 4 -17.1953 -19.1517 -29.3075 46.4568 -2.6411 -5.0377
# 5 4.3228 -0.6661 6.0113 -2.6411 28.3070 3.9286
# 6 5.5317 4.2232 3.1002 -5.0377 3.9286 30.5370
#
#
#
# Elastic Compliance Matrix: (Units=1/GPa)
#
#
# Indices 1 2 3 4 5 6 
#
# 1 0.009671 -0.002255 -0.002499 0.000928 -0.000783 -0.000933
# 2 -0.002255 0.017288 -0.002047 0.004975 0.001815 -0.001187
# 3 -0.002499 -0.002047 0.013954 0.006996 -0.002080 0.000741
# 4 0.000928 0.004975 0.006996 0.028709 0.000742 0.003074
# 5 -0.000783 0.001815 -0.002080 0.000742 0.036623 -0.004487
# 6 -0.000933 -0.001187 0.000741 0.003074 -0.004487 0.034090
#
#
# Mechanical properties :
#
#
# Convention : Reuss Voigt Hill
#
# Bulk Modulus (GPa) = 36.61352 50.27012 43.44182
# Shear Modulus (GPa) = 30.66723 34.67712 32.67218
#
# Velocity S-wave (km/s) = 3.87830 4.12407 4.00307
# Velocity P-wave (km/s) = 6.16544 6.87990 6.53245
#
# Compressibility (1/GPa) = 0.02731231
#
# Stress axis : x y z
#
# Youngs Moduli (GPa) = 103.39717 57.84334 71.66419
#
# Poissons Ratio (x) = 0.13043 0.17907
# Poissons Ratio (y) = 0.23315 0.14670
# Poissons Ratio (z) = 0.25836 0.11841
#
# Static dielectric constant tensor:
#      x y z
#    x 3.606540 0.042600 0.026610 
#    y 0.042600 3.955860 -0.655410 
#    z 0.026610 -0.655410 4.319200 
# 
# 
# High freq. dielectric constant tensor:
#      x y z
#    x 1.805800 0.004000 0.003020 
#    y 0.004000 1.786850 -0.017680 
#    z 0.003020 -0.017680 1.796680 
# 
# From -- ./inp_files/569931.got.cif
#   From: 2010.06.25/outbox.cif.g09.slc.cpg/sg2_285_cif.got.tgz:569931.got - 2010.06.27 13:26:56.
