data_PCOD8002474
_publ_section_title
;
Structure prediction by ZEFSAII (Michael W. Deem and Ramdas Pophale) SiO2 
 PCOD8002474
Probable space group: P -1
;
_chemical_formula_sum "Si O2"
_cell_formula_units_Z 10
_cell_length_a 10.066559
_cell_length_b 9.053596
_cell_length_c 8.686481
_cell_angle_alpha 81.537993
_cell_angle_beta 125.839653
_cell_angle_gamma 137.009234
_cell_volume 376.791639
_symmetry_space_group_name_H-M "P -1"
_symmetry_group_IT_number 2
_symmetry_cell_setting 'triclinic'
loop_
_space_group_symop_operation_xyz
x,y,z
-x,-y,-z
loop_
_atom_site_type_symbol
_atom_site_label
_atom_site_fract_x
_atom_site_fract_y
_atom_site_fract_z
Si Si1 0.496454 0.221096 0.360532
Si Si2 0.016618 0.247849 0.376479
Si Si3 0.735417 0.874048 0.487631
Si Si4 0.259345 0.302662 0.990038
Si Si5 0.948064 0.289038 0.986210
O O1 0.817474 0.482861 0.488060
O O2 0.526187 0.284762 0.555340
O O3 0.294009 0.183785 0.137733
O O4 0.348585 0.953467 0.268779
O O5 0.900535 0.182107 0.137822
O O6 0.757762 0.012642 0.343992
O O7 0.248601 0.283560 0.542625
O O8 0.985554 0.081314 0.741925
O O9 0.500000 0.500000 0.000000
O O10 0.211921 0.411938 0.054143
O O11 0.000000 0.500000 0.000000
#
# Coordination Sequence:
#
# PCOD8002474 Si02
#       5
#     2   2   2   2   2
#     4  11  21  40  64  91 125 163 214 258 303 367
#     4  11  21  36  66  95 120 162 212 260 308 362
#     4  10  20  35  63 100 121 153 215 270 298 358
#     4  11  20  40  68  94 122 165 212 258 308 367
#     4  11  25  43  61  92 134 166 201 257 318 374
#
# _framework density 26.539868999999999
#
# number of rings (size 3 to 8) (size 9 to 14) (size 15 to 20)
#    0.000    1.200    6.000    1.800    0.000    0.800 
#    0.000    5.000    0.000    0.000    0.000    0.000 
#    0.000    0.000    0.000    0.000    0.000    0.000 
#
# Total GULP energy -123947.453627 kJ/mol
# GULP energy per Si atom -12394.745363 kJ/mol
# Density = 2.647946 g / cm^3
# Si number density = 26.539869 Si / 1000 Ang^3
#
#
#
# Elastic Constant Matrix: (Units=GPa)
#
#
# Indices 1 2 3 4 5 6 
#
# 1 65.5679 42.3136 24.4287 -15.4686 -23.6418 -5.2374
# 2 42.3136 136.3964 12.5122 -4.6618 -31.5632 2.2007
# 3 24.4287 12.5122 52.3274 -20.0086 -32.5371 9.4181
# 4 -15.4686 -4.6618 -20.0086 39.7210 8.4134 -23.9829
# 5 -23.6418 -31.5632 -32.5371 8.4134 31.7083 -0.4919
# 6 -5.2374 2.2007 9.4181 -23.9829 -0.4919 38.7967
#
#
#
# Elastic Compliance Matrix: (Units=1/GPa)
#
#
# Indices 1 2 3 4 5 6 
#
# 1 0.028396 -0.006868 -0.005166 0.015829 0.005072 0.015326
# 2 -0.006868 0.014111 0.016671 -0.002445 0.026573 -0.006949
# 3 -0.005166 0.016671 0.085108 0.015639 0.095749 -0.011422
# 4 0.015829 -0.002445 0.015639 0.057137 0.010782 0.033936
# 5 0.005072 0.026573 0.095749 0.010782 0.156923 -0.015411
# 6 0.015326 -0.006949 -0.011422 0.033936 -0.015411 0.051794
#
#
# Mechanical properties :
#
#
# Convention : Reuss Voigt Hill
#
# Bulk Modulus (GPa) = 7.30517 45.86674 26.58596
# Shear Modulus (GPa) = 11.63270 33.71436 22.67353
#
# Velocity S-wave (km/s) = 2.09586 3.56803 2.92605
# Velocity P-wave (km/s) = 2.93519 5.85613 4.63193
#
# Compressibility (1/GPa) = 0.13688930
#
# Stress axis : x y z
#
# Youngs Moduli (GPa) = 35.21680 70.86856 11.74977
#
# Poissons Ratio (x) = 0.48670 0.06070
# Poissons Ratio (y) = 0.24186 -0.19588
# Poissons Ratio (z) = 0.18193 -1.18147
#
# Static dielectric constant tensor:
#      x y z
#    x 5.591070 0.705960 -0.568860 
#    y 0.705960 5.303920 -0.107640 
#    z -0.568860 -0.107640 4.967720 
# 
# 
# High freq. dielectric constant tensor:
#      x y z
#    x 2.019350 0.015290 -0.032720 
#    y 0.015290 2.089210 0.012780 
#    z -0.032720 0.012780 2.080410 
# 
# From -- ./inp_files/144126.got.cif
#   From: 2010.06.25/outbox.cif.g09.slc.cpg/sg2_73_cif.got.tgz:144126.got - 2010.06.27 13:26:56.
