data_PCOD8002702
_publ_section_title
;
Structure prediction by ZEFSAII (Michael W. Deem and Ramdas Pophale) SiO2 
 PCOD8002702
Probable space group: P -1
;
_chemical_formula_sum "Si O2"
_cell_formula_units_Z 16
_cell_length_a 20.682537
_cell_length_b 12.154154
_cell_length_c 12.114512
_cell_angle_alpha 137.126573
_cell_angle_beta 31.820912
_cell_angle_gamma 148.668574
_cell_volume 834.666445
_symmetry_space_group_name_H-M "P -1"
_symmetry_group_IT_number 2
_symmetry_cell_setting 'triclinic'
loop_
_space_group_symop_operation_xyz
x,y,z
-x,-y,-z
loop_
_atom_site_type_symbol
_atom_site_label
_atom_site_fract_x
_atom_site_fract_y
_atom_site_fract_z
Si Si1 0.723522 0.773853 0.083657
Si Si2 0.341701 0.769575 0.090552
Si Si3 0.569625 0.913505 0.265023
Si Si4 0.967631 0.781090 0.080862
Si Si5 0.911773 0.261853 0.922899
Si Si6 0.291701 0.590856 0.264872
Si Si7 0.346358 0.421715 0.729623
Si Si8 0.033813 0.583787 0.274399
O O1 0.609794 0.804465 0.210731
O O2 0.668277 0.709792 0.242517
O O3 0.718301 0.602002 0.899781
O O4 0.903667 0.990786 0.991485
O O5 0.323843 0.737453 0.223933
O O6 0.183468 0.726459 0.245055
O O7 0.359474 0.614465 0.892096
O O8 0.500000 0.000000 0.000000
O O9 0.437685 0.733717 0.241578
O O10 0.500000 0.000000 0.500000
O O11 0.724706 0.105970 0.113684
O O12 0.798452 0.715799 0.248633
O O13 0.996689 0.800959 0.186570
O O14 0.989764 0.619794 0.881801
O O15 0.929681 0.258931 0.762982
O O16 0.000000 0.500000 0.000000
O O17 0.125886 0.497554 0.493127
O O18 0.500000 0.500000 0.500000
#
# Coordination Sequence:
#
# PCOD8002702 Si02
#       8
#     2   2   2   2   2   2   2   2
#     4  10  22  38  55  81 116 147 184 235 283 333
#     4  10  22  38  56  82 117 151 190 236 279 332
#     4  11  22  38  61  84 109 150 190 229 282 342
#     4   9  19  37  56  79 110 148 189 228 273 335
#     4   9  18  34  56  83 108 137 187 238 270 317
#     4  11  22  37  56  84 115 148 186 234 289 333
#     4  10  22  36  56  83 113 149 189 233 281 328
#     4  10  20  36  58  82 111 150 191 231 277 336
#
# _framework density 19.169333000000002
#
# number of rings (size 3 to 8) (size 9 to 14) (size 15 to 20)
#    0.000    2.000    0.000    4.125    0.000    7.000 
#    0.000    2.500    0.000    0.000    0.000    0.000 
#    0.000    0.000    0.000    0.000    0.000    0.000 
#
# Total GULP energy -198381.916305 kJ/mol
# GULP energy per Si atom -12398.869769 kJ/mol
# Density = 1.912570 g / cm^3
# Si number density = 19.169333 Si / 1000 Ang^3
#
#
#
# Elastic Constant Matrix: (Units=GPa)
#
#
# Indices 1 2 3 4 5 6 
#
# 1 172.6238 75.7744 83.5101 -31.5567 -9.2956 -2.0143
# 2 75.7744 125.3854 50.8679 -35.5380 -3.3025 -1.0188
# 3 83.5101 50.8679 120.0847 -35.5092 -3.6237 -6.3656
# 4 -31.5567 -35.5380 -35.5092 34.5790 1.0801 -0.8874
# 5 -9.2956 -3.3025 -3.6237 1.0801 24.8095 -10.1977
# 6 -2.0143 -1.0188 -6.3656 -0.8874 -10.1977 36.1308
#
#
#
# Elastic Compliance Matrix: (Units=1/GPa)
#
#
# Indices 1 2 3 4 5 6 
#
# 1 0.010282 -0.004058 -0.005488 -0.000499 0.002623 0.000220
# 2 -0.004058 0.013202 0.000249 0.010132 0.000014 0.000443
# 3 -0.005488 0.000249 0.015561 0.011273 0.000992 0.002999
# 4 -0.000499 0.010132 0.011273 0.050488 0.002310 0.004136
# 5 0.002623 0.000014 0.000992 0.002310 0.046937 0.013626
# 6 0.000220 0.000443 0.002999 0.004136 0.013626 0.032178
#
#
# Mechanical properties :
#
#
# Convention : Reuss Voigt Hill
#
# Bulk Modulus (GPa) = 48.89499 93.15542 71.02520
# Shear Modulus (GPa) = 25.76565 32.96662 29.36613
#
# Velocity S-wave (km/s) = 3.67018 4.15150 3.91824
# Velocity P-wave (km/s) = 6.59717 8.46649 7.58960
#
# Compressibility (1/GPa) = 0.02045199
#
# Stress axis : x y z
#
# Youngs Moduli (GPa) = 97.26123 75.74498 64.26385
#
# Poissons Ratio (x) = 0.30735 0.35269
# Poissons Ratio (y) = 0.39465 -0.01603
# Poissons Ratio (z) = 0.53378 -0.01889
#
# Static dielectric constant tensor:
#      x y z
#    x -0.469920 0.667980 1.329620 
#    y 0.667980 3.506930 -0.324590 
#    z 1.329620 -0.324590 2.948080 
# 
# 
# High freq. dielectric constant tensor:
#      x y z
#    x 1.771480 0.000600 -0.000140 
#    y 0.000600 1.756600 -0.014730 
#    z -0.000140 -0.014730 1.729070 
# 
# From -- ./inp_files/176380.got.cif
#   From: 2010.06.25/outbox.cif.g09.slc.cpg/sg2_89_cif.got.tgz:176380.got - 2010.06.27 13:26:56.
