data_PCOD8002143
_publ_section_title
;
Structure prediction by ZEFSAII (Michael W. Deem and Ramdas Pophale) SiO2 
 PCOD8002143
Probable space group: P -1
;
_chemical_formula_sum "Si O2"
_cell_formula_units_Z 16
_cell_length_a 11.741846
_cell_length_b 12.940322
_cell_length_c 18.035958
_cell_angle_alpha 140.812561
_cell_angle_beta 40.622912
_cell_angle_gamma 108.604414
_cell_volume 852.353336
_symmetry_space_group_name_H-M "P -1"
_symmetry_group_IT_number 2
_symmetry_cell_setting 'triclinic'
loop_
_space_group_symop_operation_xyz
x,y,z
-x,-y,-z
loop_
_atom_site_type_symbol
_atom_site_label
_atom_site_fract_x
_atom_site_fract_y
_atom_site_fract_z
Si Si1 0.113114 0.843560 0.232478
Si Si2 0.835128 0.679603 0.118222
Si Si3 0.270104 0.327833 0.114317
Si Si4 0.576226 0.526964 0.751781
Si Si5 0.923324 0.432887 0.799389
Si Si6 0.848669 0.570707 0.541514
Si Si7 0.271804 0.102261 0.331241
Si Si8 0.307731 0.900769 0.518807
O O1 0.151875 0.688872 0.192086
O O2 0.155902 0.995482 0.329040
O O3 0.297543 0.689628 0.989772
O O4 0.848478 0.995206 0.420169
O O5 0.576108 0.766877 0.295133
O O6 0.806726 0.893143 0.256060
O O7 0.951247 0.561077 0.916795
O O8 0.000000 0.500000 0.000000
O O9 0.320461 0.445396 0.211774
O O10 0.273005 0.401129 0.071212
O O11 0.023332 0.394322 0.293861
O O12 0.457149 0.071332 0.883636
O O13 0.634740 0.585064 0.677937
O O14 0.701610 0.274994 0.540374
O O15 0.163635 0.270223 0.545641
O O16 0.754379 0.799321 0.682099
O O17 0.000000 0.500000 0.500000
#
# Coordination Sequence:
#
# PCOD8002143 Si02
#       8
#     2   2   2   2   2   2   2   2
#     4  11  21  34  53  86 114 144 183 215 273 330
#     4  11  23  39  55  77 109 144 187 227 270 327
#     4   9  21  35  54  84 113 152 181 214 273 324
#     4  10  20  35  56  82 115 141 184 228 263 321
#     4  11  21  36  52  79 118 143 181 225 264 336
#     4   9  18  35  53  79 114 145 188 224 260 315
#     4  10  22  34  55  82 115 155 176 217 273 323
#     4  11  21  36  57  79 108 144 183 225 280 315
#
# _framework density 18.771557999999999
#
# number of rings (size 3 to 8) (size 9 to 14) (size 15 to 20)
#    0.000    1.750    2.500    2.625    1.750    7.500 
#    0.000    0.000    0.000    3.000    0.000   15.750 
#    0.000    0.000    0.000    0.000    0.000    0.000 
#
# Total GULP energy -198253.239846 kJ/mol
# GULP energy per Si atom -12390.827490 kJ/mol
# Density = 1.872883 g / cm^3
# Si number density = 18.771558 Si / 1000 Ang^3
#
#
#
# Elastic Constant Matrix: (Units=GPa)
#
#
# Indices 1 2 3 4 5 6 
#
# 1 71.4477 33.7295 50.1727 -0.9936 2.4989 -16.1946
# 2 33.7295 112.9162 59.7217 -2.5314 2.4679 -23.6418
# 3 50.1727 59.7217 134.7400 13.2419 -1.7762 -13.4090
# 4 -0.9936 -2.5314 13.2419 27.9261 5.2513 -0.5044
# 5 2.4989 2.4679 -1.7762 5.2513 42.7558 9.7891
# 6 -16.1946 -23.6418 -13.4090 -0.5044 9.7891 20.3242
#
#
#
# Elastic Compliance Matrix: (Units=1/GPa)
#
#
# Indices 1 2 3 4 5 6 
#
# 1 0.023733 0.001574 -0.008417 0.006617 -0.006918 0.018685
# 2 0.001574 0.016052 -0.006513 0.006135 -0.006357 0.018845
# 3 -0.008417 -0.006513 0.013556 -0.008239 0.004172 -0.007553
# 4 0.006617 0.006135 -0.008239 0.042451 -0.009143 0.012431
# 5 -0.006918 -0.006357 0.004172 -0.009143 0.031283 -0.025449
# 6 0.018685 0.018845 -0.007553 0.012431 -0.025449 0.093594
#
#
# Mechanical properties :
#
#
# Convention : Reuss Voigt Hill
#
# Bulk Modulus (GPa) = 37.55152 67.37243 52.46197
# Shear Modulus (GPa) = 19.51169 29.89989 24.70579
#
# Velocity S-wave (km/s) = 3.22751 3.99536 3.63179
# Velocity P-wave (km/s) = 5.82555 7.56653 6.75239
#
# Compressibility (1/GPa) = 0.02663008
#
# Stress axis : x y z
#
# Youngs Moduli (GPa) = 42.13534 62.29574 73.77051
#
# Poissons Ratio (x) = -0.09807 0.62094
# Poissons Ratio (y) = -0.06633 0.48044
# Poissons Ratio (z) = 0.35466 0.40571
#
# Static dielectric constant tensor:
#      x y z
#    x 3.283360 -0.037180 -0.094170 
#    y -0.037180 3.738080 -0.066290 
#    z -0.094170 -0.066290 3.913180 
# 
# 
# High freq. dielectric constant tensor:
#      x y z
#    x 1.695520 -0.012870 -0.010820 
#    y -0.012870 1.720780 0.010810 
#    z -0.010820 0.010810 1.749070 
# 
# From -- ./inp_files/433102.got.cif
#   From: 2010.06.25/outbox.cif.g09.slc.cpg/sg2_217_cif.got.tgz:433102.got - 2010.06.27 13:26:56.
