data_PCOD8002477
_publ_section_title
;
Structure prediction by ZEFSAII (Michael W. Deem and Ramdas Pophale) SiO2 
 PCOD8002477
Probable space group: P -1
;
_chemical_formula_sum "Si O2"
_cell_formula_units_Z 16
_cell_length_a 13.757708
_cell_length_b 14.769851
_cell_length_c 9.542824
_cell_angle_alpha 112.170546
_cell_angle_beta 104.028989
_cell_angle_gamma 23.421285
_cell_volume 684.780712
_symmetry_space_group_name_H-M "P -1"
_symmetry_group_IT_number 2
_symmetry_cell_setting 'triclinic'
loop_
_space_group_symop_operation_xyz
x,y,z
-x,-y,-z
loop_
_atom_site_type_symbol
_atom_site_label
_atom_site_fract_x
_atom_site_fract_y
_atom_site_fract_z
Si Si1 0.380261 0.150743 0.825090
Si Si2 0.462353 0.768554 0.708169
Si Si3 0.738249 0.342426 0.655642
Si Si4 0.957561 0.282608 0.925076
Si Si5 0.585616 0.696238 0.246049
Si Si6 0.300520 0.246186 0.479024
Si Si7 0.747805 0.117225 0.573222
Si Si8 0.854373 0.548914 0.837130
O O1 0.497328 0.147102 0.803973
O O2 0.116942 0.363566 0.767319
O O3 0.582091 0.880482 0.711514
O O4 0.321842 0.211655 0.006273
O O5 0.510547 0.613767 0.679716
O O6 0.350564 0.869232 0.572634
O O7 0.716676 0.607998 0.704024
O O8 0.260259 0.993121 0.881676
O O9 0.849015 0.286826 0.805665
O O10 0.630356 0.331227 0.641149
O O11 0.947552 0.150369 0.491055
O O12 0.929652 0.407994 0.905540
O O13 0.811224 0.425132 0.104975
O O14 0.680526 0.660982 0.403288
O O15 0.342107 0.846981 0.288496
O O16 0.000000 0.500000 0.500000
O O17 0.500000 0.000000 0.500000
#
# Coordination Sequence:
#
# PCOD8002477 Si02
#       8
#     2   2   2   2   2   2   2   2
#     4   9  20  40  59  86 120 161 208 248 304 363
#     4  10  20  35  63  83 115 151 201 246 301 367
#     4   9  20  40  62  83 115 149 198 247 304 374
#     4   9  20  38  58  87 115 155 199 246 299 367
#     4  10  22  39  57  87 122 154 203 250 309 366
#     4  10  23  40  60  85 131 168 206 259 318 373
#     4  10  21  38  60  88 115 151 192 250 311 369
#     4   9  19  38  61  84 117 161 204 247 295 365
#
# _framework density 23.365143
#
# number of rings (size 3 to 8) (size 9 to 14) (size 15 to 20)
#    0.000    2.500    0.000    0.375    7.000    2.500 
#    2.250    2.500    0.000    0.000    0.000    0.000 
#    0.000    0.000    0.000    0.000    0.000    0.000 
#
# Total GULP energy -198234.762522 kJ/mol
# GULP energy per Si atom -12389.672658 kJ/mol
# Density = 2.331196 g / cm^3
# Si number density = 23.365143 Si / 1000 Ang^3
#
#
#
# Elastic Constant Matrix: (Units=GPa)
#
#
# Indices 1 2 3 4 5 6 
#
# 1 97.0258 11.5967 35.3011 17.3432 -9.4475 -10.3234
# 2 11.5967 62.9579 19.3522 19.2377 -0.7349 -2.0159
# 3 35.3011 19.3522 122.6043 36.6799 9.7308 -5.4337
# 4 17.3432 19.2377 36.6799 36.8409 -4.4597 7.3925
# 5 -9.4475 -0.7349 9.7308 -4.4597 31.6118 5.2102
# 6 -10.3234 -2.0159 -5.4337 7.3925 5.2102 28.0503
#
#
#
# Elastic Compliance Matrix: (Units=1/GPa)
#
#
# Indices 1 2 3 4 5 6 
#
# 1 0.012759 -0.000188 -0.002524 -0.003926 0.003270 0.004621
# 2 -0.000188 0.019590 0.001248 -0.012803 -0.002690 0.005454
# 3 -0.002524 0.001248 0.014849 -0.016986 -0.009043 0.008193
# 4 -0.003926 -0.012803 -0.016986 0.059423 0.016148 -0.024316
# 5 0.003270 -0.002690 -0.009043 0.016148 0.039648 -0.012362
# 6 0.004621 0.005454 0.008193 -0.024316 -0.012362 0.048034
#
#
# Mechanical properties :
#
#
# Convention : Reuss Voigt Hill
#
# Bulk Modulus (GPa) = 22.58946 46.12091 34.35518
# Shear Modulus (GPa) = 23.58610 33.72312 28.65461
#
# Velocity S-wave (km/s) = 3.18064 3.80321 3.50577
# Velocity P-wave (km/s) = 4.81432 6.25044 5.57878
#
# Compressibility (1/GPa) = 0.04426844
#
# Stress axis : x y z
#
# Youngs Moduli (GPa) = 78.37410 51.04563 67.34642
#
# Poissons Ratio (x) = 0.00962 0.16999
# Poissons Ratio (y) = 0.01477 -0.08403
# Poissons Ratio (z) = 0.19783 -0.06369
#
# Static dielectric constant tensor:
#      x y z
#    x 4.063050 -0.096090 0.212150 
#    y -0.096090 4.013150 0.248360 
#    z 0.212150 0.248360 4.884810 
# 
# 
# High freq. dielectric constant tensor:
#      x y z
#    x 1.912280 -0.006490 0.018350 
#    y -0.006490 1.902600 0.014330 
#    z 0.018350 0.014330 1.937200 
# 
# From -- ./inp_files/441653.got.cif
#   From: 2010.06.25/outbox.cif.g09.slc.cpg/sg2_221_cif.got.tgz:441653.got - 2010.06.27 13:26:56.
