data_PCOD8002915
_publ_section_title
;
Structure prediction by ZEFSAII (Michael W. Deem and Ramdas Pophale) SiO2 
 PCOD8002915
Probable space group: P -1
;
_chemical_formula_sum "Si O2"
_cell_formula_units_Z 16
_cell_length_a 19.516228
_cell_length_b 10.147305
_cell_length_c 10.004139
_cell_angle_alpha 129.653120
_cell_angle_beta 32.891546
_cell_angle_gamma 120.654979
_cell_volume 826.748483
_symmetry_space_group_name_H-M "P -1"
_symmetry_group_IT_number 2
_symmetry_cell_setting 'triclinic'
loop_
_space_group_symop_operation_xyz
x,y,z
-x,-y,-z
loop_
_atom_site_type_symbol
_atom_site_label
_atom_site_fract_x
_atom_site_fract_y
_atom_site_fract_z
Si Si1 0.802629 0.948309 0.021237
Si Si2 0.415070 0.935806 0.715594
Si Si3 0.761005 0.705828 0.290918
Si Si4 0.616700 0.015154 0.619720
Si Si5 0.139990 0.419006 0.234416
Si Si6 0.262533 0.747768 0.233525
Si Si7 0.614637 0.399342 0.321903
Si Si8 0.047896 0.037103 0.796332
O O1 0.731060 0.006679 0.038818
O O2 0.712963 0.997091 0.325683
O O3 0.843940 0.746447 0.803055
O O4 0.929380 0.050448 0.898099
O O5 0.431423 0.728295 0.570262
O O6 0.500000 0.000000 0.500000
O O7 0.470542 0.020393 0.814159
O O8 0.704037 0.535078 0.336176
O O9 0.645912 0.850276 0.559770
O O10 0.878897 0.786945 0.225939
O O11 0.812118 0.649999 0.028768
O O12 0.635086 0.183672 0.786713
O O13 0.226655 0.567376 0.239883
O O14 0.000000 0.500000 0.500000
O O15 0.140542 0.876563 0.501583
O O16 0.312675 0.721468 0.984283
O O17 0.500000 0.500000 0.500000
O O18 0.000000 0.000000 0.000000
#
# Coordination Sequence:
#
# PCOD8002915 Si02
#       8
#     2   2   2   2   2   2   2   2
#     4  10  19  32  58  82 117 155 183 231 290 338
#     4  10  22  39  60  78 114 159 192 226 299 351
#     4   9  18  30  55  83 110 138 193 237 273 322
#     4   9  17  35  55  88 108 146 192 238 273 337
#     4  10  16  28  51  85 112 143 183 231 274 328
#     4  10  20  30  58  90 112 140 201 243 275 324
#     4  11  22  39  59  85 113 154 194 241 286 339
#     4  11  16  33  58  91 116 147 191 240 279 335
#
# _framework density 19.352922
#
# number of rings (size 3 to 8) (size 9 to 14) (size 15 to 20)
#    0.000    2.000    6.250    0.000    1.750    0.500 
#    0.000    1.875    0.000    0.000    0.000    0.000 
#    0.000    0.000    0.000    0.000    0.000    0.000 
#
# Total GULP energy -198221.758564 kJ/mol
# GULP energy per Si atom -12388.859910 kJ/mol
# Density = 1.930887 g / cm^3
# Si number density = 19.352922 Si / 1000 Ang^3
#
#
#
# Elastic Constant Matrix: (Units=GPa)
#
#
# Indices 1 2 3 4 5 6 
#
# 1 104.4653 74.8320 26.8783 2.8274 -36.4426 28.8347
# 2 74.8320 179.0318 33.5502 11.1974 -15.4351 23.1271
# 3 26.8783 33.5502 65.3136 9.9214 -11.2022 7.8116
# 4 2.8274 11.1974 9.9214 26.5840 4.6267 -0.0427
# 5 -36.4426 -15.4351 -11.2022 4.6267 32.9808 -3.5165
# 6 28.8347 23.1271 7.8116 -0.0427 -3.5165 41.3157
#
#
#
# Elastic Compliance Matrix: (Units=1/GPa)
#
#
# Indices 1 2 3 4 5 6 
#
# 1 0.027910 -0.007268 -0.001073 -0.004099 0.026265 -0.012976
# 2 -0.007268 0.008680 -0.002055 -0.001340 -0.004455 0.000222
# 3 -0.001073 -0.002055 0.018891 -0.006963 0.005113 -0.001245
# 4 -0.004099 -0.001340 -0.006963 0.043522 -0.013217 0.003847
# 5 0.026265 -0.004455 0.005113 -0.013217 0.059597 -0.011745
# 6 -0.012976 0.000222 -0.001245 0.003847 -0.011745 0.032376
#
#
# Mechanical properties :
#
#
# Convention : Reuss Voigt Hill
#
# Bulk Modulus (GPa) = 28.82645 68.81464 48.82055
# Shear Modulus (GPa) = 22.38842 34.41277 28.40059
#
# Velocity S-wave (km/s) = 3.40494 4.22141 3.83496
# Velocity P-wave (km/s) = 5.51232 7.70684 6.70004
#
# Compressibility (1/GPa) = 0.03469036
#
# Stress axis : x y z
#
# Youngs Moduli (GPa) = 35.82930 115.21327 52.93446
#
# Poissons Ratio (x) = 0.83734 0.05680
# Poissons Ratio (y) = 0.26040 0.10876
# Poissons Ratio (z) = 0.03844 0.23671
#
# Static dielectric constant tensor:
#      x y z
#    x 3.598590 0.346030 -0.342590 
#    y 0.346030 4.512130 0.049960 
#    z -0.342590 0.049960 3.671300 
# 
# 
# High freq. dielectric constant tensor:
#      x y z
#    x 1.713780 0.030840 -0.017540 
#    y 0.030840 1.767400 0.000870 
#    z -0.017540 0.000870 1.742800 
# 
# From -- ./inp_files/269561.got.cif
#   From: 2010.06.25/outbox.cif.g09.slc.cpg/sg2_135_cif.got.tgz:269561.got - 2010.06.27 13:26:56.
