data_PCOD8002510
_publ_section_title
;
Structure prediction by ZEFSAII (Michael W. Deem and Ramdas Pophale) SiO2 
 PCOD8002510
Probable space group: P -1
;
_chemical_formula_sum "Si O2"
_cell_formula_units_Z 14
_cell_length_a 16.693129
_cell_length_b 13.889176
_cell_length_c 10.071369
_cell_angle_alpha 42.270494
_cell_angle_beta 52.148684
_cell_angle_gamma 25.420301
_cell_volume 661.991381
_symmetry_space_group_name_H-M "P -1"
_symmetry_group_IT_number 2
_symmetry_cell_setting 'triclinic'
loop_
_space_group_symop_operation_xyz
x,y,z
-x,-y,-z
loop_
_atom_site_type_symbol
_atom_site_label
_atom_site_fract_x
_atom_site_fract_y
_atom_site_fract_z
Si Si1 0.354540 0.536502 0.699116
Si Si2 0.048586 0.682495 0.870987
Si Si3 0.088948 0.099673 0.493773
Si Si4 0.157009 0.743916 0.197596
Si Si5 0.721251 0.702635 0.555385
Si Si6 0.967053 0.550503 0.684808
Si Si7 0.303296 0.732260 0.280251
O O1 0.361721 0.542830 0.524799
O O2 0.560874 0.291372 0.809436
O O3 0.256256 0.504058 0.870394
O O4 0.261986 0.792643 0.591020
O O5 0.018134 0.706749 0.720914
O O6 0.910708 0.963223 0.789017
O O7 0.016225 0.564513 0.083251
O O8 0.939421 0.187382 0.638053
O O9 0.150115 0.164139 0.454817
O O10 0.261337 0.489816 0.276825
O O11 0.313683 0.666656 0.181275
O O12 0.000000 0.000000 0.000000
O O13 0.820505 0.663757 0.367799
O O14 0.844275 0.603377 0.656146
O O15 0.500000 0.000000 0.500000
#
# Coordination Sequence:
#
# PCOD8002510 Si02
#       7
#     2   2   2   2   2   2   2
#     4  10  20  35  64  89 120 159 198 254 317 358
#     4  11  19  39  62  93 124 157 199 256 319 367
#     4  10  20  39  62  88 125 162 196 258 316 364
#     4  11  21  39  65  93 122 165 215 260 303 372
#     4  10  24  43  62  86 127 171 206 256 311 364
#     4  10  23  40  62  88 124 161 213 247 305 383
#     4  10  20  36  60  91 122 155 204 256 304 366
#
# _framework density 21.148312000000001
#
# number of rings (size 3 to 8) (size 9 to 14) (size 15 to 20)
#    0.000    1.714    2.857    2.143    2.000    1.143 
#    0.000    0.714    0.000    6.000    0.000    0.000 
#    0.000    0.000    0.000    0.000    0.000    0.000 
#
# Total GULP energy -173475.997204 kJ/mol
# GULP energy per Si atom -12391.142657 kJ/mol
# Density = 2.110018 g / cm^3
# Si number density = 21.148312 Si / 1000 Ang^3
#
#
#
# Elastic Constant Matrix: (Units=GPa)
#
#
# Indices 1 2 3 4 5 6 
#
# 1 112.8372 31.6857 12.2027 -3.7381 10.5414 3.6154
# 2 31.6857 83.3655 24.1518 1.0878 1.0297 -1.5544
# 3 12.2027 24.1518 85.6566 7.1582 3.3741 0.6455
# 4 -3.7381 1.0878 7.1582 23.3933 -1.2199 -3.0747
# 5 10.5414 1.0297 3.3741 -1.2199 28.3419 2.8945
# 6 3.6154 -1.5544 0.6455 -3.0747 2.8945 39.9696
#
#
#
# Elastic Compliance Matrix: (Units=1/GPa)
#
#
# Indices 1 2 3 4 5 6 
#
# 1 0.010387 -0.003824 -0.000398 0.001684 -0.003534 -0.000696
# 2 -0.003824 0.014492 -0.003596 -0.000005 0.001234 0.000878
# 3 -0.000398 -0.003596 0.013144 -0.004061 -0.001407 -0.000527
# 4 0.001684 -0.000005 -0.004061 0.044762 0.001452 0.003251
# 5 -0.003534 0.001234 -0.001407 0.001452 0.037005 -0.002178
# 6 -0.000696 0.000878 -0.000527 0.003251 -0.002178 0.025532
#
#
# Mechanical properties :
#
#
# Convention : Reuss Voigt Hill
#
# Bulk Modulus (GPa) = 44.66875 46.43774 45.55325
# Shear Modulus (GPa) = 29.68740 32.59557 31.14149
#
# Velocity S-wave (km/s) = 3.75076 3.93018 3.84152
# Velocity P-wave (km/s) = 6.31863 6.52693 6.42363
#
# Compressibility (1/GPa) = 0.02238701
#
# Stress axis : x y z
#
# Youngs Moduli (GPa) = 96.27055 69.00412 76.08073
#
# Poissons Ratio (x) = 0.26388 0.03027
# Poissons Ratio (y) = 0.36815 0.27360
# Poissons Ratio (z) = 0.03830 0.24815
#
# Static dielectric constant tensor:
#      x y z
#    x 4.049430 0.051800 0.002670 
#    y 0.051800 3.800420 0.136690 
#    z 0.002670 0.136690 3.771580 
# 
# 
# High freq. dielectric constant tensor:
#      x y z
#    x 1.849720 0.006540 0.000110 
#    y 0.006540 1.810770 0.015750 
#    z 0.000110 0.015750 1.808530 
# 
# From -- ./inp_files/227669.got.cif
#   From: 2010.06.25/outbox.cif.g09.slc.cpg/sg2_114_cif.got.tgz:227669.got - 2010.06.27 13:26:56.
