data_PCOD8002294
_publ_section_title
;
Structure prediction by ZEFSAII (Michael W. Deem and Ramdas Pophale) SiO2 
 PCOD8002294
Probable space group: P -1
;
_chemical_formula_sum "Si O2"
_cell_formula_units_Z 16
_cell_length_a 16.325197
_cell_length_b 14.979367
_cell_length_c 9.415845
_cell_angle_alpha 144.511315
_cell_angle_beta 146.252482
_cell_angle_gamma 45.221299
_cell_volume 739.927701
_symmetry_space_group_name_H-M "P -1"
_symmetry_group_IT_number 2
_symmetry_cell_setting 'triclinic'
loop_
_space_group_symop_operation_xyz
x,y,z
-x,-y,-z
loop_
_atom_site_type_symbol
_atom_site_label
_atom_site_fract_x
_atom_site_fract_y
_atom_site_fract_z
Si Si1 0.582787 0.378862 0.141163
Si Si2 0.091707 0.136788 0.593050
Si Si3 0.860926 0.219225 0.845491
Si Si4 0.372072 0.136074 0.523229
Si Si5 0.088347 0.148698 0.298944
Si Si6 0.801020 0.212772 0.443017
Si Si7 0.678355 0.895619 0.894942
Si Si8 0.576880 0.296613 0.710934
O O1 0.713939 0.349595 0.406631
O O2 0.541219 0.560122 0.309012
O O3 0.442279 0.290554 0.875160
O O4 0.634436 0.309023 0.971673
O O5 0.090246 0.232344 0.565533
O O6 0.932134 0.137685 0.436498
O O7 0.147603 0.963155 0.408223
O O8 0.208790 0.195388 0.949949
O O9 0.867044 0.281251 0.772130
O O10 0.713457 0.298656 0.805839
O O11 0.002173 0.258044 0.196696
O O12 0.255217 0.094125 0.419597
O O13 0.282359 0.170030 0.290952
O O14 0.500000 0.000000 0.500000
O O15 0.000000 0.000000 0.000000
O O16 0.692231 0.080175 0.153852
O O17 0.509735 0.857713 0.637100
#
# Coordination Sequence:
#
# PCOD8002294 Si02
#       8
#     2   2   2   2   2   2   2   2
#     4  10  23  39  60  83 125 153 203 235 301 353
#     4  10  21  34  58  91 121 149 200 249 300 341
#     4  10  21  34  59  83 121 152 197 239 296 350
#     4  11  21  35  61  90 115 154 194 247 292 348
#     4  10  21  34  57  89 121 150 191 246 296 348
#     4  11  20  36  60  91 115 157 196 255 289 350
#     4  10  20  35  59  84 123 147 199 243 295 344
#     4  10  23  40  56  87 118 167 190 244 292 362
#
# _framework density 21.623735
#
# number of rings (size 3 to 8) (size 9 to 14) (size 15 to 20)
#    0.000    1.750    1.250    4.500    7.000    3.500 
#    0.000    1.250    0.000    1.500    0.000    0.000 
#    0.000    0.000    0.000    0.000    0.000    0.000 
#
# Total GULP energy -198294.911895 kJ/mol
# GULP energy per Si atom -12393.431993 kJ/mol
# Density = 2.157452 g / cm^3
# Si number density = 21.623735 Si / 1000 Ang^3
#
#
#
# Elastic Constant Matrix: (Units=GPa)
#
#
# Indices 1 2 3 4 5 6 
#
# 1 149.4406 45.7087 45.9468 -23.9260 -10.2494 -2.6228
# 2 45.7087 87.3334 41.3157 -34.6649 -19.3680 11.6414
# 3 45.9468 41.3157 60.8280 -33.8983 -18.0498 9.9131
# 4 -23.9260 -34.6649 -33.8983 39.1004 16.9588 -11.1469
# 5 -10.2494 -19.3680 -18.0498 16.9588 31.0448 -11.6270
# 6 -2.6228 11.6414 9.9131 -11.1469 -11.6270 31.3597
#
#
#
# Elastic Compliance Matrix: (Units=1/GPa)
#
#
# Indices 1 2 3 4 5 6 
#
# 1 0.009407 -0.002906 -0.006587 -0.001352 -0.000581 0.003252
# 2 -0.002906 0.020083 -0.004576 0.010489 0.002595 -0.001561
# 3 -0.006587 -0.004576 0.039204 0.023651 0.004391 -0.001210
# 4 -0.001352 0.010489 0.023651 0.061183 -0.011299 0.006075
# 5 -0.000581 0.002595 0.004391 -0.011299 0.046405 0.010789
# 6 0.003252 -0.001561 -0.001210 0.006075 0.010789 0.039282
#
#
# Mechanical properties :
#
#
# Convention : Reuss Voigt Hill
#
# Bulk Modulus (GPa) = 24.65812 62.61604 43.63708
# Shear Modulus (GPa) = 19.43853 31.27637 25.35745
#
# Velocity S-wave (km/s) = 3.00149 3.80727 3.42814
# Velocity P-wave (km/s) = 4.84148 6.95320 5.99112
#
# Compressibility (1/GPa) = 0.04055459
#
# Stress axis : x y z
#
# Youngs Moduli (GPa) = 106.30922 49.79333 25.50744
#
# Poissons Ratio (x) = 0.14469 0.16803
# Poissons Ratio (y) = 0.30892 0.11673
# Poissons Ratio (z) = 0.70031 0.22787
#
# Static dielectric constant tensor:
#      x y z
#    x 4.195200 0.524440 -0.524770 
#    y 0.524440 3.961610 -0.793880 
#    z -0.524770 -0.793880 4.286070 
# 
# 
# High freq. dielectric constant tensor:
#      x y z
#    x 1.851520 0.013070 -0.011660 
#    y 0.013070 1.826140 -0.042650 
#    z -0.011660 -0.042650 1.832050 
# 
# From -- ./inp_files/273321.got.cif
#   From: 2010.06.25/outbox.cif.g09.slc.cpg/sg2_137_cif.got.tgz:273321.got - 2010.06.27 13:26:56.
