data_PCOD8002315
_publ_section_title
;
Structure prediction by ZEFSAII (Michael W. Deem and Ramdas Pophale) SiO2 
 PCOD8002315
Probable space group: P -1
;
_chemical_formula_sum "Si O2"
_cell_formula_units_Z 16
_cell_length_a 16.998663
_cell_length_b 22.199458
_cell_length_c 12.711630
_cell_angle_alpha 161.612935
_cell_angle_beta 138.724030
_cell_angle_gamma 33.003033
_cell_volume 796.312455
_symmetry_space_group_name_H-M "P -1"
_symmetry_group_IT_number 2
_symmetry_cell_setting 'triclinic'
loop_
_space_group_symop_operation_xyz
x,y,z
-x,-y,-z
loop_
_atom_site_type_symbol
_atom_site_label
_atom_site_fract_x
_atom_site_fract_y
_atom_site_fract_z
Si Si1 0.356235 0.148718 0.729991
Si Si2 0.259178 0.067464 0.807075
Si Si3 0.330570 0.369008 0.275035
Si Si4 0.028865 0.472362 0.608891
Si Si5 0.677235 0.682266 0.246833
Si Si6 0.464847 0.578990 0.305803
Si Si7 0.732965 0.148041 0.752717
Si Si8 0.058332 0.804158 0.824009
O O1 0.279220 0.287816 0.775380
O O2 0.534124 0.943857 0.570442
O O3 0.270029 0.039700 0.491908
O O4 0.331145 0.345268 0.111378
O O5 0.361447 0.860483 0.649747
O O6 0.226618 0.942890 0.476782
O O7 0.365903 0.132084 0.974717
O O8 0.107255 0.283096 0.067342
O O9 0.433124 0.450388 0.542858
O O10 0.163832 0.564974 0.468493
O O11 0.186087 0.426017 0.713775
O O12 0.000000 0.500000 0.500000
O O13 0.050186 0.237845 0.291275
O O14 0.637217 0.498760 0.892761
O O15 0.574192 0.414441 0.045758
O O16 0.864816 0.152240 0.933758
O O17 0.000000 0.000000 0.000000
#
# Coordination Sequence:
#
# PCOD8002315 Si02
#       8
#     2   2   2   2   2   2   2   2
#     4   9  19  39  62  85 115 150 195 247 293 337
#     4  10  21  38  59  82 117 154 192 237 291 348
#     4   9  20  37  60  89 109 144 201 247 291 329
#     4  11  26  42  56  84 128 163 190 233 300 360
#     4  10  22  38  57  83 123 159 188 235 295 355
#     4  10  20  35  59  88 116 148 193 242 289 347
#     4   9  19  37  62  88 108 145 201 248 285 330
#     4  10  21  40  63  86 114 153 199 247 286 344
#
# _framework density 20.092614999999999
#
# number of rings (size 3 to 8) (size 9 to 14) (size 15 to 20)
#    0.000    2.250    0.000    1.500    3.500    3.000 
#    6.750    3.750    0.000    0.000    0.000    0.000 
#    0.000    0.000    0.000    0.000    0.000    0.000 
#
# Total GULP energy -198284.046013 kJ/mol
# GULP energy per Si atom -12392.752876 kJ/mol
# Density = 2.004688 g / cm^3
# Si number density = 20.092615 Si / 1000 Ang^3
#
#
#
# Elastic Constant Matrix: (Units=GPa)
#
#
# Indices 1 2 3 4 5 6 
#
# 1 57.7169 22.4152 25.1132 -11.2030 2.7432 3.7028
# 2 22.4152 74.7207 29.6251 -3.4981 0.6945 -0.1082
# 3 25.1132 29.6251 92.8788 -16.1991 -2.4154 2.4122
# 4 -11.2030 -3.4981 -16.1991 29.8798 8.8932 6.4177
# 5 2.7432 0.6945 -2.4154 8.8932 36.0004 -7.2140
# 6 3.7028 -0.1082 2.4122 6.4177 -7.2140 31.0365
#
#
#
# Elastic Compliance Matrix: (Units=1/GPa)
#
#
# Indices 1 2 3 4 5 6 
#
# 1 0.023057 -0.005282 -0.002930 0.009224 -0.005267 -0.005673
# 2 -0.005282 0.016571 -0.004428 -0.003128 0.000939 0.001897
# 3 -0.002930 -0.004428 0.014209 0.006877 -0.000919 -0.002406
# 4 0.009224 -0.003128 0.006877 0.048008 -0.015061 -0.015074
# 5 -0.005267 0.000939 -0.000919 -0.015061 0.034176 0.011761
# 6 -0.005673 0.001897 -0.002406 -0.015074 0.011761 0.038941
#
#
# Mechanical properties :
#
#
# Convention : Reuss Voigt Hill
#
# Bulk Modulus (GPa) = 35.01824 42.18036 38.59930
# Shear Modulus (GPa) = 23.83650 29.26087 26.54868
#
# Velocity S-wave (km/s) = 3.44805 3.82029 3.63893
# Velocity P-wave (km/s) = 5.77220 6.36381 6.07521
#
# Compressibility (1/GPa) = 0.02855655
#
# Stress axis : x y z
#
# Youngs Moduli (GPa) = 43.37043 60.34686 70.37686
#
# Poissons Ratio (x) = 0.31878 0.20622
# Poissons Ratio (y) = 0.22910 0.31160
# Poissons Ratio (z) = 0.12709 0.26719
#
# Static dielectric constant tensor:
#      x y z
#    x 2.777510 0.185670 -1.278970 
#    y 0.185670 3.478480 0.151530 
#    z -1.278970 0.151530 1.743380 
# 
# 
# High freq. dielectric constant tensor:
#      x y z
#    x 1.775440 0.003890 0.005730 
#    y 0.003890 1.775730 -0.008810 
#    z 0.005730 -0.008810 1.796980 
# 
# From -- ./inp_files/283292.got.cif
#   From: 2010.06.25/outbox.cif.g09.slc.cpg/sg2_142_cif.got.tgz:283292.got - 2010.06.27 13:26:56.
