data_PCOD8002346
_publ_section_title
;
Structure prediction by ZEFSAII (Michael W. Deem and Ramdas Pophale) SiO2 
 PCOD8002346
Probable space group: P -1
;
_chemical_formula_sum "Si O2"
_cell_formula_units_Z 14
_cell_length_a 5.385306
_cell_length_b 21.871405
_cell_length_c 17.021348
_cell_angle_alpha 19.713931
_cell_angle_beta 79.511752
_cell_angle_gamma 70.406555
_cell_volume 578.035399
_symmetry_space_group_name_H-M "P -1"
_symmetry_group_IT_number 2
_symmetry_cell_setting 'triclinic'
loop_
_space_group_symop_operation_xyz
x,y,z
-x,-y,-z
loop_
_atom_site_type_symbol
_atom_site_label
_atom_site_fract_x
_atom_site_fract_y
_atom_site_fract_z
Si Si1 0.602708 0.511324 0.695796
Si Si2 0.078564 0.145652 0.481701
Si Si3 0.276706 0.213584 0.542246
Si Si4 0.127917 0.755177 0.786121
Si Si5 0.418876 0.261670 0.108055
Si Si6 0.114687 0.115243 0.089747
Si Si7 0.903034 0.105855 0.794175
O O1 0.622140 0.619678 0.644891
O O2 0.917447 0.361215 0.820280
O O3 0.425947 0.700732 0.415628
O O4 0.431384 0.386550 0.878663
O O5 0.107276 0.281105 0.386940
O O6 0.859428 0.302664 0.237739
O O7 0.389564 0.989054 0.612815
O O8 0.542040 0.973142 0.811047
O O9 0.087022 0.213145 0.626547
O O10 0.958702 0.003024 0.696053
O O11 0.444073 0.661218 0.922778
O O12 0.912795 0.686247 0.924524
O O13 0.000000 0.000000 0.500000
O O14 0.057421 0.066859 0.063224
O O15 0.000000 0.000000 0.000000
#
# Coordination Sequence:
#
# PCOD8002346 Si02
#       7
#     2   2   2   2   2   2   2
#     4  10  23  41  64  95 133 168 221 275 330 400
#     4   9  19  34  59  87 129 172 219 267 324 391
#     4  10  22  39  66  90 128 169 218 272 334 397
#     4  10  20  35  59  98 131 179 228 280 320 393
#     4  10  22  35  62  95 133 177 230 272 335 386
#     4   9  21  39  63  95 125 172 217 263 338 393
#     4  10  23  44  65  93 129 167 215 273 338 407
#
# _framework density 24.21997
#
# number of rings (size 3 to 8) (size 9 to 14) (size 15 to 20)
#    0.000    2.286    0.000    1.714   10.000    5.143 
#    0.000    2.857    0.000    0.000    0.000    0.000 
#    0.000    0.000    0.000    0.000    0.000    0.000 
#
# Total GULP energy -173488.189062 kJ/mol
# GULP energy per Si atom -12392.013504 kJ/mol
# Density = 2.416484 g / cm^3
# Si number density = 24.219970 Si / 1000 Ang^3
#
#
#
# Elastic Constant Matrix: (Units=GPa)
#
#
# Indices 1 2 3 4 5 6 
#
# 1 102.0090 19.6237 12.6995 -1.5326 7.1324 8.7516
# 2 19.6237 92.5919 34.9135 7.5719 7.7548 2.6755
# 3 12.6995 34.9135 74.1137 -10.3883 16.6752 12.2701
# 4 -1.5326 7.5719 -10.3883 43.1085 1.8862 10.4358
# 5 7.1324 7.7548 16.6752 1.8862 29.1690 -1.5224
# 6 8.7516 2.6755 12.2701 10.4358 -1.5224 24.1711
#
#
#
# Elastic Compliance Matrix: (Units=1/GPa)
#
#
# Indices 1 2 3 4 5 6 
#
# 1 0.010896 -0.002642 0.001456 0.002746 -0.003274 -0.005784
# 2 -0.002642 0.015032 -0.009437 -0.006886 0.002868 0.007237
# 3 0.001456 -0.009437 0.026052 0.013318 -0.014613 -0.019378
# 4 0.002746 -0.006886 0.013318 0.033483 -0.009771 -0.022064
# 5 -0.003274 0.002868 -0.014613 -0.009771 0.044105 0.015283
# 6 -0.005784 0.007237 -0.019378 -0.022064 0.015283 0.062991
#
#
# Mechanical properties :
#
#
# Convention : Reuss Voigt Hill
#
# Bulk Modulus (GPa) = 32.53594 44.79866 38.66730
# Shear Modulus (GPa) = 22.31667 32.72158 27.51913
#
# Velocity S-wave (km/s) = 3.03878 3.67961 3.37444
# Velocity P-wave (km/s) = 5.07690 6.04892 5.58410
#
# Compressibility (1/GPa) = 0.03073525
#
# Stress axis : x y z
#
# Youngs Moduli (GPa) = 91.77410 66.52361 38.38537
#
# Poissons Ratio (x) = 0.17574 -0.05591
# Poissons Ratio (y) = 0.24244 0.36225
# Poissons Ratio (z) = -0.13367 0.62780
#
# Static dielectric constant tensor:
#      x y z
#    x 4.523090 0.119610 0.280370 
#    y 0.119610 4.553040 -0.323680 
#    z 0.280370 -0.323680 4.409120 
# 
# 
# High freq. dielectric constant tensor:
#      x y z
#    x 1.962680 0.008990 0.012280 
#    y 0.008990 1.944660 -0.011950 
#    z 0.012280 -0.011950 1.945310 
# 
# From -- ./inp_files/551184.got.cif
#   From: 2010.06.25/outbox.cif.g09.slc.cpg/sg2_276_cif.got.tgz:551184.got - 2010.06.27 13:26:56.
