data_PCOD8002782
_publ_section_title
;
Structure prediction by ZEFSAII (Michael W. Deem and Ramdas Pophale) SiO2 
 PCOD8002782
Probable space group: P -1
;
_chemical_formula_sum "Si O2"
_cell_formula_units_Z 8
_cell_length_a 9.661587
_cell_length_b 6.728623
_cell_length_c 8.627342
_cell_angle_alpha 81.667950
_cell_angle_beta 84.014157
_cell_angle_gamma 51.451566
_cell_volume 433.934831
_symmetry_space_group_name_H-M "P -1"
_symmetry_group_IT_number 2
_symmetry_cell_setting 'triclinic'
loop_
_space_group_symop_operation_xyz
x,y,z
-x,-y,-z
loop_
_atom_site_type_symbol
_atom_site_label
_atom_site_fract_x
_atom_site_fract_y
_atom_site_fract_z
Si Si1 0.315480 0.980689 0.668365
Si Si2 0.711423 0.673807 0.619989
Si Si3 0.968096 0.531222 0.180882
Si Si4 0.150919 0.743222 0.596813
O O1 0.268208 0.134114 0.495106
O O2 0.199618 0.176973 0.798175
O O3 0.520608 0.828139 0.706245
O O4 0.275473 0.781174 0.675688
O O5 0.729593 0.476475 0.518545
O O6 0.861102 0.526183 0.749079
O O7 0.935458 0.334992 0.264508
O O8 0.000000 0.500000 0.000000
O O9 0.000000 0.000000 0.500000
#
# Coordination Sequence:
#
# PCOD8002782 Si02
#       4
#     2   2   2   2
#     4  10  20  37  59  82 107 143 187 226 263 321
#     4  10  20  36  59  83 108 141 185 228 267 316
#     4  11  23  37  54  82 117 145 174 223 278 322
#     4  11  18  37  62  81 104 143 189 224 265 320
#
# _framework density 18.435946999999999
#
# number of rings (size 3 to 8) (size 9 to 14) (size 15 to 20)
#    0.000    1.500    5.000    2.250    0.000    2.000 
#    0.000    1.250    0.000    0.000    0.000    0.000 
#    0.000    0.000    0.000    0.000    0.000    0.000 
#
# Total GULP energy -99235.166710 kJ/mol
# GULP energy per Si atom -12404.395839 kJ/mol
# Density = 1.839399 g / cm^3
# Si number density = 18.435947 Si / 1000 Ang^3
#
#
#
# Elastic Constant Matrix: (Units=GPa)
#
#
# Indices 1 2 3 4 5 6 
#
# 1 114.3557 64.5412 62.2889 21.2178 -7.8290 -2.3398
# 2 64.5412 111.6289 50.9992 15.9858 -11.4526 -0.6956
# 3 62.2889 50.9992 117.5983 21.8393 -13.0950 -6.2640
# 4 21.2178 15.9858 21.8393 22.0741 -1.9904 -3.2285
# 5 -7.8290 -11.4526 -13.0950 -1.9904 9.9004 5.8645
# 6 -2.3398 -0.6956 -6.2640 -3.2285 5.8645 44.9853
#
#
#
# Elastic Compliance Matrix: (Units=1/GPa)
#
#
# Indices 1 2 3 4 5 6 
#
# 1 0.015943 -0.006381 -0.004790 -0.006184 -0.002306 -0.000080
# 2 -0.006381 0.014753 -0.001483 -0.002393 0.010688 -0.001875
# 3 -0.004790 -0.001483 0.014436 -0.007554 0.012315 -0.000409
# 4 -0.006184 -0.002393 -0.007554 0.060321 -0.007859 0.003943
# 5 -0.002306 0.010688 0.012315 -0.007859 0.136052 -0.016540
# 6 -0.000080 -0.001875 -0.000409 0.003943 -0.016540 0.024579
#
#
# Mechanical properties :
#
#
# Convention : Reuss Voigt Hill
#
# Bulk Modulus (GPa) = 50.44504 77.69352 64.06928
# Shear Modulus (GPa) = 16.77854 26.44220 21.61037
#
# Velocity S-wave (km/s) = 3.02006 3.79129 3.42744
# Velocity P-wave (km/s) = 6.29148 7.83576 7.10569
#
# Compressibility (1/GPa) = 0.01982356
#
# Stress axis : x y z
#
# Youngs Moduli (GPa) = 62.72361 67.78359 69.27043
#
# Poissons Ratio (x) = 0.43253 0.33179
# Poissons Ratio (y) = 0.40024 0.10275
# Poissons Ratio (z) = 0.30044 0.10055
#
# Static dielectric constant tensor:
#      x y z
#    x 3.568940 0.077830 -0.061130 
#    y 0.077830 3.738700 0.074460 
#    z -0.061130 0.074460 3.015080 
# 
# 
# High freq. dielectric constant tensor:
#      x y z
#    x 1.728960 -0.000700 -0.002500 
#    y -0.000700 1.727880 0.011520 
#    z -0.002500 0.011520 1.678660 
# 
# From -- ./inp_files/15085.got.cif
#   From: 2010.06.25/outbox.cif.g09.slc.cpg/sg2_8_cif.got.tgz:15085.got - 2010.06.27 13:26:56.
