data_PCOD8002635
_publ_section_title
;
Structure prediction by ZEFSAII (Michael W. Deem and Ramdas Pophale) SiO2 
 PCOD8002635
Probable space group: P -1
;
_chemical_formula_sum "Si O2"
_cell_formula_units_Z 14
_cell_length_a 15.980327
_cell_length_b 22.019381
_cell_length_c 7.842239
_cell_angle_alpha 111.651770
_cell_angle_beta 80.625561
_cell_angle_gamma 159.295991
_cell_volume 754.509990
_symmetry_space_group_name_H-M "P -1"
_symmetry_group_IT_number 2
_symmetry_cell_setting 'triclinic'
loop_
_space_group_symop_operation_xyz
x,y,z
-x,-y,-z
loop_
_atom_site_type_symbol
_atom_site_label
_atom_site_fract_x
_atom_site_fract_y
_atom_site_fract_z
Si Si1 0.957578 0.355847 0.737099
Si Si2 0.175582 0.066672 0.565410
Si Si3 0.719768 0.497800 0.991291
Si Si4 0.467013 0.167135 0.082904
Si Si5 0.590617 0.967175 0.355745
Si Si6 0.796235 0.048018 0.706671
Si Si7 0.211948 0.103576 0.961895
O O1 0.729976 0.242759 0.746331
O O2 0.085997 0.421919 0.940032
O O3 0.202193 0.569947 0.766052
O O4 0.813154 0.190818 0.506553
O O5 0.116734 0.963585 0.352879
O O6 0.082160 0.979621 0.699594
O O7 0.517834 0.333146 0.725566
O O8 0.000000 0.000000 0.500000
O O9 0.514437 0.361180 0.082180
O O10 0.909405 0.699067 0.091535
O O11 0.411832 0.094420 0.210371
O O12 0.375951 0.050031 0.844015
O O13 0.266161 0.083535 0.050892
O O14 0.642483 0.960730 0.497754
O O15 0.000000 0.000000 0.000000
#
# Coordination Sequence:
#
# PCOD8002635 Si02
#       7
#     2   2   2   2   2   2   2
#     4   9  19  38  61  81 118 154 184 239 285 336
#     4  10  20  36  57  79 114 148 187 236 283 327
#     4   8  20  37  58  80 117 151 183 239 284 332
#     4  11  21  35  59  84 116 152 190 235 284 337
#     4  10  20  39  59  86 116 151 193 230 287 337
#     4  11  21  37  59  85 116 150 190 235 280 342
#     4   9  18  38  56  78 112 150 186 233 283 330
#
# _framework density 18.555088999999999
#
# number of rings (size 3 to 8) (size 9 to 14) (size 15 to 20)
#    0.857    1.429    1.429    1.286    0.000    2.286 
#    0.000    8.571    0.000    0.000    0.000    0.000 
#    0.000    0.000    0.000    0.000    0.000    0.000 
#
# Total GULP energy -173509.746620 kJ/mol
# GULP energy per Si atom -12393.553330 kJ/mol
# Density = 1.851286 g / cm^3
# Si number density = 18.555089 Si / 1000 Ang^3
#
#
#
# Elastic Constant Matrix: (Units=GPa)
#
#
# Indices 1 2 3 4 5 6 
#
# 1 94.2065 38.5448 28.9010 3.9801 -3.9415 9.7234
# 2 38.5448 89.9784 39.8566 -5.5518 -10.7776 -8.4877
# 3 28.9010 39.8566 62.3671 -6.1138 -5.4330 -10.8614
# 4 3.9801 -5.5518 -6.1138 32.4158 1.4866 -1.0306
# 5 -3.9415 -10.7776 -5.4330 1.4866 29.7606 4.5458
# 6 9.7234 -8.4877 -10.8614 -1.0306 4.5458 28.7544
#
#
#
# Elastic Compliance Matrix: (Units=1/GPa)
#
#
# Indices 1 2 3 4 5 6 
#
# 1 0.015739 -0.005144 -0.005991 -0.004277 0.000774 -0.009379
# 2 -0.005144 0.017655 -0.007759 0.002137 0.003652 0.003520
# 3 -0.005991 -0.007759 0.025871 0.004624 -0.000604 0.009769
# 4 -0.004277 0.002137 0.004624 0.032842 -0.001386 0.005220
# 5 0.000774 0.003652 -0.000604 -0.001386 0.035767 -0.005116
# 6 -0.009379 0.003520 0.009769 0.005220 -0.005116 0.043674
#
#
# Mechanical properties :
#
#
# Convention : Reuss Voigt Hill
#
# Bulk Modulus (GPa) = 46.56153 51.23964 48.90059
# Shear Modulus (GPa) = 23.09518 27.46945 25.28231
#
# Velocity S-wave (km/s) = 3.53183 3.85181 3.69528
# Velocity P-wave (km/s) = 6.46374 6.88888 6.67969
#
# Compressibility (1/GPa) = 0.02147696
#
# Stress axis : x y z
#
# Youngs Moduli (GPa) = 63.53639 56.63966 38.65370
#
# Poissons Ratio (x) = 0.29137 0.23158
# Poissons Ratio (y) = 0.32685 0.29990
# Poissons Ratio (z) = 0.38066 0.43944
#
# Static dielectric constant tensor:
#      x y z
#    x 3.386680 -0.026130 0.058650 
#    y -0.026130 3.269220 0.131970 
#    z 0.058650 0.131970 3.377470 
# 
# 
# High freq. dielectric constant tensor:
#      x y z
#    x 1.725900 0.002660 0.004160 
#    y 0.002660 1.703650 0.009920 
#    z 0.004160 0.009920 1.714120 
# 
# From -- ./inp_files/197389.got.cif
#   From: 2010.06.25/outbox.cif.g09.slc.cpg/sg2_99_cif.got.tgz:197389.got - 2010.06.27 13:26:56.
