data_PCOD8002940
_publ_section_title
;
Structure prediction by ZEFSAII (Michael W. Deem and Ramdas Pophale) SiO2 
 PCOD8002940
Probable space group: P -1
;
_chemical_formula_sum "Si O2"
_cell_formula_units_Z 16
_cell_length_a 10.132821
_cell_length_b 7.693188
_cell_length_c 11.890637
_cell_angle_alpha 80.552726
_cell_angle_beta 126.080104
_cell_angle_gamma 115.064715
_cell_volume 673.957758
_symmetry_space_group_name_H-M "P -1"
_symmetry_group_IT_number 2
_symmetry_cell_setting 'triclinic'
loop_
_space_group_symop_operation_xyz
x,y,z
-x,-y,-z
loop_
_atom_site_type_symbol
_atom_site_label
_atom_site_fract_x
_atom_site_fract_y
_atom_site_fract_z
Si Si1 0.881792 0.239469 0.047181
Si Si2 0.449085 0.117065 0.056763
Si Si3 0.060894 0.192867 0.939626
Si Si4 0.796752 0.572188 0.657301
Si Si5 0.533003 0.109717 0.346253
Si Si6 0.213969 0.822412 0.349829
Si Si7 0.612511 0.437400 0.944829
Si Si8 0.463128 0.481580 0.646401
O O1 0.028497 0.266024 0.215327
O O2 0.976371 0.312317 0.965158
O O3 0.751105 0.342595 0.997059
O O4 0.764384 0.001729 0.013114
O O5 0.560148 0.120214 0.224905
O O6 0.508875 0.339246 0.019193
O O7 0.500000 0.000000 0.000000
O O8 0.964253 0.146066 0.774156
O O9 0.273725 0.327622 0.017640
O O10 0.000000 0.000000 0.000000
O O11 0.853063 0.406856 0.658944
O O12 0.638696 0.479684 0.677585
O O13 0.716260 0.646754 0.501600
O O14 0.705015 0.094927 0.495455
O O15 0.512526 0.297467 0.363062
O O16 0.358990 0.922188 0.313598
O O17 0.458781 0.393214 0.777582
#
# Coordination Sequence:
#
# PCOD8002940 Si02
#       8
#     2   2   2   2   2   2   2   2
#     4  11  21  39  61  86 122 161 207 248 290 367
#     4  10  24  40  61  88 122 167 206 244 299 375
#     4  12  22  35  60  96 121 149 207 260 300 350
#     4  10  20  36  60  91 123 157 199 253 309 353
#     4  10  21  39  58  90 124 157 203 251 302 362
#     4  10  20  36  63  86 121 160 200 251 306 348
#     4  11  22  39  61  87 119 164 203 247 307 357
#     4  10  21  35  59  94 122 153 201 255 307 353
#
# _framework density 23.740361
#
# number of rings (size 3 to 8) (size 9 to 14) (size 15 to 20)
#    0.000    1.500    3.750    1.875    1.750    0.500 
#    0.000    1.250    0.000    0.000    0.000    0.000 
#    0.000    0.000    0.000    0.000    0.000    0.000 
#
# Total GULP energy -198303.873602 kJ/mol
# GULP energy per Si atom -12393.992100 kJ/mol
# Density = 2.368633 g / cm^3
# Si number density = 23.740361 Si / 1000 Ang^3
#
#
#
# Elastic Constant Matrix: (Units=GPa)
#
#
# Indices 1 2 3 4 5 6 
#
# 1 47.1150 9.1964 28.0822 -5.5172 -3.2089 24.2511
# 2 9.1964 102.4150 44.2589 -2.9940 1.2307 24.1236
# 3 28.0822 44.2589 243.6720 -19.2935 3.4508 28.7245
# 4 -5.5172 -2.9940 -19.2935 34.2319 4.0243 -4.4574
# 5 -3.2089 1.2307 3.4508 4.0243 36.6512 -4.9237
# 6 24.2511 24.1236 28.7245 -4.4574 -4.9237 32.0476
#
#
#
# Elastic Compliance Matrix: (Units=1/GPa)
#
#
# Indices 1 2 3 4 5 6 
#
# 1 0.036585 0.004348 -0.001357 0.001768 -0.000992 -0.029648
# 2 0.004348 0.012808 -0.001429 -0.000364 -0.001477 -0.011928
# 3 -0.001357 -0.001429 0.004978 0.002302 -0.001089 -0.002206
# 4 0.001768 -0.000364 0.002302 0.031253 -0.003387 0.000699
# 5 -0.000992 -0.001477 -0.001089 -0.003387 0.028630 0.006766
# 6 -0.029648 -0.011928 -0.002206 0.000699 0.006766 0.065731
#
#
# Mechanical properties :
#
#
# Convention : Reuss Voigt Hill
#
# Bulk Modulus (GPa) = 17.39298 61.80855 39.60076
# Shear Modulus (GPa) = 25.50689 41.36377 33.43533
#
# Velocity S-wave (km/s) = 3.28138 4.17866 3.75690
# Velocity P-wave (km/s) = 4.65820 7.02662 5.96122
#
# Compressibility (1/GPa) = 0.05749447
#
# Stress axis : x y z
#
# Youngs Moduli (GPa) = 27.33390 78.07503 200.89961
#
# Poissons Ratio (x) = -0.33950 0.27263
# Poissons Ratio (y) = -0.11886 0.28715
# Poissons Ratio (z) = 0.03709 0.11159
#
# Static dielectric constant tensor:
#      x y z
#    x 4.771630 -0.166460 -0.235200 
#    y -0.166460 4.829120 0.195130 
#    z -0.235200 0.195130 4.882540 
# 
# 
# High freq. dielectric constant tensor:
#      x y z
#    x 1.913020 -0.021320 0.004180 
#    y -0.021320 1.945490 0.002060 
#    z 0.004180 0.002060 1.956570 
# 
# From -- ./inp_files/406796.got.cif
#   From: 2010.06.25/outbox.cif.g09.slc.cpg/sg2_204_cif.got.tgz:406796.got - 2010.06.27 13:26:56.
