data_PCOD8002129
_publ_section_title
;
Structure prediction by ZEFSAII (Michael W. Deem and Ramdas Pophale) SiO2 
 PCOD8002129
Probable space group: P -1
;
_chemical_formula_sum "Si O2"
_cell_formula_units_Z 12
_cell_length_a 14.610139
_cell_length_b 9.027166
_cell_length_c 8.332910
_cell_angle_alpha 59.607568
_cell_angle_beta 127.007276
_cell_angle_gamma 137.060944
_cell_volume 593.537597
_symmetry_space_group_name_H-M "P -1"
_symmetry_group_IT_number 2
_symmetry_cell_setting 'triclinic'
loop_
_space_group_symop_operation_xyz
x,y,z
-x,-y,-z
loop_
_atom_site_type_symbol
_atom_site_label
_atom_site_fract_x
_atom_site_fract_y
_atom_site_fract_z
Si Si1 0.885257 0.072601 0.986646
Si Si2 0.672365 0.671727 0.772527
Si Si3 0.661791 0.664593 0.395798
Si Si4 0.088479 0.238394 0.612675
Si Si5 0.811511 0.120064 0.210184
Si Si6 0.151191 0.471119 0.853470
O O1 0.820297 0.141780 0.014220
O O2 0.941338 0.949479 0.196665
O O3 0.017516 0.292600 0.922409
O O4 0.762248 0.913179 0.812291
O O5 0.710814 0.688546 0.617474
O O6 0.502238 0.553149 0.686194
O O7 0.712840 0.530133 0.977197
O O8 0.766037 0.649031 0.400740
O O9 0.671264 0.875583 0.244293
O O10 0.107134 0.422976 0.645246
O O11 0.951799 0.139816 0.406083
O O12 0.796873 0.290210 0.181524
#
# Coordination Sequence:
#
# PCOD8002129 Si02
#       6
#     2   2   2   2   2   2
#     4  10  20  35  56  79 107 141 179 214 255 317
#     4  10  21  38  57  76 104 143 182 216 257 314
#     4  10  21  38  57  76 104 143 182 216 257 314
#     4  10  20  35  56  79 107 141 179 214 255 317
#     4  11  21  34  56  83 110 136 171 222 268 309
#     4  11  21  34  56  83 110 136 171 222 268 309
#
# _framework density 20.217759999999998
#
# number of rings (size 3 to 8) (size 9 to 14) (size 15 to 20)
#    0.000    1.667    0.000    8.000    0.000    6.667 
#    0.000    0.000    0.000    5.000    0.000    0.000 
#    0.000    0.000    0.000    0.000    0.000    0.000 
#
# Total GULP energy -148822.984993 kJ/mol
# GULP energy per Si atom -12401.915416 kJ/mol
# Density = 2.017174 g / cm^3
# Si number density = 20.217760 Si / 1000 Ang^3
#
#
#
# Elastic Constant Matrix: (Units=GPa)
#
#
# Indices 1 2 3 4 5 6 
#
# 1 56.2413 27.9523 2.7121 -4.4371 -17.9429 -2.9780
# 2 27.9523 62.5491 9.1139 7.4448 -8.2848 -14.3723
# 3 2.7121 9.1139 50.6078 15.1541 -15.7176 7.7409
# 4 -4.4371 7.4448 15.1541 25.1189 -3.4558 -2.6552
# 5 -17.9429 -8.2848 -15.7176 -3.4558 26.8917 1.2804
# 6 -2.9780 -14.3723 7.7409 -2.6552 1.2804 34.8831
#
#
#
# Elastic Compliance Matrix: (Units=1/GPa)
#
#
# Indices 1 2 3 4 5 6 
#
# 1 0.032006 -0.014374 0.005546 0.009055 0.021548 -0.004522
# 2 -0.014374 0.025497 -0.005296 -0.006675 -0.006173 0.010171
# 3 0.005546 -0.005296 0.032977 -0.015774 0.019838 -0.010955
# 4 0.009055 -0.006675 -0.015774 0.053685 0.001400 0.005558
# 5 0.021548 -0.006173 0.019838 0.001400 0.061782 -0.007267
# 6 -0.004522 0.010171 -0.010955 0.005558 -0.007267 0.035593
#
#
# Mechanical properties :
#
#
# Convention : Reuss Voigt Hill
#
# Bulk Modulus (GPa) = 16.06884 27.66166 21.86525
# Shear Modulus (GPa) = 17.20988 26.02007 21.61498
#
# Velocity S-wave (km/s) = 2.92074 3.59136 3.27327
# Velocity P-wave (km/s) = 4.39766 5.55956 5.01239
#
# Compressibility (1/GPa) = 0.06223223
#
# Stress axis : x y z
#
# Youngs Moduli (GPa) = 31.24374 39.22089 30.32462
#
# Poissons Ratio (x) = 0.56376 -0.16818
# Poissons Ratio (y) = 0.44910 0.16058
# Poissons Ratio (z) = -0.17328 0.20769
#
# Static dielectric constant tensor:
#      x y z
#    x 3.701780 -0.130870 -0.334980 
#    y -0.130870 3.608060 0.164420 
#    z -0.334980 0.164420 3.734550 
# 
# 
# High freq. dielectric constant tensor:
#      x y z
#    x 1.792190 -0.003540 -0.027950 
#    y -0.003540 1.784480 0.016200 
#    z -0.027950 0.016200 1.781990 
# 
# From -- ./inp_files/146313.got.cif
#   From: 2010.06.25/outbox.cif.g09.slc.cpg/sg2_74_cif.got.tgz:146313.got - 2010.06.27 13:26:56.
