data_PCOD8002254
_publ_section_title
;
Structure prediction by ZEFSAII (Michael W. Deem and Ramdas Pophale) SiO2 
 PCOD8002254
Probable space group: P -1
;
_chemical_formula_sum "Si O2"
_cell_formula_units_Z 16
_cell_length_a 20.023153
_cell_length_b 17.417500
_cell_length_c 8.922584
_cell_angle_alpha 138.723953
_cell_angle_beta 32.568582
_cell_angle_gamma 151.862015
_cell_volume 789.538943
_symmetry_space_group_name_H-M "P -1"
_symmetry_group_IT_number 2
_symmetry_cell_setting 'triclinic'
loop_
_space_group_symop_operation_xyz
x,y,z
-x,-y,-z
loop_
_atom_site_type_symbol
_atom_site_label
_atom_site_fract_x
_atom_site_fract_y
_atom_site_fract_z
Si Si1 0.303928 0.957416 0.958054
Si Si2 0.645346 0.038750 0.462458
Si Si3 0.730214 0.598828 0.127536
Si Si4 0.959613 0.356611 0.454516
Si Si5 0.033797 0.759885 0.440367
Si Si6 0.585416 0.741590 0.666788
Si Si7 0.318784 0.373342 0.067297
Si Si8 0.274522 0.090144 0.646310
O O1 0.252561 0.916927 0.821726
O O2 0.453287 0.960798 0.699451
O O3 0.150133 0.820069 0.160643
O O4 0.367438 0.131497 0.113054
O O5 0.757668 0.205621 0.584780
O O6 0.631637 0.913247 0.400548
O O7 0.725350 0.726877 0.391964
O O8 0.608691 0.432922 0.207611
O O9 0.647983 0.547602 0.041411
O O10 0.923374 0.673247 0.875205
O O11 0.977793 0.365005 0.615562
O O12 0.000000 0.500000 0.500000
O O13 0.839395 0.661169 0.604288
O O14 0.106455 0.911018 0.634978
O O15 0.588398 0.806597 0.595947
O O16 0.500000 0.500000 0.000000
O O17 0.235455 0.190878 0.935888
#
# Coordination Sequence:
#
# PCOD8002254 Si02
#       8
#     2   2   2   2   2   2   2   2
#     4  10  21  38  56  80 117 149 189 242 287 326
#     4  10  22  37  56  84 112 147 198 236 287 340
#     4   9  19  35  55  85 118 148 190 232 282 342
#     4  10  20  37  60  84 112 153 190 231 283 345
#     4   9  20  39  60  82 113 152 194 229 279 348
#     4   9  18  35  59  80 112 152 186 234 279 336
#     4  10  20  35  58  87 120 149 185 234 292 335
#     4   9  19  36  59  83 112 154 191 234 276 342
#
# _framework density 20.264990000000001
#
# number of rings (size 3 to 8) (size 9 to 14) (size 15 to 20)
#    0.000    2.500    0.000    1.125    1.750    8.500 
#    9.000    1.875    0.000    0.000    0.000    0.000 
#    0.000    0.000    0.000    0.000    0.000    0.000 
#
# Total GULP energy -198227.779082 kJ/mol
# GULP energy per Si atom -12389.236193 kJ/mol
# Density = 2.021887 g / cm^3
# Si number density = 20.264990 Si / 1000 Ang^3
#
#
#
# Elastic Constant Matrix: (Units=GPa)
#
#
# Indices 1 2 3 4 5 6 
#
# 1 117.0731 49.0558 44.1598 -10.3641 -5.9736 -12.7455
# 2 49.0558 70.3749 25.0937 -16.6112 -2.0545 -22.9193
# 3 44.1598 25.0937 93.3032 -15.4332 6.3714 -7.3950
# 4 -10.3641 -16.6112 -15.4332 27.9598 -2.1259 0.6328
# 5 -5.9736 -2.0545 6.3714 -2.1259 14.3969 -2.7985
# 6 -12.7455 -22.9193 -7.3950 0.6328 -2.7985 38.9421
#
#
#
# Elastic Compliance Matrix: (Units=1/GPa)
#
#
# Indices 1 2 3 4 5 6 
#
# 1 0.014190 -0.008675 -0.005280 -0.002296 0.006460 -0.000963
# 2 -0.008675 0.028285 -0.000555 0.013376 0.005354 0.013870
# 3 -0.005280 -0.000555 0.014792 0.005266 -0.008021 0.000092
# 4 -0.002296 0.013376 0.005266 0.046120 0.006966 0.007872
# 5 0.006460 0.005354 -0.008021 0.006966 0.079295 0.009327
# 6 -0.000963 0.013870 0.000092 0.007872 0.009327 0.034087
#
#
# Mechanical properties :
#
#
# Convention : Reuss Voigt Hill
#
# Bulk Modulus (GPa) = 35.40270 57.48554 46.44412
# Shear Modulus (GPa) = 19.59203 27.08923 23.34063
#
# Velocity S-wave (km/s) = 3.11270 3.66013 3.39746
# Velocity P-wave (km/s) = 5.51601 6.80371 6.19342
#
# Compressibility (1/GPa) = 0.02824643
#
# Stress axis : x y z
#
# Youngs Moduli (GPa) = 70.47185 35.35389 67.60375
#
# Poissons Ratio (x) = 0.30671 0.35695
# Poissons Ratio (y) = 0.61138 0.03753
# Poissons Ratio (z) = 0.37209 0.01962
#
# Static dielectric constant tensor:
#      x y z
#    x 3.784960 -0.313670 0.044810 
#    y -0.313670 3.633720 -0.060070 
#    z 0.044810 -0.060070 3.667800 
# 
# 
# High freq. dielectric constant tensor:
#      x y z
#    x 1.789130 -0.025810 -0.003410 
#    y -0.025810 1.784400 -0.014170 
#    z -0.003410 -0.014170 1.784520 
# 
# From -- ./inp_files/242928.got.cif
#   From: 2010.06.25/outbox.cif.g09.slc.cpg/sg2_122_cif.got.tgz:242928.got - 2010.06.27 13:26:56.
