data_PCOD8002806
_publ_section_title
;
Structure prediction by ZEFSAII (Michael W. Deem and Ramdas Pophale) SiO2 
 PCOD8002806
Probable space group: P -1
;
_chemical_formula_sum "Si O2"
_cell_formula_units_Z 16
_cell_length_a 7.437747
_cell_length_b 9.272703
_cell_length_c 11.536170
_cell_angle_alpha 95.556513
_cell_angle_beta 72.784583
_cell_angle_gamma 72.427749
_cell_volume 709.213987
_symmetry_space_group_name_H-M "P -1"
_symmetry_group_IT_number 2
_symmetry_cell_setting 'triclinic'
loop_
_space_group_symop_operation_xyz
x,y,z
-x,-y,-z
loop_
_atom_site_type_symbol
_atom_site_label
_atom_site_fract_x
_atom_site_fract_y
_atom_site_fract_z
Si Si1 0.779311 0.114807 0.573746
Si Si2 0.806463 0.661362 0.376693
Si Si3 0.732299 0.446830 0.969198
Si Si4 0.378582 0.145933 0.352186
Si Si5 0.225654 0.418259 0.255722
Si Si6 0.780122 0.161076 0.320080
Si Si7 0.643617 0.464457 0.241231
Si Si8 0.051693 0.831968 0.237204
O O1 0.714593 0.202380 0.470876
O O2 0.789469 0.223726 0.688688
O O3 0.642847 0.016852 0.630684
O O4 0.000000 0.000000 0.500000
O O5 0.699075 0.731241 0.520579
O O6 0.645298 0.610136 0.329042
O O7 0.015727 0.526105 0.359631
O O8 0.853156 0.793642 0.304327
O O9 0.807565 0.552401 0.874837
O O10 0.838406 0.264500 0.903110
O O11 0.500000 0.500000 0.000000
O O12 0.764455 0.470961 0.100171
O O13 0.261471 0.239335 0.267675
O O14 0.613024 0.108364 0.284811
O O15 0.418617 0.461739 0.267103
O O16 0.789422 0.313810 0.269354
O O17 0.989053 0.017377 0.248751
#
# Coordination Sequence:
#
# PCOD8002806 Si02
#       8
#     2   2   2   2   2   2   2   2
#     4  10  20  36  59  85 122 160 188 240 297 358
#     4  11  22  36  62  91 121 158 199 242 298 359
#     4   9  20  43  63  84 117 157 200 254 291 349
#     4  11  21  37  59  89 126 156 193 242 303 351
#     4   9  22  38  59  89 120 152 203 246 290 354
#     4  10  22  38  58  91 124 152 197 244 294 372
#     4  10  23  40  63  87 120 159 202 249 301 334
#     4  10  22  39  60  90 116 156 205 235 304 354
#
# _framework density 22.560185000000001
#
# number of rings (size 3 to 8) (size 9 to 14) (size 15 to 20)
#    0.000    2.000    2.500    0.750    3.500    9.500 
#    0.000    0.000    2.750    2.250    0.000    0.000 
#    0.000    0.000    0.000    0.000    0.000    0.000 
#
# Total GULP energy -198242.344443 kJ/mol
# GULP energy per Si atom -12390.146528 kJ/mol
# Density = 2.250884 g / cm^3
# Si number density = 22.560185 Si / 1000 Ang^3
#
#
#
# Elastic Constant Matrix: (Units=GPa)
#
#
# Indices 1 2 3 4 5 6 
#
# 1 48.1304 -5.7556 9.8893 -1.7756 11.1932 2.3077
# 2 -5.7556 77.3110 43.5028 -20.8706 10.8400 1.9091
# 3 9.8893 43.5028 96.2820 -9.9183 3.8582 4.3677
# 4 -1.7756 -20.8706 -9.9183 32.8076 -5.8614 -0.1248
# 5 11.1932 10.8400 3.8582 -5.8614 25.1462 4.5884
# 6 2.3077 1.9091 4.3677 -0.1248 4.5884 33.0909
#
#
#
# Elastic Compliance Matrix: (Units=1/GPa)
#
#
# Indices 1 2 3 4 5 6 
#
# 1 0.025916 0.007308 -0.005227 0.002067 -0.013464 0.000336
# 2 0.007308 0.023100 -0.009769 0.010457 -0.009419 0.000793
# 3 -0.005227 -0.009769 0.015121 -0.001174 0.004247 -0.001661
# 4 0.002067 0.010457 -0.001174 0.037544 0.003678 -0.000961
# 5 -0.013464 -0.009419 0.004247 0.003678 0.051150 -0.006157
# 6 0.000336 0.000793 -0.001661 -0.000961 -0.006157 0.031220
#
#
# Mechanical properties :
#
#
# Convention : Reuss Voigt Hill
#
# Bulk Modulus (GPa) = 20.50786 35.22183 27.86484
# Shear Modulus (GPa) = 23.18244 29.81473 26.49858
#
# Velocity S-wave (km/s) = 3.20907 3.63928 3.43092
# Velocity P-wave (km/s) = 4.77921 5.77108 5.29841
#
# Compressibility (1/GPa) = 0.04876178
#
# Stress axis : x y z
#
# Youngs Moduli (GPa) = 38.58621 43.28992 66.13226
#
# Poissons Ratio (x) = -0.31636 0.34564
# Poissons Ratio (y) = -0.28199 0.64605
# Poissons Ratio (z) = 0.20167 0.42290
#
# Static dielectric constant tensor:
#      x y z
#    x 4.207530 -0.174350 0.162580 
#    y -0.174350 4.096990 -0.404180 
#    z 0.162580 -0.404180 4.634380 
# 
# 
# High freq. dielectric constant tensor:
#      x y z
#    x 1.894110 -0.013270 -0.000920 
#    y -0.013270 1.886040 -0.009610 
#    z -0.000920 -0.009610 1.864640 
# 
# From -- ./inp_files/382592.got.cif
#   From: 2010.06.25/outbox.cif.g09.slc.cpg/sg2_192_cif.got.tgz:382592.got - 2010.06.27 13:26:56.
