data_PCOD8002793
_publ_section_title
;
Structure prediction by ZEFSAII (Michael W. Deem and Ramdas Pophale) SiO2 
 PCOD8002793
Probable space group: P -1
;
_chemical_formula_sum "Si O2"
_cell_formula_units_Z 16
_cell_length_a 6.160401
_cell_length_b 19.155063
_cell_length_c 8.017224
_cell_angle_alpha 77.613705
_cell_angle_beta 122.104833
_cell_angle_gamma 85.551030
_cell_volume 761.457047
_symmetry_space_group_name_H-M "P -1"
_symmetry_group_IT_number 2
_symmetry_cell_setting 'triclinic'
loop_
_space_group_symop_operation_xyz
x,y,z
-x,-y,-z
loop_
_atom_site_type_symbol
_atom_site_label
_atom_site_fract_x
_atom_site_fract_y
_atom_site_fract_z
Si Si1 0.163970 0.956542 0.440226
Si Si2 0.253504 0.482155 0.726796
Si Si3 0.365504 0.023080 0.196327
Si Si4 0.265001 0.109080 0.782449
Si Si5 0.225576 0.349735 0.996865
Si Si6 0.728191 0.726549 0.289191
Si Si7 0.650974 0.369203 0.735770
Si Si8 0.704241 0.365642 0.377431
O O1 0.466970 0.937258 0.628398
O O2 0.038120 0.886048 0.399690
O O3 0.135699 0.003154 0.228993
O O4 0.000000 0.000000 0.500000
O O5 0.199899 0.433679 0.884714
O O6 0.496754 0.438102 0.740629
O O7 0.306952 0.559718 0.772905
O O8 0.000000 0.500000 0.500000
O O9 0.532008 0.948529 0.217961
O O10 0.264119 0.084189 0.986428
O O11 0.337486 0.186640 0.755283
O O12 0.292427 0.291900 0.903699
O O13 0.940440 0.343635 0.954478
O O14 0.462425 0.330225 0.238924
O O15 0.498345 0.697060 0.300669
O O16 0.014765 0.691237 0.503453
O O17 0.680573 0.391987 0.545559
#
# Coordination Sequence:
#
# PCOD8002793 Si02
#       8
#     2   2   2   2   2   2   2   2
#     4   9  18  35  58  88 117 144 184 240 292 347
#     4  11  19  38  61  84 115 146 191 250 300 343
#     4   9  19  35  59  90 117 144 195 243 288 350
#     4  10  20  36  59  84 114 160 192 237 295 347
#     4  10  23  38  57  85 113 150 198 244 290 353
#     4  10  23  40  56  80 122 155 194 239 288 351
#     4  10  21  38  57  82 116 151 191 245 288 352
#     4  11  22  38  59  83 113 154 196 241 300 348
#
# _framework density 21.012347999999999
#
# number of rings (size 3 to 8) (size 9 to 14) (size 15 to 20)
#    0.000    2.000    3.750    1.125    0.000    5.500 
#    0.000    2.500    0.000    0.000    0.000    0.000 
#    0.000    0.000    0.000    0.000    0.000    0.000 
#
# Total GULP energy -198280.092801 kJ/mol
# GULP energy per Si atom -12392.505800 kJ/mol
# Density = 2.096452 g / cm^3
# Si number density = 21.012348 Si / 1000 Ang^3
#
#
#
# Elastic Constant Matrix: (Units=GPa)
#
#
# Indices 1 2 3 4 5 6 
#
# 1 108.0018 22.9362 33.5156 -0.2803 10.1573 16.0176
# 2 22.9362 115.1052 34.2100 -3.8985 11.2579 17.8776
# 3 33.5156 34.2100 79.7468 13.9298 18.6276 6.9871
# 4 -0.2803 -3.8985 13.9298 24.0656 9.0752 3.7938
# 5 10.1573 11.2579 18.6276 9.0752 40.2287 8.6532
# 6 16.0176 17.8776 6.9871 3.7938 8.6532 22.1869
#
#
#
# Elastic Compliance Matrix: (Units=1/GPa)
#
#
# Indices 1 2 3 4 5 6 
#
# 1 0.012056 0.000671 -0.005452 0.004711 0.000025 -0.008342
# 2 0.000671 0.011976 -0.005704 0.006882 -0.000421 -0.009351
# 3 -0.005452 -0.005704 0.019926 -0.011625 -0.004960 0.006180
# 4 0.004711 0.006882 -0.011625 0.054088 -0.007432 -0.011636
# 5 0.000025 -0.000421 -0.004960 -0.007432 0.030853 -0.008879
# 6 -0.008342 -0.009351 0.006180 -0.011636 -0.008879 0.062135
#
#
# Mechanical properties :
#
#
# Convention : Reuss Voigt Hill
#
# Bulk Modulus (GPa) = 43.50318 53.79751 48.65034
# Shear Modulus (GPa) = 22.76179 31.44238 27.10209
#
# Velocity S-wave (km/s) = 3.29486 3.87250 3.59530
# Velocity P-wave (km/s) = 5.93493 6.75673 6.35912
#
# Compressibility (1/GPa) = 0.02298683
#
# Stress axis : x y z
#
# Youngs Moduli (GPa) = 82.94813 83.50160 50.18600
#
# Poissons Ratio (x) = -0.05603 0.27363
# Poissons Ratio (y) = -0.05566 0.28626
# Poissons Ratio (z) = 0.45226 0.47630
#
# Static dielectric constant tensor:
#      x y z
#    x 4.065970 0.321970 0.206230 
#    y 0.321970 3.720280 0.374330 
#    z 0.206230 0.374330 3.970500 
# 
# 
# High freq. dielectric constant tensor:
#      x y z
#    x 1.830840 0.019430 0.009380 
#    y 0.019430 1.797340 0.024580 
#    z 0.009380 0.024580 1.820750 
# 
# From -- ./inp_files/44515.got.cif
#   From: 2010.06.25/outbox.cif.g09.slc.cpg/sg2_23_cif.got.tgz:44515.got - 2010.06.27 13:26:56.
