data_PCOD8002871
_publ_section_title
;
Structure prediction by ZEFSAII (Michael W. Deem and Ramdas Pophale) SiO2 
 PCOD8002871
Probable space group: P -1
;
_chemical_formula_sum "Si O2"
_cell_formula_units_Z 14
_cell_length_a 14.734956
_cell_length_b 13.763473
_cell_length_c 9.407941
_cell_angle_alpha 72.726173
_cell_angle_beta 127.364477
_cell_angle_gamma 149.628022
_cell_volume 633.132383
_symmetry_space_group_name_H-M "P -1"
_symmetry_group_IT_number 2
_symmetry_cell_setting 'triclinic'
loop_
_space_group_symop_operation_xyz
x,y,z
-x,-y,-z
loop_
_atom_site_type_symbol
_atom_site_label
_atom_site_fract_x
_atom_site_fract_y
_atom_site_fract_z
Si Si1 0.645983 0.900808 0.974643
Si Si2 0.705012 0.576025 0.139077
Si Si3 0.699711 0.360469 0.669001
Si Si4 0.960991 0.234805 0.381223
Si Si5 0.240331 0.728775 0.722207
Si Si6 0.846980 0.082668 0.780091
Si Si7 0.016649 0.426495 0.881270
O O1 0.439369 0.647094 0.924214
O O2 0.503793 0.897385 0.825253
O O3 0.795203 0.998091 0.926299
O O4 0.842802 0.066665 0.221935
O O5 0.899328 0.727095 0.391678
O O6 0.883819 0.749165 0.097614
O O7 0.500000 0.500000 0.000000
O O8 0.779290 0.305360 0.766498
O O9 0.822946 0.516305 0.584257
O O10 0.390266 0.130355 0.461417
O O11 0.818079 0.497915 0.869478
O O12 0.750838 0.141535 0.301378
O O13 0.000000 0.500000 0.500000
O O14 0.221395 0.658363 0.887467
O O15 0.881850 0.232148 0.743381
#
# Coordination Sequence:
#
# PCOD8002871 Si02
#       7
#     2   2   2   2   2   2   2
#     4  12  24  44  71 102 138 174 225 277 340 411
#     4  12  29  50  69  95 130 180 242 289 338 393
#     4  10  21  37  63 104 139 174 216 263 334 412
#     4  11  23  44  69 101 141 181 215 280 339 399
#     4  11  20  40  67 104 148 180 211 267 339 415
#     4  12  23  42  70  94 132 178 223 279 336 395
#     4  10  20  36  60 104 142 173 215 259 329 418
#
# _framework density 22.112278
#
# number of rings (size 3 to 8) (size 9 to 14) (size 15 to 20)
#    0.000    0.857    5.714    1.714    2.000    2.286 
#    0.000    0.714    0.000    0.000    0.000    0.000 
#    0.000    0.000    0.000    0.000    0.000    0.000 
#
# Total GULP energy -173609.297973 kJ/mol
# GULP energy per Si atom -12400.664141 kJ/mol
# Density = 2.206195 g / cm^3
# Si number density = 22.112278 Si / 1000 Ang^3
#
#
#
# Elastic Constant Matrix: (Units=GPa)
#
#
# Indices 1 2 3 4 5 6 
#
# 1 96.0620 35.4342 57.1640 3.7432 14.2813 24.4131
# 2 35.4342 66.7147 35.8479 6.6807 2.5994 22.2897
# 3 57.1640 35.8479 114.4867 6.2015 -10.5246 6.9179
# 4 3.7432 6.6807 6.2015 34.1208 0.8604 -3.3027
# 5 14.2813 2.5994 -10.5246 0.8604 32.5349 2.2220
# 6 24.4131 22.2897 6.9179 -3.3027 2.2220 33.1980
#
#
#
# Elastic Compliance Matrix: (Units=1/GPa)
#
#
# Indices 1 2 3 4 5 6 
#
# 1 0.022782 -0.001061 -0.011364 -0.001159 -0.012677 -0.012940
# 2 -0.001061 0.024313 -0.006153 -0.004879 -0.002342 -0.014591
# 3 -0.011364 -0.006153 0.016788 -0.000058 0.010346 0.008291
# 4 -0.001159 -0.004879 -0.000058 0.031115 -0.000439 0.007265
# 5 -0.012677 -0.002342 0.010346 -0.000439 0.039433 0.006056
# 6 -0.012940 -0.014591 0.008291 0.007265 0.006056 0.048024
#
#
# Mechanical properties :
#
#
# Convention : Reuss Voigt Hill
#
# Bulk Modulus (GPa) = 37.41214 59.35063 48.38139
# Shear Modulus (GPa) = 21.87999 29.89190 25.88595
#
# Velocity S-wave (km/s) = 3.14904 3.68070 3.42520
# Velocity P-wave (km/s) = 5.49343 6.70539 6.12944
#
# Compressibility (1/GPa) = 0.02672929
#
# Stress axis : x y z
#
# Youngs Moduli (GPa) = 43.89459 41.12984 59.56506
#
# Poissons Ratio (x) = 0.04363 0.67688
# Poissons Ratio (y) = 0.04656 0.36648
# Poissons Ratio (z) = 0.49880 0.25305
#
# Static dielectric constant tensor:
#      x y z
#    x 3.807380 0.264090 -0.227970 
#    y 0.264090 3.996000 0.003080 
#    z -0.227970 0.003080 3.936570 
# 
# 
# High freq. dielectric constant tensor:
#      x y z
#    x 1.836930 0.021360 -0.025970 
#    y 0.021360 1.868560 0.007650 
#    z -0.025970 0.007650 1.872210 
# 
# From -- ./inp_files/227338.got.cif
#   From: 2010.06.25/outbox.cif.g09.slc.cpg/sg2_114_cif.got.tgz:227338.got - 2010.06.27 13:26:56.
