data_PCOD8002816
_publ_section_title
;
Structure prediction by ZEFSAII (Michael W. Deem and Ramdas Pophale) SiO2 
 PCOD8002816
Probable space group: P -1
;
_chemical_formula_sum "Si O2"
_cell_formula_units_Z 16
_cell_length_a 15.374022
_cell_length_b 12.526656
_cell_length_c 8.675184
_cell_angle_alpha 112.147152
_cell_angle_beta 130.776945
_cell_angle_gamma 39.145342
_cell_volume 768.802243
_symmetry_space_group_name_H-M "P -1"
_symmetry_group_IT_number 2
_symmetry_cell_setting 'triclinic'
loop_
_space_group_symop_operation_xyz
x,y,z
-x,-y,-z
loop_
_atom_site_type_symbol
_atom_site_label
_atom_site_fract_x
_atom_site_fract_y
_atom_site_fract_z
Si Si1 0.739189 0.871608 0.851832
Si Si2 0.395768 0.066055 0.717792
Si Si3 0.909192 0.969293 0.562544
Si Si4 0.553602 0.613446 0.258100
Si Si5 0.189048 0.369712 0.433967
Si Si6 0.133825 0.238874 0.744184
Si Si7 0.276643 0.759168 0.768512
Si Si8 0.312460 0.915156 0.360895
O O1 0.761855 0.728727 0.724913
O O2 0.553522 0.021495 0.807809
O O3 0.758887 0.958334 0.799047
O O4 0.879041 0.783568 0.102041
O O5 0.219482 0.253224 0.539352
O O6 0.338199 0.114661 0.860280
O O7 0.415418 0.919437 0.603300
O O8 0.934709 0.816522 0.463662
O O9 0.096525 0.889602 0.728447
O O10 0.762900 0.138792 0.376061
O O11 0.845837 0.025496 0.697330
O O12 0.693153 0.607555 0.391738
O O13 0.655733 0.417753 0.295870
O O14 0.443022 0.718609 0.343127
O O15 0.424362 0.710466 0.013802
O O16 0.986443 0.558273 0.308440
#
# Coordination Sequence:
#
# PCOD8002816 Si02
#       8
#     2   2   2   2   2   2   2   2
#     4  11  20  37  59  89 116 152 186 225 281 349
#     4  10  20  36  59  86 116 151 188 223 282 347
#     4  10  22  40  60  86 113 145 193 240 285 325
#     4  11  20  39  63  81 112 153 190 233 290 328
#     4  11  20  37  57  85 120 153 180 233 283 336
#     4  11  22  35  59  88 118 149 188 232 281 336
#     4  10  23  40  62  83 109 149 197 242 278 333
#     4  10  20  37  63  83 116 149 183 232 288 343
#
# _framework density 20.811596000000002
#
# number of rings (size 3 to 8) (size 9 to 14) (size 15 to 20)
#    0.000    1.500    3.750    2.625    0.000    1.000 
#    0.000    0.000    5.500    0.000    0.000    0.000 
#    0.000    0.000    0.000    0.000    0.000    0.000 
#
# Total GULP energy -198338.646756 kJ/mol
# GULP energy per Si atom -12396.165422 kJ/mol
# Density = 2.076423 g / cm^3
# Si number density = 20.811596 Si / 1000 Ang^3
#
#
#
# Elastic Constant Matrix: (Units=GPa)
#
#
# Indices 1 2 3 4 5 6 
#
# 1 116.0768 42.6974 28.9729 3.8424 -18.7651 -20.4487
# 2 42.6974 122.3165 26.7855 -3.2070 -8.5209 -8.4317
# 3 28.9729 26.7855 35.9841 1.6458 -4.8056 -9.2719
# 4 3.8424 -3.2070 1.6458 27.1227 1.0471 0.6723
# 5 -18.7651 -8.5209 -4.8056 1.0471 30.8505 -0.2717
# 6 -20.4487 -8.4317 -9.2719 0.6723 -0.2717 21.4539
#
#
#
# Elastic Compliance Matrix: (Units=1/GPa)
#
#
# Indices 1 2 3 4 5 6 
#
# 1 0.013953 -0.002495 -0.005743 -0.002444 0.007074 0.010003
# 2 -0.002495 0.010369 -0.006000 0.001954 0.000337 -0.000952
# 3 -0.005743 -0.006000 0.039569 -0.002575 0.001183 0.009364
# 4 -0.002444 0.001954 -0.002575 0.037802 -0.002665 -0.003893
# 5 0.007074 0.000337 0.001183 -0.002665 0.037155 0.007941
# 6 0.010003 -0.000952 0.009364 -0.003893 0.007941 0.060041
#
#
# Mechanical properties :
#
#
# Convention : Reuss Voigt Hill
#
# Bulk Modulus (GPa) = 28.23607 52.36544 40.30075
# Shear Modulus (GPa) = 20.90558 27.61353 24.25956
#
# Velocity S-wave (km/s) = 3.17285 3.64652 3.41790
# Velocity P-wave (km/s) = 5.19803 6.55331 5.91462
#
# Compressibility (1/GPa) = 0.03541569
#
# Stress axis : x y z
#
# Youngs Moduli (GPa) = 71.67007 96.43905 25.27223
#
# Poissons Ratio (x) = 0.24057 0.14515
# Poissons Ratio (y) = 0.17879 0.15163
# Poissons Ratio (z) = 0.41163 0.57861
#
# Static dielectric constant tensor:
#      x y z
#    x 3.732470 -0.135370 -0.144620 
#    y -0.135370 4.019140 -0.001550 
#    z -0.144620 -0.001550 3.667240 
# 
# 
# High freq. dielectric constant tensor:
#      x y z
#    x 1.810520 -0.006250 -0.009050 
#    y -0.006250 1.824380 0.001900 
#    z -0.009050 0.001900 1.800970 
# 
# From -- ./inp_files/185757.got.cif
#   From: 2010.06.25/outbox.cif.g09.slc.cpg/sg2_93_cif.got.tgz:185757.got - 2010.06.27 13:26:56.
