data_PCOD8002925
_publ_section_title
;
Structure prediction by ZEFSAII (Michael W. Deem and Ramdas Pophale) SiO2 
 PCOD8002925
Probable space group: P -1
;
_chemical_formula_sum "Si O2"
_cell_formula_units_Z 14
_cell_length_a 8.359353
_cell_length_b 12.487855
_cell_length_c 8.751950
_cell_angle_alpha 105.550902
_cell_angle_beta 114.138485
_cell_angle_gamma 111.848623
_cell_volume 671.860051
_symmetry_space_group_name_H-M "P -1"
_symmetry_group_IT_number 2
_symmetry_cell_setting 'triclinic'
loop_
_space_group_symop_operation_xyz
x,y,z
-x,-y,-z
loop_
_atom_site_type_symbol
_atom_site_label
_atom_site_fract_x
_atom_site_fract_y
_atom_site_fract_z
Si Si1 0.057045 0.820423 0.684033
Si Si2 0.096866 0.146783 0.654725
Si Si3 0.110160 0.599905 0.721073
Si Si4 0.152552 0.074804 0.951106
Si Si5 0.276094 0.516264 0.269093
Si Si6 0.445921 0.608315 0.051718
Si Si7 0.355937 0.303233 0.321701
O O1 0.014130 0.798398 0.474224
O O2 0.833708 0.762714 0.656078
O O3 0.166202 0.745187 0.749211
O O4 0.206432 0.977401 0.848357
O O5 0.048425 0.128234 0.810969
O O6 0.348860 0.246120 0.778518
O O7 0.000000 0.000000 0.500000
O O8 0.000000 0.500000 0.500000
O O9 0.959166 0.550477 0.790115
O O10 0.323642 0.613526 0.858511
O O11 0.351790 0.202513 0.156549
O O12 0.000000 0.000000 0.000000
O O13 0.292684 0.563620 0.120420
O O14 0.354736 0.416700 0.269552
O O15 0.428428 0.641639 0.484347
O O16 0.500000 0.500000 0.000000
#
# Coordination Sequence:
#
# PCOD8002925 Si02
#       7
#     2   2   2   2   2   2   2
#     4   9  18  38  57  87 124 160 203 254 305 367
#     4  10  20  36  60  89 120 157 205 252 302 370
#     4  11  25  39  60  93 130 164 205 265 314 364
#     4   9  18  32  59  91 117 159 207 247 303 371
#     4  10  21  37  61  90 131 156 206 259 311 363
#     4  12  24  40  67  93 121 166 214 257 320 377
#     4   9  17  32  61  92 117 159 202 249 310 367
#
# _framework density 20.837674
#
# number of rings (size 3 to 8) (size 9 to 14) (size 15 to 20)
#    0.000    2.000    1.429    2.143    6.000    0.000 
#    0.000    4.286    3.143    0.857    0.000    0.000 
#    0.000    0.000    0.000    0.000    0.000    0.000 
#
# Total GULP energy -173463.365891 kJ/mol
# GULP energy per Si atom -12390.240421 kJ/mol
# Density = 2.079025 g / cm^3
# Si number density = 20.837674 Si / 1000 Ang^3
#
#
#
# Elastic Constant Matrix: (Units=GPa)
#
#
# Indices 1 2 3 4 5 6 
#
# 1 52.7792 37.0675 31.4611 -9.5932 3.3464 -8.3456
# 2 37.0675 120.0127 78.0778 -9.3733 -2.7577 -4.8070
# 3 31.4611 78.0778 153.0738 -3.9371 -2.5101 -16.8513
# 4 -9.5932 -9.3733 -3.9371 50.0689 3.1823 -6.2101
# 5 3.3464 -2.7577 -2.5101 3.1823 30.4259 -8.5252
# 6 -8.3456 -4.8070 -16.8513 -6.2101 -8.5252 32.4705
#
#
#
# Elastic Compliance Matrix: (Units=1/GPa)
#
#
# Indices 1 2 3 4 5 6 
#
# 1 0.026290 -0.006776 -0.001296 0.004484 -0.002609 0.005254
# 2 -0.006776 0.014431 -0.006219 0.000552 0.000775 -0.002524
# 3 -0.001296 -0.006219 0.010508 -0.000123 0.001758 0.004637
# 4 0.004484 0.000552 -0.000123 0.021625 -0.001326 0.004958
# 5 -0.002609 0.000775 0.001758 -0.001326 0.036200 0.009607
# 6 0.005254 -0.002524 0.004637 0.004958 0.009607 0.037651
#
#
# Mechanical properties :
#
#
# Convention : Reuss Voigt Hill
#
# Bulk Modulus (GPa) = 44.15832 68.78651 56.47242
# Shear Modulus (GPa) = 27.34714 34.54369 30.94541
#
# Velocity S-wave (km/s) = 3.62662 4.07597 3.85784
# Velocity P-wave (km/s) = 6.22688 7.43193 6.85594
#
# Compressibility (1/GPa) = 0.02264579
#
# Stress axis : x y z
#
# Youngs Moduli (GPa) = 38.03799 69.29454 95.16984
#
# Poissons Ratio (x) = 0.46953 0.12336
# Poissons Ratio (y) = 0.25774 0.59187
# Poissons Ratio (z) = 0.04931 0.43095
#
# Static dielectric constant tensor:
#      x y z
#    x 3.325360 0.228130 -0.282730 
#    y 0.228130 4.443580 0.055180 
#    z -0.282730 0.055180 4.405620 
# 
# 
# High freq. dielectric constant tensor:
#      x y z
#    x 1.761400 0.019850 -0.016890 
#    y 0.019850 1.835490 -0.000970 
#    z -0.016890 -0.000970 1.836000 
# 
# From -- ./inp_files/170895.got.cif
#   From: 2010.06.25/outbox.cif.g09.slc.cpg/sg2_86_cif.got.tgz:170895.got - 2010.06.27 13:26:56.
