data_PCOD8002774
_publ_section_title
;
Structure prediction by ZEFSAII (Michael W. Deem and Ramdas Pophale) SiO2 
 PCOD8002774
Probable space group: P -1
;
_chemical_formula_sum "Si O2"
_cell_formula_units_Z 16
_cell_length_a 8.889402
_cell_length_b 11.632399
_cell_length_c 17.106448
_cell_angle_alpha 67.547913
_cell_angle_beta 41.956541
_cell_angle_gamma 97.413565
_cell_volume 812.893345
_symmetry_space_group_name_H-M "P -1"
_symmetry_group_IT_number 2
_symmetry_cell_setting 'triclinic'
loop_
_space_group_symop_operation_xyz
x,y,z
-x,-y,-z
loop_
_atom_site_type_symbol
_atom_site_label
_atom_site_fract_x
_atom_site_fract_y
_atom_site_fract_z
Si Si1 0.080520 0.396115 0.398227
Si Si2 0.145725 0.949312 0.902356
Si Si3 0.734397 0.033674 0.653356
Si Si4 0.847550 0.014172 0.440311
Si Si5 0.831712 0.618622 0.806016
Si Si6 0.373188 0.398218 0.766140
Si Si7 0.465682 0.276884 0.617921
Si Si8 0.620838 0.334569 0.370064
O O1 0.233326 0.428445 0.247424
O O2 0.321502 0.542185 0.327796
O O3 0.991538 0.231747 0.512685
O O4 0.796231 0.380716 0.500877
O O5 0.423693 0.973023 0.825892
O O6 0.279765 0.076432 0.743538
O O7 0.890780 0.751195 0.035339
O O8 0.000000 0.000000 0.000000
O O9 0.690088 0.984027 0.592054
O O10 0.849537 0.957263 0.676180
O O11 0.969003 0.183709 0.308385
O O12 0.592808 0.854662 0.528211
O O13 0.034102 0.583906 0.774538
O O14 0.500000 0.500000 0.000000
O O15 0.315393 0.324840 0.719580
O O16 0.371383 0.547138 0.723745
O O17 0.485501 0.329341 0.507559
#
# Coordination Sequence:
#
# PCOD8002774 Si02
#       8
#     2   2   2   2   2   2   2   2
#     4   9  18  36  57  81 106 147 187 220 271 339
#     4   9  20  36  58  81 114 148 184 228 283 329
#     4   9  18  36  57  82 107 143 188 232 265 329
#     4  10  20  36  59  78 109 150 190 220 277 337
#     4  10  23  37  53  80 119 145 177 231 287 330
#     4  11  20  34  59  87 108 141 192 235 271 323
#     4   9  20  38  57  78 116 148 181 227 281 335
#     4  11  22  37  57  85 109 148 189 229 280 335
#
# _framework density 19.682779
#
# number of rings (size 3 to 8) (size 9 to 14) (size 15 to 20)
#    0.000    2.250    1.250    1.875    1.750    2.000 
#    0.000    1.250    0.000    1.500    0.000    0.000 
#    0.000    0.000    0.000    0.000    0.000    0.000 
#
# Total GULP energy -198277.044434 kJ/mol
# GULP energy per Si atom -12392.315277 kJ/mol
# Density = 1.963798 g / cm^3
# Si number density = 19.682779 Si / 1000 Ang^3
#
#
#
# Elastic Constant Matrix: (Units=GPa)
#
#
# Indices 1 2 3 4 5 6 
#
# 1 58.4347 16.8471 37.0613 -12.8194 -9.1969 -4.9912
# 2 16.8471 66.0048 31.3236 -6.2680 -6.8037 4.1459
# 3 37.0613 31.3236 115.0704 -4.6460 -8.9547 2.0714
# 4 -12.8194 -6.2680 -4.6460 33.4256 -8.9728 -7.0708
# 5 -9.1969 -6.8037 -8.9547 -8.9728 20.7818 -2.8309
# 6 -4.9912 4.1459 2.0714 -7.0708 -2.8309 31.3056
#
#
#
# Elastic Compliance Matrix: (Units=1/GPa)
#
#
# Indices 1 2 3 4 5 6 
#
# 1 0.029864 -0.001246 -0.007309 0.017583 0.018760 0.011078
# 2 -0.001246 0.018306 -0.004024 0.003526 0.005080 -0.001101
# 3 -0.007309 -0.004024 0.012017 -0.002524 -0.000745 -0.002065
# 4 0.017583 0.003526 -0.002524 0.048786 0.031138 0.016338
# 5 0.018760 0.005080 -0.000745 0.031138 0.073392 0.016037
# 6 0.011078 -0.001101 -0.002065 0.016338 0.016037 0.039132
#
#
# Mechanical properties :
#
#
# Convention : Reuss Voigt Hill
#
# Bulk Modulus (GPa) = 28.54830 45.55267 37.05048
# Shear Modulus (GPa) = 19.35496 27.38780 23.37138
#
# Velocity S-wave (km/s) = 3.13923 3.73427 3.44961
# Velocity P-wave (km/s) = 5.26074 6.46427 5.89331
#
# Compressibility (1/GPa) = 0.03502836
#
# Stress axis : x y z
#
# Youngs Moduli (GPa) = 33.48499 54.62709 83.21526
#
# Poissons Ratio (x) = 0.06809 0.60821
# Poissons Ratio (y) = 0.04173 0.33487
# Poissons Ratio (z) = 0.24474 0.21983
#
# Static dielectric constant tensor:
#      x y z
#    x 3.367690 -0.130750 0.022670 
#    y -0.130750 3.588970 -0.055060 
#    z 0.022670 -0.055060 3.670270 
# 
# 
# High freq. dielectric constant tensor:
#      x y z
#    x 1.751670 -0.014170 -0.007600 
#    y -0.014170 1.765130 -0.004020 
#    z -0.007600 -0.004020 1.764870 
# 
# From -- ./inp_files/186897.got.cif
#   From: 2010.06.25/outbox.cif.g09.slc.cpg/sg2_94_cif.got.tgz:186897.got - 2010.06.27 13:26:56.
