data_PCOD8002198
_publ_section_title
;
Structure prediction by ZEFSAII (Michael W. Deem and Ramdas Pophale) SiO2 
 PCOD8002198
Probable space group: P -1
;
_chemical_formula_sum "Si O2"
_cell_formula_units_Z 16
_cell_length_a 13.475957
_cell_length_b 11.904893
_cell_length_c 9.896805
_cell_angle_alpha 93.966255
_cell_angle_beta 66.545931
_cell_angle_gamma 45.642266
_cell_volume 883.325506
_symmetry_space_group_name_H-M "P -1"
_symmetry_group_IT_number 2
_symmetry_cell_setting 'triclinic'
loop_
_space_group_symop_operation_xyz
x,y,z
-x,-y,-z
loop_
_atom_site_type_symbol
_atom_site_label
_atom_site_fract_x
_atom_site_fract_y
_atom_site_fract_z
Si Si1 0.581813 0.023764 0.554709
Si Si2 0.491416 0.354417 0.633037
Si Si3 0.596854 0.902077 0.799040
Si Si4 0.909791 0.747281 0.501929
Si Si5 0.269536 0.633028 0.549715
Si Si6 0.680999 0.588680 0.725424
Si Si7 0.080344 0.027300 0.362299
Si Si8 0.525801 0.353981 0.925997
O O1 0.537150 0.188759 0.551197
O O2 0.500000 0.000000 0.500000
O O3 0.503772 0.059906 0.750608
O O4 0.797025 0.822768 0.429482
O O5 0.315557 0.538284 0.660733
O O6 0.648064 0.310591 0.502803
O O7 0.458600 0.391141 0.813065
O O8 0.808196 0.762265 0.679022
O O9 0.583729 0.783055 0.746354
O O10 0.500000 0.000000 0.000000
O O11 0.882795 0.901112 0.553026
O O12 0.115031 0.546061 0.365083
O O13 0.339830 0.493369 0.379602
O O14 0.057113 0.823677 0.669417
O O15 0.592014 0.629642 0.917744
O O16 0.265450 0.839968 0.179758
O O17 0.000000 0.000000 0.500000
O O18 0.500000 0.500000 0.000000
#
# Coordination Sequence:
#
# PCOD8002198 Si02
#       8
#     2   2   2   2   2   2   2   2
#     4  10  20  35  60  83 116 155 195 237 298 348
#     4  11  20  39  55  89 118 155 190 244 296 356
#     4  10  20  35  57  85 113 153 190 244 286 342
#     4   9  20  34  58  85 112 153 197 241 289 339
#     4  10  22  35  64  82 119 155 192 242 303 341
#     4  11  20  37  60  88 114 155 204 243 287 359
#     4  11  18  37  58  89 114 153 194 245 288 352
#     4  12  21  35  62  89 118 155 199 238 297 351
#
# _framework density 18.113365999999999
#
# number of rings (size 3 to 8) (size 9 to 14) (size 15 to 20)
#    0.750    0.750    3.750    3.375    0.000    0.000 
#    0.000    0.625   11.000    1.500    0.000    0.000 
#    0.000    0.000    0.000    0.000    0.000    0.000 
#
# Total GULP energy -198221.476603 kJ/mol
# GULP energy per Si atom -12388.842288 kJ/mol
# Density = 1.807214 g / cm^3
# Si number density = 18.113366 Si / 1000 Ang^3
#
#
#
# Elastic Constant Matrix: (Units=GPa)
#
#
# Indices 1 2 3 4 5 6 
#
# 1 118.8694 56.4468 36.9681 -2.1060 3.4965 3.0494
# 2 56.4468 116.9625 45.6074 -2.5157 1.0039 -1.0873
# 3 36.9681 45.6074 103.1749 -2.0547 -13.8655 -7.1596
# 4 -2.1060 -2.5157 -2.0547 29.8814 1.5722 -1.9883
# 5 3.4965 1.0039 -13.8655 1.5722 29.7732 -0.9464
# 6 3.0494 -1.0873 -7.1596 -1.9883 -0.9464 47.2834
#
#
#
# Elastic Compliance Matrix: (Units=1/GPa)
#
#
# Indices 1 2 3 4 5 6 
#
# 1 0.011454 -0.004536 -0.002505 0.000296 -0.002414 -0.001258
# 2 -0.004536 0.012353 -0.004072 0.000532 -0.001810 -0.000054
# 3 -0.002505 -0.004072 0.013458 0.000200 0.006760 0.002249
# 4 0.000296 0.000532 0.000200 0.033728 -0.001696 0.001408
# 5 -0.002414 -0.001810 0.006760 -0.001696 0.037227 0.001812
# 6 -0.001258 -0.000054 0.002249 0.001408 0.001812 0.021665
#
#
# Mechanical properties :
#
#
# Convention : Reuss Voigt Hill
#
# Bulk Modulus (GPa) = 66.48708 68.56125 67.52417
# Shear Modulus (GPa) = 31.82220 34.71990 33.27105
#
# Velocity S-wave (km/s) = 4.19601 4.38289 4.29047
# Velocity P-wave (km/s) = 7.76280 7.97160 7.86789
#
# Compressibility (1/GPa) = 0.01504052
#
# Stress axis : x y z
#
# Youngs Moduli (GPa) = 87.30598 80.95338 74.30409
#
# Poissons Ratio (x) = 0.36717 0.18613
# Poissons Ratio (y) = 0.39598 0.30254
# Poissons Ratio (z) = 0.21870 0.32962
#
# Static dielectric constant tensor:
#      x y z
#    x 3.517420 0.085280 -0.199480 
#    y 0.085280 3.571920 0.045770 
#    z -0.199480 0.045770 2.866460 
# 
# 
# High freq. dielectric constant tensor:
#      x y z
#    x 1.715270 0.017090 -0.008640 
#    y 0.017090 1.712350 -0.006540 
#    z -0.008640 -0.006540 1.669390 
# 
# From -- ./inp_files/307276.got.cif
#   From: 2010.06.25/outbox.cif.g09.slc.cpg/sg2_154_cif.got.tgz:307276.got - 2010.06.27 13:26:56.
