data_PCOD8002572
_publ_section_title
;
Structure prediction by ZEFSAII (Michael W. Deem and Ramdas Pophale) SiO2 
 PCOD8002572
Probable space group: P -1
;
_chemical_formula_sum "Si O2"
_cell_formula_units_Z 12
_cell_length_a 18.234027
_cell_length_b 20.990183
_cell_length_c 12.668310
_cell_angle_alpha 150.527911
_cell_angle_beta 20.787370
_cell_angle_gamma 160.961816
_cell_volume 557.670043
_symmetry_space_group_name_H-M "P -1"
_symmetry_group_IT_number 2
_symmetry_cell_setting 'triclinic'
loop_
_space_group_symop_operation_xyz
x,y,z
-x,-y,-z
loop_
_atom_site_type_symbol
_atom_site_label
_atom_site_fract_x
_atom_site_fract_y
_atom_site_fract_z
Si Si1 0.625254 0.397990 0.765283
Si Si2 0.737143 0.855995 0.931242
Si Si3 0.790533 0.155264 0.694134
Si Si4 0.192763 0.625379 0.182618
Si Si5 0.750710 0.282072 0.140994
Si Si6 0.685094 0.709257 0.187883
O O1 0.369155 0.283691 0.852086
O O2 0.965013 0.523348 0.443506
O O3 0.498549 0.232905 0.781053
O O4 0.642941 0.537250 0.012064
O O5 0.932218 0.816653 0.627217
O O6 0.543064 0.758960 0.943136
O O7 0.966911 0.086936 0.951080
O O8 0.811450 0.237207 0.671982
O O9 0.455602 0.925660 0.823401
O O10 0.824201 0.279610 0.918753
O O11 0.075289 0.454580 0.017383
O O12 0.569563 0.334676 0.461739
#
# Coordination Sequence:
#
# PCOD8002572 Si02
#       6
#     2   2   2   2   2   2
#     4  10  20  36  55  81 115 147 182 225 273 326
#     4  11  22  36  58  85 111 145 186 226 273 327
#     4  10  21  40  59  80 112 147 184 226 275 327
#     4  11  23  36  57  86 112 144 185 228 274 325
#     4   9  20  39  59  80 112 147 181 229 277 323
#     4   9  19  36  59  81 107 150 186 221 276 328
#
# _framework density 21.518098999999999
#
# number of rings (size 3 to 8) (size 9 to 14) (size 15 to 20)
#    0.000    2.000    0.000    4.500    0.000    5.333 
#    0.000    7.500    0.000    0.000    0.000    0.000 
#    0.000    0.000    0.000    0.000    0.000    0.000 
#
# Total GULP energy -148806.272466 kJ/mol
# GULP energy per Si atom -12400.522705 kJ/mol
# Density = 2.146912 g / cm^3
# Si number density = 21.518099 Si / 1000 Ang^3
#
#
#
# Elastic Constant Matrix: (Units=GPa)
#
#
# Indices 1 2 3 4 5 6 
#
# 1 77.6289 37.8761 28.8575 -19.7986 -15.2113 20.0478
# 2 37.8761 91.5009 25.4318 -13.1409 -8.9337 38.5365
# 3 28.8575 25.4318 61.4085 1.7735 10.5404 6.3262
# 4 -19.7986 -13.1409 1.7735 34.3543 5.0841 0.5836
# 5 -15.2113 -8.9337 10.5404 5.0841 33.4992 -7.7670
# 6 20.0478 38.5365 6.3262 0.5836 -7.7670 37.0693
#
#
#
# Elastic Compliance Matrix: (Units=1/GPa)
#
#
# Indices 1 2 3 4 5 6 
#
# 1 0.026664 0.000492 -0.014185 0.014668 0.012110 -0.010205
# 2 0.000492 0.025399 -0.008921 0.010517 0.002458 -0.024799
# 3 -0.014185 -0.008921 0.028386 -0.011157 -0.013886 0.009367
# 4 0.014668 0.010517 -0.011157 0.042061 0.002634 -0.017073
# 5 0.012110 0.002458 -0.013886 0.002634 0.040365 0.001682
# 6 -0.010205 -0.024799 0.009367 -0.017073 0.001682 0.057298
#
#
# Mechanical properties :
#
#
# Convention : Reuss Voigt Hill
#
# Bulk Modulus (GPa) = 28.39209 46.09657 37.24433
# Shear Modulus (GPa) = 18.04130 30.20943 24.12536
#
# Velocity S-wave (km/s) = 2.89870 3.75094 3.35201
# Velocity P-wave (km/s) = 4.94231 6.34257 5.68571
#
# Compressibility (1/GPa) = 0.03522108
#
# Stress axis : x y z
#
# Youngs Moduli (GPa) = 37.50354 39.37089 35.22922
#
# Poissons Ratio (x) = -0.01936 0.49972
# Poissons Ratio (y) = -0.01845 0.31428
# Poissons Ratio (z) = 0.53198 0.35123
#
# Static dielectric constant tensor:
#      x y z
#    x 3.606820 0.163790 0.161870 
#    y 0.163790 4.179180 -0.036610 
#    z 0.161870 -0.036610 3.733930 
# 
# 
# High freq. dielectric constant tensor:
#      x y z
#    x 1.821970 0.007320 0.014200 
#    y 0.007320 1.866710 -0.007200 
#    z 0.014200 -0.007200 1.829060 
# 
# From -- ./inp_files/167291.got.cif
#   From: 2010.06.25/outbox.cif.g09.slc.cpg/sg2_84_cif.got.tgz:167291.got - 2010.06.27 13:26:56.
