data_PCOD8002381
_publ_section_title
;
Structure prediction by ZEFSAII (Michael W. Deem and Ramdas Pophale) SiO2 
 PCOD8002381
Probable space group: P -1
;
_chemical_formula_sum "Si O2"
_cell_formula_units_Z 16
_cell_length_a 11.636377
_cell_length_b 11.472863
_cell_length_c 13.802612
_cell_angle_alpha 149.682607
_cell_angle_beta 97.739994
_cell_angle_gamma 65.601579
_cell_volume 741.869468
_symmetry_space_group_name_H-M "P -1"
_symmetry_group_IT_number 2
_symmetry_cell_setting 'triclinic'
loop_
_space_group_symop_operation_xyz
x,y,z
-x,-y,-z
loop_
_atom_site_type_symbol
_atom_site_label
_atom_site_fract_x
_atom_site_fract_y
_atom_site_fract_z
Si Si1 0.301923 0.804772 0.942950
Si Si2 0.346333 0.781093 0.156393
Si Si3 0.522718 0.258796 0.255815
Si Si4 0.152020 0.844723 0.523012
Si Si5 0.771113 0.623138 0.668462
Si Si6 0.325683 0.314010 0.507770
Si Si7 0.656823 0.984165 0.250474
Si Si8 0.833411 0.332051 0.816414
O O1 0.439497 0.687907 0.806506
O O2 0.250755 0.604106 0.771968
O O3 0.345748 0.769646 0.032999
O O4 0.191395 0.146715 0.150157
O O5 0.220033 0.790688 0.200011
O O6 0.318549 0.080789 0.397622
O O7 0.500000 0.500000 0.000000
O O8 0.500000 0.500000 0.500000
O O9 0.390258 0.239255 0.212015
O O10 0.652441 0.974010 0.124422
O O11 0.121835 0.661482 0.460087
O O12 0.203824 0.704678 0.322592
O O13 0.278263 0.848823 0.586718
O O14 0.004349 0.162600 0.726913
O O15 0.772388 0.563997 0.512246
O O16 0.494364 0.154599 0.393095
O O17 0.756713 0.662374 0.070611
#
# Coordination Sequence:
#
# PCOD8002381 Si02
#       8
#     2   2   2   2   2   2   2   2
#     4  11  21  35  57  88 122 153 189 242 309 344
#     4  11  25  39  58  85 126 161 198 242 285 364
#     4  11  18  32  59  96 117 143 192 250 307 345
#     4  11  23  41  65  82 122 162 196 250 290 348
#     4  10  20  35  60  91 117 151 195 253 297 348
#     4  10  21  38  61  96 119 150 196 248 308 350
#     4  11  20  37  64  91 122 147 199 255 297 350
#     4  11  26  42  56  89 119 166 209 228 290 361
#
# _framework density 21.567136999999999
#
# number of rings (size 3 to 8) (size 9 to 14) (size 15 to 20)
#    0.000    1.250    5.000    1.500    3.500    1.500 
#    0.000    2.500    0.000    3.750    0.000    0.000 
#    0.000    0.000    0.000    0.000    0.000    0.000 
#
# Total GULP energy -198267.509341 kJ/mol
# GULP energy per Si atom -12391.719334 kJ/mol
# Density = 2.151805 g / cm^3
# Si number density = 21.567137 Si / 1000 Ang^3
#
#
#
# Elastic Constant Matrix: (Units=GPa)
#
#
# Indices 1 2 3 4 5 6 
#
# 1 53.4748 23.8726 22.8703 -2.4948 18.0252 12.7934
# 2 23.8726 107.8180 34.4508 9.8598 11.7322 12.9952
# 3 22.8703 34.4508 104.0060 9.4312 37.5537 4.3006
# 4 -2.4948 9.8598 9.4312 27.4778 5.1153 7.6939
# 5 18.0252 11.7322 37.5537 5.1153 38.1090 9.8474
# 6 12.7934 12.9952 4.3006 7.6939 9.8474 29.2242
#
#
#
# Elastic Compliance Matrix: (Units=1/GPa)
#
#
# Indices 1 2 3 4 5 6 
#
# 1 0.026724 -0.004093 -0.001938 0.008644 -0.008286 -0.009078
# 2 -0.004093 0.011676 -0.003735 -0.003000 0.003239 -0.003152
# 3 -0.001938 -0.003735 0.017085 -0.003494 -0.015923 0.006280
# 4 0.008644 -0.003000 -0.003494 0.043406 -0.002295 -0.012590
# 5 -0.008286 0.003239 -0.015923 -0.002295 0.048016 -0.011045
# 6 -0.009078 -0.003152 0.006280 -0.012590 -0.011045 0.045706
#
#
# Mechanical properties :
#
#
# Convention : Reuss Voigt Hill
#
# Bulk Modulus (GPa) = 27.81273 47.52067 37.66670
# Shear Modulus (GPa) = 22.30871 31.23588 26.77229
#
# Velocity S-wave (km/s) = 3.21967 3.80979 3.52710
# Velocity P-wave (km/s) = 5.17162 6.43695 5.83866
#
# Compressibility (1/GPa) = 0.03595475
#
# Stress axis : x y z
#
# Youngs Moduli (GPa) = 37.41933 85.64352 58.53251
#
# Poissons Ratio (x) = 0.35052 0.11341
# Poissons Ratio (y) = 0.15315 0.21860
# Poissons Ratio (z) = 0.07250 0.31985
#
# Static dielectric constant tensor:
#      x y z
#    x 3.794000 0.348730 0.519760 
#    y 0.348730 4.361560 0.245620 
#    z 0.519760 0.245620 4.168520 
# 
# 
# High freq. dielectric constant tensor:
#      x y z
#    x 1.815760 0.013990 0.033290 
#    y 0.013990 1.857530 0.009150 
#    z 0.033290 0.009150 1.852780 
# 
# From -- ./inp_files/519961.got.cif
#   From: 2010.06.25/outbox.cif.g09.slc.cpg/sg2_260_cif.got.tgz:519961.got - 2010.06.27 13:26:56.
