data_PCOD8002132
_publ_section_title
;
Structure prediction by ZEFSAII (Michael W. Deem and Ramdas Pophale) SiO2 
 PCOD8002132
Probable space group: P -1
;
_chemical_formula_sum "Si O2"
_cell_formula_units_Z 16
_cell_length_a 19.220565
_cell_length_b 9.404898
_cell_length_c 9.168157
_cell_angle_alpha 137.532303
_cell_angle_beta 44.519509
_cell_angle_gamma 121.531125
_cell_volume 784.552102
_symmetry_space_group_name_H-M "P -1"
_symmetry_group_IT_number 2
_symmetry_cell_setting 'triclinic'
loop_
_space_group_symop_operation_xyz
x,y,z
-x,-y,-z
loop_
_atom_site_type_symbol
_atom_site_label
_atom_site_fract_x
_atom_site_fract_y
_atom_site_fract_z
Si Si1 0.895361 0.007157 0.913903
Si Si2 0.622626 0.687879 0.042185
Si Si3 0.281384 0.929679 0.973133
Si Si4 0.203385 0.000521 0.447638
Si Si5 0.952732 0.646293 0.058457
Si Si6 0.046510 0.652317 0.425910
Si Si7 0.610434 0.283023 0.583530
Si Si8 0.717691 0.915779 0.304842
O O1 0.959038 0.805116 0.616589
O O2 0.828916 0.957372 0.115716
O O3 0.831375 0.067185 0.913570
O O4 0.961324 0.202290 0.014928
O O5 0.506014 0.699798 0.253030
O O6 0.679410 0.697864 0.122438
O O7 0.657232 0.869394 0.018688
O O8 0.654705 0.475635 0.753383
O O9 0.337253 0.728429 0.663464
O O10 0.275529 0.920302 0.149355
O O11 0.137257 0.803436 0.454776
O O12 0.277142 0.081250 0.526160
O O13 0.137920 0.200521 0.640025
O O14 0.913609 0.495101 0.875096
O O15 0.000000 0.500000 0.000000
O O16 0.000000 0.500000 0.500000
O O17 0.637449 0.080678 0.486975
#
# Coordination Sequence:
#
# PCOD8002132 Si02
#       8
#     2   2   2   2   2   2   2   2
#     4   9  20  36  53  78 102 144 201 230 260 325
#     4   9  19  38  62  83 104 139 184 223 270 336
#     4  10  20  35  56  80 112 141 177 230 276 321
#     4  11  24  36  51  86 118 144 187 230 276 333
#     4  11  22  36  54  74 110 154 189 230 275 316
#     4  11  22  36  54  74 110 154 189 230 275 316
#     4   9  19  38  62  83 104 139 184 223 270 336
#     4  10  20  35  56  80 112 141 177 230 276 321
#
# _framework density 20.393801
#
# number of rings (size 3 to 8) (size 9 to 14) (size 15 to 20)
#    0.000    2.250    0.000    4.500    0.000   14.000 
#    0.000    2.500    0.000    3.000    0.000    0.000 
#    0.000    0.000    0.000    0.000    0.000    0.000 
#
# Total GULP energy -198299.570419 kJ/mol
# GULP energy per Si atom -12393.723151 kJ/mol
# Density = 2.034738 g / cm^3
# Si number density = 20.393801 Si / 1000 Ang^3
#
#
#
# Elastic Constant Matrix: (Units=GPa)
#
#
# Indices 1 2 3 4 5 6 
#
# 1 99.5107 33.7185 32.3668 -13.1083 30.2819 6.8154
# 2 33.7185 61.6633 28.9701 3.0459 13.1595 5.6961
# 3 32.3668 28.9701 89.9808 -9.6340 21.4791 0.7958
# 4 -13.1083 3.0459 -9.6340 28.3844 -1.2855 9.6185
# 5 30.2819 13.1595 21.4791 -1.2855 38.0580 0.2329
# 6 6.8154 5.6961 0.7958 9.6185 0.2329 29.2801
#
#
#
# Elastic Compliance Matrix: (Units=1/GPa)
#
#
# Indices 1 2 3 4 5 6 
#
# 1 0.017719 -0.007158 -0.000252 0.010416 -0.011092 -0.006059
# 2 -0.007158 0.023123 -0.005873 -0.007695 0.000756 -0.000151
# 3 -0.000252 -0.005873 0.015185 0.005745 -0.006138 -0.001050
# 4 0.010416 -0.007695 0.005745 0.048208 -0.007138 -0.016863
# 5 -0.011092 0.000756 -0.006138 -0.007138 0.038035 0.004644
# 6 -0.006059 -0.000151 -0.001050 -0.016863 0.004644 0.041124
#
#
# Mechanical properties :
#
#
# Convention : Reuss Voigt Hill
#
# Bulk Modulus (GPa) = 33.94415 49.02950 41.48682
# Shear Modulus (GPa) = 22.74994 29.55112 26.15053
#
# Velocity S-wave (km/s) = 3.34358 3.81073 3.58478
# Velocity P-wave (km/s) = 5.62019 6.59210 6.12545
#
# Compressibility (1/GPa) = 0.02946016
#
# Stress axis : x y z
#
# Youngs Moduli (GPa) = 56.43548 43.24654 65.85587
#
# Poissons Ratio (x) = 0.30957 0.01663
# Poissons Ratio (y) = 0.40398 0.38676
# Poissons Ratio (z) = 0.01425 0.25398
#
# Static dielectric constant tensor:
#      x y z
#    x 3.839720 0.250120 0.473870 
#    y 0.250120 3.637670 0.317330 
#    z 0.473870 0.317330 4.375170 
# 
# 
# High freq. dielectric constant tensor:
#      x y z
#    x 1.790550 0.018560 0.012840 
#    y 0.018560 1.773500 0.010680 
#    z 0.012840 0.010680 1.809590 
# 
# From -- ./inp_files/329515.got.cif
#   From: 2010.06.25/outbox.cif.g09.slc.cpg/sg2_165_cif.got.tgz:329515.got - 2010.06.27 13:26:56.
