data_PCOD8002223
_publ_section_title
;
Structure prediction by ZEFSAII (Michael W. Deem and Ramdas Pophale) SiO2 
 PCOD8002223
Probable space group: P -1
;
_chemical_formula_sum "Si O2"
_cell_formula_units_Z 16
_cell_length_a 15.708014
_cell_length_b 16.002863
_cell_length_c 10.903840
_cell_angle_alpha 81.915388
_cell_angle_beta 80.528792
_cell_angle_gamma 18.186296
_cell_volume 842.707403
_symmetry_space_group_name_H-M "P -1"
_symmetry_group_IT_number 2
_symmetry_cell_setting 'triclinic'
loop_
_space_group_symop_operation_xyz
x,y,z
-x,-y,-z
loop_
_atom_site_type_symbol
_atom_site_label
_atom_site_fract_x
_atom_site_fract_y
_atom_site_fract_z
Si Si1 0.625238 0.417603 0.176500
Si Si2 0.049248 0.706357 0.344157
Si Si3 0.032994 0.236148 0.367566
Si Si4 0.246920 0.214972 0.354583
Si Si5 0.639233 0.209064 0.226288
Si Si6 0.764596 0.107384 0.943627
Si Si7 0.815598 0.747994 0.349438
Si Si8 0.490036 0.701586 0.269378
O O1 0.622946 0.323201 0.235582
O O2 0.394126 0.654227 0.078310
O O3 0.540905 0.552149 0.289751
O O4 0.919914 0.173429 0.107780
O O5 0.345503 0.440571 0.269030
O O6 0.090815 0.652022 0.489874
O O7 0.905025 0.760981 0.300534
O O8 0.862320 0.962074 0.315535
O O9 0.203276 0.163425 0.316423
O O10 0.777498 0.476741 0.284896
O O11 0.240288 0.964562 0.359933
O O12 0.222651 0.229553 0.502427
O O13 0.031473 0.481748 0.298532
O O14 0.538010 0.983510 0.295254
O O15 0.740067 0.095655 0.088666
O O16 0.609132 0.186304 0.871032
#
# Coordination Sequence:
#
# PCOD8002223 Si02
#       8
#     2   2   2   2   2   2   2   2
#     4  10  20  37  57  82 103 137 188 240 264 293
#     4  11  24  34  54  81 122 142 167 218 270 349
#     4  11  20  37  53  84 113 144 177 213 268 324
#     4   9  17  29  56  72 103 138 177 219 252 312
#     4  12  22  37  56  84 106 146 180 217 289 313
#     4  10  20  37  60  79 101 139 184 248 261 297
#     4   9  17  33  47  79 104 137 174 213 268 304
#     4  10  20  35  58  77 109 140 183 238 253 297
#
# _framework density 18.986425000000001
#
# number of rings (size 3 to 8) (size 9 to 14) (size 15 to 20)
#    0.750    1.000    1.250    4.500    0.000    4.000 
#    0.000    3.750    0.000    0.000    0.000   17.500 
#    0.000    0.000    0.000    0.000    0.000    0.000 
#
# Total GULP energy -198271.367924 kJ/mol
# GULP energy per Si atom -12391.960495 kJ/mol
# Density = 1.894321 g / cm^3
# Si number density = 18.986425 Si / 1000 Ang^3
#
#
#
# Elastic Constant Matrix: (Units=GPa)
#
#
# Indices 1 2 3 4 5 6 
#
# 1 78.2879 26.4403 43.8274 13.4486 4.1804 -3.2414
# 2 26.4403 127.5668 22.1981 8.9939 -0.4630 -3.8647
# 3 43.8274 22.1981 33.7056 9.1296 2.7264 1.7733
# 4 13.4486 8.9939 9.1296 19.3124 -8.6240 -2.7511
# 5 4.1804 -0.4630 2.7264 -8.6240 7.7298 -5.9696
# 6 -3.2414 -3.8647 1.7733 -2.7511 -5.9696 33.5956
#
#
#
# Elastic Compliance Matrix: (Units=1/GPa)
#
#
# Indices 1 2 3 4 5 6 
#
# 1 0.049740 0.001124 -0.058178 -0.019188 -0.026375 0.001741
# 2 0.001124 0.009565 -0.017489 0.022090 0.039202 0.010907
# 3 -0.058178 -0.017489 0.293983 -0.417583 -0.676248 -0.177500
# 4 -0.019188 0.022090 -0.417583 1.024709 1.604823 0.391803
# 5 -0.026375 0.039202 -0.676248 1.604823 2.672262 0.643909
# 6 0.001741 0.010907 -0.177500 0.391803 0.643909 0.187058
#
#
# Mechanical properties :
#
#
# Convention : Reuss Voigt Hill
#
# Bulk Modulus (GPa) = 4.89710 47.16576 26.03143
# Shear Modulus (GPa) = 1.12247 21.93387 11.52817
#
# Velocity S-wave (km/s) = 0.76973 3.40257 2.46677
# Velocity P-wave (km/s) = 1.83707 6.35078 4.67478
#
# Compressibility (1/GPa) = 0.20420265
#
# Stress axis : x y z
#
# Youngs Moduli (GPa) = 20.10474 104.55206 3.40155
#
# Poissons Ratio (x) = -0.11752 0.19789
# Poissons Ratio (y) = -0.02260 0.05949
# Poissons Ratio (z) = 1.16964 1.82851
#
# Static dielectric constant tensor:
#      x y z
#    x 3.582820 0.007150 0.088260 
#    y 0.007150 3.746260 -0.042430 
#    z 0.088260 -0.042430 3.070040 
# 
# 
# High freq. dielectric constant tensor:
#      x y z
#    x 1.737590 -0.003230 0.009260 
#    y -0.003230 1.765920 -0.001960 
#    z 0.009260 -0.001960 1.684200 
# 
# From -- ./inp_files/455693.got.cif
#   From: 2010.06.25/outbox.cif.g09.slc.cpg/sg2_228_cif.got.tgz:455693.got - 2010.06.27 13:26:56.
