data_PCOD8002225
_publ_section_title
;
Structure prediction by ZEFSAII (Michael W. Deem and Ramdas Pophale) SiO2 
 PCOD8002225
Probable space group: P -1
;
_chemical_formula_sum "Si O2"
_cell_formula_units_Z 14
_cell_length_a 9.252145
_cell_length_b 15.200735
_cell_length_c 14.244516
_cell_angle_alpha 27.463065
_cell_angle_beta 95.943349
_cell_angle_gamma 114.539044
_cell_volume 651.600931
_symmetry_space_group_name_H-M "P -1"
_symmetry_group_IT_number 2
_symmetry_cell_setting 'triclinic'
loop_
_space_group_symop_operation_xyz
x,y,z
-x,-y,-z
loop_
_atom_site_type_symbol
_atom_site_label
_atom_site_fract_x
_atom_site_fract_y
_atom_site_fract_z
Si Si1 0.639089 0.780795 0.882035
Si Si2 0.187018 0.682086 0.410106
Si Si3 0.172201 0.338549 0.295762
Si Si4 0.118782 0.024362 0.108324
Si Si5 0.295511 0.424041 0.579928
Si Si6 0.116614 0.634534 0.663876
Si Si7 0.889292 0.730332 0.854228
O O1 0.683652 0.672924 0.902861
O O2 0.810713 0.859412 0.892675
O O3 0.686433 0.044654 0.606826
O O4 0.414526 0.555718 0.122140
O O5 0.259367 0.968561 0.143958
O O6 0.353521 0.693359 0.362369
O O7 0.122452 0.564082 0.623928
O O8 0.000000 0.500000 0.500000
O O9 0.111589 0.348470 0.177189
O O10 0.083384 0.417752 0.284376
O O11 0.087279 0.047450 0.586316
O O12 0.872528 0.748794 0.351791
O O13 0.172600 0.239976 0.837047
O O14 0.500000 0.500000 0.500000
O O15 0.115910 0.454637 0.902510
#
# Coordination Sequence:
#
# PCOD8002225 Si02
#       7
#     2   2   2   2   2   2   2
#     4  10  21  37  57  84 119 152 188 238 291 340
#     4   9  19  37  56  79 114 148 183 235 286 331
#     4  10  22  38  59  86 116 154 193 237 293 345
#     4   9  20  37  53  80 115 144 186 237 281 338
#     4  10  20  35  58  81 107 148 191 232 285 340
#     4  10  21  38  59  84 115 151 195 241 284 345
#     4  10  21  38  59  86 118 150 194 243 286 343
#
# _framework density 21.485543
#
# number of rings (size 3 to 8) (size 9 to 14) (size 15 to 20)
#    0.000    2.286    0.000    1.714    0.000    6.857 
#    0.000   10.000    0.000    0.000    0.000    0.000 
#    0.000    0.000    0.000    0.000    0.000    0.000 
#
# Total GULP energy -173439.718454 kJ/mol
# GULP energy per Si atom -12388.551318 kJ/mol
# Density = 2.143664 g / cm^3
# Si number density = 21.485543 Si / 1000 Ang^3
#
#
#
# Elastic Constant Matrix: (Units=GPa)
#
#
# Indices 1 2 3 4 5 6 
#
# 1 121.9116 28.4519 36.1141 -13.5849 -16.6937 -12.8102
# 2 28.4519 67.8231 16.1760 5.6183 0.9110 2.4161
# 3 36.1141 16.1760 84.8041 -3.7613 -0.2631 16.4051
# 4 -13.5849 5.6183 -3.7613 21.6715 9.2741 4.1894
# 5 -16.6937 0.9110 -0.2631 9.2741 43.0985 8.0165
# 6 -12.8102 2.4161 16.4051 4.1894 8.0165 33.6367
#
#
#
# Elastic Compliance Matrix: (Units=1/GPa)
#
#
# Indices 1 2 3 4 5 6 
#
# 1 0.012593 -0.004734 -0.005443 0.005865 0.002479 0.006469
# 2 -0.004734 0.017738 -0.001431 -0.007390 -0.000372 -0.001370
# 3 -0.005443 -0.001431 0.016424 0.001988 -0.000526 -0.010102
# 4 0.005865 -0.007390 0.001988 0.056597 -0.009168 -0.003069
# 5 0.002479 -0.000372 -0.000526 -0.009168 0.026892 -0.004039
# 6 0.006469 -0.001370 -0.010102 -0.003069 -0.004039 0.038564
#
#
# Mechanical properties :
#
#
# Convention : Reuss Voigt Hill
#
# Bulk Modulus (GPa) = 42.48683 48.44698 45.46691
# Shear Modulus (GPa) = 25.01626 32.60113 28.80870
#
# Velocity S-wave (km/s) = 3.41593 3.89955 3.66572
# Velocity P-wave (km/s) = 5.94774 6.54774 6.25494
#
# Compressibility (1/GPa) = 0.02353671
#
# Stress axis : x y z
#
# Youngs Moduli (GPa) = 79.41053 56.37757 60.88727
#
# Poissons Ratio (x) = 0.26689 0.33143
# Poissons Ratio (y) = 0.37593 0.08715
# Poissons Ratio (z) = 0.43226 0.08069
#
# Static dielectric constant tensor:
#      x y z
#    x 4.622340 -0.929530 0.509050 
#    y -0.929530 4.568340 -0.223070 
#    z 0.509050 -0.223070 3.940140 
# 
# 
# High freq. dielectric constant tensor:
#      x y z
#    x 1.837980 -0.018120 0.017470 
#    y -0.018120 1.851160 0.006460 
#    z 0.017470 0.006460 1.830330 
# 
# From -- ./inp_files/315200.got.cif
#   From: 2010.06.25/outbox.cif.g09.slc.cpg/sg2_158_cif.got.tgz:315200.got - 2010.06.27 13:26:56.
