data_PCOD8002149
_publ_section_title
;
Structure prediction by ZEFSAII (Michael W. Deem and Ramdas Pophale) SiO2 
 PCOD8002149
Probable space group: P -1
;
_chemical_formula_sum "Si O2"
_cell_formula_units_Z 16
_cell_length_a 19.562455
_cell_length_b 12.439483
_cell_length_c 8.360462
_cell_angle_alpha 109.636347
_cell_angle_beta 102.336437
_cell_angle_gamma 140.419646
_cell_volume 752.276109
_symmetry_space_group_name_H-M "P -1"
_symmetry_group_IT_number 2
_symmetry_cell_setting 'triclinic'
loop_
_space_group_symop_operation_xyz
x,y,z
-x,-y,-z
loop_
_atom_site_type_symbol
_atom_site_label
_atom_site_fract_x
_atom_site_fract_y
_atom_site_fract_z
Si Si1 0.592338 0.116388 0.855435
Si Si2 0.722465 0.546912 0.217404
Si Si3 0.479847 0.377474 0.111684
Si Si4 0.735182 0.109999 0.078523
Si Si5 0.092394 0.616450 0.353350
Si Si6 0.235172 0.609949 0.266645
Si Si7 0.222490 0.046939 0.551981
Si Si8 0.979888 0.877532 0.245672
O O1 0.693475 0.263839 0.812771
O O2 0.386835 0.815286 0.571593
O O3 0.651691 0.313441 0.090643
O O4 0.624619 0.053920 0.945381
O O5 0.561132 0.393517 0.055520
O O6 0.826426 0.710601 0.183471
O O7 0.864006 0.798467 0.550497
O O8 0.635928 0.701448 0.387952
O O9 0.326388 0.210549 0.853511
O O10 0.394624 0.194045 0.136310
O O11 0.806416 0.236085 0.355404
O O12 0.886907 0.315410 0.130698
O O13 0.124613 0.553907 0.233081
O O14 0.151761 0.813525 0.374573
O O15 0.105326 0.305864 0.047594
O O16 0.061129 0.893482 0.399062
#
# Coordination Sequence:
#
# PCOD8002149 Si02
#       8
#     2   2   2   2   2   2   2   2
#     4  10  20  35  56  83 113 146 187 234 279 332
#     4   9  17  32  54  78 108 144 184 224 272 331
#     4   9  18  32  53  82 110 139 185 235 273 323
#     4  10  21  35  55  85 115 145 188 234 280 332
#     4  10  20  35  56  83 113 146 187 234 279 332
#     4  10  21  35  55  85 115 145 188 234 280 332
#     4   9  17  32  54  78 108 144 184 224 272 331
#     4   9  18  32  53  82 110 139 185 235 273 323
#
# _framework density 21.268788000000001
#
# number of rings (size 3 to 8) (size 9 to 14) (size 15 to 20)
#    0.000    2.500    0.000    3.000    0.000    4.000 
#    0.000    0.000    0.000   13.500    0.000    0.000 
#    0.000    0.000    0.000    0.000    0.000    0.000 
#
# Total GULP energy -198253.842530 kJ/mol
# GULP energy per Si atom -12390.865158 kJ/mol
# Density = 2.122038 g / cm^3
# Si number density = 21.268788 Si / 1000 Ang^3
#
#
#
# Elastic Constant Matrix: (Units=GPa)
#
#
# Indices 1 2 3 4 5 6 
#
# 1 105.2905 41.7206 56.1020 17.3611 -5.8688 -5.2319
# 2 41.7206 80.2272 49.3050 30.1152 -6.5324 -23.8420
# 3 56.1020 49.3050 109.2873 35.2611 -10.5928 -12.4412
# 4 17.3611 30.1152 35.2611 28.9877 -7.1140 -1.8865
# 5 -5.8688 -6.5324 -10.5928 -7.1140 39.0947 2.5918
# 6 -5.2319 -23.8420 -12.4412 -1.8865 2.5918 32.8197
#
#
#
# Elastic Compliance Matrix: (Units=1/GPa)
#
#
# Indices 1 2 3 4 5 6 
#
# 1 0.014944 -0.007939 -0.007211 0.007887 0.000778 -0.005726
# 2 -0.007939 0.033984 0.001023 -0.030924 -0.002336 0.022217
# 3 -0.007211 0.001023 0.019567 -0.020080 0.000350 0.005829
# 4 0.007887 -0.030924 -0.020080 0.086691 0.007973 -0.024466
# 5 0.000778 -0.002336 0.000350 0.007973 0.027058 -0.003119
# 6 -0.005726 0.022217 0.005829 -0.024466 -0.003119 0.046746
#
#
# Mechanical properties :
#
#
# Convention : Reuss Voigt Hill
#
# Bulk Modulus (GPa) = 24.84954 65.45115 45.15034
# Shear Modulus (GPa) = 18.47364 30.02560 24.24962
#
# Velocity S-wave (km/s) = 2.95036 3.76136 3.38027
# Velocity P-wave (km/s) = 4.82858 7.05010 6.04231
#
# Compressibility (1/GPa) = 0.04024220
#
# Stress axis : x y z
#
# Youngs Moduli (GPa) = 66.91770 29.42529 51.10763
#
# Poissons Ratio (x) = 0.23360 0.36854
# Poissons Ratio (y) = 0.53124 -0.05231
# Poissons Ratio (z) = 0.48255 -0.03012
#
# Static dielectric constant tensor:
#      x y z
#    x 3.870630 -0.164260 -0.030990 
#    y -0.164260 3.735640 0.548480 
#    z -0.030990 0.548480 4.097150 
# 
# 
# High freq. dielectric constant tensor:
#      x y z
#    x 1.837030 -0.008820 0.012760 
#    y -0.008820 1.799710 0.042030 
#    z 0.012760 0.042030 1.833970 
# 
# From -- ./inp_files/332273.got.cif
#   From: 2010.06.25/outbox.cif.g09.slc.cpg/sg2_167_cif.got.tgz:332273.got - 2010.06.27 13:26:56.
