data_PCOD8002135
_publ_section_title
;
Structure prediction by ZEFSAII (Michael W. Deem and Ramdas Pophale) SiO2 
 PCOD8002135
Probable space group: P -1
;
_chemical_formula_sum "Si O2"
_cell_formula_units_Z 16
_cell_length_a 14.223053
_cell_length_b 8.518915
_cell_length_c 9.037316
_cell_angle_alpha 90.000124
_cell_angle_beta 108.524032
_cell_angle_gamma 52.307311
_cell_volume 793.576759
_symmetry_space_group_name_H-M "P -1"
_symmetry_group_IT_number 2
_symmetry_cell_setting 'triclinic'
loop_
_space_group_symop_operation_xyz
x,y,z
-x,-y,-z
loop_
_atom_site_type_symbol
_atom_site_label
_atom_site_fract_x
_atom_site_fract_y
_atom_site_fract_z
Si Si1 0.120797 0.672972 0.113891
Si Si2 0.364065 0.832089 0.127241
Si Si3 0.634296 0.032797 0.185317
Si Si4 0.879203 0.827028 0.493094
Si Si5 0.365704 0.467203 0.051022
Si Si6 0.879498 0.465947 0.572769
Si Si7 0.364065 0.332090 0.736824
Si Si8 0.879498 0.965948 0.806729
O O1 0.253366 0.504981 0.093279
O O2 0.114958 0.563875 0.249743
O O3 0.112731 0.857672 0.166395
O O4 0.000387 0.757446 0.946275
O O5 0.374903 0.642899 0.078708
O O6 0.500000 0.750000 0.267004
O O7 0.253033 0.969960 0.193291
O O8 0.332940 0.971571 0.969927
O O9 0.500000 0.250000 0.165954
O O10 0.746634 0.995020 0.339913
O O11 0.625098 0.857100 0.203805
O O12 0.887269 0.642328 0.553663
O O13 0.885041 0.936126 0.634784
O O14 0.999612 0.742555 0.445888
O O15 0.332940 0.471571 0.863014
O O16 0.746967 0.530039 0.440257
#
# Coordination Sequence:
#
# PCOD8002135 Si02
#       8
#     2   2   2   2   2   2   2   2
#     4  10  22  38  56  80 108 140 179 221 266 316
#     4  10  20  35  56  81 109 141 178 218 263 316
#     4  10  20  35  56  81 109 141 178 218 263 316
#     4  10  22  38  56  80 108 140 179 221 266 316
#     4  10  20  35  56  81 109 141 178 218 263 316
#     4  10  22  38  56  80 108 140 179 221 266 316
#     4  10  20  35  56  81 109 141 178 218 263 316
#     4  10  22  38  56  80 108 140 179 221 266 316
#
# _framework density 20.16188
#
# number of rings (size 3 to 8) (size 9 to 14) (size 15 to 20)
#    0.000    2.000    0.000    4.500    0.000    6.000 
#    0.000    5.000    0.000    0.000    0.000    0.000 
#    0.000    0.000    0.000    0.000    0.000    0.000 
#
# Total GULP energy -198464.362852 kJ/mol
# GULP energy per Si atom -12404.022678 kJ/mol
# Density = 2.011599 g / cm^3
# Si number density = 20.161880 Si / 1000 Ang^3
#
#
#
# Elastic Constant Matrix: (Units=GPa)
#
#
# Indices 1 2 3 4 5 6 
#
# 1 96.6139 13.1485 22.7446 -3.0275 8.3469 -23.5713
# 2 13.1485 52.4172 8.0275 -3.7600 6.3417 -20.3880
# 3 22.7446 8.0275 78.7390 -8.3380 16.7187 -15.9746
# 4 -3.0275 -3.7600 -8.3380 27.6192 -1.3703 -0.3369
# 5 8.3469 6.3417 16.7187 -1.3703 32.7592 1.2567
# 6 -23.5713 -20.3880 -15.9746 -0.3369 1.2567 29.7309
#
#
#
# Elastic Compliance Matrix: (Units=1/GPa)
#
#
# Indices 1 2 3 4 5 6 
#
# 1 0.013521 0.001873 -0.000739 0.001468 -0.003821 0.011785
# 2 0.001873 0.028574 0.003662 0.005062 -0.008566 0.023466
# 3 -0.000739 0.003662 0.017577 0.005386 -0.009720 0.011841
# 4 0.001468 0.005062 0.005386 0.038643 -0.002797 0.008085
# 5 -0.003821 -0.008566 -0.009720 -0.002797 0.038607 -0.015790
# 6 0.011785 0.023466 0.011841 0.008085 -0.015790 0.066192
#
#
# Mechanical properties :
#
#
# Convention : Reuss Voigt Hill
#
# Bulk Modulus (GPa) = 14.43758 35.06793 24.75276
# Shear Modulus (GPa) = 23.08299 30.27848 26.68073
#
# Velocity S-wave (km/s) = 3.38728 3.87947 3.64170
# Velocity P-wave (km/s) = 4.74074 6.12356 5.47598
#
# Compressibility (1/GPa) = 0.06926367
#
# Stress axis : x y z
#
# Youngs Moduli (GPa) = 73.95920 34.99686 56.89309
#
# Poissons Ratio (x) = -0.06555 0.04203
# Poissons Ratio (y) = -0.13854 -0.20831
# Poissons Ratio (z) = 0.05464 -0.12814
#
# Static dielectric constant tensor:
#      x y z
#    x 3.852290 -0.211680 0.159930 
#    y -0.211680 3.615190 -0.086010 
#    z 0.159930 -0.086010 3.659220 
# 
# 
# High freq. dielectric constant tensor:
#      x y z
#    x 1.799460 -0.008020 0.009080 
#    y -0.008020 1.785920 -0.004440 
#    z 0.009080 -0.004440 1.785010 
# 
# From -- ./inp_files/253637.got.cif
#   From: 2010.06.25/outbox.cif.g09.slc.cpg/sg2_127_cif.got.tgz:253637.got - 2010.06.27 13:26:56.
