data_PCOD8002399
_publ_section_title
;
Structure prediction by ZEFSAII (Michael W. Deem and Ramdas Pophale) SiO2 
 PCOD8002399
Probable space group: P -1
;
_chemical_formula_sum "Si O2"
_cell_formula_units_Z 12
_cell_length_a 8.968318
_cell_length_b 12.120859
_cell_length_c 10.552132
_cell_angle_alpha 93.908316
_cell_angle_beta 60.517741
_cell_angle_gamma 46.268677
_cell_volume 548.786606
_symmetry_space_group_name_H-M "P -1"
_symmetry_group_IT_number 2
_symmetry_cell_setting 'triclinic'
loop_
_space_group_symop_operation_xyz
x,y,z
-x,-y,-z
loop_
_atom_site_type_symbol
_atom_site_label
_atom_site_fract_x
_atom_site_fract_y
_atom_site_fract_z
Si Si1 0.769348 0.682383 0.449493
Si Si2 0.275226 0.582377 0.210403
Si Si3 0.174123 0.052652 0.155462
Si Si4 0.774735 0.747451 0.732592
Si Si5 0.896689 0.968420 0.326969
Si Si6 0.873544 0.191603 0.045155
O O1 0.661004 0.786770 0.640054
O O2 0.476344 0.832640 0.488384
O O3 0.034012 0.617143 0.272531
O O4 0.900495 0.488339 0.395603
O O5 0.496152 0.412545 0.215916
O O6 0.500000 0.500000 0.000000
O O7 0.067430 0.803592 0.352944
O O8 0.171714 0.150210 0.267944
O O9 0.026583 0.022869 0.276926
O O10 0.988532 0.197974 0.119925
O O11 0.523043 0.837537 0.945692
O O12 0.979515 0.854793 0.154708
O O13 0.000000 0.000000 0.000000
#
# Coordination Sequence:
#
# PCOD8002399 Si02
#       6
#     2   2   2   2   2   2
#     4  11  21  36  58  91 112 148 195 243 282 329
#     4  10  21  36  59  83 116 153 192 230 288 347
#     4  10  20  39  59  87 114 156 186 235 288 340
#     4  10  22  35  61  87 118 145 196 240 280 337
#     4  10  20  35  61  83 117 150 191 233 285 344
#     4   9  17  33  59  85 108 151 190 226 276 343
#
# _framework density 21.866423000000001
#
# number of rings (size 3 to 8) (size 9 to 14) (size 15 to 20)
#    0.000    2.000    1.667    3.500    7.000    0.667 
#    0.000    0.833    3.667    4.000    0.000    0.000 
#    0.000    0.000    0.000    0.000    0.000    0.000 
#
# Total GULP energy -148657.361371 kJ/mol
# GULP energy per Si atom -12388.113448 kJ/mol
# Density = 2.181665 g / cm^3
# Si number density = 21.866423 Si / 1000 Ang^3
#
#
#
# Elastic Constant Matrix: (Units=GPa)
#
#
# Indices 1 2 3 4 5 6 
#
# 1 103.6648 45.5403 50.6568 23.5924 -14.3984 14.1300
# 2 45.5403 119.5899 43.0133 40.7186 -15.0678 0.6256
# 3 50.6568 43.0133 79.7714 18.3750 -15.9109 8.5236
# 4 23.5924 40.7186 18.3750 39.6792 -3.8152 -13.9425
# 5 -14.3984 -15.0678 -15.9109 -3.8152 39.4110 1.7220
# 6 14.1300 0.6256 8.5236 -13.9425 1.7220 28.7373
#
#
#
# Elastic Compliance Matrix: (Units=1/GPa)
#
#
# Indices 1 2 3 4 5 6 
#
# 1 0.017629 0.000082 -0.006575 -0.011620 0.003241 -0.012552
# 2 0.000082 0.015836 -0.002992 -0.017446 0.003545 -0.008174
# 3 -0.006575 -0.002992 0.020690 -0.003918 0.004647 -0.005018
# 4 -0.011620 -0.017446 -0.003918 0.064834 -0.007933 0.039186
# 5 0.003241 0.003545 0.004647 -0.007933 0.029399 -0.008659
# 6 -0.012552 -0.008174 -0.005018 0.039186 -0.008659 0.062167
#
#
# Mechanical properties :
#
#
# Convention : Reuss Voigt Hill
#
# Bulk Modulus (GPa) = 28.42112 64.60521 46.51317
# Shear Modulus (GPa) = 20.72509 32.48656 26.60582
#
# Velocity S-wave (km/s) = 3.08198 3.85864 3.49197
# Velocity P-wave (km/s) = 5.06859 7.03290 6.12994
#
# Compressibility (1/GPa) = 0.03518510
#
# Stress axis : x y z
#
# Youngs Moduli (GPa) = 56.72557 63.14652 48.33291
#
# Poissons Ratio (x) = -0.00518 0.31778
# Poissons Ratio (y) = -0.00466 0.14462
# Poissons Ratio (z) = 0.37296 0.18895
#
# Static dielectric constant tensor:
#      x y z
#    x 4.033630 -0.420820 -0.184340 
#    y -0.420820 4.785660 0.350370 
#    z -0.184340 0.350370 3.906480 
# 
# 
# High freq. dielectric constant tensor:
#      x y z
#    x 1.834160 0.005610 -0.029330 
#    y 0.005610 1.862930 0.022290 
#    z -0.029330 0.022290 1.851810 
# 
# From -- ./inp_files/144410.got.cif
#   From: 2010.06.25/outbox.cif.g09.slc.cpg/sg2_73_cif.got.tgz:144410.got - 2010.06.27 13:26:56.
