data_PCOD8002186
_publ_section_title
;
Structure prediction by ZEFSAII (Michael W. Deem and Ramdas Pophale) SiO2 
 PCOD8002186
Probable space group: P -1
;
_chemical_formula_sum "Si O2"
_cell_formula_units_Z 16
_cell_length_a 16.931070
_cell_length_b 8.983159
_cell_length_c 6.704349
_cell_angle_alpha 93.136649
_cell_angle_beta 116.541970
_cell_angle_gamma 106.235279
_cell_volume 856.476620
_symmetry_space_group_name_H-M "P -1"
_symmetry_group_IT_number 2
_symmetry_cell_setting 'triclinic'
loop_
_space_group_symop_operation_xyz
x,y,z
-x,-y,-z
loop_
_atom_site_type_symbol
_atom_site_label
_atom_site_fract_x
_atom_site_fract_y
_atom_site_fract_z
Si Si1 0.994432 0.817654 0.976623
Si Si2 0.476024 0.065807 0.177173
Si Si3 0.638176 0.152985 0.667625
Si Si4 0.358882 0.509915 0.306135
Si Si5 0.844274 0.303966 0.775620
Si Si6 0.497201 0.581731 0.797202
Si Si7 0.152222 0.414886 0.944625
Si Si8 0.923187 0.551861 0.540563
O O1 0.924772 0.742294 0.072740
O O2 0.095567 0.811273 0.150765
O O3 0.963111 0.714793 0.728317
O O4 0.000000 0.000000 0.000000
O O5 0.559905 0.065291 0.415001
O O6 0.469906 0.232552 0.123817
O O7 0.377245 0.958806 0.161502
O O8 0.500000 0.000000 0.000000
O O9 0.624572 0.313614 0.740069
O O10 0.737412 0.189200 0.671694
O O11 0.392519 0.514484 0.576117
O O12 0.423430 0.437708 0.253698
O O13 0.250040 0.408939 0.143736
O O14 0.863294 0.403344 0.598249
O O15 0.871536 0.431825 0.994612
O O16 0.500000 0.500000 0.000000
O O17 0.148225 0.416409 0.699519
O O18 0.000000 0.500000 0.500000
#
# Coordination Sequence:
#
# PCOD8002186 Si02
#       8
#     2   2   2   2   2   2   2   2
#     4  11  23  37  55  87 123 152 185 245 303 344
#     4  10  20  36  54  81 114 149 187 233 287 339
#     4   9  20  36  57  80 111 148 191 235 282 340
#     4   9  20  36  57  83 108 147 192 236 283 330
#     4  10  20  37  59  83 111 152 198 239 290 347
#     4  10  20  35  57  82 114 148 189 235 283 342
#     4  10  20  38  61  82 112 152 199 242 283 352
#     4  11  19  38  64  84 110 153 204 242 285 350
#
# _framework density 18.681187000000001
#
# number of rings (size 3 to 8) (size 9 to 14) (size 15 to 20)
#    0.000    2.000    2.500    1.500    0.000    8.500 
#    0.000    1.250    0.000    0.000    0.000    0.000 
#    0.000    0.000    0.000    0.000    0.000    0.000 
#
# Total GULP energy -198272.666816 kJ/mol
# GULP energy per Si atom -12392.041676 kJ/mol
# Density = 1.863867 g / cm^3
# Si number density = 18.681187 Si / 1000 Ang^3
#
#
#
# Elastic Constant Matrix: (Units=GPa)
#
#
# Indices 1 2 3 4 5 6 
#
# 1 116.9588 73.2991 48.9915 -3.9012 4.1829 7.4629
# 2 73.2991 123.2042 63.4499 -14.2554 1.7055 2.5558
# 3 48.9915 63.4499 101.8344 -15.8116 -5.3259 4.7836
# 4 -3.9012 -14.2554 -15.8116 28.2803 -0.8498 -4.9370
# 5 4.1829 1.7055 -5.3259 -0.8498 28.1551 -4.8474
# 6 7.4629 2.5558 4.7836 -4.9370 -4.8474 37.3977
#
#
#
# Elastic Compliance Matrix: (Units=1/GPa)
#
#
# Indices 1 2 3 4 5 6 
#
# 1 0.014714 -0.007575 -0.003005 -0.004072 -0.002927 -0.002951
# 2 -0.007575 0.016079 -0.005849 0.004057 -0.000553 0.001625
# 3 -0.003005 -0.005849 0.016003 0.005747 0.004042 0.000235
# 4 -0.004072 0.004057 0.005747 0.041164 0.003672 0.005710
# 5 -0.002927 -0.000553 0.004042 0.003672 0.037806 0.005490
# 6 -0.002951 0.001625 0.000235 0.005710 0.005490 0.028653
#
#
# Mechanical properties :
#
#
# Convention : Reuss Voigt Hill
#
# Bulk Modulus (GPa) = 71.75895 79.27539 75.51717
# Shear Modulus (GPa) = 26.05197 29.18373 27.61785
#
# Velocity S-wave (km/s) = 3.73843 3.95675 3.84914
# Velocity P-wave (km/s) = 7.55846 7.96258 7.76315
#
# Compressibility (1/GPa) = 0.01393554
#
# Stress axis : x y z
#
# Youngs Moduli (GPa) = 67.96441 62.19168 62.48886
#
# Poissons Ratio (x) = 0.47113 0.18779
# Poissons Ratio (y) = 0.51486 0.36552
# Poissons Ratio (z) = 0.20425 0.36378
#
# Static dielectric constant tensor:
#      x y z
#    x 3.883350 -0.483090 0.720820 
#    y -0.483090 4.191620 -0.974910 
#    z 0.720820 -0.974910 4.782670 
# 
# 
# High freq. dielectric constant tensor:
#      x y z
#    x 1.727890 0.001920 -0.002220 
#    y 0.001920 1.717110 -0.003980 
#    z -0.002220 -0.003980 1.727900 
# 
# From -- ./inp_files/105203.got.cif
#   From: 2010.06.25/outbox.cif.g09.slc.cpg/sg2_53_cif.got.tgz:105203.got - 2010.06.27 13:26:56.
