data_PCOD8002921
_publ_section_title
;
Structure prediction by ZEFSAII (Michael W. Deem and Ramdas Pophale) SiO2 
 PCOD8002921
Probable space group: P -1
;
_chemical_formula_sum "Si O2"
_cell_formula_units_Z 14
_cell_length_a 14.447017
_cell_length_b 11.005127
_cell_length_c 12.002149
_cell_angle_alpha 129.430358
_cell_angle_beta 119.545531
_cell_angle_gamma 30.390937
_cell_volume 738.294243
_symmetry_space_group_name_H-M "P -1"
_symmetry_group_IT_number 2
_symmetry_cell_setting 'triclinic'
loop_
_space_group_symop_operation_xyz
x,y,z
-x,-y,-z
loop_
_atom_site_type_symbol
_atom_site_label
_atom_site_fract_x
_atom_site_fract_y
_atom_site_fract_z
Si Si1 0.424223 0.374787 0.949119
Si Si2 0.206745 0.919808 0.393577
Si Si3 0.561843 0.300083 0.221737
Si Si4 0.945109 0.953738 0.235537
Si Si5 0.843865 0.837205 0.276237
Si Si6 0.916986 0.398206 0.097319
Si Si7 0.748684 0.080214 0.829729
O O1 0.290807 0.386669 0.858563
O O2 0.588638 0.162894 0.833693
O O3 0.508729 0.268423 0.061388
O O4 0.301956 0.678396 0.034057
O O5 0.385912 0.599492 0.344402
O O6 0.025674 0.028329 0.349838
O O7 0.236080 0.969076 0.321466
O O8 0.181220 0.086202 0.565653
O O9 0.645170 0.079676 0.235266
O O10 0.722945 0.232307 0.244986
O O11 0.980846 0.795142 0.270668
O O12 0.045057 0.763113 0.076423
O O13 0.933709 0.557185 0.159764
O O14 0.056130 0.197695 0.163203
#
# Coordination Sequence:
#
# PCOD8002921 Si02
#       7
#     2   2   2   2   2   2   2
#     4  10  20  36  60  89 108 150 194 240 278 327
#     4  11  21  41  60  83 115 158 188 234 281 333
#     4   9  20  37  60  83 113 144 203 228 274 336
#     4  10  21  37  62  86 109 153 193 234 281 336
#     4  10  24  38  57  87 124 145 188 234 288 351
#     4  12  21  39  58  90 118 148 182 245 292 324
#     4  10  21  35  61  83 116 146 200 229 274 347
#
# _framework density 18.962629
#
# number of rings (size 3 to 8) (size 9 to 14) (size 15 to 20)
#    0.857    0.857    4.286    1.714    0.000    1.143 
#    2.571    0.714    0.000    0.000    0.000    0.000 
#    0.000    0.000    0.000    0.000    0.000    0.000 
#
# Total GULP energy -173571.895205 kJ/mol
# GULP energy per Si atom -12397.992515 kJ/mol
# Density = 1.891947 g / cm^3
# Si number density = 18.962629 Si / 1000 Ang^3
#
#
#
# Elastic Constant Matrix: (Units=GPa)
#
#
# Indices 1 2 3 4 5 6 
#
# 1 67.7889 23.2335 19.5829 -11.5153 -9.5362 -16.0697
# 2 23.2335 103.3831 30.2982 -22.1018 2.4002 -5.0963
# 3 19.5829 30.2982 37.0357 -13.2476 -10.5716 6.0803
# 4 -11.5153 -22.1018 -13.2476 14.8568 5.3489 -5.0232
# 5 -9.5362 2.4002 -10.5716 5.3489 20.8914 0.4295
# 6 -16.0697 -5.0963 6.0803 -5.0232 0.4295 36.0252
#
#
#
# Elastic Compliance Matrix: (Units=1/GPa)
#
#
# Indices 1 2 3 4 5 6 
#
# 1 0.023516 0.002083 -0.010361 0.016894 0.000621 0.014881
# 2 0.002083 0.020182 -0.013524 0.028729 -0.015778 0.010261
# 3 -0.010361 -0.013524 0.055440 0.007843 0.023180 -0.015075
# 4 0.016894 0.028729 0.007843 0.152154 -0.031232 0.031865
# 5 0.000621 -0.015778 0.023180 -0.031232 0.069916 -0.011056
# 6 0.014881 0.010261 -0.015075 0.031865 -0.011056 0.042967
#
#
# Mechanical properties :
#
#
# Convention : Reuss Voigt Hill
#
# Bulk Modulus (GPa) = 18.00705 39.38187 28.69446
# Shear Modulus (GPa) = 11.72911 23.36090 17.54501
#
# Velocity S-wave (km/s) = 2.48974 3.51371 3.04508
# Velocity P-wave (km/s) = 4.21684 6.10531 5.24674
#
# Compressibility (1/GPa) = 0.05553380
#
# Stress axis : x y z
#
# Youngs Moduli (GPa) = 42.52474 49.54902 18.03760
#
# Poissons Ratio (x) = -0.10319 0.18688
# Poissons Ratio (y) = -0.08856 0.24393
# Poissons Ratio (z) = 0.44059 0.67008
#
# Static dielectric constant tensor:
#      x y z
#    x 3.478260 -0.120380 -0.222740 
#    y -0.120380 3.466630 -0.117500 
#    z -0.222740 -0.117500 3.174670 
# 
# 
# High freq. dielectric constant tensor:
#      x y z
#    x 1.731830 -0.009530 -0.022720 
#    y -0.009530 1.737220 -0.014670 
#    z -0.022720 -0.014670 1.712690 
# 
# From -- ./inp_files/251705.got.cif
#   From: 2010.06.25/outbox.cif.g09.slc.cpg/sg2_126_cif.got.tgz:251705.got - 2010.06.27 13:26:56.
