data_PCOD8002747
_publ_section_title
;
Structure prediction by ZEFSAII (Michael W. Deem and Ramdas Pophale) SiO2 
 PCOD8002747
Probable space group: P -1
;
_chemical_formula_sum "Si O2"
_cell_formula_units_Z 12
_cell_length_a 27.349297
_cell_length_b 27.312185
_cell_length_c 11.754134
_cell_angle_alpha 23.478922
_cell_angle_beta 158.368301
_cell_angle_gamma 169.726089
_cell_volume 576.837926
_symmetry_space_group_name_H-M "P -1"
_symmetry_group_IT_number 2
_symmetry_cell_setting 'triclinic'
loop_
_space_group_symop_operation_xyz
x,y,z
-x,-y,-z
loop_
_atom_site_type_symbol
_atom_site_label
_atom_site_fract_x
_atom_site_fract_y
_atom_site_fract_z
Si Si1 0.573005 0.705311 0.231566
Si Si2 0.268109 0.348953 0.724469
Si Si3 0.221696 0.192564 0.311980
Si Si4 0.105521 0.739759 0.808888
Si Si5 0.988617 0.767740 0.087915
Si Si6 0.236739 0.775856 0.767151
O O1 0.500000 0.500000 0.500000
O O2 0.728475 0.857579 0.365190
O O3 0.242767 0.485753 0.962805
O O4 0.795653 0.949588 0.100861
O O5 0.473885 0.578200 0.585235
O O6 0.019281 0.232036 0.486542
O O7 0.500000 0.500000 0.000000
O O8 0.072143 0.078594 0.820190
O O9 0.191858 0.309775 0.037846
O O10 0.128164 0.757957 0.682600
O O11 0.892994 0.466741 0.990438
O O12 0.419810 0.964109 0.060058
O O13 0.156714 0.790416 0.453919
#
# Coordination Sequence:
#
# PCOD8002747 Si02
#       6
#     2   2   2   2   2   2
#     4  10  20  36  58  88 119 149 190 242 291 334
#     4  12  24  38  59  85 118 153 188 229 289 359
#     4  11  22  37  58  86 120 149 182 240 295 339
#     4  10  22  39  57  84 116 152 192 233 290 335
#     4  11  20  36  63  90 114 148 199 239 287 339
#     4  10  21  38  61  83 113 151 194 243 276 335
#
# _framework density 20.803070999999999
#
# number of rings (size 3 to 8) (size 9 to 14) (size 15 to 20)
#    0.000    1.333    0.000    8.500    0.000    4.000 
#    0.000    0.000    0.000   20.000    0.000    0.000 
#    0.000    0.000    0.000    0.000    0.000    0.000 
#
# Total GULP energy -148656.851343 kJ/mol
# GULP energy per Si atom -12388.070945 kJ/mol
# Density = 2.075572 g / cm^3
# Si number density = 20.803071 Si / 1000 Ang^3
#
#
#
# Elastic Constant Matrix: (Units=GPa)
#
#
# Indices 1 2 3 4 5 6 
#
# 1 66.5209 59.2031 58.2659 20.6309 -0.7226 7.8187
# 2 59.2031 229.9119 96.5357 42.9507 -0.3379 18.9826
# 3 58.2659 96.5357 149.2210 41.3776 -9.8068 16.3167
# 4 20.6309 42.9507 41.3776 63.1787 1.0262 -3.7199
# 5 -0.7226 -0.3379 -9.8068 1.0262 23.7764 3.7567
# 6 7.8187 18.9826 16.3167 -3.7199 3.7567 46.3924
#
#
#
# Elastic Compliance Matrix: (Units=1/GPa)
#
#
# Indices 1 2 3 4 5 6 
#
# 1 0.024582 -0.002962 -0.007520 -0.001061 -0.002322 -0.000183
# 2 -0.002962 0.006644 -0.002473 -0.002004 -0.000699 -0.001454
# 3 -0.007520 -0.002473 0.013348 -0.004896 0.005973 -0.003292
# 4 -0.001061 -0.002004 -0.004896 0.021082 -0.003735 0.004714
# 5 -0.002322 -0.000699 0.005973 -0.003735 0.045457 -0.005404
# 6 -0.000183 -0.001454 -0.003292 0.004714 -0.005404 0.024154
#
#
# Mechanical properties :
#
#
# Convention : Reuss Voigt Hill
#
# Bulk Modulus (GPa) = 53.58356 97.07368 75.32862
# Shear Modulus (GPa) = 29.86903 42.11277 35.99090
#
# Velocity S-wave (km/s) = 3.79330 4.50416 4.16393
# Velocity P-wave (km/s) = 6.70813 8.59153 7.70757
#
# Compressibility (1/GPa) = 0.01866244
#
# Stress axis : x y z
#
# Youngs Moduli (GPa) = 40.68056 150.51242 74.91950
#
# Poissons Ratio (x) = 0.44587 0.56342
# Poissons Ratio (y) = 0.12051 0.18526
# Poissons Ratio (z) = 0.30593 0.37218
#
# Static dielectric constant tensor:
#      x y z
#    x 3.894930 -0.170700 -0.333300 
#    y -0.170700 4.185230 0.277680 
#    z -0.333300 0.277680 3.639890 
# 
# 
# High freq. dielectric constant tensor:
#      x y z
#    x 1.795940 0.003440 -0.026000 
#    y 0.003440 1.841070 0.013560 
#    z -0.026000 0.013560 1.801090 
# 
# From -- ./inp_files/62129.got.cif
#   From: 2010.06.25/outbox.cif.g09.slc.cpg/sg2_32_cif.got.tgz:62129.got - 2010.06.27 13:26:56.
