data_PCOD8002901
_publ_section_title
;
Structure prediction by ZEFSAII (Michael W. Deem and Ramdas Pophale) SiO2 
 PCOD8002901
Probable space group: P -1
;
_chemical_formula_sum "Si O2"
_cell_formula_units_Z 14
_cell_length_a 15.468249
_cell_length_b 25.439003
_cell_length_c 14.931459
_cell_angle_alpha 157.091039
_cell_angle_beta 161.022932
_cell_angle_gamma 18.988035
_cell_volume 601.192547
_symmetry_space_group_name_H-M "P -1"
_symmetry_group_IT_number 2
_symmetry_cell_setting 'triclinic'
loop_
_space_group_symop_operation_xyz
x,y,z
-x,-y,-z
loop_
_atom_site_type_symbol
_atom_site_label
_atom_site_fract_x
_atom_site_fract_y
_atom_site_fract_z
Si Si1 0.822032 0.586490 0.831233
Si Si2 0.379688 0.249075 0.924574
Si Si3 0.911498 0.327391 0.068925
Si Si4 0.493474 0.086345 0.526995
Si Si5 0.435428 0.292525 0.628881
Si Si6 0.643860 0.428468 0.772576
Si Si7 0.167161 0.799636 0.856682
O O1 0.586672 0.618678 0.568596
O O2 0.030657 0.392781 0.762602
O O3 0.605042 0.707139 0.889435
O O4 0.074896 0.625259 0.108579
O O5 0.689571 0.229979 0.150153
O O6 0.400055 0.081494 0.680369
O O7 0.743983 0.510771 0.232464
O O8 0.295687 0.241005 0.329402
O O9 0.808711 0.222593 0.859528
O O10 0.820534 0.327051 0.876568
O O11 0.384833 0.226254 0.566624
O O12 0.801708 0.061286 0.844716
O O13 0.203094 0.150938 0.418169
O O14 0.417520 0.626534 0.884039
#
# Coordination Sequence:
#
# PCOD8002901 Si02
#       7
#     2   2   2   2   2   2   2
#     4  10  24  40  63  86 114 165 211 239 287 344
#     4  10  24  43  60  86 123 163 205 247 285 355
#     4  10  20  36  60  86 123 149 193 244 297 358
#     4  12  23  38  60  90 128 155 193 244 308 358
#     4  10  21  34  58  91 118 156 188 237 307 362
#     4  11  21  39  63  88 120 154 203 250 288 353
#     4  11  23  36  59  92 121 159 191 244 304 362
#
# _framework density 23.287047999999999
#
# number of rings (size 3 to 8) (size 9 to 14) (size 15 to 20)
#    0.000    1.429    1.429    4.286    4.000    9.714 
#    0.000    0.000    0.000    5.143    0.000    0.000 
#    0.000    0.000    0.000    0.000    0.000    0.000 
#
# Total GULP energy -173579.219323 kJ/mol
# GULP energy per Si atom -12398.515666 kJ/mol
# Density = 2.323405 g / cm^3
# Si number density = 23.287048 Si / 1000 Ang^3
#
#
#
# Elastic Constant Matrix: (Units=GPa)
#
#
# Indices 1 2 3 4 5 6 
#
# 1 96.4389 35.5480 56.8641 -7.4570 -0.2936 -11.7130
# 2 35.5480 58.9136 48.5789 -7.3337 3.5038 -19.8090
# 3 56.8641 48.5789 141.0189 -25.3781 -2.5839 -3.2014
# 4 -7.4570 -7.3337 -25.3781 36.4208 3.9046 -6.6337
# 5 -0.2936 3.5038 -2.5839 3.9046 47.5102 -1.4839
# 6 -11.7130 -19.8090 -3.2014 -6.6337 -1.4839 29.5131
#
#
#
# Elastic Compliance Matrix: (Units=1/GPa)
#
#
# Indices 1 2 3 4 5 6 
#
# 1 0.014954 -0.004712 -0.004467 -0.000640 0.000317 0.002160
# 2 -0.004712 0.035198 -0.009062 0.004029 -0.002776 0.021537
# 3 -0.004467 -0.009062 0.012838 0.005167 0.000750 -0.005263
# 4 -0.000640 0.004029 0.005167 0.033918 -0.002479 0.010509
# 5 0.000317 -0.002776 0.000750 -0.002479 0.021464 -0.001134
# 6 0.002160 0.021537 -0.005263 0.010509 -0.001134 0.050930
#
#
# Mechanical properties :
#
#
# Convention : Reuss Voigt Hill
#
# Bulk Modulus (GPa) = 37.72457 64.26148 50.99302
# Shear Modulus (GPa) = 23.29697 33.04752 28.17225
#
# Velocity S-wave (km/s) = 3.16638 3.77123 3.48197
# Velocity P-wave (km/s) = 5.44086 6.82775 6.17338
#
# Compressibility (1/GPa) = 0.02650792
#
# Stress axis : x y z
#
# Youngs Moduli (GPa) = 66.87230 28.41090 77.89073
#
# Poissons Ratio (x) = 0.13387 0.34795
# Poissons Ratio (y) = 0.31510 0.70584
# Poissons Ratio (z) = 0.29873 0.25746
#
# Static dielectric constant tensor:
#      x y z
#    x 4.099650 0.046360 0.183820 
#    y 0.046360 4.048600 -0.245280 
#    z 0.183820 -0.245280 4.500010 
# 
# 
# High freq. dielectric constant tensor:
#      x y z
#    x 1.921850 0.008500 0.008710 
#    y 0.008500 1.886210 -0.019780 
#    z 0.008710 -0.019780 1.940680 
# 
# From -- ./inp_files/535735.got.cif
#   From: 2010.06.25/outbox.cif.g09.slc.cpg/sg2_268_cif.got.tgz:535735.got - 2010.06.27 13:26:56.
