data_PCOD8002839
_publ_section_title
;
Structure prediction by ZEFSAII (Michael W. Deem and Ramdas Pophale) SiO2 
 PCOD8002839
Probable space group: P -1
;
_chemical_formula_sum "Si O2"
_cell_formula_units_Z 16
_cell_length_a 12.737072
_cell_length_b 12.245769
_cell_length_c 9.013108
_cell_angle_alpha 89.973600
_cell_angle_beta 51.428788
_cell_angle_gamma 122.251920
_cell_volume 802.898518
_symmetry_space_group_name_H-M "P -1"
_symmetry_group_IT_number 2
_symmetry_cell_setting 'triclinic'
loop_
_space_group_symop_operation_xyz
x,y,z
-x,-y,-z
loop_
_atom_site_type_symbol
_atom_site_label
_atom_site_fract_x
_atom_site_fract_y
_atom_site_fract_z
Si Si1 0.845241 0.991126 0.074051
Si Si2 0.173380 0.528941 0.903416
Si Si3 0.196295 0.714681 0.462635
Si Si4 0.552320 0.306530 0.596985
Si Si5 0.481951 0.610455 0.075853
Si Si6 0.197542 0.605911 0.181578
Si Si7 0.020864 0.787456 0.803060
Si Si8 0.130890 0.092169 0.245024
O O1 0.647394 0.832400 0.291009
O O2 0.872191 0.119495 0.139491
O O3 0.869753 0.010393 0.871785
O O4 0.000000 0.000000 0.000000
O O5 0.319009 0.583133 0.649186
O O6 0.268402 0.656431 0.949394
O O7 0.000000 0.500000 0.000000
O O8 0.122327 0.384923 0.022513
O O9 0.369398 0.758678 0.393915
O O10 0.232615 0.734046 0.251244
O O11 0.165441 0.817894 0.555999
O O12 0.020014 0.538729 0.641796
O O13 0.538493 0.398167 0.726994
O O14 0.664526 0.779869 0.869854
O O15 0.500000 0.500000 0.000000
O O16 0.299507 0.560901 0.168187
O O17 0.919786 0.829088 0.806961
O O18 0.000000 0.000000 0.500000
#
# Coordination Sequence:
#
# PCOD8002839 Si02
#       8
#     2   2   2   2   2   2   2   2
#     4   9  21  40  58  82 118 163 195 245 290 348
#     4  11  20  37  57  94 120 151 192 240 295 358
#     4   9  17  34  53  82 112 154 183 240 291 339
#     4  10  20  36  60  83 124 156 192 243 296 347
#     4  10  20  36  59  89 112 155 201 242 294 349
#     4   9  18  31  54  78 123 143 183 239 294 332
#     4  10  20  38  60  85 120 151 200 240 296 350
#     4  10  22  41  59  81 118 155 201 249 290 345
#
# _framework density 19.927797999999999
#
# number of rings (size 3 to 8) (size 9 to 14) (size 15 to 20)
#    0.000    2.250    2.500    1.500    0.000    3.500 
#    2.250    8.750    0.000    3.000    0.000    0.000 
#    0.000    0.000    0.000    0.000    0.000    0.000 
#
# Total GULP energy -198232.240956 kJ/mol
# GULP energy per Si atom -12389.515060 kJ/mol
# Density = 1.988244 g / cm^3
# Si number density = 19.927798 Si / 1000 Ang^3
#
#
#
# Elastic Constant Matrix: (Units=GPa)
#
#
# Indices 1 2 3 4 5 6 
#
# 1 73.1902 30.9811 37.5562 -2.3289 -4.8135 14.3371
# 2 30.9811 100.4396 58.8333 37.6318 5.5000 20.5162
# 3 37.5562 58.8333 152.4537 22.1519 11.9704 14.0043
# 4 -2.3289 37.6318 22.1519 42.3568 6.9296 1.9829
# 5 -4.8135 5.5000 11.9704 6.9296 39.4454 2.3884
# 6 14.3371 20.5162 14.0043 1.9829 2.3884 28.8545
#
#
#
# Elastic Compliance Matrix: (Units=1/GPa)
#
#
# Indices 1 2 3 4 5 6 
#
# 1 0.019385 -0.006370 -0.003353 0.008174 0.003095 -0.004293
# 2 -0.006370 0.023174 -0.003804 -0.018639 0.001042 -0.010271
# 3 -0.003353 -0.003804 0.009208 -0.001225 -0.002469 0.000190
# 4 0.008174 -0.018639 -0.001225 0.041536 -0.003767 0.007244
# 5 0.003095 0.001042 -0.002469 -0.003767 0.027181 -0.003072
# 6 -0.004293 -0.010271 0.000190 0.007244 -0.003072 0.043757
#
#
# Mechanical properties :
#
#
# Convention : Reuss Voigt Hill
#
# Bulk Modulus (GPa) = 40.46637 64.53608 52.50123
# Shear Modulus (GPa) = 25.05858 35.37886 30.21872
#
# Velocity S-wave (km/s) = 3.54993 4.21806 3.89834
# Velocity P-wave (km/s) = 6.09534 7.49520 6.83122
#
# Compressibility (1/GPa) = 0.02471188
#
# Stress axis : x y z
#
# Youngs Moduli (GPa) = 51.58670 43.15233 108.60347
#
# Poissons Ratio (x) = 0.27489 0.36419
# Poissons Ratio (y) = 0.32861 0.41310
# Poissons Ratio (z) = 0.17299 0.16414
#
# Static dielectric constant tensor:
#      x y z
#    x 3.621410 0.541470 -0.018700 
#    y 0.541470 4.083290 0.642210 
#    z -0.018700 0.642210 3.969560 
# 
# 
# High freq. dielectric constant tensor:
#      x y z
#    x 1.770530 0.033230 -0.016640 
#    y 0.033230 1.763990 0.042440 
#    z -0.016640 0.042440 1.780210 
# 
# From -- ./inp_files/262461.got.cif
#   From: 2010.06.25/outbox.cif.g09.slc.cpg/sg2_132_cif.got.tgz:262461.got - 2010.06.27 13:26:56.
