data_PCOD8002762
_publ_section_title
;
Structure prediction by ZEFSAII (Michael W. Deem and Ramdas Pophale) SiO2 
 PCOD8002762
Probable space group: P -1
;
_chemical_formula_sum "Si O2"
_cell_formula_units_Z 14
_cell_length_a 18.993911
_cell_length_b 7.961754
_cell_length_c 5.629731
_cell_angle_alpha 102.123375
_cell_angle_beta 84.028555
_cell_angle_gamma 50.315196
_cell_volume 607.633047
_symmetry_space_group_name_H-M "P -1"
_symmetry_group_IT_number 2
_symmetry_cell_setting 'triclinic'
loop_
_space_group_symop_operation_xyz
x,y,z
-x,-y,-z
loop_
_atom_site_type_symbol
_atom_site_label
_atom_site_fract_x
_atom_site_fract_y
_atom_site_fract_z
Si Si1 0.479138 0.432760 0.240222
Si Si2 0.423290 0.051274 0.726188
Si Si3 0.314122 0.480245 0.212316
Si Si4 0.250340 0.330588 0.573479
Si Si5 0.081804 0.379894 0.627534
Si Si6 0.031285 0.182675 0.888605
Si Si7 0.133654 0.782893 0.070126
O O1 0.500000 0.500000 0.500000
O O2 0.536441 0.155587 0.160643
O O3 0.365760 0.567510 0.318824
O O4 0.500000 0.500000 0.000000
O O5 0.617437 0.707328 0.072161
O O6 0.500000 0.000000 0.500000
O O7 0.332580 0.108816 0.643368
O O8 0.308098 0.335683 0.355128
O O9 0.205768 0.708089 0.236644
O O10 0.182946 0.291639 0.471453
O O11 0.184351 0.573846 0.805784
O O12 0.096592 0.162326 0.655935
O O13 0.000000 0.500000 0.500000
O O14 0.047191 0.554895 0.908204
O O15 0.968277 0.131203 0.781226
O O16 0.106146 0.003381 0.012066
#
# Coordination Sequence:
#
# PCOD8002762 Si02
#       7
#     2   2   2   2   2   2   2
#     4  12  28  45  68 102 140 175 226 297 354 402
#     4  11  23  46  72  92 128 184 231 273 343 423
#     4  11  23  42  70  92 129 174 232 271 342 421
#     4  10  22  38  65  92 123 168 225 269 324 408
#     4  10  20  36  58  90 127 165 210 266 327 397
#     4   9  19  38  60  86 131 167 210 265 332 391
#     4   9  20  38  62  92 122 172 215 270 325 404
#
# _framework density 23.040220999999999
#
# number of rings (size 3 to 8) (size 9 to 14) (size 15 to 20)
#    0.000    1.714    1.429    2.143    4.000    3.429 
#    2.571    4.286    0.000    0.000    0.000    0.000 
#    0.000    0.000    0.000    0.000    0.000    0.000 
#
# Total GULP energy -173455.482873 kJ/mol
# GULP energy per Si atom -12389.677348 kJ/mol
# Density = 2.298778 g / cm^3
# Si number density = 23.040221 Si / 1000 Ang^3
#
#
#
# Elastic Constant Matrix: (Units=GPa)
#
#
# Indices 1 2 3 4 5 6 
#
# 1 188.4737 37.0710 57.0465 -33.8483 -5.6332 -20.1464
# 2 37.0710 91.6296 14.9304 -37.9670 -5.8798 -6.1694
# 3 57.0465 14.9304 88.0504 -28.1851 -12.1399 0.9930
# 4 -33.8483 -37.9670 -28.1851 43.0766 2.0317 -1.8959
# 5 -5.6332 -5.8798 -12.1399 2.0317 43.3881 -15.4554
# 6 -20.1464 -6.1694 0.9930 -1.8959 -15.4554 33.0460
#
#
#
# Elastic Compliance Matrix: (Units=1/GPa)
#
#
# Indices 1 2 3 4 5 6 
#
# 1 0.007829 -0.000706 -0.003729 0.003260 0.001781 0.005773
# 2 -0.000706 0.019164 0.003883 0.018925 0.005006 0.006458
# 3 -0.003729 0.003883 0.017517 0.011768 0.004672 0.000786
# 4 0.003260 0.018925 0.011768 0.050294 0.008152 0.011865
# 5 0.001781 0.005006 0.004672 0.008152 0.030861 0.016781
# 6 0.005773 0.006458 0.000786 0.011865 0.016781 0.043492
#
#
# Mechanical properties :
#
#
# Convention : Reuss Voigt Hill
#
# Bulk Modulus (GPa) = 23.03789 65.13882 44.08835
# Shear Modulus (GPa) = 27.06688 41.17588 34.12138
#
# Velocity S-wave (km/s) = 3.43121 4.23203 3.85248
# Velocity P-wave (km/s) = 5.07132 7.22588 6.24226
#
# Compressibility (1/GPa) = 0.04340675
#
# Stress axis : x y z
#
# Youngs Moduli (GPa) = 127.72959 52.18105 57.08859
#
# Poissons Ratio (x) = 0.03684 0.21286
# Poissons Ratio (y) = 0.09019 -0.22168
# Poissons Ratio (z) = 0.47625 -0.20263
#
# Static dielectric constant tensor:
#      x y z
#    x 4.723480 -0.098530 -0.056590 
#    y -0.098530 4.221460 -0.203260 
#    z -0.056590 -0.203260 4.139110 
# 
# 
# High freq. dielectric constant tensor:
#      x y z
#    x 1.924030 -0.012350 -0.003350 
#    y -0.012350 1.905780 -0.017540 
#    z -0.003350 -0.017540 1.897070 
# 
# From -- ./inp_files/104948.got.cif
#   From: 2010.06.25/outbox.cif.g09.slc.cpg/sg2_53_cif.got.tgz:104948.got - 2010.06.27 13:26:56.
