data_PCOD8002804
_publ_section_title
;
Structure prediction by ZEFSAII (Michael W. Deem and Ramdas Pophale) SiO2 
 PCOD8002804
Probable space group: P -1
;
_chemical_formula_sum "Si O2"
_cell_formula_units_Z 16
_cell_length_a 14.493301
_cell_length_b 7.697711
_cell_length_c 15.134677
_cell_angle_alpha 110.058593
_cell_angle_beta 33.504193
_cell_angle_gamma 89.945081
_cell_volume 729.223973
_symmetry_space_group_name_H-M "P -1"
_symmetry_group_IT_number 2
_symmetry_cell_setting 'triclinic'
loop_
_space_group_symop_operation_xyz
x,y,z
-x,-y,-z
loop_
_atom_site_type_symbol
_atom_site_label
_atom_site_fract_x
_atom_site_fract_y
_atom_site_fract_z
Si Si1 0.223735 0.677304 0.298166
Si Si2 0.970600 0.057315 0.135557
Si Si3 0.686427 0.062456 0.032562
Si Si4 0.262308 0.153259 0.713462
Si Si5 0.712227 0.632683 0.660094
Si Si6 0.873649 0.563406 0.798869
Si Si7 0.978910 0.444839 0.146173
Si Si8 0.237234 0.007048 0.240750
O O1 0.333835 0.513265 0.264400
O O2 0.232193 0.541911 0.181506
O O3 0.999688 0.852706 0.536961
O O4 0.328156 0.805246 0.205444
O O5 0.893435 0.317153 0.246261
O O6 0.812473 0.002567 0.287802
O O7 0.172965 0.909375 0.006890
O O8 0.000000 0.000000 0.000000
O O9 0.717521 0.825836 0.980615
O O10 0.719705 0.092468 0.908872
O O11 0.451746 0.261553 0.270323
O O12 0.199065 0.351131 0.729855
O O13 0.500000 0.000000 0.500000
O O14 0.165048 0.266548 0.904967
O O15 0.678920 0.838832 0.781559
O O16 0.936813 0.483155 0.418564
O O17 0.942775 0.461784 0.824838
#
# Coordination Sequence:
#
# PCOD8002804 Si02
#       8
#     2   2   2   2   2   2   2   2
#     4  10  20  36  60  82 119 163 195 245 301 341
#     4   9  21  41  62  87 123 157 193 246 307 355
#     4  11  21  37  63  84 117 158 201 245 296 360
#     4  10  21  41  67  90 119 155 198 254 303 356
#     4  11  21  39  57  87 120 157 203 246 292 348
#     4  10  20  38  59  84 124 158 194 246 297 350
#     4   9  21  39  62  91 123 156 198 242 307 362
#     4  10  20  36  59  85 119 157 204 243 292 356
#
# _framework density 21.941134000000002
#
# number of rings (size 3 to 8) (size 9 to 14) (size 15 to 20)
#    0.000    2.000    2.500    1.125    1.750    4.000 
#    0.000    6.250    0.000    0.000    0.000    0.000 
#    0.000    0.000    0.000    0.000    0.000    0.000 
#
# Total GULP energy -198275.324582 kJ/mol
# GULP energy per Si atom -12392.207786 kJ/mol
# Density = 2.189119 g / cm^3
# Si number density = 21.941134 Si / 1000 Ang^3
#
#
#
# Elastic Constant Matrix: (Units=GPa)
#
#
# Indices 1 2 3 4 5 6 
#
# 1 85.0716 25.7587 17.8027 8.8339 -10.6057 -18.9457
# 2 25.7587 125.0711 16.3815 12.6955 -14.0525 -14.1864
# 3 17.8027 16.3815 48.0206 17.1423 -13.5598 -7.4059
# 4 8.8339 12.6955 17.1423 18.8753 -5.2591 -2.0739
# 5 -10.6057 -14.0525 -13.5598 -5.2591 33.3703 -0.8696
# 6 -18.9457 -14.1864 -7.4059 -2.0739 -0.8696 30.2027
#
#
#
# Elastic Compliance Matrix: (Units=1/GPa)
#
#
# Indices 1 2 3 4 5 6 
#
# 1 0.015081 -0.001279 -0.002071 -0.002508 0.003234 0.008273
# 2 -0.001279 0.009440 0.000392 -0.004874 0.003051 0.003481
# 3 -0.002071 0.000392 0.034937 -0.027742 0.009483 0.005820
# 4 -0.002508 -0.004874 -0.027742 0.081682 -0.001383 -0.005096
# 5 0.003234 0.003051 0.009483 -0.001383 0.036090 0.006731
# 6 0.008273 0.003481 0.005820 -0.005096 0.006731 0.041205
#
#
# Mechanical properties :
#
#
# Convention : Reuss Voigt Hill
#
# Bulk Modulus (GPa) = 18.67627 42.00545 30.34086
# Shear Modulus (GPa) = 20.64433 29.70434 25.17434
#
# Velocity S-wave (km/s) = 3.07073 3.68342 3.39094
# Velocity P-wave (km/s) = 4.59380 6.10543 5.40274
#
# Compressibility (1/GPa) = 0.05354389
#
# Stress axis : x y z
#
# Youngs Moduli (GPa) = 66.30780 105.93411 28.62285
#
# Poissons Ratio (x) = 0.13544 0.05927
# Poissons Ratio (y) = 0.08478 -0.01122
# Poissons Ratio (z) = 0.13730 -0.04154
#
# Static dielectric constant tensor:
#      x y z
#    x 4.124720 0.053090 0.046410 
#    y 0.053090 4.442730 0.137450 
#    z 0.046410 0.137450 3.875330 
# 
# 
# High freq. dielectric constant tensor:
#      x y z
#    x 1.854660 -0.014140 -0.000760 
#    y -0.014140 1.870640 0.010880 
#    z -0.000760 0.010880 1.846410 
# 
# From -- ./inp_files/529983.got.cif
#   From: 2010.06.25/outbox.cif.g09.slc.cpg/sg2_265_cif.got.tgz:529983.got - 2010.06.27 13:26:56.
