data_PCOD8002946
_publ_section_title
;
Structure prediction by ZEFSAII (Michael W. Deem and Ramdas Pophale) SiO2 
 PCOD8002946
Probable space group: P -1
;
_chemical_formula_sum "Si O2"
_cell_formula_units_Z 16
_cell_length_a 12.432763
_cell_length_b 9.954487
_cell_length_c 8.757684
_cell_angle_alpha 131.098565
_cell_angle_beta 44.601751
_cell_angle_gamma 127.680547
_cell_volume 552.115836
_symmetry_space_group_name_H-M "P -1"
_symmetry_group_IT_number 2
_symmetry_cell_setting 'triclinic'
loop_
_space_group_symop_operation_xyz
x,y,z
-x,-y,-z
loop_
_atom_site_type_symbol
_atom_site_label
_atom_site_fract_x
_atom_site_fract_y
_atom_site_fract_z
Si Si1 0.437379 0.107873 0.276711
Si Si2 0.286848 0.246480 0.891793
Si Si3 0.095248 0.329318 0.401061
Si Si4 0.985596 0.902424 0.168896
Si Si5 0.688700 0.114897 0.280534
Si Si6 0.852678 0.570557 0.246423
Si Si7 0.740223 0.235102 0.649182
Si Si8 0.582060 0.426901 0.191288
O O1 0.422468 0.303496 0.352950
O O2 0.564609 0.158229 0.321615
O O3 0.275797 0.974972 0.418111
O O4 0.500000 0.000000 0.000000
O O5 0.226219 0.384275 0.172908
O O6 0.368834 0.107612 0.791377
O O7 0.408328 0.367634 0.731428
O O8 0.125414 0.116017 0.883187
O O9 0.922128 0.363937 0.570014
O O10 0.177416 0.442594 0.550718
O O11 0.060262 0.110961 0.302007
O O12 0.883984 0.783209 0.318875
O O13 0.134228 0.819591 0.917980
O O14 0.687176 0.226691 0.521932
O O15 0.709830 0.433530 0.198597
O O16 0.000000 0.500000 0.000000
O O17 0.616975 0.314037 0.927319
#
# Coordination Sequence:
#
# PCOD8002946 Si02
#       8
#     2   2   2   2   2   2   2   2
#     4  10  24  43  62  88 121 172 215 249 295 368
#     4  10  21  39  63  95 128 155 195 271 316 361
#     4  11  20  37  59  98 123 161 203 246 321 371
#     4  10  20  36  60  92 128 157 199 255 311 377
#     4  11  20  40  67  90 117 166 216 248 304 368
#     4  11  21  33  57  93 129 163 192 256 318 364
#     4  11  21  39  66  87 123 166 213 251 292 382
#     4  10  23  41  58  91 132 158 204 258 313 358
#
# _framework density 28.979423000000001
#
# number of rings (size 3 to 8) (size 9 to 14) (size 15 to 20)
#    0.000    1.500    3.750    2.250    1.750    2.500 
#    0.000    3.125    0.000    0.000    0.000    0.000 
#    0.000    0.000    0.000    0.000    0.000    0.000 
#
# Total GULP energy -198321.806241 kJ/mol
# GULP energy per Si atom -12395.112890 kJ/mol
# Density = 2.891346 g / cm^3
# Si number density = 28.979423 Si / 1000 Ang^3
#
#
#
# Elastic Constant Matrix: (Units=GPa)
#
#
# Indices 1 2 3 4 5 6 
#
# 1 58.1541 5.0443 39.4835 7.7765 37.4288 -5.3008
# 2 5.0443 151.3273 -5.3575 -46.4405 10.9793 -21.9057
# 3 39.4835 -5.3575 126.7371 -17.2373 43.9460 5.9545
# 4 7.7765 -46.4405 -17.2373 48.9565 -2.8525 6.5928
# 5 37.4288 10.9793 43.9460 -2.8525 45.8211 5.0938
# 6 -5.3008 -21.9057 5.9545 6.5928 5.0938 36.4633
#
#
#
# Elastic Compliance Matrix: (Units=1/GPa)
#
#
# Indices 1 2 3 4 5 6 
#
# 1 0.047015 -0.001608 -0.005009 -0.014772 -0.035729 0.014348
# 2 -0.001608 0.011414 0.004147 0.011626 -0.005182 0.004568
# 3 -0.005009 0.004147 0.014425 0.009341 -0.010058 -0.000876
# 4 -0.014772 0.011626 0.009341 0.037804 0.003116 -0.003959
# 5 -0.035729 -0.005182 -0.010058 0.003116 0.063888 -0.016153
# 6 0.014348 0.004568 -0.000876 -0.003959 -0.016153 0.035370
#
#
# Mechanical properties :
#
#
# Convention : Reuss Voigt Hill
#
# Bulk Modulus (GPa) = 14.72458 46.06211 30.39335
# Shear Modulus (GPa) = 21.05305 46.05140 33.55222
#
# Velocity S-wave (km/s) = 2.69826 3.99069 3.40633
# Velocity P-wave (km/s) = 3.84702 6.09618 5.09720
#
# Compressibility (1/GPa) = 0.06791364
#
# Stress axis : x y z
#
# Youngs Moduli (GPa) = 21.26970 87.61461 69.32171
#
# Poissons Ratio (x) = 0.14092 0.34724
# Poissons Ratio (y) = 0.03421 -0.28749
# Poissons Ratio (z) = 0.10654 -0.36335
#
# Static dielectric constant tensor:
#      x y z
#    x 5.029270 0.244170 0.125640 
#    y 0.244170 7.226010 -0.282470 
#    z 0.125640 -0.282470 5.654780 
# 
# 
# High freq. dielectric constant tensor:
#      x y z
#    x 2.148930 -0.011240 0.005540 
#    y -0.011240 2.203740 -0.007850 
#    z 0.005540 -0.007850 2.200020 
# 
# From -- ./inp_files/308469.got.cif
#   From: 2010.06.25/outbox.cif.g09.slc.cpg/sg2_155_cif.got.tgz:308469.got - 2010.06.27 13:26:56.
