data_PCOD8002676
_publ_section_title
;
Structure prediction by ZEFSAII (Michael W. Deem and Ramdas Pophale) SiO2 
 PCOD8002676
Probable space group: P -1
;
_chemical_formula_sum "Si O2"
_cell_formula_units_Z 16
_cell_length_a 8.340535
_cell_length_b 21.581891
_cell_length_c 21.335956
_cell_angle_alpha 161.176936
_cell_angle_beta 39.322692
_cell_angle_gamma 140.484631
_cell_volume 770.636742
_symmetry_space_group_name_H-M "P -1"
_symmetry_group_IT_number 2
_symmetry_cell_setting 'triclinic'
loop_
_space_group_symop_operation_xyz
x,y,z
-x,-y,-z
loop_
_atom_site_type_symbol
_atom_site_label
_atom_site_fract_x
_atom_site_fract_y
_atom_site_fract_z
Si Si1 0.072828 0.511465 0.756066
Si Si2 0.504137 0.760499 0.622770
Si Si3 0.538974 0.456332 0.815320
Si Si4 0.740123 0.258744 0.456058
Si Si5 0.387465 0.095414 0.753905
Si Si6 0.769658 0.452442 0.389326
Si Si7 0.917058 0.108805 0.820657
Si Si8 0.841995 0.916852 0.406995
O O1 0.266275 0.363854 0.565522
O O2 0.119574 0.624725 0.782420
O O3 0.769752 0.407264 0.743934
O O4 0.111444 0.665407 0.948764
O O5 0.349815 0.738774 0.584803
O O6 0.285118 0.707258 0.691584
O O7 0.643201 0.983311 0.804366
O O8 0.592803 0.404310 0.677771
O O9 0.270178 0.316941 0.782600
O O10 0.511147 0.681110 0.042284
O O11 0.045107 0.348338 0.452309
O O12 0.673956 0.040675 0.296294
O O13 0.135289 0.067932 0.762082
O O14 0.605784 0.030742 0.582779
O O15 0.500000 0.500000 0.500000
O O16 0.972268 0.044556 0.672053
O O17 0.000000 0.000000 0.500000
#
# Coordination Sequence:
#
# PCOD8002676 Si02
#       8
#     2   2   2   2   2   2   2   2
#     4   9  21  38  59  84 108 146 193 234 276 331
#     4  11  21  35  58  84 116 149 182 234 285 330
#     4   9  20  39  59  79 112 150 186 231 278 330
#     4  10  20  36  57  87 118 146 185 229 281 333
#     4  10  21  38  59  81 112 151 188 230 275 334
#     4   9  18  37  60  81 112 151 189 230 276 329
#     4  11  22  37  60  84 110 149 192 230 277 336
#     4  11  23  37  55  86 117 145 185 233 285 334
#
# _framework density 20.762052000000001
#
# number of rings (size 3 to 8) (size 9 to 14) (size 15 to 20)
#    0.000    2.000    0.000    5.250    0.000    6.000 
#    0.000    3.750    0.000   11.250    0.000    0.000 
#    0.000    0.000    0.000    0.000    0.000    0.000 
#
# Total GULP energy -198315.306804 kJ/mol
# GULP energy per Si atom -12394.706675 kJ/mol
# Density = 2.071480 g / cm^3
# Si number density = 20.762052 Si / 1000 Ang^3
#
#
#
# Elastic Constant Matrix: (Units=GPa)
#
#
# Indices 1 2 3 4 5 6 
#
# 1 91.0211 30.3225 29.4831 8.8482 18.5124 -4.6016
# 2 30.3225 98.1228 35.0599 22.9664 5.5699 3.7451
# 3 29.4831 35.0599 71.8475 14.0585 21.8902 3.0605
# 4 8.8482 22.9664 14.0585 24.9894 5.4429 6.2367
# 5 18.5124 5.5699 21.8902 5.4429 21.3323 -0.7753
# 6 -4.6016 3.7451 3.0605 6.2367 -0.7753 36.9494
#
#
#
# Elastic Compliance Matrix: (Units=1/GPa)
#
#
# Indices 1 2 3 4 5 6 
#
# 1 0.014864 -0.003814 -0.001176 0.000767 -0.010820 0.001979
# 2 -0.003814 0.015966 -0.006724 -0.011664 0.009040 0.000622
# 3 -0.001176 -0.006724 0.024997 -0.002184 -0.022376 -0.001636
# 4 0.000767 -0.011664 -0.002184 0.055902 -0.009939 -0.008186
# 5 -0.010820 0.009040 -0.022376 -0.009939 0.079511 0.002936
# 6 0.001979 0.000622 -0.001636 -0.008186 0.002936 0.028826
#
#
# Mechanical properties :
#
#
# Convention : Reuss Voigt Hill
#
# Bulk Modulus (GPa) = 30.86589 50.08029 40.47309
# Shear Modulus (GPa) = 19.66229 27.72929 23.69579
#
# Velocity S-wave (km/s) = 3.08072 3.65852 3.38198
# Velocity P-wave (km/s) = 5.24912 6.48227 5.89801
#
# Compressibility (1/GPa) = 0.03239823
#
# Stress axis : x y z
#
# Youngs Moduli (GPa) = 67.27590 62.63423 40.00490
#
# Poissons Ratio (x) = 0.23888 0.04705
# Poissons Ratio (y) = 0.25659 0.26900
# Poissons Ratio (z) = 0.07913 0.42117
#
# Static dielectric constant tensor:
#      x y z
#    x 3.736520 0.050940 0.156340 
#    y 0.050940 4.658380 -0.098570 
#    z 0.156340 -0.098570 3.749630 
# 
# 
# High freq. dielectric constant tensor:
#      x y z
#    x 1.816250 0.012050 0.015860 
#    y 0.012050 1.819230 0.003890 
#    z 0.015860 0.003890 1.795290 
# 
# From -- ./inp_files/591648.got.cif
#   From: 2010.06.25/outbox.cif.g09.slc.cpg/sg2_296_cif.got.tgz:591648.got - 2010.06.27 13:26:56.
