data_PCOD8002431
_publ_section_title
;
Structure prediction by ZEFSAII (Michael W. Deem and Ramdas Pophale) SiO2 
 PCOD8002431
Probable space group: P -1
;
_chemical_formula_sum "Si O2"
_cell_formula_units_Z 14
_cell_length_a 9.728806
_cell_length_b 9.774279
_cell_length_c 7.437795
_cell_angle_alpha 55.931701
_cell_angle_beta 77.038015
_cell_angle_gamma 54.937982
_cell_volume 474.581852
_symmetry_space_group_name_H-M "P -1"
_symmetry_group_IT_number 2
_symmetry_cell_setting 'triclinic'
loop_
_space_group_symop_operation_xyz
x,y,z
-x,-y,-z
loop_
_atom_site_type_symbol
_atom_site_label
_atom_site_fract_x
_atom_site_fract_y
_atom_site_fract_z
Si Si1 0.450814 0.217051 0.952351
Si Si2 0.854261 0.282201 0.661728
Si Si3 0.621151 0.728989 0.459392
Si Si4 0.036190 0.742007 0.896939
Si Si5 0.663688 0.336288 0.340059
Si Si6 0.816869 0.694915 0.746571
Si Si7 0.816283 0.009347 0.080066
O O1 0.448965 0.144391 0.800132
O O2 0.434171 0.426146 0.790704
O O3 0.628062 0.061897 0.115406
O O4 0.301449 0.232255 0.096266
O O5 0.780592 0.513458 0.510234
O O6 0.764017 0.234040 0.569243
O O7 0.819592 0.210322 0.918326
O O8 0.062110 0.149360 0.683828
O O9 0.474121 0.718508 0.609522
O O10 0.698521 0.809600 0.521562
O O11 0.960778 0.736721 0.723789
O O12 0.198942 0.754510 0.795034
O O13 0.891612 0.922205 0.922265
O O14 0.096624 0.539596 0.135856
#
# Coordination Sequence:
#
# PCOD8002431 Si02
#       7
#     2   2   2   2   2   2   2
#     4  10  21  39  64  90 123 159 208 250 308 355
#     4  10  20  35  61  93 125 156 201 251 322 353
#     4  11  19  41  68  93 117 165 204 258 295 372
#     4  10  23  41  60  90 127 162 205 249 308 363
#     4  10  20  40  63  91 120 159 208 254 295 374
#     4  10  23  43  62  89 125 169 207 243 298 384
#     4  11  20  37  60  91 129 155 196 265 308 356
#
# _framework density 29.499654
#
# number of rings (size 3 to 8) (size 9 to 14) (size 15 to 20)
#    0.000    1.714    4.286    0.857    0.000    5.714 
#    5.143    3.571    0.000    0.000    0.000    0.000 
#    0.000    0.000    0.000    0.000    0.000    0.000 
#
# Total GULP energy -173553.415532 kJ/mol
# GULP energy per Si atom -12396.672538 kJ/mol
# Density = 2.943251 g / cm^3
# Si number density = 29.499654 Si / 1000 Ang^3
#
#
#
# Elastic Constant Matrix: (Units=GPa)
#
#
# Indices 1 2 3 4 5 6 
#
# 1 125.9390 7.9231 14.2005 -13.5782 17.0281 -27.7413
# 2 7.9231 64.6423 9.4823 -4.4483 9.3285 -25.4269
# 3 14.2005 9.4823 101.1101 -6.6389 51.4004 -11.9863
# 4 -13.5782 -4.4483 -6.6389 38.0554 -8.2717 13.4552
# 5 17.0281 9.3285 51.4004 -8.2717 52.9376 -5.1168
# 6 -27.7413 -25.4269 -11.9863 13.4552 -5.1168 38.3352
#
#
#
# Elastic Compliance Matrix: (Units=1/GPa)
#
#
# Indices 1 2 3 4 5 6 
#
# 1 0.010199 0.002738 0.001688 0.000054 -0.004514 0.009103
# 2 0.002738 0.022561 0.002537 -0.003722 -0.006140 0.018226
# 3 0.001688 0.002537 0.020692 -0.002672 -0.020770 0.007540
# 4 0.000054 -0.003722 -0.002672 0.031648 0.006877 -0.013455
# 5 -0.004514 -0.006140 -0.020770 0.006877 0.041633 -0.010690
# 6 0.009103 0.018226 0.007540 -0.013455 -0.010690 0.050415
#
#
# Mechanical properties :
#
#
# Convention : Reuss Voigt Hill
#
# Bulk Modulus (GPa) = 14.84138 39.43368 27.13753
# Shear Modulus (GPa) = 26.92796 43.20467 35.06631
#
# Velocity S-wave (km/s) = 3.02457 3.83114 3.45150
# Velocity P-wave (km/s) = 4.15203 5.74166 5.01029
#
# Compressibility (1/GPa) = 0.06737918
#
# Stress axis : x y z
#
# Youngs Moduli (GPa) = 98.04807 44.32441 48.32691
#
# Poissons Ratio (x) = -0.12136 -0.08159
# Poissons Ratio (y) = -0.26847 -0.12260
# Poissons Ratio (z) = -0.16553 -0.11245
#
# Static dielectric constant tensor:
#      x y z
#    x 5.532670 -0.003980 0.401470 
#    y -0.003980 5.262260 -0.226710 
#    z 0.401470 -0.226710 5.507900 
# 
# 
# High freq. dielectric constant tensor:
#      x y z
#    x 2.212350 0.000150 0.020230 
#    y 0.000150 2.195120 -0.010810 
#    z 0.020230 -0.010810 2.215010 
# 
# From -- ./inp_files/158157.got.cif
#   From: 2010.06.25/outbox.cif.g09.slc.cpg/sg2_80_cif.got.tgz:158157.got - 2010.06.27 13:26:56.
