data_PCOD8002444
_publ_section_title
;
Structure prediction by ZEFSAII (Michael W. Deem and Ramdas Pophale) SiO2 
 PCOD8002444
Probable space group: P -1
;
_chemical_formula_sum "Si O2"
_cell_formula_units_Z 16
_cell_length_a 16.429683
_cell_length_b 9.972131
_cell_length_c 10.003246
_cell_angle_alpha 116.717399
_cell_angle_beta 34.480211
_cell_angle_gamma 114.781357
_cell_volume 824.940482
_symmetry_space_group_name_H-M "P -1"
_symmetry_group_IT_number 2
_symmetry_cell_setting 'triclinic'
loop_
_space_group_symop_operation_xyz
x,y,z
-x,-y,-z
loop_
_atom_site_type_symbol
_atom_site_label
_atom_site_fract_x
_atom_site_fract_y
_atom_site_fract_z
Si Si1 0.035662 0.681457 0.872891
Si Si2 0.178142 0.160210 0.382526
Si Si3 0.159817 0.605942 0.931322
Si Si4 0.240315 0.801620 0.426862
Si Si5 0.411459 0.415471 0.465291
Si Si6 0.865047 0.181763 0.718252
Si Si7 0.207320 0.142339 0.643734
Si Si8 0.477190 0.353831 0.056387
O O1 0.111413 0.714561 0.928618
O O2 0.148894 0.693761 0.604998
O O3 0.969854 0.507911 0.885416
O O4 0.916509 0.801343 0.066799
O O5 0.153430 0.165359 0.576471
O O6 0.320359 0.267789 0.198188
O O7 0.037589 0.212431 0.522391
O O8 0.197031 0.988452 0.238607
O O9 0.275956 0.508853 0.663423
O O10 0.218617 0.711742 0.022337
O O11 0.167699 0.776016 0.369644
O O12 0.237586 0.972670 0.558509
O O13 0.404454 0.761395 0.186160
O O14 0.500000 0.500000 0.500000
O O15 0.357047 0.246407 0.511593
O O16 0.497632 0.407164 0.206452
O O17 0.500000 0.500000 0.000000
#
# Coordination Sequence:
#
# PCOD8002444 Si02
#       8
#     2   2   2   2   2   2   2   2
#     4  10  20  36  57  85 114 150 193 234 287 344
#     4   9  20  39  61  85 118 156 191 235 292 347
#     4  10  20  35  62  80 110 158 193 231 287 343
#     4  11  23  36  60  90 114 153 192 242 294 336
#     4  10  21  38  58  84 114 149 196 238 278 345
#     4  10  20  37  62  91 111 148 202 246 279 330
#     4   9  19  38  61  82 113 153 194 239 283 342
#     4  11  24  41  58  83 124 157 186 235 301 356
#
# _framework density 19.395339
#
# number of rings (size 3 to 8) (size 9 to 14) (size 15 to 20)
#    0.000    2.000    1.250    1.875    3.500    6.000 
#    4.500    0.000    0.000    3.000    0.000    0.000 
#    0.000    0.000    0.000    0.000    0.000    0.000 
#
# Total GULP energy -198399.389800 kJ/mol
# GULP energy per Si atom -12399.961863 kJ/mol
# Density = 1.935119 g / cm^3
# Si number density = 19.395339 Si / 1000 Ang^3
#
#
#
# Elastic Constant Matrix: (Units=GPa)
#
#
# Indices 1 2 3 4 5 6 
#
# 1 76.8318 42.4404 16.7217 -7.0408 -1.4290 9.2982
# 2 42.4404 88.1603 39.6769 -2.0318 5.6835 -0.0747
# 3 16.7217 39.6769 95.5508 -3.9086 3.2935 -3.7729
# 4 -7.0408 -2.0318 -3.9086 31.1730 4.3725 1.5021
# 5 -1.4290 5.6835 3.2935 4.3725 29.5801 5.6052
# 6 9.2982 -0.0747 -3.7729 1.5021 5.6052 30.6513
#
#
#
# Elastic Compliance Matrix: (Units=1/GPa)
#
#
# Indices 1 2 3 4 5 6 
#
# 1 0.019508 -0.009710 0.000382 0.003654 0.003498 -0.006713
# 2 -0.009710 0.018918 -0.005959 -0.001317 -0.003818 0.003021
# 3 0.000382 -0.005959 0.013017 0.001365 -0.000781 0.001548
# 4 0.003654 -0.001317 0.001365 0.033688 -0.004362 -0.001797
# 5 0.003498 -0.003818 -0.000781 -0.004362 0.036900 -0.007701
# 6 -0.006713 0.003021 0.001548 -0.001797 -0.007701 0.036356
#
#
# Mechanical properties :
#
#
# Convention : Reuss Voigt Hill
#
# Bulk Modulus (GPa) = 47.91923 50.91341 49.41632
# Shear Modulus (GPa) = 25.52089 29.06114 27.29102
#
# Velocity S-wave (km/s) = 3.63137 3.87506 3.75519
# Velocity P-wave (km/s) = 6.50712 6.80653 6.65851
#
# Compressibility (1/GPa) = 0.02086845
#
# Stress axis : x y z
#
# Youngs Moduli (GPa) = 51.26002 52.86045 76.82157
#
# Poissons Ratio (x) = 0.51328 -0.02934
# Poissons Ratio (y) = 0.49774 0.45779
# Poissons Ratio (z) = -0.01958 0.31500
#
# Static dielectric constant tensor:
#      x y z
#    x 3.530000 0.212020 -0.095570 
#    y 0.212020 3.652770 0.104800 
#    z -0.095570 0.104800 3.609500 
# 
# 
# High freq. dielectric constant tensor:
#      x y z
#    x 1.743500 0.006060 -0.002790 
#    y 0.006060 1.757550 0.016100 
#    z -0.002790 0.016100 1.757490 
# 
# From -- ./inp_files/299081.got.cif
#   From: 2010.06.25/outbox.cif.g09.slc.cpg/sg2_150_cif.got.tgz:299081.got - 2010.06.27 13:26:56.
